MODEL 1
REMARK minimizedAffinity 12.3263378
REMARK minimizedRMSD -1
REMARK  0 active torsions:
REMARK  status: ('A' for Active; 'I' for Inactive)
ROOT
ATOM      1  C1  BNZ d   1      -5.053  -5.247  -2.626  0.00  0.00     0.000 A 
ATOM      2  C2  BNZ d   1      -5.417  -4.137  -3.341  0.00  0.00     0.000 A 
ATOM      3  C3  BNZ d   1      -4.585  -3.057  -3.428  0.00  0.00     0.000 A 
ATOM      4  C4  BNZ d   1      -3.409  -3.071  -2.768  0.00  0.00     0.000 A 
ATOM      5  C5  BNZ d   1      -3.031  -4.178  -2.036  0.00  0.00     0.000 A 
ATOM      6  C6  BNZ d   1      -3.855  -5.280  -1.982  0.00  0.00     0.000 A 
ENDROOT
TORSDOF 0
ENDMDL
