MODEL 1
REMARK minimizedAffinity 7.3554287
REMARK minimizedRMSD -1
REMARK  0 active torsions:
REMARK  status: ('A' for Active; 'I' for Inactive)
ROOT
ATOM      1  C1  BNZ d   1      -1.783  -3.531   1.650  0.00  0.00     0.000 A 
ATOM      2  C2  BNZ d   1      -1.460  -3.248   2.950  0.00  0.00     0.000 A 
ATOM      3  C3  BNZ d   1      -0.996  -2.011   3.302  0.00  0.00     0.000 A 
ATOM      4  C4  BNZ d   1      -0.818  -1.074   2.350  0.00  0.00     0.000 A 
ATOM      5  C5  BNZ d   1      -1.130  -1.347   1.033  0.00  0.00     0.000 A 
ATOM      6  C6  BNZ d   1      -1.634  -2.580   0.688  0.00  0.00     0.000 A 
ENDROOT
TORSDOF 0
ENDMDL
