MODEL 1
REMARK minimizedAffinity 8.60819721
REMARK minimizedRMSD -1
REMARK  0 active torsions:
REMARK  status: ('A' for Active; 'I' for Inactive)
ROOT
ATOM      1  C1  BNZ d   1      -5.248   2.454   5.999  0.00  0.00     0.000 A 
ATOM      2  C2  BNZ d   1      -4.441   2.933   5.002  0.00  0.00     0.000 A 
ATOM      3  C3  BNZ d   1      -4.095   2.144   3.941  0.00  0.00     0.000 A 
ATOM      4  C4  BNZ d   1      -4.523   0.865   3.898  0.00  0.00     0.000 A 
ATOM      5  C5  BNZ d   1      -5.330   0.365   4.901  0.00  0.00     0.000 A 
ATOM      6  C6  BNZ d   1      -5.708   1.174   5.947  0.00  0.00     0.000 A 
ENDROOT
TORSDOF 0
ENDMDL
