MODEL 1
REMARK minimizedAffinity 9.64724636
REMARK minimizedRMSD -1
REMARK  0 active torsions:
REMARK  status: ('A' for Active; 'I' for Inactive)
ROOT
ATOM      1  C1  BNZ d   1       4.500   4.450  -4.894  0.00  0.00     0.000 A 
ATOM      2  C2  BNZ d   1       3.935   5.460  -5.626  0.00  0.00     0.000 A 
ATOM      3  C3  BNZ d   1       2.622   5.403  -6.000  0.00  0.00     0.000 A 
ATOM      4  C4  BNZ d   1       1.886   4.320  -5.675  0.00  0.00     0.000 A 
ATOM      5  C5  BNZ d   1       2.444   3.290  -4.945  0.00  0.00     0.000 A 
ATOM      6  C6  BNZ d   1       3.756   3.368  -4.537  0.00  0.00     0.000 A 
ENDROOT
TORSDOF 0
ENDMDL
