MODEL 1
REMARK minimizedAffinity 3.44434547
REMARK minimizedRMSD -1
REMARK  0 active torsions:
REMARK  status: ('A' for Active; 'I' for Inactive)
ROOT
ATOM      1  C1  BNZ d   1      -1.765  -5.203  -2.899  0.00  0.00     0.000 A 
ATOM      2  C2  BNZ d   1      -1.741  -3.878  -3.243  0.00  0.00     0.000 A 
ATOM      3  C3  BNZ d   1      -2.843  -3.089  -3.068  0.00  0.00     0.000 A 
ATOM      4  C4  BNZ d   1      -3.979  -3.634  -2.586  0.00  0.00     0.000 A 
ATOM      5  C5  BNZ d   1      -4.022  -4.971  -2.243  0.00  0.00     0.000 A 
ATOM      6  C6  BNZ d   1      -2.899  -5.753  -2.385  0.00  0.00     0.000 A 
ENDROOT
TORSDOF 0
ENDMDL
