MODEL 1
REMARK minimizedAffinity 9.29237843
REMARK minimizedRMSD -1
REMARK  0 active torsions:
REMARK  status: ('A' for Active; 'I' for Inactive)
ROOT
ATOM      1  C1  BNZ d   1      -5.157  -3.704  -3.216  0.00  0.00     0.000 A 
ATOM      2  C2  BNZ d   1      -3.883  -3.208  -3.148  0.00  0.00     0.000 A 
ATOM      3  C3  BNZ d   1      -2.852  -3.987  -2.700  0.00  0.00     0.000 A 
ATOM      4  C4  BNZ d   1      -3.104  -5.244  -2.283  0.00  0.00     0.000 A 
ATOM      5  C5  BNZ d   1      -4.386  -5.755  -2.337  0.00  0.00     0.000 A 
ATOM      6  C6  BNZ d   1      -5.414  -4.982  -2.826  0.00  0.00     0.000 A 
ENDROOT
TORSDOF 0
ENDMDL
