MODEL 1
REMARK minimizedAffinity 1.33930051
REMARK minimizedRMSD -1
REMARK  0 active torsions:
REMARK  status: ('A' for Active; 'I' for Inactive)
ROOT
ATOM      1  C1  BNZ d   1       0.861   0.957   1.810  0.00  0.00     0.000 A 
ATOM      2  C2  BNZ d   1       1.547   1.725   0.907  0.00  0.00     0.000 A 
ATOM      3  C3  BNZ d   1       1.334   3.073   0.831  0.00  0.00     0.000 A 
ATOM      4  C4  BNZ d   1       0.408   3.644   1.628  0.00  0.00     0.000 A 
ATOM      5  C5  BNZ d   1      -0.298   2.881   2.536  0.00  0.00     0.000 A 
ATOM      6  C6  BNZ d   1      -0.054   1.531   2.637  0.00  0.00     0.000 A 
ENDROOT
TORSDOF 0
ENDMDL
