MODEL 1
REMARK minimizedAffinity 5.46686649
REMARK minimizedRMSD -1
REMARK  0 active torsions:
REMARK  status: ('A' for Active; 'I' for Inactive)
ROOT
ATOM      1  C1  BNZ d   1       4.184   4.345  -4.669  0.00  0.00     0.000 A 
ATOM      2  C2  BNZ d   1       5.253   3.630  -4.197  0.00  0.00     0.000 A 
ATOM      3  C3  BNZ d   1       5.080   2.387  -3.656  0.00  0.00     0.000 A 
ATOM      4  C4  BNZ d   1       3.836   1.877  -3.550  0.00  0.00     0.000 A 
ATOM      5  C5  BNZ d   1       2.747   2.589  -4.013  0.00  0.00     0.000 A 
ATOM      6  C6  BNZ d   1       2.929   3.824  -4.593  0.00  0.00     0.000 A 
ENDROOT
TORSDOF 0
ENDMDL
