MODEL 1
REMARK minimizedAffinity 6.13751507
REMARK minimizedRMSD -1
REMARK  0 active torsions:
REMARK  status: ('A' for Active; 'I' for Inactive)
ROOT
ATOM      1  C1  BNZ d   1       4.467   3.996  -4.870  0.00  0.00     0.000 A 
ATOM      2  C2  BNZ d   1       5.439   3.245  -4.264  0.00  0.00     0.000 A 
ATOM      3  C3  BNZ d   1       5.110   2.242  -3.396  0.00  0.00     0.000 A 
ATOM      4  C4  BNZ d   1       3.813   2.018  -3.103  0.00  0.00     0.000 A 
ATOM      5  C5  BNZ d   1       2.821   2.772  -3.698  0.00  0.00     0.000 A 
ATOM      6  C6  BNZ d   1       3.154   3.755  -4.601  0.00  0.00     0.000 A 
ENDROOT
TORSDOF 0
ENDMDL
