MODEL 1
REMARK minimizedAffinity 3.16470909
REMARK minimizedRMSD -1
REMARK  0 active torsions:
REMARK  status: ('A' for Active; 'I' for Inactive)
ROOT
ATOM      1  C1  BNZ d   1       1.220   2.583   1.455  0.00  0.00     0.000 A 
ATOM      2  C2  BNZ d   1       2.069   2.458   0.388  0.00  0.00     0.000 A 
ATOM      3  C3  BNZ d   1       2.457   1.226  -0.058  0.00  0.00     0.000 A 
ATOM      4  C4  BNZ d   1       2.029   0.122   0.589  0.00  0.00     0.000 A 
ATOM      5  C5  BNZ d   1       1.181   0.232   1.673  0.00  0.00     0.000 A 
ATOM      6  C6  BNZ d   1       0.761   1.472   2.094  0.00  0.00     0.000 A 
ENDROOT
TORSDOF 0
ENDMDL
