MODEL 1
REMARK minimizedAffinity -0.222305387
REMARK minimizedRMSD -1
REMARK  0 active torsions:
REMARK  status: ('A' for Active; 'I' for Inactive)
ROOT
ATOM      1  C1  BNZ d   1       3.627   5.440  -5.962  0.00  0.00     0.000 A 
ATOM      2  C2  BNZ d   1       4.883   5.984  -6.000  0.00  0.00     0.000 A 
ATOM      3  C3  BNZ d   1       5.991   5.195  -5.863  0.00  0.00     0.000 A 
ATOM      4  C4  BNZ d   1       5.841   3.872  -5.650  0.00  0.00     0.000 A 
ATOM      5  C5  BNZ d   1       4.581   3.310  -5.600  0.00  0.00     0.000 A 
ATOM      6  C6  BNZ d   1       3.469   4.101  -5.776  0.00  0.00     0.000 A 
ENDROOT
TORSDOF 0
ENDMDL
