MODEL 1
REMARK minimizedAffinity -4.62963772
REMARK minimizedRMSD -1
REMARK  0 active torsions:
REMARK  status: ('A' for Active; 'I' for Inactive)
ROOT
ATOM      1  N1  IND d   1       0.339  -0.090  -1.141  0.00  0.00    -0.196 N 
ATOM      2  C2  IND d   1       1.186  -0.962  -0.516  0.00  0.00     0.054 A 
ATOM      3  C3  IND d   1       0.975  -0.948   0.820  0.00  0.00    -0.031 A 
ATOM      4  C4  IND d   1      -0.777   0.354   2.185  0.00  0.00     0.051 A 
ATOM      5  C5  IND d   1      -1.750   1.306   2.060  0.00  0.00    -0.031 A 
ATOM      6  C6  IND d   1      -2.085   1.850   0.837  0.00  0.00     0.015 A 
ATOM      7  C7  IND d   1      -1.465   1.452  -0.314  0.00  0.00    -0.016 A 
ATOM      8  C8  IND d   1      -0.471   0.491  -0.190  0.00  0.00    -0.047 A 
ATOM      9  C9  IND d   1      -0.097  -0.034   1.054  0.00  0.00    -0.096 A 
ATOM     10  HN1 IND d   1       0.316   0.069  -1.985  0.00  0.00     0.298 HD
ENDROOT
TORSDOF 0
ENDMDL
