MODEL 1
REMARK minimizedAffinity -2.60168672
REMARK minimizedRMSD -1
REMARK  0 active torsions:
REMARK  status: ('A' for Active; 'I' for Inactive)
ROOT
ATOM      1  N1  IND d   1       0.857   0.772  -1.347  0.00  0.00    -0.196 N 
ATOM      2  C2  IND d   1       1.593  -0.379  -1.307  0.00  0.00     0.054 A 
ATOM      3  C3  IND d   1       1.337  -1.062  -0.168  0.00  0.00    -0.031 A 
ATOM      4  C4  IND d   1      -0.328  -0.525   1.720  0.00  0.00     0.051 A 
ATOM      5  C5  IND d   1      -1.199   0.437   2.147  0.00  0.00    -0.031 A 
ATOM      6  C6  IND d   1      -1.436   1.583   1.415  0.00  0.00     0.015 A 
ATOM      7  C7  IND d   1      -0.817   1.804   0.218  0.00  0.00    -0.016 A 
ATOM      8  C8  IND d   1       0.074   0.832  -0.215  0.00  0.00    -0.047 A 
ATOM      9  C9  IND d   1       0.350  -0.313   0.544  0.00  0.00    -0.096 A 
ATOM     10  HN1 IND d   1       0.880   1.360  -1.974  0.00  0.00     0.298 HD
ENDROOT
TORSDOF 0
ENDMDL
