MODEL 1
REMARK minimizedAffinity -5.40372896
REMARK minimizedRMSD -1
REMARK  0 active torsions:
REMARK  status: ('A' for Active; 'I' for Inactive)
ROOT
ATOM      1  N1  IND d   1       0.676   0.040  -0.056  0.00  0.00    -0.196 N 
ATOM      2  C2  IND d   1       0.370  -0.853   0.933  0.00  0.00     0.054 A 
ATOM      3  C3  IND d   1      -0.536  -0.321   1.784  0.00  0.00    -0.031 A 
ATOM      4  C4  IND d   1      -1.727   1.959   1.687  0.00  0.00     0.051 A 
ATOM      5  C5  IND d   1      -1.750   3.134   0.989  0.00  0.00    -0.031 A 
ATOM      6  C6  IND d   1      -0.951   3.340  -0.117  0.00  0.00     0.015 A 
ATOM      7  C7  IND d   1      -0.104   2.371  -0.575  0.00  0.00    -0.016 A 
ATOM      8  C8  IND d   1      -0.073   1.180   0.136  0.00  0.00    -0.047 A 
ATOM      9  C9  IND d   1      -0.850   0.980   1.284  0.00  0.00    -0.096 A 
ATOM     10  HN1 IND d   1       1.242  -0.089  -0.691  0.00  0.00     0.298 HD
ENDROOT
TORSDOF 0
ENDMDL
