MODEL 1
REMARK minimizedAffinity -5.57752514
REMARK minimizedRMSD -1
REMARK  0 active torsions:
REMARK  status: ('A' for Active; 'I' for Inactive)
ROOT
ATOM      1  N1  IND d   1       0.728   0.279  -0.729  0.00  0.00    -0.196 N 
ATOM      2  C2  IND d   1       0.404  -0.764   0.093  0.00  0.00     0.054 A 
ATOM      3  C3  IND d   1      -0.494  -0.369   1.023  0.00  0.00    -0.031 A 
ATOM      4  C4  IND d   1      -1.644   1.915   1.319  0.00  0.00     0.051 A 
ATOM      5  C5  IND d   1      -1.645   3.192   0.832  0.00  0.00    -0.031 A 
ATOM      6  C6  IND d   1      -0.840   3.570  -0.223  0.00  0.00     0.015 A 
ATOM      7  C7  IND d   1      -0.010   2.678  -0.841  0.00  0.00    -0.016 A 
ATOM      8  C8  IND d   1      -0.001   1.383  -0.344  0.00  0.00    -0.047 A 
ATOM      9  C9  IND d   1      -0.784   1.004   0.754  0.00  0.00    -0.096 A 
ATOM     10  HN1 IND d   1       1.293   0.251  -1.376  0.00  0.00     0.298 HD
ENDROOT
TORSDOF 0
ENDMDL
