MODEL 1
REMARK minimizedAffinity 0.737610936
REMARK minimizedRMSD -1
REMARK  0 active torsions:
REMARK  status: ('A' for Active; 'I' for Inactive)
ROOT
ATOM      1  N1  IND d   1       0.627   0.072  -1.269  0.00  0.00    -0.196 N 
ATOM      2  C2  IND d   1       1.174  -1.180  -1.205  0.00  0.00     0.054 A 
ATOM      3  C3  IND d   1       0.878  -1.762  -0.021  0.00  0.00    -0.031 A 
ATOM      4  C4  IND d   1      -0.572  -0.883   1.917  0.00  0.00     0.051 A 
ATOM      5  C5  IND d   1      -1.255   0.224   2.335  0.00  0.00    -0.031 A 
ATOM      6  C6  IND d   1      -1.349   1.359   1.556  0.00  0.00     0.015 A 
ATOM      7  C7  IND d   1      -0.772   1.425   0.320  0.00  0.00    -0.016 A 
ATOM      8  C8  IND d   1      -0.071   0.305  -0.105  0.00  0.00    -0.047 A 
ATOM      9  C9  IND d   1       0.064  -0.834   0.699  0.00  0.00    -0.096 A 
ATOM     10  HN1 IND d   1       0.707   0.621  -1.926  0.00  0.00     0.298 HD
ENDROOT
TORSDOF 0
ENDMDL
