MODEL 1
REMARK minimizedAffinity -5.51731253
REMARK minimizedRMSD -1
REMARK  0 active torsions:
REMARK  status: ('A' for Active; 'I' for Inactive)
ROOT
ATOM      1  N1  IND d   1       0.701   0.649  -1.211  0.00  0.00    -0.196 N 
ATOM      2  C2  IND d   1       0.491  -0.482  -0.472  0.00  0.00     0.054 A 
ATOM      3  C3  IND d   1      -0.471  -0.267   0.453  0.00  0.00    -0.031 A 
ATOM      4  C4  IND d   1      -1.905   1.831   0.866  0.00  0.00     0.051 A 
ATOM      5  C5  IND d   1      -2.053   3.130   0.466  0.00  0.00    -0.031 A 
ATOM      6  C6  IND d   1      -1.278   3.678  -0.535  0.00  0.00     0.015 A 
ATOM      7  C7  IND d   1      -0.328   2.941  -1.185  0.00  0.00    -0.016 A 
ATOM      8  C8  IND d   1      -0.170   1.624  -0.777  0.00  0.00    -0.047 A 
ATOM      9  C9  IND d   1      -0.924   1.075   0.268  0.00  0.00    -0.096 A 
ATOM     10  HN1 IND d   1       1.279   0.736  -1.841  0.00  0.00     0.298 HD
ENDROOT
TORSDOF 0
ENDMDL
