MODEL 1
REMARK minimizedAffinity -3.35522842
REMARK minimizedRMSD -1
REMARK  0 active torsions:
REMARK  status: ('A' for Active; 'I' for Inactive)
ROOT
ATOM      1  N1  IND d   1      -0.471  -0.508  -1.420  0.00  0.00    -0.196 N 
ATOM      2  C2  IND d   1       0.756  -1.062  -1.184  0.00  0.00     0.054 A 
ATOM      3  C3  IND d   1       1.182  -0.748   0.060  0.00  0.00    -0.031 A 
ATOM      4  C4  IND d   1      -0.016   0.577   1.914  0.00  0.00     0.051 A 
ATOM      5  C5  IND d   1      -1.143   1.312   2.156  0.00  0.00    -0.031 A 
ATOM      6  C6  IND d   1      -2.124   1.479   1.201  0.00  0.00     0.015 A 
ATOM      7  C7  IND d   1      -2.020   0.905  -0.035  0.00  0.00    -0.016 A 
ATOM      8  C8  IND d   1      -0.874   0.164  -0.287  0.00  0.00    -0.047 A 
ATOM      9  C9  IND d   1       0.144   0.026   0.665  0.00  0.00    -0.096 A 
ATOM     10  HN1 IND d   1      -0.917  -0.569  -2.153  0.00  0.00     0.298 HD
ENDROOT
TORSDOF 0
ENDMDL
