MODEL 1
REMARK minimizedAffinity -2.9684546
REMARK minimizedRMSD -1
REMARK  0 active torsions:
REMARK  status: ('A' for Active; 'I' for Inactive)
ROOT
ATOM      1  N1  IND d   1      -0.564  -0.174  -1.141  0.00  0.00    -0.196 N 
ATOM      2  C2  IND d   1       0.220   0.197  -0.084  0.00  0.00     0.054 A 
ATOM      3  C3  IND d   1       1.174  -0.733   0.143  0.00  0.00    -0.031 A 
ATOM      4  C4  IND d   1       1.700  -2.890  -1.160  0.00  0.00     0.051 A 
ATOM      5  C5  IND d   1       1.237  -3.671  -2.181  0.00  0.00    -0.031 A 
ATOM      6  C6  IND d   1       0.129  -3.318  -2.925  0.00  0.00     0.015 A 
ATOM      7  C7  IND d   1      -0.553  -2.160  -2.681  0.00  0.00    -0.016 A 
ATOM      8  C8  IND d   1      -0.090  -1.368  -1.640  0.00  0.00    -0.047 A 
ATOM      9  C9  IND d   1       1.008  -1.742  -0.855  0.00  0.00    -0.096 A 
ATOM     10  HN1 IND d   1      -1.239   0.264  -1.443  0.00  0.00     0.298 HD
ENDROOT
TORSDOF 0
ENDMDL
