MODEL 1
REMARK minimizedAffinity -3.27499509
REMARK minimizedRMSD -1
REMARK  0 active torsions:
REMARK  status: ('A' for Active; 'I' for Inactive)
ROOT
ATOM      1  N1  IND d   1       0.814  -0.953  -0.201  0.00  0.00    -0.196 N 
ATOM      2  C2  IND d   1       0.737  -0.529  -1.499  0.00  0.00     0.054 A 
ATOM      3  C3  IND d   1      -0.143   0.491  -1.609  0.00  0.00    -0.031 A 
ATOM      4  C4  IND d   1      -1.493   1.692   0.224  0.00  0.00     0.051 A 
ATOM      5  C5  IND d   1      -1.782   1.638   1.559  0.00  0.00    -0.031 A 
ATOM      6  C6  IND d   1      -1.208   0.701   2.392  0.00  0.00     0.015 A 
ATOM      7  C7  IND d   1      -0.309  -0.215   1.922  0.00  0.00    -0.016 A 
ATOM      8  C8  IND d   1      -0.018  -0.168   0.566  0.00  0.00    -0.047 A 
ATOM      9  C9  IND d   1      -0.630   0.754  -0.293  0.00  0.00    -0.096 A 
ATOM     10  HN1 IND d   1       1.300  -1.601   0.087  0.00  0.00     0.298 HD
ENDROOT
TORSDOF 0
ENDMDL
