MODEL 1
REMARK minimizedAffinity -1.96767533
REMARK minimizedRMSD -1
REMARK  0 active torsions:
REMARK  status: ('A' for Active; 'I' for Inactive)
ROOT
ATOM      1  N1  IND d   1      -1.350   2.233   0.445  0.00  0.00    -0.196 N 
ATOM      2  C2  IND d   1      -1.939   2.184   1.678  0.00  0.00     0.054 A 
ATOM      3  C3  IND d   1      -1.702   0.990   2.266  0.00  0.00    -0.031 A 
ATOM      4  C4  IND d   1      -0.290  -0.994   1.429  0.00  0.00     0.051 A 
ATOM      5  C5  IND d   1       0.414  -1.432   0.343  0.00  0.00    -0.031 A 
ATOM      6  C6  IND d   1       0.571  -0.655  -0.786  0.00  0.00     0.015 A 
ATOM      7  C7  IND d   1       0.038   0.600  -0.867  0.00  0.00    -0.016 A 
ATOM      8  C8  IND d   1      -0.684   1.046   0.231  0.00  0.00    -0.047 A 
ATOM      9  C9  IND d   1      -0.883   0.245   1.363  0.00  0.00    -0.096 A 
ATOM     10  HN1 IND d   1      -1.390   2.893  -0.104  0.00  0.00     0.298 HD
ENDROOT
TORSDOF 0
ENDMDL
