MODEL 1
REMARK minimizedAffinity -4.60077333
REMARK minimizedRMSD -1
REMARK  0 active torsions:
REMARK  status: ('A' for Active; 'I' for Inactive)
ROOT
ATOM      1  N1  IND d   1       0.918   1.339  -1.230  0.00  0.00    -0.196 N 
ATOM      2  C2  IND d   1       0.969   0.026  -0.856  0.00  0.00     0.054 A 
ATOM      3  C3  IND d   1       0.085  -0.215   0.138  0.00  0.00    -0.031 A 
ATOM      4  C4  IND d   1      -1.618   1.376   1.232  0.00  0.00     0.051 A 
ATOM      5  C5  IND d   1      -2.013   2.685   1.249  0.00  0.00    -0.031 A 
ATOM      6  C6  IND d   1      -1.442   3.630   0.422  0.00  0.00     0.015 A 
ATOM      7  C7  IND d   1      -0.457   3.298  -0.465  0.00  0.00    -0.016 A 
ATOM      8  C8  IND d   1      -0.048   1.972  -0.480  0.00  0.00    -0.047 A 
ATOM      9  C9  IND d   1      -0.595   1.017   0.387  0.00  0.00    -0.096 A 
ATOM     10  HN1 IND d   1       1.408   1.709  -1.833  0.00  0.00     0.298 HD
ENDROOT
TORSDOF 0
ENDMDL
