MODEL 1
REMARK minimizedAffinity -6.22982025
REMARK minimizedRMSD -1
REMARK  0 active torsions:
REMARK  status: ('A' for Active; 'I' for Inactive)
ROOT
ATOM      1  N1  IND d   1       0.659   0.594  -0.537  0.00  0.00    -0.196 N 
ATOM      2  C2  IND d   1       0.638  -0.506   0.274  0.00  0.00     0.054 A 
ATOM      3  C3  IND d   1      -0.197  -0.305   1.318  0.00  0.00    -0.031 A 
ATOM      4  C4  IND d   1      -1.709   1.713   1.837  0.00  0.00     0.051 A 
ATOM      5  C5  IND d   1      -2.008   2.975   1.405  0.00  0.00    -0.031 A 
ATOM      6  C6  IND d   1      -1.423   3.517   0.279  0.00  0.00     0.015 A 
ATOM      7  C7  IND d   1      -0.523   2.811  -0.467  0.00  0.00    -0.016 A 
ATOM      8  C8  IND d   1      -0.212   1.532  -0.027  0.00  0.00    -0.047 A 
ATOM      9  C9  IND d   1      -0.770   0.992   1.139  0.00  0.00    -0.096 A 
ATOM     10  HN1 IND d   1       1.135   0.685  -1.248  0.00  0.00     0.298 HD
ENDROOT
TORSDOF 0
ENDMDL
