MODEL 1
REMARK minimizedAffinity -5.5266614
REMARK minimizedRMSD -1
REMARK  0 active torsions:
REMARK  status: ('A' for Active; 'I' for Inactive)
ROOT
ATOM      1  N1  IND d   1       0.883   0.640  -0.256  0.00  0.00    -0.196 N 
ATOM      2  C2  IND d   1       0.544  -0.545   0.336  0.00  0.00     0.054 A 
ATOM      3  C3  IND d   1      -0.589  -0.402   1.060  0.00  0.00    -0.031 A 
ATOM      4  C4  IND d   1      -2.107   1.660   1.332  0.00  0.00     0.051 A 
ATOM      5  C5  IND d   1      -2.191   2.985   1.011  0.00  0.00    -0.031 A 
ATOM      6  C6  IND d   1      -1.236   3.609   0.234  0.00  0.00     0.015 A 
ATOM      7  C7  IND d   1      -0.164   2.925  -0.263  0.00  0.00    -0.016 A 
ATOM      8  C8  IND d   1      -0.072   1.580   0.066  0.00  0.00    -0.047 A 
ATOM      9  C9  IND d   1      -1.015   0.951   0.890  0.00  0.00    -0.096 A 
ATOM     10  HN1 IND d   1       1.576   0.776  -0.746  0.00  0.00     0.298 HD
ENDROOT
TORSDOF 0
ENDMDL
