MODEL 1
REMARK minimizedAffinity -4.27796316
REMARK minimizedRMSD -1
REMARK  0 active torsions:
REMARK  status: ('A' for Active; 'I' for Inactive)
ROOT
ATOM      1  N1  IND d   1      -0.169   2.562  -0.881  0.00  0.00    -0.196 N 
ATOM      2  C2  IND d   1      -0.909   3.541  -0.278  0.00  0.00     0.054 A 
ATOM      3  C3  IND d   1      -1.485   3.068   0.850  0.00  0.00    -0.031 A 
ATOM      4  C4  IND d   1      -1.266   0.751   1.951  0.00  0.00     0.051 A 
ATOM      5  C5  IND d   1      -0.728  -0.489   1.753  0.00  0.00    -0.031 A 
ATOM      6  C6  IND d   1       0.043  -0.781   0.645  0.00  0.00     0.015 A 
ATOM      7  C7  IND d   1       0.313   0.164  -0.303  0.00  0.00    -0.016 A 
ATOM      8  C8  IND d   1      -0.238   1.423  -0.109  0.00  0.00    -0.047 A 
ATOM      9  C9  IND d   1      -1.055   1.713   0.991  0.00  0.00    -0.096 A 
ATOM     10  HN1 IND d   1       0.266   2.644  -1.618  0.00  0.00     0.298 HD
ENDROOT
TORSDOF 0
ENDMDL
