MODEL 1
REMARK minimizedAffinity -5.54044962
REMARK minimizedRMSD -1
REMARK  0 active torsions:
REMARK  status: ('A' for Active; 'I' for Inactive)
ROOT
ATOM      1  N1  IND d   1       0.522  -0.113  -0.648  0.00  0.00    -0.196 N 
ATOM      2  C2  IND d   1       0.414  -1.167   0.216  0.00  0.00     0.054 A 
ATOM      3  C3  IND d   1      -0.357  -0.829   1.275  0.00  0.00    -0.031 A 
ATOM      4  C4  IND d   1      -1.623   1.363   1.742  0.00  0.00     0.051 A 
ATOM      5  C5  IND d   1      -1.800   2.629   1.259  0.00  0.00    -0.031 A 
ATOM      6  C6  IND d   1      -1.202   3.053   0.090  0.00  0.00     0.015 A 
ATOM      7  C7  IND d   1      -0.410   2.220  -0.648  0.00  0.00    -0.016 A 
ATOM      8  C8  IND d   1      -0.223   0.936  -0.157  0.00  0.00    -0.047 A 
ATOM      9  C9  IND d   1      -0.793   0.513   1.051  0.00  0.00    -0.096 A 
ATOM     10  HN1 IND d   1       0.979  -0.107  -1.376  0.00  0.00     0.298 HD
ENDROOT
TORSDOF 0
ENDMDL
