MODEL 1
REMARK minimizedAffinity -2.36479807
REMARK minimizedRMSD -1
REMARK  0 active torsions:
REMARK  status: ('A' for Active; 'I' for Inactive)
ROOT
ATOM      1  C   UNL d   1       0.824  -5.850  -0.320  0.00  0.00     0.078 C 
ATOM      2  C1  UNL d   1       0.587  -4.507  -0.943  0.00  0.00    -0.077 A 
ATOM      3  C2  UNL d   1      -0.437  -4.316  -1.880  0.00  0.00    -0.001 A 
ATOM      4  C3  UNL d   1      -0.639  -3.063  -2.460  0.00  0.00     0.003 A 
ATOM      5  C4  UNL d   1       0.179  -1.990  -2.111  0.00  0.00    -0.005 A 
ATOM      6  C5  UNL d   1       1.201  -2.170  -1.181  0.00  0.00     0.003 A 
ATOM      7  C6  UNL d   1       1.405  -3.423  -0.601  0.00  0.00    -0.001 A 
ENDROOT
TORSDOF 0
ENDMDL
