MODEL 1
REMARK minimizedAffinity -3.06146669
REMARK minimizedRMSD -1
REMARK  0 active torsions:
REMARK  status: ('A' for Active; 'I' for Inactive)
ROOT
ATOM      1  C   UNL d   1       0.954  -0.120  -0.742  0.00  0.00     0.078 C 
ATOM      2  C1  UNL d   1       0.699  -1.433  -1.420  0.00  0.00    -0.077 A 
ATOM      3  C2  UNL d   1       0.129  -1.486  -2.698  0.00  0.00    -0.001 A 
ATOM      4  C3  UNL d   1      -0.112  -2.716  -3.313  0.00  0.00     0.003 A 
ATOM      5  C4  UNL d   1       0.212  -3.902  -2.656  0.00  0.00    -0.005 A 
ATOM      6  C5  UNL d   1       0.777  -3.859  -1.383  0.00  0.00     0.003 A 
ATOM      7  C6  UNL d   1       1.019  -2.630  -0.767  0.00  0.00    -0.001 A 
ENDROOT
TORSDOF 0
ENDMDL
