MODEL 1
REMARK minimizedAffinity -3.44937992
REMARK minimizedRMSD -1
REMARK  0 active torsions:
REMARK  status: ('A' for Active; 'I' for Inactive)
ROOT
ATOM      1  C   UNL d   1      -0.009   4.008   0.091  0.00  0.00     0.078 C 
ATOM      2  C1  UNL d   1      -0.108   2.543   0.394  0.00  0.00    -0.077 A 
ATOM      3  C2  UNL d   1       0.526   1.594  -0.417  0.00  0.00    -0.001 A 
ATOM      4  C3  UNL d   1       0.416   0.233  -0.128  0.00  0.00     0.003 A 
ATOM      5  C4  UNL d   1      -0.327  -0.192   0.971  0.00  0.00    -0.005 A 
ATOM      6  C5  UNL d   1      -0.963   0.745   1.783  0.00  0.00     0.003 A 
ATOM      7  C6  UNL d   1      -0.855   2.107   1.496  0.00  0.00    -0.001 A 
ENDROOT
TORSDOF 0
ENDMDL
