MODEL 1
REMARK minimizedAffinity -2.61393213
REMARK minimizedRMSD -1
REMARK  0 active torsions:
REMARK  status: ('A' for Active; 'I' for Inactive)
ROOT
ATOM      1  C   UNL d   1       0.742   2.291  -0.956  0.00  0.00     0.078 C 
ATOM      2  C1  UNL d   1       0.433   1.374   0.190  0.00  0.00    -0.077 A 
ATOM      3  C2  UNL d   1       1.106   0.156   0.341  0.00  0.00    -0.001 A 
ATOM      4  C3  UNL d   1       0.800  -0.692   1.407  0.00  0.00     0.003 A 
ATOM      5  C4  UNL d   1      -0.180  -0.330   2.330  0.00  0.00    -0.005 A 
ATOM      6  C5  UNL d   1      -0.856   0.879   2.186  0.00  0.00     0.003 A 
ATOM      7  C6  UNL d   1      -0.552   1.728   1.121  0.00  0.00    -0.001 A 
ENDROOT
TORSDOF 0
ENDMDL
