MODEL 1
REMARK minimizedAffinity -1.71045315
REMARK minimizedRMSD -1
REMARK  0 active torsions:
REMARK  status: ('A' for Active; 'I' for Inactive)
ROOT
ATOM      1  C   UNL d   1       0.093   0.177  -0.118  0.00  0.00     0.078 C 
ATOM      2  C1  UNL d   1       0.262  -1.088  -0.906  0.00  0.00    -0.077 A 
ATOM      3  C2  UNL d   1       0.787  -2.243  -0.314  0.00  0.00    -0.001 A 
ATOM      4  C3  UNL d   1       0.947  -3.410  -1.062  0.00  0.00     0.003 A 
ATOM      5  C4  UNL d   1       0.585  -3.433  -2.408  0.00  0.00    -0.005 A 
ATOM      6  C5  UNL d   1       0.063  -2.289  -3.007  0.00  0.00     0.003 A 
ATOM      7  C6  UNL d   1      -0.097  -1.121  -2.260  0.00  0.00    -0.001 A 
ENDROOT
TORSDOF 0
ENDMDL
