MODEL 1
REMARK minimizedAffinity -2.33604312
REMARK minimizedRMSD -1
REMARK  0 active torsions:
REMARK  status: ('A' for Active; 'I' for Inactive)
ROOT
ATOM      1  C   UNL d   1       1.644  -1.650  -1.130  0.00  0.00     0.078 C 
ATOM      2  C1  UNL d   1       0.862  -0.846  -0.135  0.00  0.00    -0.077 A 
ATOM      3  C2  UNL d   1       0.853  -1.190   1.222  0.00  0.00    -0.001 A 
ATOM      4  C3  UNL d   1       0.112  -0.438   2.136  0.00  0.00     0.003 A 
ATOM      5  C4  UNL d   1      -0.625   0.662   1.702  0.00  0.00    -0.005 A 
ATOM      6  C5  UNL d   1      -0.624   1.010   0.353  0.00  0.00     0.003 A 
ATOM      7  C6  UNL d   1       0.116   0.259  -0.562  0.00  0.00    -0.001 A 
ENDROOT
TORSDOF 0
ENDMDL
