MODEL 1
REMARK minimizedAffinity -2.21088886
REMARK minimizedRMSD -1
REMARK  0 active torsions:
REMARK  status: ('A' for Active; 'I' for Inactive)
ROOT
ATOM      1  C   UNL d   1       1.303  -0.728  -0.514  0.00  0.00     0.078 C 
ATOM      2  C1  UNL d   1       0.742  -1.821  -1.374  0.00  0.00    -0.077 A 
ATOM      3  C2  UNL d   1       0.199  -1.539  -2.634  0.00  0.00    -0.001 A 
ATOM      4  C3  UNL d   1      -0.329  -2.565  -3.420  0.00  0.00     0.003 A 
ATOM      5  C4  UNL d   1      -0.321  -3.878  -2.954  0.00  0.00    -0.005 A 
ATOM      6  C5  UNL d   1       0.215  -4.167  -1.701  0.00  0.00     0.003 A 
ATOM      7  C6  UNL d   1       0.744  -3.143  -0.914  0.00  0.00    -0.001 A 
ENDROOT
TORSDOF 0
ENDMDL
