MODEL 1
REMARK minimizedAffinity -3.51206207
REMARK minimizedRMSD -1
REMARK  0 active torsions:
REMARK  status: ('A' for Active; 'I' for Inactive)
ROOT
ATOM      1  C   UNL d   1       0.633  -1.338  -0.894  0.00  0.00     0.078 C 
ATOM      2  C1  UNL d   1       0.024  -0.335   0.040  0.00  0.00    -0.077 A 
ATOM      3  C2  UNL d   1      -0.672  -0.744   1.185  0.00  0.00    -0.001 A 
ATOM      4  C3  UNL d   1      -1.241   0.201   2.039  0.00  0.00     0.003 A 
ATOM      5  C4  UNL d   1      -1.123   1.560   1.758  0.00  0.00    -0.005 A 
ATOM      6  C5  UNL d   1      -0.435   1.977   0.621  0.00  0.00     0.003 A 
ATOM      7  C6  UNL d   1       0.136   1.033  -0.235  0.00  0.00    -0.001 A 
ENDROOT
TORSDOF 0
ENDMDL
