MODEL 1
REMARK minimizedAffinity -3.06672573
REMARK minimizedRMSD -1
REMARK  0 active torsions:
REMARK  status: ('A' for Active; 'I' for Inactive)
ROOT
ATOM      1  C   UNL d   1       0.767  -1.137  -0.848  0.00  0.00     0.078 C 
ATOM      2  C1  UNL d   1       0.216   0.017  -0.065  0.00  0.00    -0.077 A 
ATOM      3  C2  UNL d   1      -0.315  -0.170   1.217  0.00  0.00    -0.001 A 
ATOM      4  C3  UNL d   1      -0.834   0.912   1.930  0.00  0.00     0.003 A 
ATOM      5  C4  UNL d   1      -0.828   2.188   1.369  0.00  0.00    -0.005 A 
ATOM      6  C5  UNL d   1      -0.304   2.383   0.093  0.00  0.00     0.003 A 
ATOM      7  C6  UNL d   1       0.216   1.302  -0.621  0.00  0.00    -0.001 A 
ENDROOT
TORSDOF 0
ENDMDL
