MODEL 1
REMARK minimizedAffinity -4.01553488
REMARK minimizedRMSD -1
REMARK  0 active torsions:
REMARK  status: ('A' for Active; 'I' for Inactive)
ROOT
ATOM      1  C   UNL d   1       0.048  -0.006  -0.030  0.00  0.00     0.078 C 
ATOM      2  C1  UNL d   1       0.264  -1.191  -0.923  0.00  0.00    -0.077 A 
ATOM      3  C2  UNL d   1      -0.678  -1.539  -1.899  0.00  0.00    -0.001 A 
ATOM      4  C3  UNL d   1      -0.469  -2.650  -2.717  0.00  0.00     0.003 A 
ATOM      5  C4  UNL d   1       0.682  -3.423  -2.567  0.00  0.00    -0.005 A 
ATOM      6  C5  UNL d   1       1.623  -3.085  -1.598  0.00  0.00     0.003 A 
ATOM      7  C6  UNL d   1       1.416  -1.974  -0.778  0.00  0.00    -0.001 A 
ENDROOT
TORSDOF 0
ENDMDL
