MODEL 1
REMARK minimizedAffinity -3.59840775
REMARK minimizedRMSD -1
REMARK  0 active torsions:
REMARK  status: ('A' for Active; 'I' for Inactive)
ROOT
ATOM      1  C   UNL d   1       0.388  -0.851  -0.259  0.00  0.00     0.078 C 
ATOM      2  C1  UNL d   1      -0.036   0.570  -0.039  0.00  0.00    -0.077 A 
ATOM      3  C2  UNL d   1       0.337   1.581  -0.933  0.00  0.00    -0.001 A 
ATOM      4  C3  UNL d   1      -0.057   2.901  -0.710  0.00  0.00     0.003 A 
ATOM      5  C4  UNL d   1      -0.825   3.223   0.407  0.00  0.00    -0.005 A 
ATOM      6  C5  UNL d   1      -1.199   2.225   1.303  0.00  0.00     0.003 A 
ATOM      7  C6  UNL d   1      -0.806   0.904   1.082  0.00  0.00    -0.001 A 
ENDROOT
TORSDOF 0
ENDMDL
