MODEL 1
REMARK minimizedAffinity -3.68092775
REMARK minimizedRMSD -1
REMARK  0 active torsions:
REMARK  status: ('A' for Active; 'I' for Inactive)
ROOT
ATOM      1  C   UNL d   1       0.340  -1.391  -1.147  0.00  0.00     0.078 C 
ATOM      2  C1  UNL d   1      -0.033  -0.340  -0.145  0.00  0.00    -0.077 A 
ATOM      3  C2  UNL d   1      -0.706  -0.675   1.036  0.00  0.00    -0.001 A 
ATOM      4  C3  UNL d   1      -1.055   0.315   1.956  0.00  0.00     0.003 A 
ATOM      5  C4  UNL d   1      -0.736   1.648   1.703  0.00  0.00    -0.005 A 
ATOM      6  C5  UNL d   1      -0.068   1.992   0.530  0.00  0.00     0.003 A 
ATOM      7  C6  UNL d   1       0.282   1.003  -0.391  0.00  0.00    -0.001 A 
ENDROOT
TORSDOF 0
ENDMDL
