MODEL 1
REMARK minimizedAffinity -0.229628116
REMARK minimizedRMSD -1
REMARK  0 active torsions:
REMARK  status: ('A' for Active; 'I' for Inactive)
ROOT
ATOM      1  C   UNL d   1       0.920   1.305  -1.188  0.00  0.00     0.078 C 
ATOM      2  C1  UNL d   1       0.190   0.830   0.034  0.00  0.00    -0.077 A 
ATOM      3  C2  UNL d   1      -0.319   1.740   0.968  0.00  0.00    -0.001 A 
ATOM      4  C3  UNL d   1      -0.987   1.284   2.106  0.00  0.00     0.003 A 
ATOM      5  C4  UNL d   1      -1.151  -0.083   2.320  0.00  0.00    -0.005 A 
ATOM      6  C5  UNL d   1      -0.646  -0.996   1.396  0.00  0.00     0.003 A 
ATOM      7  C6  UNL d   1       0.022  -0.542   0.259  0.00  0.00    -0.001 A 
ENDROOT
TORSDOF 0
ENDMDL
