MODEL 1
REMARK minimizedAffinity -4.7180047
REMARK minimizedRMSD -1
REMARK  0 active torsions:
REMARK  status: ('A' for Active; 'I' for Inactive)
ROOT
ATOM      1  C   UNL d   1       0.557  -0.851  -0.693  0.00  0.00     0.078 C 
ATOM      2  C1  UNL d   1      -0.175   0.187   0.104  0.00  0.00    -0.077 A 
ATOM      3  C2  UNL d   1      -0.850  -0.153   1.283  0.00  0.00    -0.001 A 
ATOM      4  C3  UNL d   1      -1.536   0.822   2.010  0.00  0.00     0.003 A 
ATOM      5  C4  UNL d   1      -1.556   2.142   1.564  0.00  0.00    -0.005 A 
ATOM      6  C5  UNL d   1      -0.890   2.489   0.391  0.00  0.00     0.003 A 
ATOM      7  C6  UNL d   1      -0.203   1.516  -0.337  0.00  0.00    -0.001 A 
ENDROOT
TORSDOF 0
ENDMDL
