MODEL 1
REMARK minimizedAffinity -2.1901474
REMARK minimizedRMSD -1
REMARK  1 active torsions:
REMARK  status: ('A' for Active; 'I' for Inactive)
REMARK    1  A    between atoms: C1_2  and  C2_3 
ROOT
ATOM      1  C2  UNL d   1       0.066   0.377  -0.287  0.00  0.00    -0.076 A 
ATOM      2  C3  UNL d   1       0.999  -0.339  -1.058  0.00  0.00     0.004 A 
ATOM      3  C4  UNL d   1       1.193  -1.705  -0.862  0.00  0.00    -0.003 A 
ATOM      4  C5  UNL d   1       0.458  -2.378   0.107  0.00  0.00     0.000 A 
ATOM      5  C6  UNL d   1      -0.483  -1.688   0.869  0.00  0.00     0.000 A 
ATOM      6  C7  UNL d   1      -0.704  -0.313   0.674  0.00  0.00    -0.073 A 
ATOM      7  C8  UNL d   1      -1.728   0.382   1.528  0.00  0.00     0.078 C 
ENDROOT
BRANCH   1   8
ATOM      8  C1  UNL d   1      -0.082   1.862  -0.525  0.00  0.00     0.053 C 
ATOM      9  C   UNL d   1       1.115   2.655  -0.025  0.00  0.00     0.018 C 
ENDBRANCH   1   8
TORSDOF 1
ENDMDL
