MODEL 1
REMARK minimizedAffinity -2.45280075
REMARK minimizedRMSD -1
REMARK  1 active torsions:
REMARK  status: ('A' for Active; 'I' for Inactive)
REMARK    1  A    between atoms: C1_2  and  C2_3 
ROOT
ATOM      1  C2  UNL d   1      -0.321  -0.888   0.282  0.00  0.00    -0.076 A 
ATOM      2  C3  UNL d   1      -0.762   0.020   1.261  0.00  0.00     0.004 A 
ATOM      3  C4  UNL d   1      -0.744   1.393   1.025  0.00  0.00    -0.003 A 
ATOM      4  C5  UNL d   1      -0.285   1.881  -0.194  0.00  0.00     0.000 A 
ATOM      5  C6  UNL d   1       0.140   0.994  -1.182  0.00  0.00     0.000 A 
ATOM      6  C7  UNL d   1       0.113  -0.394  -0.967  0.00  0.00    -0.073 A 
ATOM      7  C8  UNL d   1       0.588  -1.305  -2.065  0.00  0.00     0.078 C 
ENDROOT
BRANCH   1   8
ATOM      8  C1  UNL d   1      -0.338  -2.365   0.605  0.00  0.00     0.053 C 
ATOM      9  C   UNL d   1      -1.692  -3.005   0.337  0.00  0.00     0.018 C 
ENDBRANCH   1   8
TORSDOF 1
ENDMDL
