MODEL 1
REMARK minimizedAffinity -2.99850059
REMARK minimizedRMSD -1
REMARK  1 active torsions:
REMARK  status: ('A' for Active; 'I' for Inactive)
REMARK    1  A    between atoms: C1_2  and  C2_3 
ROOT
ATOM      1  C2  UNL d   1      -0.063  -1.018   0.178  0.00  0.00    -0.076 A 
ATOM      2  C3  UNL d   1      -0.533  -0.220   1.236  0.00  0.00     0.004 A 
ATOM      3  C4  UNL d   1      -0.457   1.170   1.175  0.00  0.00    -0.003 A 
ATOM      4  C5  UNL d   1       0.091   1.786   0.054  0.00  0.00     0.000 A 
ATOM      5  C6  UNL d   1       0.546   1.011  -1.012  0.00  0.00     0.000 A 
ATOM      6  C7  UNL d   1       0.461  -0.392  -0.973  0.00  0.00    -0.073 A 
ATOM      7  C8  UNL d   1       0.973  -1.178  -2.148  0.00  0.00     0.078 C 
ENDROOT
BRANCH   1   8
ATOM      8  C1  UNL d   1      -0.147  -2.521   0.312  0.00  0.00     0.053 C 
ATOM      9  C   UNL d   1      -1.579  -3.014   0.455  0.00  0.00     0.018 C 
ENDBRANCH   1   8
TORSDOF 1
ENDMDL
