MODEL 1
REMARK minimizedAffinity -3.46674919
REMARK minimizedRMSD -1
REMARK  1 active torsions:
REMARK  status: ('A' for Active; 'I' for Inactive)
REMARK    1  A    between atoms: C1_2  and  C2_3 
ROOT
ATOM      1  C2  UNL d   1      -0.191  -1.042   0.150  0.00  0.00    -0.076 A 
ATOM      2  C3  UNL d   1       0.685  -0.945  -0.944  0.00  0.00     0.004 A 
ATOM      3  C4  UNL d   1       1.009   0.293  -1.497  0.00  0.00    -0.003 A 
ATOM      4  C5  UNL d   1       0.461   1.455  -0.962  0.00  0.00     0.000 A 
ATOM      5  C6  UNL d   1      -0.396   1.378   0.134  0.00  0.00     0.000 A 
ATOM      6  C7  UNL d   1      -0.720   0.139   0.713  0.00  0.00    -0.073 A 
ATOM      7  C8  UNL d   1      -1.655   0.115   1.891  0.00  0.00     0.078 C 
ENDROOT
BRANCH   1   8
ATOM      8  C1  UNL d   1      -0.527  -2.414   0.690  0.00  0.00     0.053 C 
ATOM      9  C   UNL d   1       0.584  -3.424   0.445  0.00  0.00     0.018 C 
ENDBRANCH   1   8
TORSDOF 1
ENDMDL
