MODEL 1
REMARK minimizedAffinity -5.28707838
REMARK minimizedRMSD -1
REMARK  1 active torsions:
REMARK  status: ('A' for Active; 'I' for Inactive)
REMARK    1  A    between atoms: C1_2  and  C2_3 
ROOT
ATOM      1  C2  UNL d   1       0.680  -1.553  -0.476  0.00  0.00    -0.076 A 
ATOM      2  C3  UNL d   1       1.077  -1.588  -1.824  0.00  0.00     0.004 A 
ATOM      3  C4  UNL d   1       1.023  -0.443  -2.618  0.00  0.00    -0.003 A 
ATOM      4  C5  UNL d   1       0.572   0.755  -2.076  0.00  0.00     0.000 A 
ATOM      5  C6  UNL d   1       0.192   0.812  -0.735  0.00  0.00     0.000 A 
ATOM      6  C7  UNL d   1       0.255  -0.329   0.083  0.00  0.00    -0.073 A 
ATOM      7  C8  UNL d   1      -0.173  -0.212   1.520  0.00  0.00     0.078 C 
ENDROOT
BRANCH   1   8
ATOM      8  C1  UNL d   1       0.735  -2.832   0.328  0.00  0.00     0.053 C 
ATOM      9  C   UNL d   1      -0.616  -3.526   0.411  0.00  0.00     0.018 C 
ENDBRANCH   1   8
TORSDOF 1
ENDMDL
