MODEL 1
REMARK minimizedAffinity -1.86078799
REMARK minimizedRMSD -1
REMARK  1 active torsions:
REMARK  status: ('A' for Active; 'I' for Inactive)
REMARK    1  A    between atoms: C1_2  and  C2_3 
ROOT
ATOM      1  C2  UNL d   1      -0.266  -0.137  -0.229  0.00  0.00    -0.076 A 
ATOM      2  C3  UNL d   1      -0.494  -0.424   1.128  0.00  0.00     0.004 A 
ATOM      3  C4  UNL d   1      -0.510  -1.738   1.591  0.00  0.00    -0.003 A 
ATOM      4  C5  UNL d   1      -0.297  -2.788   0.704  0.00  0.00     0.000 A 
ATOM      5  C6  UNL d   1      -0.051  -2.522  -0.642  0.00  0.00     0.000 A 
ATOM      6  C7  UNL d   1      -0.016  -1.201  -1.122  0.00  0.00    -0.073 A 
ATOM      7  C8  UNL d   1       0.248  -0.972  -2.585  0.00  0.00     0.078 C 
ENDROOT
BRANCH   1   8
ATOM      8  C1  UNL d   1      -0.287   1.306  -0.678  0.00  0.00     0.053 C 
ATOM      9  C   UNL d   1       0.743   2.158   0.048  0.00  0.00     0.018 C 
ENDBRANCH   1   8
TORSDOF 1
ENDMDL
