MODEL 1
REMARK minimizedAffinity 1.59893382
REMARK minimizedRMSD -1
REMARK  1 active torsions:
REMARK  status: ('A' for Active; 'I' for Inactive)
REMARK    1  A    between atoms: C1_2  and  C2_3 
ROOT
ATOM      1  C2  UNL d   1      -0.327  -1.402   0.012  0.00  0.00    -0.076 A 
ATOM      2  C3  UNL d   1      -0.947  -0.540   0.933  0.00  0.00     0.004 A 
ATOM      3  C4  UNL d   1      -0.683   0.829   0.924  0.00  0.00    -0.003 A 
ATOM      4  C5  UNL d   1       0.205   1.357  -0.006  0.00  0.00     0.000 A 
ATOM      5  C6  UNL d   1       0.816   0.519  -0.938  0.00  0.00     0.000 A 
ATOM      6  C7  UNL d   1       0.548  -0.860  -0.954  0.00  0.00    -0.073 A 
ATOM      7  C8  UNL d   1       1.239  -1.719  -1.978  0.00  0.00     0.078 C 
ENDROOT
BRANCH   1   8
ATOM      8  C1  UNL d   1      -0.631  -2.881   0.087  0.00  0.00     0.053 C 
ATOM      9  C   UNL d   1      -2.123  -3.173   0.038  0.00  0.00     0.018 C 
ENDBRANCH   1   8
TORSDOF 1
ENDMDL
