MODEL 1
REMARK minimizedAffinity -5.58054495
REMARK minimizedRMSD -1
REMARK  1 active torsions:
REMARK  status: ('A' for Active; 'I' for Inactive)
REMARK    1  A    between atoms: C1_2  and  C2_3 
ROOT
ATOM      1  C2  UNL d   1      -0.267  -0.594  -0.304  0.00  0.00    -0.076 A 
ATOM      2  C3  UNL d   1      -0.258  -1.508   0.764  0.00  0.00     0.004 A 
ATOM      3  C4  UNL d   1      -0.026  -2.864   0.545  0.00  0.00    -0.003 A 
ATOM      4  C5  UNL d   1       0.201  -3.329  -0.745  0.00  0.00     0.000 A 
ATOM      5  C6  UNL d   1       0.213  -2.434  -1.814  0.00  0.00     0.000 A 
ATOM      6  C7  UNL d   1      -0.003  -1.061  -1.609  0.00  0.00    -0.073 A 
ATOM      7  C8  UNL d   1       0.015  -0.141  -2.799  0.00  0.00     0.078 C 
ENDROOT
BRANCH   1   8
ATOM      8  C1  UNL d   1      -0.551   0.862  -0.009  0.00  0.00     0.053 C 
ATOM      9  C   UNL d   1       0.719   1.677   0.177  0.00  0.00     0.018 C 
ENDBRANCH   1   8
TORSDOF 1
ENDMDL
