MODEL 1
REMARK minimizedAffinity -3.07454062
REMARK minimizedRMSD -1
REMARK  1 active torsions:
REMARK  status: ('A' for Active; 'I' for Inactive)
REMARK    1  A    between atoms: C1_2  and  C2_3 
ROOT
ATOM      1  C2  UNL d   1      -0.092  -0.051  -0.441  0.00  0.00    -0.076 A 
ATOM      2  C3  UNL d   1       0.785  -0.838  -1.207  0.00  0.00     0.004 A 
ATOM      3  C4  UNL d   1       0.955  -2.195  -0.934  0.00  0.00    -0.003 A 
ATOM      4  C5  UNL d   1       0.249  -2.786   0.107  0.00  0.00     0.000 A 
ATOM      5  C6  UNL d   1      -0.639  -2.024   0.866  0.00  0.00     0.000 A 
ATOM      6  C7  UNL d   1      -0.834  -0.659   0.594  0.00  0.00    -0.073 A 
ATOM      7  C8  UNL d   1      -1.799   0.117   1.448  0.00  0.00     0.078 C 
ENDROOT
BRANCH   1   8
ATOM      8  C1  UNL d   1      -0.214   1.421  -0.766  0.00  0.00     0.053 C 
ATOM      9  C   UNL d   1       0.869   2.256  -0.101  0.00  0.00     0.018 C 
ENDBRANCH   1   8
TORSDOF 1
ENDMDL
