MODEL 1
REMARK minimizedAffinity -5.04692078
REMARK minimizedRMSD -1
REMARK  1 active torsions:
REMARK  status: ('A' for Active; 'I' for Inactive)
REMARK    1  A    between atoms: C1_2  and  C2_3 
ROOT
ATOM      1  C2  UNL d   1      -0.116  -0.357  -0.486  0.00  0.00    -0.076 A 
ATOM      2  C3  UNL d   1       0.515  -1.341  -1.267  0.00  0.00     0.004 A 
ATOM      3  C4  UNL d   1       0.564  -2.668  -0.846  0.00  0.00    -0.003 A 
ATOM      4  C5  UNL d   1      -0.018  -3.034   0.363  0.00  0.00     0.000 A 
ATOM      5  C6  UNL d   1      -0.663  -2.074   1.142  0.00  0.00     0.000 A 
ATOM      6  C7  UNL d   1      -0.736  -0.734   0.724  0.00  0.00    -0.073 A 
ATOM      7  C8  UNL d   1      -1.439   0.260   1.607  0.00  0.00     0.078 C 
ENDROOT
BRANCH   1   8
ATOM      8  C1  UNL d   1      -0.113   1.072  -0.981  0.00  0.00     0.053 C 
ATOM      9  C   UNL d   1       1.092   1.858  -0.488  0.00  0.00     0.018 C 
ENDBRANCH   1   8
TORSDOF 1
ENDMDL
