MODEL 1
REMARK minimizedAffinity -3.89305258
REMARK minimizedRMSD -1
REMARK  1 active torsions:
REMARK  status: ('A' for Active; 'I' for Inactive)
REMARK    1  A    between atoms: C1_2  and  C2_3 
ROOT
ATOM      1  C2  UNL d   1       0.077   0.334   0.402  0.00  0.00    -0.076 A 
ATOM      2  C3  UNL d   1       0.757  -0.400  -0.586  0.00  0.00     0.004 A 
ATOM      3  C4  UNL d   1       0.632  -1.786  -0.663  0.00  0.00    -0.003 A 
ATOM      4  C5  UNL d   1      -0.175  -2.461   0.245  0.00  0.00     0.000 A 
ATOM      5  C6  UNL d   1      -0.871  -1.748   1.221  0.00  0.00     0.000 A 
ATOM      6  C7  UNL d   1      -0.769  -0.349   1.303  0.00  0.00    -0.073 A 
ATOM      7  C8  UNL d   1      -1.537   0.369   2.378  0.00  0.00     0.078 C 
ENDROOT
BRANCH   1   8
ATOM      8  C1  UNL d   1       0.271   1.832   0.454  0.00  0.00     0.053 C 
ATOM      9  C   UNL d   1       1.739   2.230   0.428  0.00  0.00     0.018 C 
ENDBRANCH   1   8
TORSDOF 1
ENDMDL
