MODEL 1
REMARK minimizedAffinity -3.006073
REMARK minimizedRMSD -1
REMARK  1 active torsions:
REMARK  status: ('A' for Active; 'I' for Inactive)
REMARK    1  A    between atoms: C1_2  and  C2_3 
ROOT
ATOM      1  C2  UNL d   1      -0.064   0.196   0.059  0.00  0.00    -0.076 A 
ATOM      2  C3  UNL d   1      -0.453  -0.150   1.365  0.00  0.00     0.004 A 
ATOM      3  C4  UNL d   1      -0.598  -1.485   1.741  0.00  0.00    -0.003 A 
ATOM      4  C5  UNL d   1      -0.356  -2.495   0.817  0.00  0.00     0.000 A 
ATOM      5  C6  UNL d   1       0.048  -2.171  -0.478  0.00  0.00     0.000 A 
ATOM      6  C7  UNL d   1       0.215  -0.831  -0.868  0.00  0.00    -0.073 A 
ATOM      7  C8  UNL d   1       0.647  -0.539  -2.279  0.00  0.00     0.078 C 
ENDROOT
BRANCH   1   8
ATOM      8  C1  UNL d   1       0.051   1.660  -0.299  0.00  0.00     0.053 C 
ATOM      9  C   UNL d   1       1.222   2.339   0.395  0.00  0.00     0.018 C 
ENDBRANCH   1   8
TORSDOF 1
ENDMDL
