MODEL 1
REMARK minimizedAffinity -4.01615191
REMARK minimizedRMSD -1
REMARK  1 active torsions:
REMARK  status: ('A' for Active; 'I' for Inactive)
REMARK    1  A    between atoms: C1_2  and  C2_3 
ROOT
ATOM      1  C2  UNL d   1      -0.235   0.027  -0.228  0.00  0.00    -0.076 A 
ATOM      2  C3  UNL d   1      -0.707   0.004   1.096  0.00  0.00     0.004 A 
ATOM      3  C4  UNL d   1      -1.048  -1.197   1.716  0.00  0.00    -0.003 A 
ATOM      4  C5  UNL d   1      -0.921  -2.395   1.023  0.00  0.00     0.000 A 
ATOM      5  C6  UNL d   1      -0.438  -2.394  -0.285  0.00  0.00     0.000 A 
ATOM      6  C7  UNL d   1      -0.075  -1.193  -0.919  0.00  0.00    -0.073 A 
ATOM      7  C8  UNL d   1       0.436  -1.249  -2.333  0.00  0.00     0.078 C 
ENDROOT
BRANCH   1   8
ATOM      8  C1  UNL d   1       0.093   1.361  -0.857  0.00  0.00     0.053 C 
ATOM      9  C   UNL d   1       0.760   2.318   0.119  0.00  0.00     0.018 C 
ENDBRANCH   1   8
TORSDOF 1
ENDMDL
