MODEL 1
REMARK minimizedAffinity -3.20330858
REMARK minimizedRMSD -1
REMARK  1 active torsions:
REMARK  status: ('A' for Active; 'I' for Inactive)
REMARK    1  A    between atoms: C1_2  and  C2_3 
ROOT
ATOM      1  C2  UNL d   1      -0.150   0.176  -0.130  0.00  0.00    -0.076 A 
ATOM      2  C3  UNL d   1       0.938  -0.646  -0.469  0.00  0.00     0.004 A 
ATOM      3  C4  UNL d   1       0.958  -1.994  -0.114  0.00  0.00    -0.003 A 
ATOM      4  C5  UNL d   1      -0.112  -2.541   0.586  0.00  0.00     0.000 A 
ATOM      5  C6  UNL d   1      -1.208  -1.744   0.916  0.00  0.00     0.000 A 
ATOM      6  C7  UNL d   1      -1.250  -0.388   0.551  0.00  0.00    -0.073 A 
ATOM      7  C8  UNL d   1      -2.454   0.426   0.938  0.00  0.00     0.078 C 
ENDROOT
BRANCH   1   8
ATOM      8  C1  UNL d   1      -0.103   1.637  -0.518  0.00  0.00     0.053 C 
ATOM      9  C   UNL d   1       1.159   2.330  -0.028  0.00  0.00     0.018 C 
ENDBRANCH   1   8
TORSDOF 1
ENDMDL
