MODEL 1
REMARK minimizedAffinity 5.17067194
REMARK minimizedRMSD -1
REMARK  0 active torsions:
REMARK  status: ('A' for Active; 'I' for Inactive)
ROOT
ATOM      1  C   UNL d   1       4.917  -5.253  -0.001  0.00  0.00     0.077 C 
ATOM      2  C1  UNL d   1       3.684  -4.482   0.364  0.00  0.00    -0.074 A 
ATOM      3  C2  UNL d   1       2.819  -4.939   1.363  0.00  0.00    -0.005 A 
ATOM      4  C3  UNL d   1       1.681  -4.206   1.699  0.00  0.00     0.006 A 
ATOM      5  C4  UNL d   1       1.396  -3.010   1.039  0.00  0.00    -0.005 A 
ATOM      6  C5  UNL d   1       2.249  -2.536   0.037  0.00  0.00    -0.074 A 
ATOM      7  C6  UNL d   1       1.963  -1.248  -0.675  0.00  0.00     0.077 C 
ATOM      8  C7  UNL d   1       3.395  -3.275  -0.289  0.00  0.00    -0.001 A 
ENDROOT
TORSDOF 0
ENDMDL
