MODEL 1
REMARK minimizedAffinity 0.693814695
REMARK minimizedRMSD -1
REMARK  0 active torsions:
REMARK  status: ('A' for Active; 'I' for Inactive)
ROOT
ATOM      1  C   UNL d   1       0.939  -0.504  -0.344  0.00  0.00     0.077 C 
ATOM      2  C1  UNL d   1      -0.068  -0.804   0.727  0.00  0.00    -0.074 A 
ATOM      3  C2  UNL d   1       0.256  -1.633   1.805  0.00  0.00    -0.005 A 
ATOM      4  C3  UNL d   1      -0.688  -1.895   2.799  0.00  0.00     0.006 A 
ATOM      5  C4  UNL d   1      -1.962  -1.332   2.723  0.00  0.00    -0.005 A 
ATOM      6  C5  UNL d   1      -2.304  -0.500   1.653  0.00  0.00    -0.074 A 
ATOM      7  C6  UNL d   1      -3.666   0.121   1.562  0.00  0.00     0.077 C 
ATOM      8  C7  UNL d   1      -1.348  -0.236   0.662  0.00  0.00    -0.001 A 
ENDROOT
TORSDOF 0
ENDMDL
