MODEL 1
REMARK minimizedAffinity -1.84266925
REMARK minimizedRMSD -1
REMARK  0 active torsions:
REMARK  status: ('A' for Active; 'I' for Inactive)
ROOT
ATOM      1  C   UNL d   1       3.344   1.895  -1.527  0.00  0.00     0.077 C 
ATOM      2  C1  UNL d   1       2.191   1.000  -1.183  0.00  0.00    -0.074 A 
ATOM      3  C2  UNL d   1       2.228  -0.366  -1.480  0.00  0.00    -0.005 A 
ATOM      4  C3  UNL d   1       1.152  -1.188  -1.144  0.00  0.00     0.006 A 
ATOM      5  C4  UNL d   1       0.030  -0.653  -0.510  0.00  0.00    -0.005 A 
ATOM      6  C5  UNL d   1      -0.024   0.711  -0.204  0.00  0.00    -0.074 A 
ATOM      7  C6  UNL d   1      -1.218   1.300   0.487  0.00  0.00     0.077 C 
ATOM      8  C7  UNL d   1       1.064   1.529  -0.538  0.00  0.00    -0.001 A 
ENDROOT
TORSDOF 0
ENDMDL
