MODEL 1
REMARK minimizedAffinity 3.72330189
REMARK minimizedRMSD -1
REMARK  0 active torsions:
REMARK  status: ('A' for Active; 'I' for Inactive)
ROOT
ATOM      1  C   UNL d   1      -3.203   0.246   2.268  0.00  0.00     0.077 C 
ATOM      2  C1  UNL d   1      -1.923  -0.495   2.020  0.00  0.00    -0.074 A 
ATOM      3  C2  UNL d   1      -1.318  -1.244   3.035  0.00  0.00    -0.005 A 
ATOM      4  C3  UNL d   1      -0.133  -1.936   2.788  0.00  0.00     0.006 A 
ATOM      5  C4  UNL d   1       0.458  -1.887   1.525  0.00  0.00    -0.005 A 
ATOM      6  C5  UNL d   1      -0.132  -1.145   0.497  0.00  0.00    -0.074 A 
ATOM      7  C6  UNL d   1       0.485  -1.090  -0.869  0.00  0.00     0.077 C 
ATOM      8  C7  UNL d   1      -1.327  -0.458   0.752  0.00  0.00    -0.001 A 
ENDROOT
TORSDOF 0
ENDMDL
