MODEL 1
REMARK minimizedAffinity 2.5890615
REMARK minimizedRMSD -1
REMARK  0 active torsions:
REMARK  status: ('A' for Active; 'I' for Inactive)
ROOT
ATOM      1  C   UNL d   1      -1.627  -3.399   2.940  0.00  0.00     0.077 C 
ATOM      2  C1  UNL d   1      -1.317  -2.028   2.417  0.00  0.00    -0.074 A 
ATOM      3  C2  UNL d   1      -0.508  -1.148   3.144  0.00  0.00    -0.005 A 
ATOM      4  C3  UNL d   1      -0.220   0.121   2.641  0.00  0.00     0.006 A 
ATOM      5  C4  UNL d   1      -0.738   0.522   1.409  0.00  0.00    -0.005 A 
ATOM      6  C5  UNL d   1      -1.548  -0.344   0.668  0.00  0.00    -0.074 A 
ATOM      7  C6  UNL d   1      -2.104   0.068  -0.663  0.00  0.00     0.077 C 
ATOM      8  C7  UNL d   1      -1.826  -1.620   1.177  0.00  0.00    -0.001 A 
ENDROOT
TORSDOF 0
ENDMDL
