MODEL 1
REMARK minimizedAffinity 3.64921021
REMARK minimizedRMSD -1
REMARK  0 active torsions:
REMARK  status: ('A' for Active; 'I' for Inactive)
ROOT
ATOM      1  C   UNL d   1       2.659  -3.612   0.533  0.00  0.00     0.077 C 
ATOM      2  C1  UNL d   1       1.660  -2.504   0.691  0.00  0.00    -0.074 A 
ATOM      3  C2  UNL d   1       1.489  -1.543  -0.311  0.00  0.00    -0.005 A 
ATOM      4  C3  UNL d   1       0.549  -0.524  -0.154  0.00  0.00     0.006 A 
ATOM      5  C4  UNL d   1      -0.228  -0.456   1.003  0.00  0.00    -0.005 A 
ATOM      6  C5  UNL d   1      -0.071  -1.409   2.014  0.00  0.00    -0.074 A 
ATOM      7  C6  UNL d   1      -0.905  -1.356   3.260  0.00  0.00     0.077 C 
ATOM      8  C7  UNL d   1       0.870  -2.434   1.847  0.00  0.00    -0.001 A 
ENDROOT
TORSDOF 0
ENDMDL
