MODEL 1
REMARK minimizedAffinity 3.03533983
REMARK minimizedRMSD -1
REMARK  0 active torsions:
REMARK  status: ('A' for Active; 'I' for Inactive)
ROOT
ATOM      1  C   UNL d   1      -0.675  -1.293   2.468  0.00  0.00     0.077 C 
ATOM      2  C1  UNL d   1       0.337  -1.528   1.386  0.00  0.00    -0.074 A 
ATOM      3  C2  UNL d   1       0.545  -0.582   0.378  0.00  0.00    -0.005 A 
ATOM      4  C3  UNL d   1       1.497  -0.810  -0.616  0.00  0.00     0.006 A 
ATOM      5  C4  UNL d   1       2.249  -1.985  -0.611  0.00  0.00    -0.005 A 
ATOM      6  C5  UNL d   1       2.056  -2.942   0.390  0.00  0.00    -0.074 A 
ATOM      7  C6  UNL d   1       2.864  -4.206   0.415  0.00  0.00     0.077 C 
ATOM      8  C7  UNL d   1       1.103  -2.703   1.389  0.00  0.00    -0.001 A 
ENDROOT
TORSDOF 0
ENDMDL
