MODEL 1
REMARK minimizedAffinity 0.358976871
REMARK minimizedRMSD -1
REMARK  0 active torsions:
REMARK  status: ('A' for Active; 'I' for Inactive)
ROOT
ATOM      1  C   UNL d   1       2.705  -3.625   0.195  0.00  0.00     0.077 C 
ATOM      2  C1  UNL d   1       1.576  -2.719   0.588  0.00  0.00    -0.074 A 
ATOM      3  C2  UNL d   1       1.252  -1.598  -0.182  0.00  0.00    -0.005 A 
ATOM      4  C3  UNL d   1       0.193  -0.770   0.191  0.00  0.00     0.006 A 
ATOM      5  C4  UNL d   1      -0.552  -1.055   1.336  0.00  0.00    -0.005 A 
ATOM      6  C5  UNL d   1      -0.244  -2.173   2.118  0.00  0.00    -0.074 A 
ATOM      7  C6  UNL d   1      -1.040  -2.499   3.346  0.00  0.00     0.077 C 
ATOM      8  C7  UNL d   1       0.818  -3.003   1.733  0.00  0.00    -0.001 A 
ENDROOT
TORSDOF 0
ENDMDL
