MODEL 1
REMARK minimizedAffinity 4.52274561
REMARK minimizedRMSD -1
REMARK  3 active torsions:
REMARK  status: ('A' for Active; 'I' for Inactive)
REMARK    1  A    between atoms: C3'_2  and  C2'_3 
REMARK    2  A    between atoms: C2'_3  and  C1'_4 
REMARK    3  A    between atoms: C1'_4  and  C1_5 
ROOT
ATOM      1  C1  N4B d   1       5.328  -3.795  -3.332  0.00  0.00    -0.075 A 
ATOM      2  C2  N4B d   1       4.525  -4.891  -2.946  0.00  0.00     0.002 A 
ATOM      3  C3  N4B d   1       4.417  -5.986  -3.768  0.00  0.00     0.002 A 
ATOM      4  C4  N4B d   1       5.085  -6.000  -4.983  0.00  0.00    -0.004 A 
ATOM      5  C5  N4B d   1       5.879  -4.948  -5.337  0.00  0.00     0.002 A 
ATOM      6  C6  N4B d   1       6.000  -3.843  -4.519  0.00  0.00     0.002 A 
ENDROOT
BRANCH   1   7
ATOM      7  C1' N4B d   1       5.409  -2.540  -2.507  0.00  0.00     0.057 C 
BRANCH   7   8
ATOM      8  C2' N4B d   1       4.210  -2.482  -1.564  0.00  0.00     0.009 C 
BRANCH   8   9
ATOM      9  C3' N4B d   1       3.689  -1.066  -1.394  0.00  0.00     0.004 C 
ATOM     10  C4' N4B d   1       3.290  -0.760   0.019  0.00  0.00     0.003 C 
ENDBRANCH   8   9
ENDBRANCH   7   8
ENDBRANCH   1   7
TORSDOF 3
ENDMDL
