MODEL 1
REMARK minimizedAffinity 0.733326674
REMARK minimizedRMSD -1
REMARK  3 active torsions:
REMARK  status: ('A' for Active; 'I' for Inactive)
REMARK    1  A    between atoms: C3'_2  and  C2'_3 
REMARK    2  A    between atoms: C2'_3  and  C1'_4 
REMARK    3  A    between atoms: C1'_4  and  C1_5 
ROOT
ATOM      1  C1  N4B d   1       3.688  -5.996  -3.324  0.00  0.00    -0.075 A 
ATOM      2  C2  N4B d   1       2.328  -6.000  -3.706  0.00  0.00     0.002 A 
ATOM      3  C3  N4B d   1       1.989  -5.988  -5.037  0.00  0.00     0.002 A 
ATOM      4  C4  N4B d   1       2.988  -5.953  -5.999  0.00  0.00    -0.004 A 
ATOM      5  C5  N4B d   1       4.299  -5.975  -5.621  0.00  0.00     0.002 A 
ATOM      6  C6  N4B d   1       4.654  -5.991  -4.288  0.00  0.00     0.002 A 
ENDROOT
BRANCH   1   7
ATOM      7  C1' N4B d   1       4.106  -5.921  -1.881  0.00  0.00     0.057 C 
BRANCH   7   8
ATOM      8  C2' N4B d   1       3.678  -4.575  -1.304  0.00  0.00     0.009 C 
BRANCH   8   9
ATOM      9  C3' N4B d   1       4.205  -3.411  -2.125  0.00  0.00     0.004 C 
ATOM     10  C4' N4B d   1       3.836  -2.078  -1.546  0.00  0.00     0.003 C 
ENDBRANCH   8   9
ENDBRANCH   7   8
ENDBRANCH   1   7
TORSDOF 3
ENDMDL
