MODEL 1
REMARK minimizedAffinity -0.635955751
REMARK minimizedRMSD -1
REMARK  3 active torsions:
REMARK  status: ('A' for Active; 'I' for Inactive)
REMARK    1  A    between atoms: C3'_2  and  C2'_3 
REMARK    2  A    between atoms: C2'_3  and  C1'_4 
REMARK    3  A    between atoms: C1'_4  and  C1_5 
ROOT
ATOM      1  C1  N4B d   1       5.491  -3.343  -3.307  0.00  0.00    -0.075 A 
ATOM      2  C2  N4B d   1       4.873  -4.275  -2.445  0.00  0.00     0.002 A 
ATOM      3  C3  N4B d   1       4.778  -5.594  -2.815  0.00  0.00     0.002 A 
ATOM      4  C4  N4B d   1       5.275  -5.999  -4.045  0.00  0.00    -0.004 A 
ATOM      5  C5  N4B d   1       5.893  -5.097  -4.861  0.00  0.00     0.002 A 
ATOM      6  C6  N4B d   1       5.999  -3.769  -4.500  0.00  0.00     0.002 A 
ENDROOT
BRANCH   1   7
ATOM      7  C1' N4B d   1       5.541  -1.874  -2.984  0.00  0.00     0.057 C 
BRANCH   7   8
ATOM      8  C2' N4B d   1       4.334  -1.509  -2.125  0.00  0.00     0.009 C 
BRANCH   8   9
ATOM      9  C3' N4B d   1       3.275  -0.764  -2.920  0.00  0.00     0.004 C 
ATOM     10  C4' N4B d   1       3.817   0.450  -3.614  0.00  0.00     0.003 C 
ENDBRANCH   8   9
ENDBRANCH   7   8
ENDBRANCH   1   7
TORSDOF 3
ENDMDL
