MODEL 1
REMARK minimizedAffinity 0.993794084
REMARK minimizedRMSD -1
REMARK  3 active torsions:
REMARK  status: ('A' for Active; 'I' for Inactive)
REMARK    1  A    between atoms: C3'_2  and  C2'_3 
REMARK    2  A    between atoms: C2'_3  and  C1'_4 
REMARK    3  A    between atoms: C1'_4  and  C1_5 
ROOT
ATOM      1  C1  N4B d   1       4.027  -3.614  -2.728  0.00  0.00    -0.075 A 
ATOM      2  C2  N4B d   1       3.688  -4.393  -1.600  0.00  0.00     0.002 A 
ATOM      3  C3  N4B d   1       3.019  -5.582  -1.763  0.00  0.00     0.002 A 
ATOM      4  C4  N4B d   1       2.663  -6.000  -3.036  0.00  0.00    -0.004 A 
ATOM      5  C5  N4B d   1       3.017  -5.253  -4.122  0.00  0.00     0.002 A 
ATOM      6  C6  N4B d   1       3.693  -4.059  -3.974  0.00  0.00     0.002 A 
ENDROOT
BRANCH   1   7
ATOM      7  C1' N4B d   1       4.682  -2.267  -2.594  0.00  0.00     0.057 C 
BRANCH   7   8
ATOM      8  C2' N4B d   1       3.704  -1.297  -1.938  0.00  0.00     0.009 C 
BRANCH   8   9
ATOM      9  C3' N4B d   1       2.728  -0.709  -2.941  0.00  0.00     0.004 C 
ATOM     10  C4' N4B d   1       3.411   0.034  -4.051  0.00  0.00     0.003 C 
ENDBRANCH   8   9
ENDBRANCH   7   8
ENDBRANCH   1   7
TORSDOF 3
ENDMDL
