MODEL 1
REMARK minimizedAffinity 1.70842421
REMARK minimizedRMSD -1
REMARK  3 active torsions:
REMARK  status: ('A' for Active; 'I' for Inactive)
REMARK    1  A    between atoms: C3'_2  and  C2'_3 
REMARK    2  A    between atoms: C2'_3  and  C1'_4 
REMARK    3  A    between atoms: C1'_4  and  C1_5 
ROOT
ATOM      1  C1  N4B d   1       3.852  -5.811  -3.537  0.00  0.00    -0.075 A 
ATOM      2  C2  N4B d   1       4.600  -5.513  -4.697  0.00  0.00     0.002 A 
ATOM      3  C3  N4B d   1       3.971  -5.427  -5.915  0.00  0.00     0.002 A 
ATOM      4  C4  N4B d   1       2.605  -5.653  -6.000  0.00  0.00    -0.004 A 
ATOM      5  C5  N4B d   1       1.886  -5.914  -4.870  0.00  0.00     0.002 A 
ATOM      6  C6  N4B d   1       2.504  -6.000  -3.639  0.00  0.00     0.002 A 
ENDROOT
BRANCH   1   7
ATOM      7  C1' N4B d   1       4.508  -6.000  -2.196  0.00  0.00     0.057 C 
BRANCH   7   8
ATOM      8  C2' N4B d   1       3.786  -5.144  -1.160  0.00  0.00     0.009 C 
BRANCH   8   9
ATOM      9  C3' N4B d   1       3.116  -5.991  -0.092  0.00  0.00     0.004 C 
ATOM     10  C4' N4B d   1       2.604  -5.176   1.058  0.00  0.00     0.003 C 
ENDBRANCH   8   9
ENDBRANCH   7   8
ENDBRANCH   1   7
TORSDOF 3
ENDMDL
