MODEL 1
REMARK minimizedAffinity -0.540373743
REMARK minimizedRMSD -1
REMARK  3 active torsions:
REMARK  status: ('A' for Active; 'I' for Inactive)
REMARK    1  A    between atoms: C3'_2  and  C2'_3 
REMARK    2  A    between atoms: C2'_3  and  C1'_4 
REMARK    3  A    between atoms: C1'_4  and  C1_5 
ROOT
ATOM      1  C1  N4B d   1       3.661   0.579  -4.891  0.00  0.00    -0.075 A 
ATOM      2  C2  N4B d   1       4.875   0.137  -5.461  0.00  0.00     0.002 A 
ATOM      3  C3  N4B d   1       5.752   1.046  -5.999  0.00  0.00     0.002 A 
ATOM      4  C4  N4B d   1       5.429   2.395  -5.997  0.00  0.00    -0.004 A 
ATOM      5  C5  N4B d   1       4.265   2.816  -5.422  0.00  0.00     0.002 A 
ATOM      6  C6  N4B d   1       3.377   1.914  -4.873  0.00  0.00     0.002 A 
ENDROOT
BRANCH   1   7
ATOM      7  C1' N4B d   1       2.632  -0.386  -4.367  0.00  0.00     0.057 C 
BRANCH   7   8
ATOM      8  C2' N4B d   1       3.341  -1.582  -3.740  0.00  0.00     0.009 C 
BRANCH   8   9
ATOM      9  C3' N4B d   1       4.188  -1.178  -2.545  0.00  0.00     0.004 C 
ATOM     10  C4' N4B d   1       3.364  -0.771  -1.360  0.00  0.00     0.003 C 
ENDBRANCH   8   9
ENDBRANCH   7   8
ENDBRANCH   1   7
TORSDOF 3
ENDMDL
