MODEL 1
REMARK minimizedAffinity 0.259072393
REMARK minimizedRMSD -1
REMARK  3 active torsions:
REMARK  status: ('A' for Active; 'I' for Inactive)
REMARK    1  A    between atoms: C3'_2  and  C2'_3 
REMARK    2  A    between atoms: C2'_3  and  C1'_4 
REMARK    3  A    between atoms: C1'_4  and  C1_5 
ROOT
ATOM      1  C1  N4B d   1       4.769  -0.339  -3.023  0.00  0.00    -0.075 A 
ATOM      2  C2  N4B d   1       5.753  -1.011  -3.782  0.00  0.00     0.002 A 
ATOM      3  C3  N4B d   1       5.998  -0.630  -5.078  0.00  0.00     0.002 A 
ATOM      4  C4  N4B d   1       5.263   0.403  -5.641  0.00  0.00    -0.004 A 
ATOM      5  C5  N4B d   1       4.333   1.063  -4.893  0.00  0.00     0.002 A 
ATOM      6  C6  N4B d   1       4.078   0.693  -3.587  0.00  0.00     0.002 A 
ENDROOT
BRANCH   1   7
ATOM      7  C1' N4B d   1       4.406  -0.776  -1.630  0.00  0.00     0.057 C 
BRANCH   7   8
ATOM      8  C2' N4B d   1       3.432  -1.948  -1.711  0.00  0.00     0.009 C 
BRANCH   8   9
ATOM      9  C3' N4B d   1       3.861  -3.105  -0.824  0.00  0.00     0.004 C 
ATOM     10  C4' N4B d   1       3.930  -4.408  -1.563  0.00  0.00     0.003 C 
ENDBRANCH   8   9
ENDBRANCH   7   8
ENDBRANCH   1   7
TORSDOF 3
ENDMDL
