MODEL 1
REMARK minimizedAffinity 5.77246761
REMARK minimizedRMSD -1
REMARK  0 active torsions:
REMARK  status: ('A' for Active; 'I' for Inactive)
ROOT
ATOM      1  C   UNL d   1       5.815  -4.798   0.811  0.00  0.00     0.172 C 
ATOM      2  N   UNL d   1       4.546  -4.272   1.255  0.00  0.00    -0.070 N 
ATOM      3  C1  UNL d   1       4.075  -4.300   2.540  0.00  0.00    -0.004 A 
ATOM      4  C2  UNL d   1       2.835  -3.700   2.549  0.00  0.00    -0.047 A 
ATOM      5  C3  UNL d   1       2.549  -3.298   1.223  0.00  0.00    -0.047 A 
ATOM      6  C4  UNL d   1       3.625  -3.664   0.442  0.00  0.00    -0.004 A 
ENDROOT
TORSDOF 0
ENDMDL
