MODEL 1
REMARK minimizedAffinity -0.941716969
REMARK minimizedRMSD -1
REMARK  0 active torsions:
REMARK  status: ('A' for Active; 'I' for Inactive)
ROOT
ATOM      1  C   UNL d   1      -2.012   1.201  -5.979  0.00  0.00     0.172 C 
ATOM      2  N   UNL d   1      -3.273   0.772  -5.420  0.00  0.00    -0.070 N 
ATOM      3  C1  UNL d   1      -4.502   0.945  -5.998  0.00  0.00    -0.004 A 
ATOM      4  C2  UNL d   1      -5.445   0.399  -5.155  0.00  0.00    -0.047 A 
ATOM      5  C3  UNL d   1      -4.759  -0.118  -4.030  0.00  0.00    -0.047 A 
ATOM      6  C4  UNL d   1      -3.416   0.126  -4.221  0.00  0.00    -0.004 A 
ENDROOT
TORSDOF 0
ENDMDL
