MODEL 1
REMARK minimizedAffinity 0.379873186
REMARK minimizedRMSD -1
REMARK  0 active torsions:
REMARK  status: ('A' for Active; 'I' for Inactive)
ROOT
ATOM      1  C   UNL d   1       4.897  -4.300   1.360  0.00  0.00     0.172 C 
ATOM      2  N   UNL d   1       3.856  -3.381   0.964  0.00  0.00    -0.070 N 
ATOM      3  C1  UNL d   1       2.509  -3.607   1.070  0.00  0.00    -0.004 A 
ATOM      4  C2  UNL d   1       1.856  -2.493   0.588  0.00  0.00    -0.047 A 
ATOM      5  C3  UNL d   1       2.844  -1.567   0.177  0.00  0.00    -0.047 A 
ATOM      6  C4  UNL d   1       4.073  -2.143   0.421  0.00  0.00    -0.004 A 
ENDROOT
TORSDOF 0
ENDMDL
