MODEL 1
REMARK minimizedAffinity -1.65380001
REMARK minimizedRMSD -1
REMARK  0 active torsions:
REMARK  status: ('A' for Active; 'I' for Inactive)
ROOT
ATOM      1  C   UNL d   1       5.242  -4.124   2.389  0.00  0.00     0.172 C 
ATOM      2  N   UNL d   1       5.386  -3.749   3.776  0.00  0.00    -0.070 N 
ATOM      3  C1  UNL d   1       4.936  -4.470   4.849  0.00  0.00    -0.004 A 
ATOM      4  C2  UNL d   1       5.268  -3.777   5.993  0.00  0.00    -0.047 A 
ATOM      5  C3  UNL d   1       5.941  -2.598   5.593  0.00  0.00    -0.047 A 
ATOM      6  C4  UNL d   1       6.000  -2.606   4.216  0.00  0.00    -0.004 A 
ENDROOT
TORSDOF 0
ENDMDL
