MODEL 1
REMARK minimizedAffinity -5.79800892
REMARK minimizedRMSD -1
REMARK  0 active torsions:
REMARK  status: ('A' for Active; 'I' for Inactive)
ROOT
ATOM      1  C2' OXE d   1       1.437   0.061   1.495  0.00  0.00     0.078 C 
ATOM      2  C1' OXE d   1       0.383   0.144  -1.106  0.00  0.00     0.078 C 
ATOM      3  C1  OXE d   1      -0.550   0.441   0.041  0.00  0.00    -0.078 A 
ATOM      4  C2  OXE d   1      -0.037   0.352   1.313  0.00  0.00    -0.078 A 
ATOM      5  C3  OXE d   1      -0.841   0.669   2.404  0.00  0.00     0.003 A 
ATOM      6  C4  OXE d   1      -2.206   0.928   2.228  0.00  0.00    -0.002 A 
ATOM      7  C5  OXE d   1      -2.758   0.984   0.943  0.00  0.00    -0.002 A 
ATOM      8  C6  OXE d   1      -1.936   0.785  -0.161  0.00  0.00     0.003 A 
ENDROOT
TORSDOF 0
ENDMDL
