MODEL 1
REMARK minimizedAffinity -0.941315949
REMARK minimizedRMSD -1
REMARK  0 active torsions:
REMARK  status: ('A' for Active; 'I' for Inactive)
ROOT
ATOM      1  C2' OXE d   1       3.712   1.399  -3.484  0.00  0.00     0.078 C 
ATOM      2  C1' OXE d   1       4.354  -1.276  -4.044  0.00  0.00     0.078 C 
ATOM      3  C1  OXE d   1       2.924  -0.956  -3.687  0.00  0.00    -0.078 A 
ATOM      4  C2  OXE d   1       2.629   0.348  -3.369  0.00  0.00    -0.078 A 
ATOM      5  C3  OXE d   1       1.314   0.707  -3.085  0.00  0.00     0.003 A 
ATOM      6  C4  OXE d   1       0.320  -0.272  -2.971  0.00  0.00    -0.002 A 
ATOM      7  C5  OXE d   1       0.609  -1.612  -3.252  0.00  0.00    -0.002 A 
ATOM      8  C6  OXE d   1       1.893  -1.963  -3.652  0.00  0.00     0.003 A 
ENDROOT
TORSDOF 0
ENDMDL
