MODEL 1
REMARK minimizedAffinity -1.03503084
REMARK minimizedRMSD -1
REMARK  0 active torsions:
REMARK  status: ('A' for Active; 'I' for Inactive)
ROOT
ATOM      1  C2' OXE d   1      -0.749   0.831  -1.334  0.00  0.00     0.078 C 
ATOM      2  C1' OXE d   1      -2.312   0.508   0.976  0.00  0.00     0.078 C 
ATOM      3  C1  OXE d   1      -0.823   0.306   1.100  0.00  0.00    -0.078 A 
ATOM      4  C2  OXE d   1      -0.071   0.419  -0.045  0.00  0.00    -0.078 A 
ATOM      5  C3  OXE d   1       1.314   0.296   0.025  0.00  0.00     0.003 A 
ATOM      6  C4  OXE d   1       1.932  -0.094   1.219  0.00  0.00    -0.002 A 
ATOM      7  C5  OXE d   1       1.180  -0.254   2.388  0.00  0.00    -0.002 A 
ATOM      8  C6  OXE d   1      -0.190  -0.017   2.355  0.00  0.00     0.003 A 
ENDROOT
TORSDOF 0
ENDMDL
