MODEL 1
REMARK minimizedAffinity -3.62959528
REMARK minimizedRMSD -1
REMARK  0 active torsions:
REMARK  status: ('A' for Active; 'I' for Inactive)
ROOT
ATOM      1  C2' OXE d   1      -2.778   0.942   1.726  0.00  0.00     0.078 C 
ATOM      2  C1' OXE d   1      -0.265   0.572   2.923  0.00  0.00     0.078 C 
ATOM      3  C1  OXE d   1      -0.334   0.574   1.416  0.00  0.00    -0.078 A 
ATOM      4  C2  OXE d   1      -1.574   0.708   0.840  0.00  0.00    -0.078 A 
ATOM      5  C3  OXE d   1      -1.686   0.771  -0.546  0.00  0.00     0.003 A 
ATOM      6  C4  OXE d   1      -0.569   0.544  -1.359  0.00  0.00    -0.002 A 
ATOM      7  C5  OXE d   1       0.697   0.365  -0.792  0.00  0.00    -0.002 A 
ATOM      8  C6  OXE d   1       0.838   0.420   0.590  0.00  0.00     0.003 A 
ENDROOT
TORSDOF 0
ENDMDL
