MODEL 1
REMARK minimizedAffinity -2.45211148
REMARK minimizedRMSD -1
REMARK  0 active torsions:
REMARK  status: ('A' for Active; 'I' for Inactive)
ROOT
ATOM      1  C2' OXE d   1      -2.756   1.057   3.036  0.00  0.00     0.078 C 
ATOM      2  C1' OXE d   1      -2.807   0.682   0.255  0.00  0.00     0.078 C 
ATOM      3  C1  OXE d   1      -1.492   0.485   0.967  0.00  0.00    -0.078 A 
ATOM      4  C2  OXE d   1      -1.466   0.717   2.321  0.00  0.00    -0.078 A 
ATOM      5  C3  OXE d   1      -0.292   0.497   3.036  0.00  0.00     0.003 A 
ATOM      6  C4  OXE d   1       0.899   0.192   2.366  0.00  0.00    -0.002 A 
ATOM      7  C5  OXE d   1       0.903  -0.009   0.982  0.00  0.00    -0.002 A 
ATOM      8  C6  OXE d   1      -0.290   0.092   0.275  0.00  0.00     0.003 A 
ENDROOT
TORSDOF 0
ENDMDL
