MODEL 1
REMARK minimizedAffinity -1.26604664
REMARK minimizedRMSD -1
REMARK  0 active torsions:
REMARK  status: ('A' for Active; 'I' for Inactive)
ROOT
ATOM      1  C2' OXE d   1       0.500  -0.203  -2.779  0.00  0.00     0.078 C 
ATOM      2  C1' OXE d   1      -1.700   1.007  -1.524  0.00  0.00     0.078 C 
ATOM      3  C1  OXE d   1      -0.545   0.573  -0.656  0.00  0.00    -0.078 A 
ATOM      4  C2  OXE d   1       0.507  -0.060  -1.273  0.00  0.00    -0.078 A 
ATOM      5  C3  OXE d   1       1.622  -0.431  -0.526  0.00  0.00     0.003 A 
ATOM      6  C4  OXE d   1       1.616  -0.305   0.868  0.00  0.00    -0.002 A 
ATOM      7  C5  OXE d   1       0.537   0.302   1.521  0.00  0.00    -0.002 A 
ATOM      8  C6  OXE d   1      -0.530   0.783   0.771  0.00  0.00     0.003 A 
ENDROOT
TORSDOF 0
ENDMDL
