MODEL 1
REMARK minimizedAffinity -4.07169294
REMARK minimizedRMSD -1
REMARK  0 active torsions:
REMARK  status: ('A' for Active; 'I' for Inactive)
ROOT
ATOM      1  C2' OXE d   1      -2.470   0.557  -0.609  0.00  0.00     0.078 C 
ATOM      2  C1' OXE d   1       0.137  -0.088  -1.427  0.00  0.00     0.078 C 
ATOM      3  C1  OXE d   1      -0.092   0.193   0.037  0.00  0.00    -0.078 A 
ATOM      4  C2  OXE d   1      -1.361   0.553   0.421  0.00  0.00    -0.078 A 
ATOM      5  C3  OXE d   1      -1.638   0.769   1.768  0.00  0.00     0.003 A 
ATOM      6  C4  OXE d   1      -0.605   0.774   2.713  0.00  0.00    -0.002 A 
ATOM      7  C5  OXE d   1       0.702   0.448   2.336  0.00  0.00    -0.002 A 
ATOM      8  C6  OXE d   1       0.967   0.114   1.013  0.00  0.00     0.003 A 
ENDROOT
TORSDOF 0
ENDMDL
