MODEL 1
REMARK minimizedAffinity -1.07047498
REMARK minimizedRMSD -1
REMARK  0 active torsions:
REMARK  status: ('A' for Active; 'I' for Inactive)
ROOT
ATOM      1  C2' OXE d   1      -2.217   3.207   3.463  0.00  0.00     0.078 C 
ATOM      2  C1' OXE d   1      -2.935   0.716   2.386  0.00  0.00     0.078 C 
ATOM      3  C1  OXE d   1      -1.470   0.980   2.633  0.00  0.00    -0.078 A 
ATOM      4  C2  OXE d   1      -1.124   2.219   3.116  0.00  0.00    -0.078 A 
ATOM      5  C3  OXE d   1       0.207   2.496   3.413  0.00  0.00     0.003 A 
ATOM      6  C4  OXE d   1       1.213   1.581   3.080  0.00  0.00    -0.002 A 
ATOM      7  C5  OXE d   1       0.886   0.328   2.549  0.00  0.00    -0.002 A 
ATOM      8  C6  OXE d   1      -0.451  -0.003   2.360  0.00  0.00     0.003 A 
ENDROOT
TORSDOF 0
ENDMDL
