MODEL 1
REMARK minimizedAffinity -1.08874369
REMARK minimizedRMSD -1
REMARK  0 active torsions:
REMARK  status: ('A' for Active; 'I' for Inactive)
ROOT
ATOM      1  C2' OXE d   1       1.424  -2.713  -3.095  0.00  0.00     0.078 C 
ATOM      2  C1' OXE d   1       1.952  -0.089  -3.940  0.00  0.00     0.078 C 
ATOM      3  C1  OXE d   1       1.397  -0.283  -2.551  0.00  0.00    -0.078 A 
ATOM      4  C2  OXE d   1       1.098  -1.567  -2.163  0.00  0.00    -0.078 A 
ATOM      5  C3  OXE d   1       0.635  -1.806  -0.872  0.00  0.00     0.003 A 
ATOM      6  C4  OXE d   1       0.326  -0.739  -0.020  0.00  0.00    -0.002 A 
ATOM      7  C5  OXE d   1       0.585   0.579  -0.410  0.00  0.00    -0.002 A 
ATOM      8  C6  OXE d   1       1.159   0.821  -1.653  0.00  0.00     0.003 A 
ENDROOT
TORSDOF 0
ENDMDL
