MODEL 1
REMARK minimizedAffinity -0.701925159
REMARK minimizedRMSD -1
REMARK  0 active torsions:
REMARK  status: ('A' for Active; 'I' for Inactive)
ROOT
ATOM      1  C2' OXE d   1       0.424   0.078  -1.408  0.00  0.00     0.078 C 
ATOM      2  C1' OXE d   1       2.526   0.132   0.452  0.00  0.00     0.078 C 
ATOM      3  C1  OXE d   1       1.115   0.208   0.981  0.00  0.00    -0.078 A 
ATOM      4  C2  OXE d   1       0.095   0.228   0.062  0.00  0.00    -0.078 A 
ATOM      5  C3  OXE d   1      -1.227   0.242   0.498  0.00  0.00     0.003 A 
ATOM      6  C4  OXE d   1      -1.522   0.391   1.859  0.00  0.00    -0.002 A 
ATOM      7  C5  OXE d   1      -0.496   0.413   2.810  0.00  0.00    -0.002 A 
ATOM      8  C6  OXE d   1       0.823   0.280   2.392  0.00  0.00     0.003 A 
ENDROOT
TORSDOF 0
ENDMDL
