MODEL 1
REMARK minimizedAffinity -3.30146265
REMARK minimizedRMSD -1
REMARK  0 active torsions:
REMARK  status: ('A' for Active; 'I' for Inactive)
ROOT
ATOM      1  C2' OXE d   1      -2.953   1.026   2.607  0.00  0.00     0.078 C 
ATOM      2  C1' OXE d   1      -2.968   0.708  -0.182  0.00  0.00     0.078 C 
ATOM      3  C1  OXE d   1      -1.647   0.572   0.534  0.00  0.00    -0.078 A 
ATOM      4  C2  OXE d   1      -1.642   0.775   1.893  0.00  0.00    -0.078 A 
ATOM      5  C3  OXE d   1      -0.461   0.608   2.611  0.00  0.00     0.003 A 
ATOM      6  C4  OXE d   1       0.749   0.386   1.942  0.00  0.00    -0.002 A 
ATOM      7  C5  OXE d   1       0.772   0.215   0.553  0.00  0.00    -0.002 A 
ATOM      8  C6  OXE d   1      -0.421   0.262  -0.159  0.00  0.00     0.003 A 
ENDROOT
TORSDOF 0
ENDMDL
