MODEL 1
REMARK minimizedAffinity -3.09221244
REMARK minimizedRMSD -1
REMARK  0 active torsions:
REMARK  status: ('A' for Active; 'I' for Inactive)
ROOT
ATOM      1  C2' OXE d   1      -0.046   0.039   2.692  0.00  0.00     0.078 C 
ATOM      2  C1' OXE d   1      -2.424   0.441   1.255  0.00  0.00     0.078 C 
ATOM      3  C1  OXE d   1      -1.129   0.424   0.482  0.00  0.00    -0.078 A 
ATOM      4  C2  OXE d   1       0.033   0.273   1.199  0.00  0.00    -0.078 A 
ATOM      5  C3  OXE d   1       1.251   0.195   0.529  0.00  0.00     0.003 A 
ATOM      6  C4  OXE d   1       1.317   0.423  -0.851  0.00  0.00    -0.002 A 
ATOM      7  C5  OXE d   1       0.148   0.618  -1.595  0.00  0.00    -0.002 A 
ATOM      8  C6  OXE d   1      -1.084   0.579  -0.951  0.00  0.00     0.003 A 
ENDROOT
TORSDOF 0
ENDMDL
