MODEL 1
REMARK minimizedAffinity -3.65088439
REMARK minimizedRMSD -1
REMARK  0 active torsions:
REMARK  status: ('A' for Active; 'I' for Inactive)
ROOT
ATOM      1  C2' OXE d   1      -3.073   0.852   2.184  0.00  0.00     0.078 C 
ATOM      2  C1' OXE d   1      -2.712   0.825  -0.599  0.00  0.00     0.078 C 
ATOM      3  C1  OXE d   1      -1.498   0.611   0.270  0.00  0.00    -0.078 A 
ATOM      4  C2  OXE d   1      -1.676   0.673   1.631  0.00  0.00    -0.078 A 
ATOM      5  C3  OXE d   1      -0.599   0.428   2.479  0.00  0.00     0.003 A 
ATOM      6  C4  OXE d   1       0.692   0.274   1.959  0.00  0.00    -0.002 A 
ATOM      7  C5  OXE d   1       0.902   0.247   0.576  0.00  0.00    -0.002 A 
ATOM      8  C6  OXE d   1      -0.186   0.372  -0.281  0.00  0.00     0.003 A 
ENDROOT
TORSDOF 0
ENDMDL
