MODEL 1
REMARK minimizedAffinity -1.36286426
REMARK minimizedRMSD -1
REMARK  0 active torsions:
REMARK  status: ('A' for Active; 'I' for Inactive)
ROOT
ATOM      1  C2' OXE d   1       0.032  -1.767  -2.926  0.00  0.00     0.078 C 
ATOM      2  C1' OXE d   1       1.647   0.515  -3.182  0.00  0.00     0.078 C 
ATOM      3  C1  OXE d   1       1.141   0.162  -1.805  0.00  0.00    -0.078 A 
ATOM      4  C2  OXE d   1       0.313  -0.929  -1.697  0.00  0.00    -0.078 A 
ATOM      5  C3  OXE d   1      -0.137  -1.331  -0.443  0.00  0.00     0.003 A 
ATOM      6  C4  OXE d   1       0.119  -0.545   0.688  0.00  0.00    -0.002 A 
ATOM      7  C5  OXE d   1       0.927   0.593   0.593  0.00  0.00    -0.002 A 
ATOM      8  C6  OXE d   1       1.479   0.936  -0.636  0.00  0.00     0.003 A 
ENDROOT
TORSDOF 0
ENDMDL
