MODEL 1
REMARK minimizedAffinity -3.12335062
REMARK minimizedRMSD -1
REMARK  0 active torsions:
REMARK  status: ('A' for Active; 'I' for Inactive)
ROOT
ATOM      1  C2' OXE d   1       0.705  -0.132  -1.241  0.00  0.00     0.078 C 
ATOM      2  C1' OXE d   1       2.363  -0.075   1.023  0.00  0.00     0.078 C 
ATOM      3  C1  OXE d   1       0.882   0.117   1.231  0.00  0.00    -0.078 A 
ATOM      4  C2  OXE d   1       0.084   0.134   0.112  0.00  0.00    -0.078 A 
ATOM      5  C3  OXE d   1      -1.296   0.253   0.252  0.00  0.00     0.003 A 
ATOM      6  C4  OXE d   1      -1.862   0.509   1.507  0.00  0.00    -0.002 A 
ATOM      7  C5  OXE d   1      -1.063   0.535   2.654  0.00  0.00    -0.002 A 
ATOM      8  C6  OXE d   1       0.303   0.299   2.539  0.00  0.00     0.003 A 
ENDROOT
TORSDOF 0
ENDMDL
