MODEL 1
REMARK minimizedAffinity -1.45815587
REMARK minimizedRMSD -1
REMARK  0 active torsions:
REMARK  status: ('A' for Active; 'I' for Inactive)
ROOT
ATOM      1  C4' PXY d   1      -1.594   2.266  -1.729  0.00  0.00     0.077 C 
ATOM      2  C1' PXY d   1       1.963  -1.354   1.039  0.00  0.00     0.077 C 
ATOM      3  C1  PXY d   1       1.020  -0.410   0.319  0.00  0.00    -0.082 A 
ATOM      4  C2  PXY d   1       1.397   0.149  -0.819  0.00  0.00     0.003 A 
ATOM      5  C3  PXY d   1       0.569   1.030  -1.467  0.00  0.00     0.003 A 
ATOM      6  C4  PXY d   1      -0.678   1.300  -0.972  0.00  0.00    -0.082 A 
ATOM      7  C5  PXY d   1      -1.075   0.725   0.183  0.00  0.00     0.003 A 
ATOM      8  C6  PXY d   1      -0.204  -0.134   0.847  0.00  0.00     0.003 A 
ENDROOT
TORSDOF 0
ENDMDL
