MODEL 1
REMARK minimizedAffinity -4.00088215
REMARK minimizedRMSD -1
REMARK  0 active torsions:
REMARK  status: ('A' for Active; 'I' for Inactive)
ROOT
ATOM      1  C4' PXY d   1      -2.566   1.208  -2.216  0.00  0.00     0.077 C 
ATOM      2  C1' PXY d   1       0.366   5.705  -4.359  0.00  0.00     0.077 C 
ATOM      3  C1  PXY d   1      -0.410   4.524  -3.808  0.00  0.00    -0.082 A 
ATOM      4  C2  PXY d   1      -0.509   4.361  -2.499  0.00  0.00     0.003 A 
ATOM      5  C3  PXY d   1      -1.180   3.282  -1.984  0.00  0.00     0.003 A 
ATOM      6  C4  PXY d   1      -1.801   2.390  -2.817  0.00  0.00    -0.082 A 
ATOM      7  C5  PXY d   1      -1.713   2.556  -4.154  0.00  0.00     0.003 A 
ATOM      8  C6  PXY d   1      -0.993   3.635  -4.657  0.00  0.00     0.003 A 
ENDROOT
TORSDOF 0
ENDMDL
