MODEL 1
REMARK minimizedAffinity -4.62394857
REMARK minimizedRMSD -1
REMARK  0 active torsions:
REMARK  status: ('A' for Active; 'I' for Inactive)
ROOT
ATOM      1  C4' PXY d   1       2.275   0.562  -1.053  0.00  0.00     0.077 C 
ATOM      2  C1' PXY d   1      -0.919  -1.567   3.269  0.00  0.00     0.077 C 
ATOM      3  C1  PXY d   1      -0.092  -1.003   2.131  0.00  0.00    -0.082 A 
ATOM      4  C2  PXY d   1       1.061  -1.571   1.817  0.00  0.00     0.003 A 
ATOM      5  C3  PXY d   1       1.837  -1.055   0.811  0.00  0.00     0.003 A 
ATOM      6  C4  PXY d   1       1.403   0.021   0.083  0.00  0.00    -0.082 A 
ATOM      7  C5  PXY d   1       0.222   0.599   0.391  0.00  0.00     0.003 A 
ATOM      8  C6  PXY d   1      -0.531   0.085   1.442  0.00  0.00     0.003 A 
ENDROOT
TORSDOF 0
ENDMDL
