MODEL 1
REMARK minimizedAffinity -2.58659649
REMARK minimizedRMSD -1
REMARK  0 active torsions:
REMARK  status: ('A' for Active; 'I' for Inactive)
ROOT
ATOM      1  C4' PXY d   1      -1.354   2.520  -1.106  0.00  0.00     0.077 C 
ATOM      2  C1' PXY d   1       2.259  -1.458   1.026  0.00  0.00     0.077 C 
ATOM      3  C1  PXY d   1       1.301  -0.423   0.469  0.00  0.00    -0.082 A 
ATOM      4  C2  PXY d   1       1.756   0.520  -0.340  0.00  0.00     0.003 A 
ATOM      5  C3  PXY d   1       0.910   1.483  -0.828  0.00  0.00     0.003 A 
ATOM      6  C4  PXY d   1      -0.425   1.449  -0.527  0.00  0.00    -0.082 A 
ATOM      7  C5  PXY d   1      -0.899   0.483   0.289  0.00  0.00     0.003 A 
ATOM      8  C6  PXY d   1      -0.016  -0.461   0.807  0.00  0.00     0.003 A 
ENDROOT
TORSDOF 0
ENDMDL
