MODEL 1
REMARK minimizedAffinity -3.28854084
REMARK minimizedRMSD -1
REMARK  0 active torsions:
REMARK  status: ('A' for Active; 'I' for Inactive)
ROOT
ATOM      1  C4' PXY d   1      -1.034   1.412  -0.752  0.00  0.00     0.077 C 
ATOM      2  C1' PXY d   1       1.468  -2.509   2.680  0.00  0.00     0.077 C 
ATOM      3  C1  PXY d   1       0.824  -1.477   1.775  0.00  0.00    -0.082 A 
ATOM      4  C2  PXY d   1      -0.340  -0.946   2.113  0.00  0.00     0.003 A 
ATOM      5  C3  PXY d   1      -0.952  -0.036   1.291  0.00  0.00     0.003 A 
ATOM      6  C4  PXY d   1      -0.342   0.374   0.136  0.00  0.00    -0.082 A 
ATOM      7  C5  PXY d   1       0.850  -0.155  -0.211  0.00  0.00     0.003 A 
ATOM      8  C6  PXY d   1       1.436  -1.108   0.617  0.00  0.00     0.003 A 
ENDROOT
TORSDOF 0
ENDMDL
