MODEL 1
REMARK minimizedAffinity -2.79703045
REMARK minimizedRMSD -1
REMARK  0 active torsions:
REMARK  status: ('A' for Active; 'I' for Inactive)
ROOT
ATOM      1  C4' PXY d   1       1.053  -0.619   0.738  0.00  0.00     0.077 C 
ATOM      2  C1' PXY d   1      -2.811   2.013  -2.662  0.00  0.00     0.077 C 
ATOM      3  C1  PXY d   1      -1.795   1.334  -1.765  0.00  0.00    -0.082 A 
ATOM      4  C2  PXY d   1      -1.233   0.201  -2.153  0.00  0.00     0.003 A 
ATOM      5  C3  PXY d   1      -0.336  -0.443  -1.340  0.00  0.00     0.003 A 
ATOM      6  C4  PXY d   1       0.029   0.107  -0.140  0.00  0.00    -0.082 A 
ATOM      7  C5  PXY d   1      -0.532   1.268   0.258  0.00  0.00     0.003 A 
ATOM      8  C6  PXY d   1      -1.471   1.885  -0.564  0.00  0.00     0.003 A 
ENDROOT
TORSDOF 0
ENDMDL
