MODEL 1
REMARK minimizedAffinity -5.94151497
REMARK minimizedRMSD -1
REMARK  0 active torsions:
REMARK  status: ('A' for Active; 'I' for Inactive)
ROOT
ATOM      1  C4' PXY d   1       1.478  -2.831   1.226  0.00  0.00     0.077 C 
ATOM      2  C1' PXY d   1      -1.061   1.977  -0.736  0.00  0.00     0.077 C 
ATOM      3  C1  PXY d   1      -0.387   0.717  -0.231  0.00  0.00    -0.082 A 
ATOM      4  C2  PXY d   1      -1.081  -0.157   0.479  0.00  0.00     0.003 A 
ATOM      5  C3  PXY d   1      -0.478  -1.286   0.971  0.00  0.00     0.003 A 
ATOM      6  C4  PXY d   1       0.835  -1.550   0.688  0.00  0.00    -0.082 A 
ATOM      7  C5  PXY d   1       1.548  -0.668  -0.045  0.00  0.00     0.003 A 
ATOM      8  C6  PXY d   1       0.928   0.492  -0.500  0.00  0.00     0.003 A 
ENDROOT
TORSDOF 0
ENDMDL
