MODEL 1
REMARK minimizedAffinity -3.77455735
REMARK minimizedRMSD -1
REMARK  0 active torsions:
REMARK  status: ('A' for Active; 'I' for Inactive)
ROOT
ATOM      1  C4' PXY d   1       1.909  -0.837   0.715  0.00  0.00     0.077 C 
ATOM      2  C1' PXY d   1      -2.587   1.099  -2.360  0.00  0.00     0.077 C 
ATOM      3  C1  PXY d   1      -1.407   0.603  -1.548  0.00  0.00    -0.082 A 
ATOM      4  C2  PXY d   1      -0.658  -0.382  -2.017  0.00  0.00     0.003 A 
ATOM      5  C3  PXY d   1       0.393  -0.864  -1.281  0.00  0.00     0.003 A 
ATOM      6  C4  PXY d   1       0.713  -0.298  -0.076  0.00  0.00    -0.082 A 
ATOM      7  C5  PXY d   1      -0.040   0.714   0.405  0.00  0.00     0.003 A 
ATOM      8  C6  PXY d   1      -1.128   1.162  -0.339  0.00  0.00     0.003 A 
ENDROOT
TORSDOF 0
ENDMDL
