MODEL 1
REMARK minimizedAffinity -0.525480092
REMARK minimizedRMSD -1
REMARK  0 active torsions:
REMARK  status: ('A' for Active; 'I' for Inactive)
ROOT
ATOM      1  C4' PXY d   1       0.848  -0.464   0.687  0.00  0.00     0.077 C 
ATOM      2  C1' PXY d   1      -2.747   2.242  -2.942  0.00  0.00     0.077 C 
ATOM      3  C1  PXY d   1      -1.798   1.543  -1.988  0.00  0.00    -0.082 A 
ATOM      4  C2  PXY d   1      -1.551   0.252  -2.139  0.00  0.00     0.003 A 
ATOM      5  C3  PXY d   1      -0.721  -0.402  -1.265  0.00  0.00     0.003 A 
ATOM      6  C4  PXY d   1      -0.095   0.284  -0.259  0.00  0.00    -0.082 A 
ATOM      7  C5  PXY d   1      -0.334   1.604  -0.104  0.00  0.00     0.003 A 
ATOM      8  C6  PXY d   1      -1.212   2.240  -0.976  0.00  0.00     0.003 A 
ENDROOT
TORSDOF 0
ENDMDL
