MODEL 1
REMARK minimizedAffinity -3.54159832
REMARK minimizedRMSD -1
REMARK  0 active torsions:
REMARK  status: ('A' for Active; 'I' for Inactive)
ROOT
ATOM      1  C4' PXY d   1      -0.525  -1.497   3.531  0.00  0.00     0.077 C 
ATOM      2  C1' PXY d   1       1.894  -0.259  -1.571  0.00  0.00     0.077 C 
ATOM      3  C1  PXY d   1       1.266  -0.595  -0.233  0.00  0.00    -0.082 A 
ATOM      4  C2  PXY d   1       0.133  -0.012   0.123  0.00  0.00     0.003 A 
ATOM      5  C3  PXY d   1      -0.432  -0.280   1.343  0.00  0.00     0.003 A 
ATOM      6  C4  PXY d   1       0.140  -1.195   2.185  0.00  0.00    -0.082 A 
ATOM      7  C5  PXY d   1       1.290  -1.803   1.825  0.00  0.00     0.003 A 
ATOM      8  C6  PXY d   1       1.870  -1.486   0.600  0.00  0.00     0.003 A 
ENDROOT
TORSDOF 0
ENDMDL
