MODEL 1
REMARK minimizedAffinity -2.40374422
REMARK minimizedRMSD -1
REMARK  0 active torsions:
REMARK  status: ('A' for Active; 'I' for Inactive)
ROOT
ATOM      1  C4' PXY d   1       3.090  -1.071  -0.885  0.00  0.00     0.077 C 
ATOM      2  C1' PXY d   1      -1.083  -1.066   3.116  0.00  0.00     0.077 C 
ATOM      3  C1  PXY d   1       0.003  -1.064   2.057  0.00  0.00    -0.082 A 
ATOM      4  C2  PXY d   1       1.092  -1.794   2.236  0.00  0.00     0.003 A 
ATOM      5  C3  PXY d   1       2.098  -1.779   1.304  0.00  0.00     0.003 A 
ATOM      6  C4  PXY d   1       1.964  -1.050   0.153  0.00  0.00    -0.082 A 
ATOM      7  C5  PXY d   1       0.852  -0.311  -0.042  0.00  0.00     0.003 A 
ATOM      8  C6  PXY d   1      -0.140  -0.308   0.935  0.00  0.00     0.003 A 
ENDROOT
TORSDOF 0
ENDMDL
