MODEL 1
REMARK minimizedAffinity -3.45745897
REMARK minimizedRMSD -1
REMARK  0 active torsions:
REMARK  status: ('A' for Active; 'I' for Inactive)
ROOT
ATOM      1  C4' PXY d   1       3.387  -0.108  -1.832  0.00  0.00     0.077 C 
ATOM      2  C1' PXY d   1      -0.879  -1.251   1.898  0.00  0.00     0.077 C 
ATOM      3  C1  PXY d   1       0.249  -0.956   0.928  0.00  0.00    -0.082 A 
ATOM      4  C2  PXY d   1       0.098  -0.007   0.019  0.00  0.00     0.003 A 
ATOM      5  C3  PXY d   1       1.095   0.251  -0.886  0.00  0.00     0.003 A 
ATOM      6  C4  PXY d   1       2.279  -0.434  -0.827  0.00  0.00    -0.082 A 
ATOM      7  C5  PXY d   1       2.445  -1.396   0.105  0.00  0.00     0.003 A 
ATOM      8  C6  PXY d   1       1.405  -1.671   0.988  0.00  0.00     0.003 A 
ENDROOT
TORSDOF 0
ENDMDL
