MODEL 1
REMARK minimizedAffinity -3.85858822
REMARK minimizedRMSD -1
REMARK  0 active torsions:
REMARK  status: ('A' for Active; 'I' for Inactive)
ROOT
ATOM      1  C4' PXY d   1      -1.338  -1.402   2.925  0.00  0.00     0.077 C 
ATOM      2  C1' PXY d   1       2.440  -0.189  -1.278  0.00  0.00     0.077 C 
ATOM      3  C1  PXY d   1       1.454  -0.519  -0.176  0.00  0.00    -0.082 A 
ATOM      4  C2  PXY d   1       0.344   0.192  -0.056  0.00  0.00     0.003 A 
ATOM      5  C3  PXY d   1      -0.543  -0.073   0.955  0.00  0.00     0.003 A 
ATOM      6  C4  PXY d   1      -0.319  -1.110   1.820  0.00  0.00    -0.082 A 
ATOM      7  C5  PXY d   1       0.806  -1.846   1.698  0.00  0.00     0.003 A 
ATOM      8  C6  PXY d   1       1.714  -1.535   0.691  0.00  0.00     0.003 A 
ENDROOT
TORSDOF 0
ENDMDL
