MODEL 1
REMARK minimizedAffinity -4.77297068
REMARK minimizedRMSD -1
REMARK  0 active torsions:
REMARK  status: ('A' for Active; 'I' for Inactive)
ROOT
ATOM      1  C4' PXY d   1      -1.616   2.220  -2.338  0.00  0.00     0.077 C 
ATOM      2  C1' PXY d   1       1.552  -1.470   0.786  0.00  0.00     0.077 C 
ATOM      3  C1  PXY d   1       0.714  -0.500  -0.023  0.00  0.00    -0.082 A 
ATOM      4  C2  PXY d   1       0.617  -0.654  -1.333  0.00  0.00     0.003 A 
ATOM      5  C3  PXY d   1      -0.111   0.233  -2.084  0.00  0.00     0.003 A 
ATOM      6  C4  PXY d   1      -0.789   1.258  -1.480  0.00  0.00    -0.082 A 
ATOM      7  C5  PXY d   1      -0.703   1.416  -0.143  0.00  0.00     0.003 A 
ATOM      8  C6  PXY d   1       0.074   0.529   0.596  0.00  0.00     0.003 A 
ENDROOT
TORSDOF 0
ENDMDL
