MODEL 1
REMARK minimizedAffinity -4.62147951
REMARK minimizedRMSD -1
REMARK  0 active torsions:
REMARK  status: ('A' for Active; 'I' for Inactive)
ROOT
ATOM      1  C4' PXY d   1       1.793  -1.172   0.571  0.00  0.00     0.077 C 
ATOM      2  C1' PXY d   1      -2.505   1.552  -2.173  0.00  0.00     0.077 C 
ATOM      3  C1  PXY d   1      -1.374   0.849  -1.448  0.00  0.00    -0.082 A 
ATOM      4  C2  PXY d   1      -0.884  -0.279  -1.937  0.00  0.00     0.003 A 
ATOM      5  C3  PXY d   1       0.116  -0.945  -1.277  0.00  0.00     0.003 A 
ATOM      6  C4  PXY d   1       0.658  -0.423  -0.133  0.00  0.00    -0.082 A 
ATOM      7  C5  PXY d   1       0.171   0.733   0.367  0.00  0.00     0.003 A 
ATOM      8  C6  PXY d   1      -0.873   1.372  -0.296  0.00  0.00     0.003 A 
ENDROOT
TORSDOF 0
ENDMDL
