MODEL 1
REMARK minimizedAffinity -3.42257094
REMARK minimizedRMSD -1
REMARK  0 active torsions:
REMARK  status: ('A' for Active; 'I' for Inactive)
ROOT
ATOM      1  C4' PXY d   1      -0.248  -2.098   3.818  0.00  0.00     0.077 C 
ATOM      2  C1' PXY d   1       1.688   0.235  -1.104  0.00  0.00     0.077 C 
ATOM      3  C1  PXY d   1       1.173  -0.367   0.189  0.00  0.00    -0.082 A 
ATOM      4  C2  PXY d   1       1.913  -1.248   0.841  0.00  0.00     0.003 A 
ATOM      5  C3  PXY d   1       1.449  -1.826   1.995  0.00  0.00     0.003 A 
ATOM      6  C4  PXY d   1       0.236  -1.458   2.514  0.00  0.00    -0.082 A 
ATOM      7  C5  PXY d   1      -0.521  -0.552   1.860  0.00  0.00     0.003 A 
ATOM      8  C6  PXY d   1      -0.049  -0.008   0.668  0.00  0.00     0.003 A 
ENDROOT
TORSDOF 0
ENDMDL
