MODEL 1
REMARK minimizedAffinity -3.37451363
REMARK minimizedRMSD -1
REMARK  0 active torsions:
REMARK  status: ('A' for Active; 'I' for Inactive)
ROOT
ATOM      1  C4' PXY d   1       0.731   5.273  -4.067  0.00  0.00     0.077 C 
ATOM      2  C1' PXY d   1      -2.887   1.142  -2.262  0.00  0.00     0.077 C 
ATOM      3  C1  PXY d   1      -1.936   2.218  -2.746  0.00  0.00    -0.082 A 
ATOM      4  C2  PXY d   1      -1.363   3.028  -1.870  0.00  0.00     0.003 A 
ATOM      5  C3  PXY d   1      -0.525   4.027  -2.293  0.00  0.00     0.003 A 
ATOM      6  C4  PXY d   1      -0.228   4.166  -3.622  0.00  0.00    -0.082 A 
ATOM      7  C5  PXY d   1      -0.800   3.337  -4.522  0.00  0.00     0.003 A 
ATOM      8  C6  PXY d   1      -1.680   2.355  -4.075  0.00  0.00     0.003 A 
ENDROOT
TORSDOF 0
ENDMDL
