MODEL 1
REMARK minimizedAffinity -0.231627434
REMARK minimizedRMSD -1
REMARK  0 active torsions:
REMARK  status: ('A' for Active; 'I' for Inactive)
ROOT
ATOM      1  C4' PXY d   1      -1.453   2.266  -0.596  0.00  0.00     0.077 C 
ATOM      2  C1' PXY d   1       2.300  -1.850   0.950  0.00  0.00     0.077 C 
ATOM      3  C1  PXY d   1       1.306  -0.778   0.548  0.00  0.00    -0.082 A 
ATOM      4  C2  PXY d   1       1.666   0.158  -0.315  0.00  0.00     0.003 A 
ATOM      5  C3  PXY d   1       0.790   1.153  -0.666  0.00  0.00     0.003 A 
ATOM      6  C4  PXY d   1      -0.485   1.159  -0.168  0.00  0.00    -0.082 A 
ATOM      7  C5  PXY d   1      -0.864   0.202   0.705  0.00  0.00     0.003 A 
ATOM      8  C6  PXY d   1       0.053  -0.776   1.079  0.00  0.00     0.003 A 
ENDROOT
TORSDOF 0
ENDMDL
