MODEL 1
REMARK minimizedAffinity -1.4342016
REMARK minimizedRMSD -1
REMARK  0 active torsions:
REMARK  status: ('A' for Active; 'I' for Inactive)
ROOT
ATOM      1  C   UNL d   1       1.318  -3.136   4.217  0.00  0.00     0.023 A 
ATOM      2  C1  UNL d   1       2.301  -3.871   4.881  0.00  0.00     0.003 A 
ATOM      3  C2  UNL d   1       3.645  -3.711   4.539  0.00  0.00     0.048 A 
ATOM      4  C3  UNL d   1       4.000  -2.814   3.532  0.00  0.00     0.023 A 
ATOM      5  C4  UNL d   1       3.020  -2.076   2.866  0.00  0.00     0.048 A 
ATOM      6  C5  UNL d   1       1.677  -2.240   3.211  0.00  0.00     0.003 A 
ATOM      7  I   UNL d   1       6.000  -2.574   3.020  0.00  0.00    -0.146 I 
ENDROOT
TORSDOF 0
ENDMDL
