MODEL 1
REMARK minimizedAffinity 4.28578043
REMARK minimizedRMSD -1
REMARK  0 active torsions:
REMARK  status: ('A' for Active; 'I' for Inactive)
ROOT
ATOM      1  C   UNL d   1       1.797  -1.509   2.842  0.00  0.00     0.023 A 
ATOM      2  C1  UNL d   1       3.125  -1.139   2.628  0.00  0.00     0.003 A 
ATOM      3  C2  UNL d   1       4.114  -1.529   3.533  0.00  0.00     0.048 A 
ATOM      4  C3  UNL d   1       3.769  -2.288   4.650  0.00  0.00     0.023 A 
ATOM      5  C4  UNL d   1       2.442  -2.661   4.868  0.00  0.00     0.048 A 
ATOM      6  C5  UNL d   1       1.456  -2.268   3.961  0.00  0.00     0.003 A 
ATOM      7  I   UNL d   1       5.240  -2.869   5.999  0.00  0.00    -0.146 I 
ENDROOT
TORSDOF 0
ENDMDL
