MODEL 1
REMARK minimizedAffinity 11.2471523
REMARK minimizedRMSD -1
REMARK  0 active torsions:
REMARK  status: ('A' for Active; 'I' for Inactive)
ROOT
ATOM      1  C   UNL d   1       4.088   1.186   5.379  0.00  0.00     0.023 A 
ATOM      2  C1  UNL d   1       4.949   1.849   4.505  0.00  0.00     0.003 A 
ATOM      3  C2  UNL d   1       4.539   2.134   3.201  0.00  0.00     0.048 A 
ATOM      4  C3  UNL d   1       3.265   1.754   2.778  0.00  0.00     0.023 A 
ATOM      5  C4  UNL d   1       2.400   1.091   3.650  0.00  0.00     0.048 A 
ATOM      6  C5  UNL d   1       2.815   0.807   4.952  0.00  0.00     0.003 A 
ATOM      7  I   UNL d   1       2.652   2.178   0.838  0.00  0.00    -0.146 I 
ENDROOT
TORSDOF 0
ENDMDL
