MODEL 1
REMARK minimizedAffinity 8.52631664
REMARK minimizedRMSD -1
REMARK  0 active torsions:
REMARK  status: ('A' for Active; 'I' for Inactive)
ROOT
ATOM      1  C   UNL d   1       5.472   1.139  -5.992  0.00  0.00     0.023 A 
ATOM      2  C1  UNL d   1       5.997  -0.150  -5.908  0.00  0.00     0.003 A 
ATOM      3  C2  UNL d   1       5.142  -1.249  -5.802  0.00  0.00     0.048 A 
ATOM      4  C3  UNL d   1       3.761  -1.050  -5.781  0.00  0.00     0.023 A 
ATOM      5  C4  UNL d   1       3.231   0.238  -5.866  0.00  0.00     0.048 A 
ATOM      6  C5  UNL d   1       4.091   1.333  -5.971  0.00  0.00     0.003 A 
ATOM      7  I   UNL d   1       2.486  -2.684  -5.623  0.00  0.00    -0.146 I 
ENDROOT
TORSDOF 0
ENDMDL
