MODEL 1
REMARK minimizedAffinity 12.3722486
REMARK minimizedRMSD -1
REMARK  0 active torsions:
REMARK  status: ('A' for Active; 'I' for Inactive)
ROOT
ATOM      1  C   UNL d   1       1.385  -0.901  -0.805  0.00  0.00     0.023 A 
ATOM      2  C1  UNL d   1       1.591  -0.603   0.542  0.00  0.00     0.003 A 
ATOM      3  C2  UNL d   1       1.176   0.626   1.059  0.00  0.00     0.048 A 
ATOM      4  C3  UNL d   1       0.553   1.552   0.223  0.00  0.00     0.023 A 
ATOM      5  C4  UNL d   1       0.343   1.258  -1.125  0.00  0.00     0.048 A 
ATOM      6  C5  UNL d   1       0.761   0.029  -1.638  0.00  0.00     0.003 A 
ATOM      7  I   UNL d   1      -0.066   3.382   0.989  0.00  0.00    -0.146 I 
ENDROOT
TORSDOF 0
ENDMDL
