MODEL 1
REMARK minimizedAffinity 9.85464478
REMARK minimizedRMSD -1
REMARK  0 active torsions:
REMARK  status: ('A' for Active; 'I' for Inactive)
ROOT
ATOM      1  C   UNL d   1       1.311  -0.889   4.011  0.00  0.00     0.023 A 
ATOM      2  C1  UNL d   1       1.325  -2.063   4.764  0.00  0.00     0.003 A 
ATOM      3  C2  UNL d   1       1.821  -3.244   4.207  0.00  0.00     0.048 A 
ATOM      4  C3  UNL d   1       2.301  -3.244   2.898  0.00  0.00     0.023 A 
ATOM      5  C4  UNL d   1       2.289  -2.071   2.142  0.00  0.00     0.048 A 
ATOM      6  C5  UNL d   1       1.792  -0.892   2.702  0.00  0.00     0.003 A 
ATOM      7  I   UNL d   1       3.039  -5.000   2.068  0.00  0.00    -0.146 I 
ENDROOT
TORSDOF 0
ENDMDL
