MODEL 1
REMARK minimizedAffinity 7.36294127
REMARK minimizedRMSD -1
REMARK  0 active torsions:
REMARK  status: ('A' for Active; 'I' for Inactive)
ROOT
ATOM      1  C   UNL d   1       1.189  -2.493   3.609  0.00  0.00     0.023 A 
ATOM      2  C1  UNL d   1       1.811  -3.578   4.227  0.00  0.00     0.003 A 
ATOM      3  C2  UNL d   1       3.166  -3.510   4.560  0.00  0.00     0.048 A 
ATOM      4  C3  UNL d   1       3.891  -2.355   4.273  0.00  0.00     0.023 A 
ATOM      5  C4  UNL d   1       3.273  -1.266   3.656  0.00  0.00     0.048 A 
ATOM      6  C5  UNL d   1       1.919  -1.339   3.324  0.00  0.00     0.003 A 
ATOM      7  I   UNL d   1       5.907  -2.252   4.768  0.00  0.00    -0.146 I 
ENDROOT
TORSDOF 0
ENDMDL
