MODEL 1
REMARK minimizedAffinity 11.0120344
REMARK minimizedRMSD -1
REMARK  0 active torsions:
REMARK  status: ('A' for Active; 'I' for Inactive)
ROOT
ATOM      1  C   UNL d   1      -0.141  -1.126   0.024  0.00  0.00     0.023 A 
ATOM      2  C1  UNL d   1       0.686  -2.195  -0.320  0.00  0.00     0.003 A 
ATOM      3  C2  UNL d   1       1.722  -2.580   0.533  0.00  0.00     0.048 A 
ATOM      4  C3  UNL d   1       1.924  -1.893   1.730  0.00  0.00     0.023 A 
ATOM      5  C4  UNL d   1       1.098  -0.824   2.078  0.00  0.00     0.048 A 
ATOM      6  C5  UNL d   1       0.064  -0.441   1.221  0.00  0.00     0.003 A 
ATOM      7  I   UNL d   1       3.465  -2.465   3.002  0.00  0.00    -0.146 I 
ENDROOT
TORSDOF 0
ENDMDL
