MODEL 1
REMARK minimizedAffinity -0.869035959
REMARK minimizedRMSD -1
REMARK  2 active torsions:
REMARK  status: ('A' for Active; 'I' for Inactive)
REMARK    1  A    between atoms: C2'_3  and  C1'_4 
REMARK    2  A    between atoms: C1'_4  and  C1_5 
ROOT
ATOM      1  C1  I4B d   1       3.276  -3.219  -4.498  0.00  0.00    -0.075 A 
ATOM      2  C2  I4B d   1       3.702  -2.475  -3.426  0.00  0.00     0.003 A 
ATOM      3  C3  I4B d   1       4.290  -1.203  -3.629  0.00  0.00     0.002 A 
ATOM      4  C4  I4B d   1       4.477  -0.739  -4.915  0.00  0.00    -0.004 A 
ATOM      5  C5  I4B d   1       4.024  -1.484  -6.000  0.00  0.00     0.002 A 
ATOM      6  C6  I4B d   1       3.408  -2.726  -5.790  0.00  0.00     0.003 A 
ENDROOT
BRANCH   1   7
ATOM      7  C1' I4B d   1       2.690  -4.572  -4.249  0.00  0.00     0.060 C 
BRANCH   7   8
ATOM      8  C2' I4B d   1       3.252  -5.091  -2.941  0.00  0.00    -0.013 C 
ATOM      9  C4' I4B d   1       2.197  -5.808  -2.140  0.00  0.00     0.013 C 
ATOM     10  C3' I4B d   1       4.401  -6.000  -3.259  0.00  0.00     0.013 C 
ENDBRANCH   7   8
ENDBRANCH   1   7
TORSDOF 2
ENDMDL
