MODEL 1
REMARK minimizedAffinity 1.7094121
REMARK minimizedRMSD -1
REMARK  2 active torsions:
REMARK  status: ('A' for Active; 'I' for Inactive)
REMARK    1  A    between atoms: C2'_3  and  C1'_4 
REMARK    2  A    between atoms: C1'_4  and  C1_5 
ROOT
ATOM      1  C1  I4B d   1       0.331   0.475   0.322  0.00  0.00    -0.075 A 
ATOM      2  C2  I4B d   1      -0.804   1.120  -0.100  0.00  0.00     0.003 A 
ATOM      3  C3  I4B d   1      -0.867   2.534  -0.089  0.00  0.00     0.002 A 
ATOM      4  C4  I4B d   1       0.203   3.258   0.397  0.00  0.00    -0.004 A 
ATOM      5  C5  I4B d   1       1.362   2.603   0.803  0.00  0.00     0.002 A 
ATOM      6  C6  I4B d   1       1.432   1.204   0.754  0.00  0.00     0.003 A 
ENDROOT
BRANCH   1   7
ATOM      7  C1' I4B d   1       0.351  -1.021   0.327  0.00  0.00     0.060 C 
BRANCH   7   8
ATOM      8  C2' I4B d   1       0.414  -1.492  -1.111  0.00  0.00    -0.013 C 
ATOM      9  C4' I4B d   1       1.811  -1.910  -1.488  0.00  0.00     0.013 C 
ATOM     10  C3' I4B d   1      -0.552  -2.629  -1.269  0.00  0.00     0.013 C 
ENDBRANCH   7   8
ENDBRANCH   1   7
TORSDOF 2
ENDMDL
