MODEL 1
REMARK minimizedAffinity 11.303091
REMARK minimizedRMSD -1
REMARK  2 active torsions:
REMARK  status: ('A' for Active; 'I' for Inactive)
REMARK    1  A    between atoms: C2'_3  and  C1'_4 
REMARK    2  A    between atoms: C1'_4  and  C1_5 
ROOT
ATOM      1  C1  I4B d   1       0.912   2.610  -0.127  0.00  0.00    -0.075 A 
ATOM      2  C2  I4B d   1       2.138   2.402   0.454  0.00  0.00     0.003 A 
ATOM      3  C3  I4B d   1       2.560   1.090   0.778  0.00  0.00     0.002 A 
ATOM      4  C4  I4B d   1       1.709   0.027   0.552  0.00  0.00    -0.004 A 
ATOM      5  C5  I4B d   1       0.476   0.238  -0.058  0.00  0.00     0.002 A 
ATOM      6  C6  I4B d   1       0.079   1.536  -0.411  0.00  0.00     0.003 A 
ENDROOT
BRANCH   1   7
ATOM      7  C1' I4B d   1       0.484   4.012  -0.425  0.00  0.00     0.060 C 
BRANCH   7   8
ATOM      8  C2' I4B d   1      -0.644   4.368   0.522  0.00  0.00    -0.013 C 
ATOM      9  C4' I4B d   1      -0.318   3.961   1.935  0.00  0.00     0.013 C 
ATOM     10  C3' I4B d   1      -0.880   5.846   0.426  0.00  0.00     0.013 C 
ENDBRANCH   7   8
ENDBRANCH   1   7
TORSDOF 2
ENDMDL
