MODEL 1
REMARK minimizedAffinity 5.99331331
REMARK minimizedRMSD -1
REMARK  2 active torsions:
REMARK  status: ('A' for Active; 'I' for Inactive)
REMARK    1  A    between atoms: C2'_3  and  C1'_4 
REMARK    2  A    between atoms: C1'_4  and  C1_5 
ROOT
ATOM      1  C1  I4B d   1      -2.905  -1.766  -2.841  0.00  0.00    -0.075 A 
ATOM      2  C2  I4B d   1      -4.194  -2.188  -2.630  0.00  0.00     0.003 A 
ATOM      3  C3  I4B d   1      -5.278  -1.304  -2.848  0.00  0.00     0.002 A 
ATOM      4  C4  I4B d   1      -5.027  -0.000  -3.225  0.00  0.00    -0.004 A 
ATOM      5  C5  I4B d   1      -3.721   0.419  -3.461  0.00  0.00     0.002 A 
ATOM      6  C6  I4B d   1      -2.654  -0.472  -3.279  0.00  0.00     0.003 A 
ENDROOT
BRANCH   1   7
ATOM      7  C1' I4B d   1      -1.782  -2.716  -2.569  0.00  0.00     0.060 C 
BRANCH   7   8
ATOM      8  C2' I4B d   1      -0.568  -1.902  -2.170  0.00  0.00    -0.013 C 
ATOM      9  C4' I4B d   1      -0.297  -2.015  -0.693  0.00  0.00     0.013 C 
ATOM     10  C3' I4B d   1       0.600  -2.388  -2.974  0.00  0.00     0.013 C 
ENDBRANCH   7   8
ENDBRANCH   1   7
TORSDOF 2
ENDMDL
