MODEL 1
REMARK minimizedAffinity 5.69904184
REMARK minimizedRMSD -1
REMARK  2 active torsions:
REMARK  status: ('A' for Active; 'I' for Inactive)
REMARK    1  A    between atoms: C2'_3  and  C1'_4 
REMARK    2  A    between atoms: C1'_4  and  C1_5 
ROOT
ATOM      1  C1  I4B d   1       1.633  -1.565   3.211  0.00  0.00    -0.075 A 
ATOM      2  C2  I4B d   1       0.719  -2.195   2.404  0.00  0.00     0.003 A 
ATOM      3  C3  I4B d   1       0.362  -1.630   1.156  0.00  0.00     0.002 A 
ATOM      4  C4  I4B d   1       0.900  -0.416   0.780  0.00  0.00    -0.004 A 
ATOM      5  C5  I4B d   1       1.843   0.210   1.590  0.00  0.00     0.002 A 
ATOM      6  C6  I4B d   1       2.221  -0.374   2.808  0.00  0.00     0.003 A 
ENDROOT
BRANCH   1   7
ATOM      7  C1' I4B d   1       1.963  -2.174   4.537  0.00  0.00     0.060 C 
BRANCH   7   8
ATOM      8  C2' I4B d   1       1.596  -3.643   4.481  0.00  0.00    -0.013 C 
ATOM      9  C4' I4B d   1       2.800  -4.515   4.722  0.00  0.00     0.013 C 
ATOM     10  C3' I4B d   1       0.532  -3.893   5.508  0.00  0.00     0.013 C 
ENDBRANCH   7   8
ENDBRANCH   1   7
TORSDOF 2
ENDMDL
