MODEL 1
REMARK minimizedAffinity 13.2469559
REMARK minimizedRMSD -1
REMARK  0 active torsions:
REMARK  status: ('A' for Active; 'I' for Inactive)
ROOT
ATOM      1  C   UNL d   1       0.037   3.536   2.689  0.00  0.00     0.124 A 
ATOM      2  C1  UNL d   1       0.771   2.798   1.769  0.00  0.00     0.062 A 
ATOM      3  C2  UNL d   1       0.161   1.779   1.044  0.00  0.00     0.162 A 
ATOM      4  C3  UNL d   1      -1.190   1.490   1.234  0.00  0.00    -0.034 A 
ATOM      5  C4  UNL d   1      -1.921   2.235   2.161  0.00  0.00     0.162 A 
ATOM      6  C5  UNL d   1      -1.307   3.253   2.884  0.00  0.00     0.062 A 
ATOM      7  F   UNL d   1      -2.018   3.964   3.772  0.00  0.00    -0.097 F 
ATOM      8  F1  UNL d   1      -3.222   1.984   2.369  0.00  0.00    -0.096 F 
ATOM      9  I   UNL d   1      -2.105  -0.034   0.152  0.00  0.00    -0.060 I 
ATOM     10  F2  UNL d   1       0.894   1.083   0.162  0.00  0.00    -0.096 F 
ATOM     11  F3  UNL d   1       2.070   3.069   1.579  0.00  0.00    -0.097 F 
ATOM     12  F4  UNL d   1       0.626   4.516   3.386  0.00  0.00    -0.092 F 
ENDROOT
TORSDOF 0
ENDMDL
