MODEL 1
REMARK minimizedAffinity 8.34270763
REMARK minimizedRMSD -1
REMARK  0 active torsions:
REMARK  status: ('A' for Active; 'I' for Inactive)
ROOT
ATOM      1  C   UNL d   1       0.424   1.046  -5.303  0.00  0.00     0.124 A 
ATOM      2  C1  UNL d   1      -0.961   1.056  -5.208  0.00  0.00     0.062 A 
ATOM      3  C2  UNL d   1      -1.665   2.244  -5.380  0.00  0.00     0.162 A 
ATOM      4  C3  UNL d   1      -0.986   3.432  -5.649  0.00  0.00    -0.034 A 
ATOM      5  C4  UNL d   1       0.406   3.414  -5.742  0.00  0.00     0.162 A 
ATOM      6  C5  UNL d   1       1.106   2.224  -5.570  0.00  0.00     0.062 A 
ATOM      7  F   UNL d   1       2.444   2.216  -5.661  0.00  0.00    -0.097 F 
ATOM      8  F1  UNL d   1       1.091   4.539  -6.000  0.00  0.00    -0.096 F 
ATOM      9  I   UNL d   1      -2.036   5.211  -5.907  0.00  0.00    -0.060 I 
ATOM     10  F2  UNL d   1      -3.003   2.225  -5.283  0.00  0.00    -0.096 F 
ATOM     11  F3  UNL d   1      -1.622  -0.081  -4.949  0.00  0.00    -0.097 F 
ATOM     12  F4  UNL d   1       1.099  -0.099  -5.136  0.00  0.00    -0.092 F 
ENDROOT
TORSDOF 0
ENDMDL
