MODEL 1
REMARK minimizedAffinity 10.972826
REMARK minimizedRMSD -1
REMARK  0 active torsions:
REMARK  status: ('A' for Active; 'I' for Inactive)
ROOT
ATOM      1  C   UNL d   1      -0.656   3.011   2.453  0.00  0.00     0.124 A 
ATOM      2  C1  UNL d   1       0.626   2.545   2.710  0.00  0.00     0.062 A 
ATOM      3  C2  UNL d   1       1.380   1.973   1.690  0.00  0.00     0.162 A 
ATOM      4  C3  UNL d   1       0.855   1.864   0.402  0.00  0.00    -0.034 A 
ATOM      5  C4  UNL d   1      -0.435   2.334   0.152  0.00  0.00     0.162 A 
ATOM      6  C5  UNL d   1      -1.185   2.905   1.175  0.00  0.00     0.062 A 
ATOM      7  F   UNL d   1      -2.424   3.355   0.925  0.00  0.00    -0.097 F 
ATOM      8  F1  UNL d   1      -0.971   2.246  -1.075  0.00  0.00    -0.096 F 
ATOM      9  I   UNL d   1       1.980   1.009  -1.126  0.00  0.00    -0.060 I 
ATOM     10  F2  UNL d   1       2.616   1.531   1.966  0.00  0.00    -0.096 F 
ATOM     11  F3  UNL d   1       1.140   2.645   3.944  0.00  0.00    -0.097 F 
ATOM     12  F4  UNL d   1      -1.380   3.560   3.437  0.00  0.00    -0.092 F 
ENDROOT
TORSDOF 0
ENDMDL
