MODEL 1
REMARK minimizedAffinity 13.8976326
REMARK minimizedRMSD -1
REMARK  0 active torsions:
REMARK  status: ('A' for Active; 'I' for Inactive)
ROOT
ATOM      1  C   UNL d   1       0.055   2.394   1.144  0.00  0.00     0.124 A 
ATOM      2  C1  UNL d   1      -1.309   2.134   1.142  0.00  0.00     0.062 A 
ATOM      3  C2  UNL d   1      -1.792   0.939   0.617  0.00  0.00     0.162 A 
ATOM      4  C3  UNL d   1      -0.912  -0.005   0.089  0.00  0.00    -0.034 A 
ATOM      5  C4  UNL d   1       0.458   0.264   0.094  0.00  0.00     0.162 A 
ATOM      6  C5  UNL d   1       0.937   1.459   0.621  0.00  0.00     0.062 A 
ATOM      7  F   UNL d   1       2.254   1.709   0.622  0.00  0.00    -0.097 F 
ATOM      8  F1  UNL d   1       1.333  -0.622  -0.405  0.00  0.00    -0.096 F 
ATOM      9  I   UNL d   1      -1.631  -1.793  -0.697  0.00  0.00    -0.060 I 
ATOM     10  F2  UNL d   1      -3.115   0.714   0.628  0.00  0.00    -0.096 F 
ATOM     11  F3  UNL d   1      -2.163   3.036   1.647  0.00  0.00    -0.097 F 
ATOM     12  F4  UNL d   1       0.517   3.545   1.650  0.00  0.00    -0.092 F 
ENDROOT
TORSDOF 0
ENDMDL
