MODEL 1
REMARK minimizedAffinity 2.1823833
REMARK minimizedRMSD -1
REMARK  0 active torsions:
REMARK  status: ('A' for Active; 'I' for Inactive)
ROOT
ATOM      1  C   UNL d   1       0.269   2.286   1.415  0.00  0.00     0.124 A 
ATOM      2  C1  UNL d   1      -1.066   1.919   1.330  0.00  0.00     0.062 A 
ATOM      3  C2  UNL d   1      -1.413   0.608   1.016  0.00  0.00     0.162 A 
ATOM      4  C3  UNL d   1      -0.422  -0.347   0.787  0.00  0.00    -0.034 A 
ATOM      5  C4  UNL d   1       0.919   0.031   0.874  0.00  0.00     0.162 A 
ATOM      6  C5  UNL d   1       1.261   1.342   1.187  0.00  0.00     0.062 A 
ATOM      7  F   UNL d   1       2.552   1.695   1.269  0.00  0.00    -0.097 F 
ATOM      8  F1  UNL d   1       1.898  -0.862   0.660  0.00  0.00    -0.096 F 
ATOM      9  I   UNL d   1      -0.936  -2.308   0.319  0.00  0.00    -0.060 I 
ATOM     10  F2  UNL d   1      -2.712   0.281   0.941  0.00  0.00    -0.096 F 
ATOM     11  F3  UNL d   1      -2.026   2.829   1.548  0.00  0.00    -0.097 F 
ATOM     12  F4  UNL d   1       0.600   3.549   1.715  0.00  0.00    -0.092 F 
ENDROOT
TORSDOF 0
ENDMDL
