MODEL 1
REMARK minimizedAffinity 12.0950069
REMARK minimizedRMSD -1
REMARK  0 active torsions:
REMARK  status: ('A' for Active; 'I' for Inactive)
ROOT
ATOM      1  C   UNL d   1      -1.974   0.875   0.768  0.00  0.00     0.124 A 
ATOM      2  C1  UNL d   1      -1.730   2.230   0.944  0.00  0.00     0.062 A 
ATOM      3  C2  UNL d   1      -0.432   2.685   1.158  0.00  0.00     0.162 A 
ATOM      4  C3  UNL d   1       0.633   1.785   1.195  0.00  0.00    -0.034 A 
ATOM      5  C4  UNL d   1       0.380   0.424   1.018  0.00  0.00     0.162 A 
ATOM      6  C5  UNL d   1      -0.919  -0.027   0.805  0.00  0.00     0.062 A 
ATOM      7  F   UNL d   1      -1.153  -1.336   0.635  0.00  0.00    -0.097 F 
ATOM      8  F1  UNL d   1       1.380  -0.469   1.048  0.00  0.00    -0.096 F 
ATOM      9  I   UNL d   1       2.575   2.462   1.514  0.00  0.00    -0.060 I 
ATOM     10  F2  UNL d   1      -0.226   4.000   1.325  0.00  0.00    -0.096 F 
ATOM     11  F3  UNL d   1      -2.747   3.102   0.910  0.00  0.00    -0.097 F 
ATOM     12  F4  UNL d   1      -3.223   0.439   0.564  0.00  0.00    -0.092 F 
ENDROOT
TORSDOF 0
ENDMDL
