MODEL 1
REMARK minimizedAffinity 7.86650229
REMARK minimizedRMSD -1
REMARK  0 active torsions:
REMARK  status: ('A' for Active; 'I' for Inactive)
ROOT
ATOM      1  C   UNL d   1      -0.043   2.404   1.683  0.00  0.00     0.124 A 
ATOM      2  C1  UNL d   1      -1.364   2.080   1.407  0.00  0.00     0.062 A 
ATOM      3  C2  UNL d   1      -1.681   0.843   0.854  0.00  0.00     0.162 A 
ATOM      4  C3  UNL d   1      -0.674  -0.082   0.576  0.00  0.00    -0.034 A 
ATOM      5  C4  UNL d   1       0.653   0.252   0.856  0.00  0.00     0.162 A 
ATOM      6  C5  UNL d   1       0.964   1.490   1.407  0.00  0.00     0.062 A 
ATOM      7  F   UNL d   1       2.241   1.801   1.674  0.00  0.00    -0.097 F 
ATOM      8  F1  UNL d   1       1.645  -0.613   0.600  0.00  0.00    -0.096 F 
ATOM      9  I   UNL d   1      -1.143  -1.934  -0.250  0.00  0.00    -0.060 I 
ATOM     10  F2  UNL d   1      -2.966   0.556   0.598  0.00  0.00    -0.096 F 
ATOM     11  F3  UNL d   1      -2.339   2.962   1.671  0.00  0.00    -0.097 F 
ATOM     12  F4  UNL d   1       0.258   3.597   2.213  0.00  0.00    -0.092 F 
ENDROOT
TORSDOF 0
ENDMDL
