MODEL 1
REMARK minimizedAffinity -3.45512557
REMARK minimizedRMSD -1
REMARK  0 active torsions:
REMARK  status: ('A' for Active; 'I' for Inactive)
ROOT
ATOM      1  C   UNL d   1      -0.708  -0.413   0.752  0.00  0.00     0.124 A 
ATOM      2  C1  UNL d   1       0.254   0.578   0.618  0.00  0.00     0.062 A 
ATOM      3  C2  UNL d   1       1.406   0.341  -0.127  0.00  0.00     0.162 A 
ATOM      4  C3  UNL d   1       1.601  -0.894  -0.746  0.00  0.00    -0.034 A 
ATOM      5  C4  UNL d   1       0.630  -1.887  -0.606  0.00  0.00     0.162 A 
ATOM      6  C5  UNL d   1      -0.519  -1.644   0.140  0.00  0.00     0.062 A 
ATOM      7  F   UNL d   1      -1.448  -2.604   0.268  0.00  0.00    -0.097 F 
ATOM      8  F1  UNL d   1       0.786  -3.085  -1.188  0.00  0.00    -0.096 F 
ATOM      9  I   UNL d   1       3.321  -1.253  -1.861  0.00  0.00    -0.060 I 
ATOM     10  F2  UNL d   1       2.318   1.317  -0.240  0.00  0.00    -0.096 F 
ATOM     11  F3  UNL d   1       0.075   1.768   1.209  0.00  0.00    -0.097 F 
ATOM     12  F4  UNL d   1      -1.814  -0.182   1.470  0.00  0.00    -0.092 F 
ENDROOT
TORSDOF 0
ENDMDL
