MODEL 1
REMARK minimizedAffinity 7.9723258
REMARK minimizedRMSD -1
REMARK  0 active torsions:
REMARK  status: ('A' for Active; 'I' for Inactive)
ROOT
ATOM      1  C   UNL d   1       1.500   1.819  -2.758  0.00  0.00     0.124 A 
ATOM      2  C1  UNL d   1       0.117   1.704  -2.794  0.00  0.00     0.062 A 
ATOM      3  C2  UNL d   1      -0.565   1.127  -1.727  0.00  0.00     0.162 A 
ATOM      4  C3  UNL d   1       0.135   0.661  -0.613  0.00  0.00    -0.034 A 
ATOM      5  C4  UNL d   1       1.525   0.780  -0.585  0.00  0.00     0.162 A 
ATOM      6  C5  UNL d   1       2.202   1.357  -1.654  0.00  0.00     0.062 A 
ATOM      7  F   UNL d   1       3.538   1.468  -1.618  0.00  0.00    -0.097 F 
ATOM      8  F1  UNL d   1       2.229   0.343   0.470  0.00  0.00    -0.096 F 
ATOM      9  I   UNL d   1      -0.882  -0.202   0.985  0.00  0.00    -0.060 I 
ATOM     10  F2  UNL d   1      -1.901   1.029  -1.788  0.00  0.00    -0.096 F 
ATOM     11  F3  UNL d   1      -0.564   2.149  -3.860  0.00  0.00    -0.097 F 
ATOM     12  F4  UNL d   1       2.154   2.374  -3.787  0.00  0.00    -0.092 F 
ENDROOT
TORSDOF 0
ENDMDL
