MODEL 1
REMARK minimizedAffinity 8.29620743
REMARK minimizedRMSD -1
REMARK  0 active torsions:
REMARK  status: ('A' for Active; 'I' for Inactive)
ROOT
ATOM      1  C   UNL d   1      -2.887   0.337   0.135  0.00  0.00     0.124 A 
ATOM      2  C1  UNL d   1      -2.401   1.618  -0.088  0.00  0.00     0.062 A 
ATOM      3  C2  UNL d   1      -1.941   2.388   0.976  0.00  0.00     0.162 A 
ATOM      4  C3  UNL d   1      -1.962   1.878   2.274  0.00  0.00    -0.034 A 
ATOM      5  C4  UNL d   1      -2.452   0.589   2.491  0.00  0.00     0.162 A 
ATOM      6  C5  UNL d   1      -2.911  -0.176   1.424  0.00  0.00     0.062 A 
ATOM      7  F   UNL d   1      -3.380  -1.414   1.642  0.00  0.00    -0.097 F 
ATOM      8  F1  UNL d   1      -2.487   0.068   3.727  0.00  0.00    -0.096 F 
ATOM      9  I   UNL d   1      -1.274   3.026   3.868  0.00  0.00    -0.060 I 
ATOM     10  F2  UNL d   1      -1.477   3.623   0.731  0.00  0.00    -0.096 F 
ATOM     11  F3  UNL d   1      -2.377   2.117  -1.333  0.00  0.00    -0.097 F 
ATOM     12  F4  UNL d   1      -3.330  -0.401  -0.890  0.00  0.00    -0.092 F 
ENDROOT
TORSDOF 0
ENDMDL
