MODEL 1
REMARK minimizedAffinity 2.71408916
REMARK minimizedRMSD -1
REMARK  0 active torsions:
REMARK  status: ('A' for Active; 'I' for Inactive)
ROOT
ATOM      1  C   UNL d   1       0.486   2.256   1.269  0.00  0.00     0.124 A 
ATOM      2  C1  UNL d   1      -0.866   2.064   1.023  0.00  0.00     0.062 A 
ATOM      3  C2  UNL d   1      -1.318   0.857   0.497  0.00  0.00     0.162 A 
ATOM      4  C3  UNL d   1      -0.416  -0.168   0.213  0.00  0.00    -0.034 A 
ATOM      5  C4  UNL d   1       0.943   0.032   0.462  0.00  0.00     0.162 A 
ATOM      6  C5  UNL d   1       1.389   1.240   0.988  0.00  0.00     0.062 A 
ATOM      7  F   UNL d   1       2.696   1.423   1.225  0.00  0.00    -0.097 F 
ATOM      8  F1  UNL d   1       1.837  -0.933   0.201  0.00  0.00    -0.096 F 
ATOM      9  I   UNL d   1      -1.087  -1.974  -0.575  0.00  0.00    -0.060 I 
ATOM     10  F2  UNL d   1      -2.630   0.700   0.269  0.00  0.00    -0.096 F 
ATOM     11  F3  UNL d   1      -1.741   3.044   1.293  0.00  0.00    -0.097 F 
ATOM     12  F4  UNL d   1       0.918   3.418   1.775  0.00  0.00    -0.092 F 
ENDROOT
TORSDOF 0
ENDMDL
