MODEL 1
REMARK minimizedAffinity 16.3208542
REMARK minimizedRMSD -1
REMARK  0 active torsions:
REMARK  status: ('A' for Active; 'I' for Inactive)
ROOT
ATOM      1  C   UNL d   1       1.172   1.546   1.175  0.00  0.00     0.124 A 
ATOM      2  C1  UNL d   1       0.734   0.280   0.812  0.00  0.00     0.062 A 
ATOM      3  C2  UNL d   1      -0.628   0.012   0.713  0.00  0.00     0.162 A 
ATOM      4  C3  UNL d   1      -1.563   1.013   0.976  0.00  0.00    -0.034 A 
ATOM      5  C4  UNL d   1      -1.115   2.284   1.341  0.00  0.00     0.162 A 
ATOM      6  C5  UNL d   1       0.247   2.546   1.439  0.00  0.00     0.062 A 
ATOM      7  F   UNL d   1       0.668   3.770   1.790  0.00  0.00    -0.097 F 
ATOM      8  F1  UNL d   1      -1.987   3.269   1.601  0.00  0.00    -0.096 F 
ATOM      9  I   UNL d   1      -3.601   0.616   0.828  0.00  0.00    -0.060 I 
ATOM     10  F2  UNL d   1      -1.023  -1.221   0.360  0.00  0.00    -0.096 F 
ATOM     11  F3  UNL d   1       1.626  -0.689   0.557  0.00  0.00    -0.097 F 
ATOM     12  F4  UNL d   1       2.483   1.800   1.271  0.00  0.00    -0.092 F 
ENDROOT
TORSDOF 0
ENDMDL
