MODEL 1
REMARK minimizedAffinity 6.66594982
REMARK minimizedRMSD -1
REMARK  0 active torsions:
REMARK  status: ('A' for Active; 'I' for Inactive)
ROOT
ATOM      1  C   UNL d   1      -1.784   0.554   1.077  0.00  0.00     0.124 A 
ATOM      2  C1  UNL d   1      -1.416   1.874   1.295  0.00  0.00     0.062 A 
ATOM      3  C2  UNL d   1      -0.071   2.229   1.336  0.00  0.00     0.162 A 
ATOM      4  C3  UNL d   1       0.918   1.261   1.158  0.00  0.00    -0.034 A 
ATOM      5  C4  UNL d   1       0.541  -0.065   0.940  0.00  0.00     0.162 A 
ATOM      6  C5  UNL d   1      -0.805  -0.415   0.900  0.00  0.00     0.062 A 
ATOM      7  F   UNL d   1      -1.158  -1.691   0.690  0.00  0.00    -0.097 F 
ATOM      8  F1  UNL d   1       1.465  -1.021   0.765  0.00  0.00    -0.096 F 
ATOM      9  I   UNL d   1       2.931   1.787   1.219  0.00  0.00    -0.060 I 
ATOM     10  F2  UNL d   1       0.255   3.512   1.548  0.00  0.00    -0.096 F 
ATOM     11  F3  UNL d   1      -2.359   2.811   1.468  0.00  0.00    -0.097 F 
ATOM     12  F4  UNL d   1      -3.079   0.215   1.039  0.00  0.00    -0.092 F 
ENDROOT
TORSDOF 0
ENDMDL
