MODEL 1
REMARK minimizedAffinity 3.49929237
REMARK minimizedRMSD -1
REMARK  0 active torsions:
REMARK  status: ('A' for Active; 'I' for Inactive)
ROOT
ATOM      1  C   UNL d   1      -1.534   0.847   0.690  0.00  0.00     0.124 A 
ATOM      2  C1  UNL d   1      -1.364   2.196   0.972  0.00  0.00     0.062 A 
ATOM      3  C2  UNL d   1      -0.108   2.686   1.316  0.00  0.00     0.162 A 
ATOM      4  C3  UNL d   1       0.990   1.827   1.379  0.00  0.00    -0.034 A 
ATOM      5  C4  UNL d   1       0.811   0.472   1.095  0.00  0.00     0.162 A 
ATOM      6  C5  UNL d   1      -0.447  -0.013   0.752  0.00  0.00     0.062 A 
ATOM      7  F   UNL d   1      -0.609  -1.316   0.480  0.00  0.00    -0.097 F 
ATOM      8  F1  UNL d   1       1.844  -0.381   1.146  0.00  0.00    -0.096 F 
ATOM      9  I   UNL d   1       2.870   2.556   1.893  0.00  0.00    -0.060 I 
ATOM     10  F2  UNL d   1       0.028   3.994   1.583  0.00  0.00    -0.096 F 
ATOM     11  F3  UNL d   1      -2.413   3.029   0.913  0.00  0.00    -0.097 F 
ATOM     12  F4  UNL d   1      -2.744   0.378   0.360  0.00  0.00    -0.092 F 
ENDROOT
TORSDOF 0
ENDMDL
