MODEL 1
REMARK minimizedAffinity 7.22626019
REMARK minimizedRMSD -1
REMARK  0 active torsions:
REMARK  status: ('A' for Active; 'I' for Inactive)
ROOT
ATOM      1  C   UNL d   1       0.494   2.164   1.592  0.00  0.00     0.124 A 
ATOM      2  C1  UNL d   1      -0.879   1.964   1.544  0.00  0.00     0.062 A 
ATOM      3  C2  UNL d   1      -1.397   0.792   1.000  0.00  0.00     0.162 A 
ATOM      4  C3  UNL d   1      -0.542  -0.190   0.500  0.00  0.00    -0.034 A 
ATOM      5  C4  UNL d   1       0.838   0.018   0.551  0.00  0.00     0.162 A 
ATOM      6  C5  UNL d   1       1.350   1.191   1.096  0.00  0.00     0.062 A 
ATOM      7  F   UNL d   1       2.677   1.383   1.142  0.00  0.00    -0.097 F 
ATOM      8  F1  UNL d   1       1.688  -0.905   0.080  0.00  0.00    -0.096 F 
ATOM      9  I   UNL d   1      -1.312  -1.944  -0.314  0.00  0.00    -0.060 I 
ATOM     10  F2  UNL d   1      -2.728   0.626   0.966  0.00  0.00    -0.096 F 
ATOM     11  F3  UNL d   1      -1.709   2.902   2.021  0.00  0.00    -0.097 F 
ATOM     12  F4  UNL d   1       0.990   3.292   2.115  0.00  0.00    -0.092 F 
ENDROOT
TORSDOF 0
ENDMDL
