MODEL 1
REMARK minimizedAffinity 4.68451405
REMARK minimizedRMSD -1
REMARK  0 active torsions:
REMARK  status: ('A' for Active; 'I' for Inactive)
ROOT
ATOM      1  N1  IND d   1       0.954  -2.237  -2.488  0.00  0.00    -0.196 N 
ATOM      2  C2  IND d   1       1.192  -2.453  -3.817  0.00  0.00     0.054 A 
ATOM      3  C3  IND d   1       2.375  -1.908  -4.178  0.00  0.00    -0.031 A 
ATOM      4  C4  IND d   1       4.131  -0.705  -2.729  0.00  0.00     0.051 A 
ATOM      5  C5  IND d   1       4.346  -0.237  -1.464  0.00  0.00    -0.031 A 
ATOM      6  C6  IND d   1       3.423  -0.417  -0.453  0.00  0.00     0.015 A 
ATOM      7  C7  IND d   1       2.251  -1.086  -0.670  0.00  0.00    -0.016 A 
ATOM      8  C8  IND d   1       2.027  -1.557  -1.956  0.00  0.00    -0.047 A 
ATOM      9  C9  IND d   1       2.941  -1.340  -2.995  0.00  0.00    -0.096 A 
ATOM     10  HN1 IND d   1       0.253  -2.485  -2.057  0.00  0.00     0.298 HD
ENDROOT
TORSDOF 0
ENDMDL
