MODEL 1
REMARK minimizedAffinity -2.19408512
REMARK minimizedRMSD -1
REMARK  0 active torsions:
REMARK  status: ('A' for Active; 'I' for Inactive)
ROOT
ATOM      1  N1  IND d   1      -0.693   1.774   0.999  0.00  0.00    -0.196 N 
ATOM      2  C2  IND d   1      -0.852   1.149   2.204  0.00  0.00     0.054 A 
ATOM      3  C3  IND d   1      -0.386  -0.118   2.142  0.00  0.00    -0.031 A 
ATOM      4  C4  IND d   1       0.769  -1.342   0.194  0.00  0.00     0.051 A 
ATOM      5  C5  IND d   1       1.107  -1.195  -1.122  0.00  0.00    -0.031 A 
ATOM      6  C6  IND d   1       0.859  -0.026  -1.812  0.00  0.00     0.015 A 
ATOM      7  C7  IND d   1       0.272   1.049  -1.205  0.00  0.00    -0.016 A 
ATOM      8  C8  IND d   1      -0.078   0.900   0.130  0.00  0.00    -0.047 A 
ATOM      9  C9  IND d   1       0.132  -0.299   0.823  0.00  0.00    -0.096 A 
ATOM     10  HN1 IND d   1      -0.936   2.578   0.815  0.00  0.00     0.298 HD
ENDROOT
TORSDOF 0
ENDMDL
