MODEL 1
REMARK minimizedAffinity -1.71429765
REMARK minimizedRMSD -1
REMARK  0 active torsions:
REMARK  status: ('A' for Active; 'I' for Inactive)
ROOT
ATOM      1  N1  IND d   1      -1.378  -2.717  -1.449  0.00  0.00    -0.196 N 
ATOM      2  C2  IND d   1      -2.554  -2.085  -1.157  0.00  0.00     0.054 A 
ATOM      3  C3  IND d   1      -2.336  -0.772  -0.917  0.00  0.00    -0.031 A 
ATOM      4  C4  IND d   1      -0.145   0.572  -1.047  0.00  0.00     0.051 A 
ATOM      5  C5  IND d   1       1.200   0.424  -1.239  0.00  0.00    -0.031 A 
ATOM      6  C6  IND d   1       1.766  -0.804  -1.519  0.00  0.00     0.015 A 
ATOM      7  C7  IND d   1       1.002  -1.931  -1.630  0.00  0.00    -0.016 A 
ATOM      8  C8  IND d   1      -0.363  -1.785  -1.428  0.00  0.00    -0.047 A 
ATOM      9  C9  IND d   1      -0.937  -0.550  -1.101  0.00  0.00    -0.096 A 
ATOM     10  HN1 IND d   1      -1.287  -3.555  -1.617  0.00  0.00     0.298 HD
ENDROOT
TORSDOF 0
ENDMDL
