MODEL 1
REMARK minimizedAffinity 8.03513432
REMARK minimizedRMSD -1
REMARK  0 active torsions:
REMARK  status: ('A' for Active; 'I' for Inactive)
ROOT
ATOM      1  N1  IND d   1       2.733   1.934  -0.501  0.00  0.00    -0.196 N 
ATOM      2  C2  IND d   1       2.766   1.441  -1.776  0.00  0.00     0.054 A 
ATOM      3  C3  IND d   1       1.584   0.865  -2.088  0.00  0.00    -0.031 A 
ATOM      4  C4  IND d   1      -0.577   0.706  -0.698  0.00  0.00     0.051 A 
ATOM      5  C5  IND d   1      -1.082   0.980   0.542  0.00  0.00    -0.031 A 
ATOM      6  C6  IND d   1      -0.328   1.600   1.517  0.00  0.00     0.015 A 
ATOM      7  C7  IND d   1       0.963   1.982   1.283  0.00  0.00    -0.016 A 
ATOM      8  C8  IND d   1       1.482   1.700   0.027  0.00  0.00    -0.047 A 
ATOM      9  C9  IND d   1       0.734   1.032  -0.952  0.00  0.00    -0.096 A 
ATOM     10  HN1 IND d   1       3.383   2.325  -0.097  0.00  0.00     0.298 HD
ENDROOT
TORSDOF 0
ENDMDL
