MODEL 1
REMARK minimizedAffinity 6.62993813
REMARK minimizedRMSD -1
REMARK  0 active torsions:
REMARK  status: ('A' for Active; 'I' for Inactive)
ROOT
ATOM      1  N1  IND d   1      -1.016   2.257  -1.498  0.00  0.00    -0.196 N 
ATOM      2  C2  IND d   1      -1.434   1.280  -0.637  0.00  0.00     0.054 A 
ATOM      3  C3  IND d   1      -0.493   0.316  -0.527  0.00  0.00    -0.031 A 
ATOM      4  C4  IND d   1       1.848   0.186  -1.589  0.00  0.00     0.051 A 
ATOM      5  C5  IND d   1       2.665   0.827  -2.479  0.00  0.00    -0.031 A 
ATOM      6  C6  IND d   1       2.289   2.002  -3.097  0.00  0.00     0.015 A 
ATOM      7  C7  IND d   1       1.083   2.589  -2.839  0.00  0.00    -0.016 A 
ATOM      8  C8  IND d   1       0.249   1.937  -1.942  0.00  0.00    -0.047 A 
ATOM      9  C9  IND d   1       0.607   0.723  -1.344  0.00  0.00    -0.096 A 
ATOM     10  HN1 IND d   1      -1.467   2.953  -1.724  0.00  0.00     0.298 HD
ENDROOT
TORSDOF 0
ENDMDL
