MODEL 1
REMARK minimizedAffinity 8.28592205
REMARK minimizedRMSD -1
REMARK  0 active torsions:
REMARK  status: ('A' for Active; 'I' for Inactive)
ROOT
ATOM      1  N1  IND d   1       0.765   2.603  -2.229  0.00  0.00    -0.196 N 
ATOM      2  C2  IND d   1       1.455   3.218  -3.237  0.00  0.00     0.054 A 
ATOM      3  C3  IND d   1       2.606   2.556  -3.492  0.00  0.00    -0.031 A 
ATOM      4  C4  IND d   1       3.509   0.383  -2.447  0.00  0.00     0.051 A 
ATOM      5  C5  IND d   1       3.249  -0.527  -1.461  0.00  0.00    -0.031 A 
ATOM      6  C6  IND d   1       2.124  -0.440  -0.667  0.00  0.00     0.015 A 
ATOM      7  C7  IND d   1       1.207   0.558  -0.837  0.00  0.00    -0.016 A 
ATOM      8  C8  IND d   1       1.471   1.488  -1.832  0.00  0.00    -0.047 A 
ATOM      9  C9  IND d   1       2.632   1.430  -2.613  0.00  0.00    -0.096 A 
ATOM     10  HN1 IND d   1       0.017   2.868  -1.899  0.00  0.00     0.298 HD
ENDROOT
TORSDOF 0
ENDMDL
