MODEL 1
REMARK minimizedAffinity 3.55939555
REMARK minimizedRMSD -1
REMARK  0 active torsions:
REMARK  status: ('A' for Active; 'I' for Inactive)
ROOT
ATOM      1  N1  IND d   1       0.819   2.770  -2.616  0.00  0.00    -0.196 N 
ATOM      2  C2  IND d   1       1.816   2.827  -3.549  0.00  0.00     0.054 A 
ATOM      3  C3  IND d   1       2.669   1.790  -3.391  0.00  0.00    -0.031 A 
ATOM      4  C4  IND d   1       2.564  -0.175  -1.732  0.00  0.00     0.051 A 
ATOM      5  C5  IND d   1       1.857  -0.643  -0.659  0.00  0.00    -0.031 A 
ATOM      6  C6  IND d   1       0.744   0.015  -0.176  0.00  0.00     0.015 A 
ATOM      7  C7  IND d   1       0.288   1.164  -0.758  0.00  0.00    -0.016 A 
ATOM      8  C8  IND d   1       1.007   1.646  -1.842  0.00  0.00    -0.047 A 
ATOM      9  C9  IND d   1       2.162   1.006  -2.310  0.00  0.00    -0.096 A 
ATOM     10  HN1 IND d   1       0.181   3.340  -2.527  0.00  0.00     0.298 HD
ENDROOT
TORSDOF 0
ENDMDL
