MODEL 1
REMARK minimizedAffinity 6.53647614
REMARK minimizedRMSD -1
REMARK  0 active torsions:
REMARK  status: ('A' for Active; 'I' for Inactive)
ROOT
ATOM      1  N1  IND d   1       1.983  -0.931  -2.954  0.00  0.00    -0.196 N 
ATOM      2  C2  IND d   1       2.353  -0.920  -1.638  0.00  0.00     0.054 A 
ATOM      3  C3  IND d   1       2.462   0.351  -1.190  0.00  0.00    -0.031 A 
ATOM      4  C4  IND d   1       1.980   2.563  -2.416  0.00  0.00     0.051 A 
ATOM      5  C5  IND d   1       1.650   3.065  -3.644  0.00  0.00    -0.031 A 
ATOM      6  C6  IND d   1       1.407   2.243  -4.726  0.00  0.00     0.015 A 
ATOM      7  C7  IND d   1       1.474   0.883  -4.616  0.00  0.00    -0.016 A 
ATOM      8  C8  IND d   1       1.815   0.371  -3.373  0.00  0.00    -0.047 A 
ATOM      9  C9  IND d   1       2.105   1.201  -2.282  0.00  0.00    -0.096 A 
ATOM     10  HN1 IND d   1       1.874  -1.633  -3.438  0.00  0.00     0.298 HD
ENDROOT
TORSDOF 0
ENDMDL
