MODEL 1
REMARK minimizedAffinity 12.4513407
REMARK minimizedRMSD -1
REMARK  0 active torsions:
REMARK  status: ('A' for Active; 'I' for Inactive)
ROOT
ATOM      1  N1  IND d   1      -1.404  -2.004  -0.957  0.00  0.00    -0.196 N 
ATOM      2  C2  IND d   1      -2.492  -1.297  -0.528  0.00  0.00     0.054 A 
ATOM      3  C3  IND d   1      -2.172   0.007  -0.366  0.00  0.00    -0.031 A 
ATOM      4  C4  IND d   1       0.051   1.216  -0.842  0.00  0.00     0.051 A 
ATOM      5  C5  IND d   1       1.346   0.983  -1.213  0.00  0.00    -0.031 A 
ATOM      6  C6  IND d   1       1.799  -0.282  -1.525  0.00  0.00     0.015 A 
ATOM      7  C7  IND d   1       0.967  -1.365  -1.490  0.00  0.00    -0.016 A 
ATOM      8  C8  IND d   1      -0.347  -1.134  -1.108  0.00  0.00    -0.047 A 
ATOM      9  C9  IND d   1      -0.802   0.141  -0.748  0.00  0.00    -0.096 A 
ATOM     10  HN1 IND d   1      -1.383  -2.851  -1.106  0.00  0.00     0.298 HD
ENDROOT
TORSDOF 0
ENDMDL
