MODEL 1
REMARK minimizedAffinity 1.50678945
REMARK minimizedRMSD -1
REMARK  0 active torsions:
REMARK  status: ('A' for Active; 'I' for Inactive)
ROOT
ATOM      1  N1  IND d   1      -0.491  -3.417  -1.353  0.00  0.00    -0.196 N 
ATOM      2  C2  IND d   1      -1.664  -2.778  -1.064  0.00  0.00     0.054 A 
ATOM      3  C3  IND d   1      -1.437  -1.468  -0.816  0.00  0.00    -0.031 A 
ATOM      4  C4  IND d   1       0.765  -0.140  -0.928  0.00  0.00     0.051 A 
ATOM      5  C5  IND d   1       2.110  -0.298  -1.114  0.00  0.00    -0.031 A 
ATOM      6  C6  IND d   1       2.667  -1.528  -1.399  0.00  0.00     0.015 A 
ATOM      7  C7  IND d   1       1.896  -2.649  -1.519  0.00  0.00    -0.016 A 
ATOM      8  C8  IND d   1       0.531  -2.494  -1.323  0.00  0.00    -0.047 A 
ATOM      9  C9  IND d   1      -0.036  -1.256  -0.992  0.00  0.00    -0.096 A 
ATOM     10  HN1 IND d   1      -0.406  -4.256  -1.525  0.00  0.00     0.298 HD
ENDROOT
TORSDOF 0
ENDMDL
