MODEL 1
REMARK minimizedAffinity 5.25264502
REMARK minimizedRMSD -1
REMARK  0 active torsions:
REMARK  status: ('A' for Active; 'I' for Inactive)
ROOT
ATOM      1  N1  IND d   1      -3.266  -2.675  -1.125  0.00  0.00    -0.196 N 
ATOM      2  C2  IND d   1      -2.235  -2.863  -0.248  0.00  0.00     0.054 A 
ATOM      3  C3  IND d   1      -2.421  -4.000   0.460  0.00  0.00    -0.031 A 
ATOM      4  C4  IND d   1      -4.296  -5.754   0.274  0.00  0.00     0.051 A 
ATOM      5  C5  IND d   1      -5.482  -6.000  -0.360  0.00  0.00    -0.031 A 
ATOM      6  C6  IND d   1      -5.999  -5.134  -1.301  0.00  0.00     0.015 A 
ATOM      7  C7  IND d   1      -5.341  -3.990  -1.655  0.00  0.00    -0.016 A 
ATOM      8  C8  IND d   1      -4.140  -3.734  -1.009  0.00  0.00    -0.047 A 
ATOM      9  C9  IND d   1      -3.631  -4.587  -0.021  0.00  0.00    -0.096 A 
ATOM     10  HN1 IND d   1      -3.355  -2.007  -1.659  0.00  0.00     0.298 HD
ENDROOT
TORSDOF 0
ENDMDL
