MODEL 1
REMARK minimizedAffinity 4.0091877
REMARK minimizedRMSD -1
REMARK  0 active torsions:
REMARK  status: ('A' for Active; 'I' for Inactive)
ROOT
ATOM      1  N1  IND d   1      -0.804  -3.080  -1.076  0.00  0.00    -0.196 N 
ATOM      2  C2  IND d   1      -1.940  -2.356  -0.844  0.00  0.00     0.054 A 
ATOM      3  C3  IND d   1      -1.641  -1.047  -0.692  0.00  0.00    -0.031 A 
ATOM      4  C4  IND d   1       0.634   0.144  -0.887  0.00  0.00     0.051 A 
ATOM      5  C5  IND d   1       1.968  -0.102  -1.052  0.00  0.00    -0.031 A 
ATOM      6  C6  IND d   1       2.456  -1.379  -1.239  0.00  0.00     0.015 A 
ATOM      7  C7  IND d   1       1.623  -2.461  -1.281  0.00  0.00    -0.016 A 
ATOM      8  C8  IND d   1       0.268  -2.216  -1.107  0.00  0.00    -0.047 A 
ATOM      9  C9  IND d   1      -0.229  -0.927  -0.874  0.00  0.00    -0.096 A 
ATOM     10  HN1 IND d   1      -0.766  -3.932  -1.184  0.00  0.00     0.298 HD
ENDROOT
TORSDOF 0
ENDMDL
