MODEL 1
REMARK minimizedAffinity 6.31209517
REMARK minimizedRMSD -1
REMARK  0 active torsions:
REMARK  status: ('A' for Active; 'I' for Inactive)
ROOT
ATOM      1  N1  IND d   1      -1.382  -3.085  -1.080  0.00  0.00    -0.196 N 
ATOM      2  C2  IND d   1      -2.687  -2.840  -0.755  0.00  0.00     0.054 A 
ATOM      3  C3  IND d   1      -2.853  -1.541  -0.422  0.00  0.00    -0.031 A 
ATOM      4  C4  IND d   1      -1.143   0.383  -0.436  0.00  0.00     0.051 A 
ATOM      5  C5  IND d   1       0.185   0.642  -0.626  0.00  0.00    -0.031 A 
ATOM      6  C6  IND d   1       1.077  -0.347  -0.987  0.00  0.00     0.015 A 
ATOM      7  C7  IND d   1       0.669  -1.636  -1.183  0.00  0.00    -0.016 A 
ATOM      8  C8  IND d   1      -0.678  -1.904  -0.984  0.00  0.00    -0.047 A 
ATOM      9  C9  IND d   1      -1.579  -0.913  -0.577  0.00  0.00    -0.096 A 
ATOM     10  HN1 IND d   1      -1.055  -3.847  -1.305  0.00  0.00     0.298 HD
ENDROOT
TORSDOF 0
ENDMDL
