MODEL 1
REMARK minimizedAffinity 13.0604696
REMARK minimizedRMSD -1
REMARK  0 active torsions:
REMARK  status: ('A' for Active; 'I' for Inactive)
ROOT
ATOM      1  N1  IND d   1       0.723   0.462  -1.828  0.00  0.00    -0.196 N 
ATOM      2  C2  IND d   1       2.090   0.507  -1.834  0.00  0.00     0.054 A 
ATOM      3  C3  IND d   1       2.545   1.104  -0.710  0.00  0.00    -0.031 A 
ATOM      4  C4  IND d   1       1.231   1.990   1.319  0.00  0.00     0.051 A 
ATOM      5  C5  IND d   1      -0.042   2.203   1.768  0.00  0.00    -0.031 A 
ATOM      6  C6  IND d   1      -1.147   1.835   1.028  0.00  0.00     0.015 A 
ATOM      7  C7  IND d   1      -1.020   1.229  -0.189  0.00  0.00    -0.016 A 
ATOM      8  C8  IND d   1       0.271   1.019  -0.652  0.00  0.00    -0.047 A 
ATOM      9  C9  IND d   1       1.396   1.428   0.075  0.00  0.00    -0.096 A 
ATOM     10  HN1 IND d   1       0.229   0.139  -2.454  0.00  0.00     0.298 HD
ENDROOT
TORSDOF 0
ENDMDL
