MODEL 1
REMARK minimizedAffinity 6.23791552
REMARK minimizedRMSD -1
REMARK  0 active torsions:
REMARK  status: ('A' for Active; 'I' for Inactive)
ROOT
ATOM      1  N1  IND d   1       0.388   2.360   0.763  0.00  0.00    -0.196 N 
ATOM      2  C2  IND d   1      -0.881   1.852   0.749  0.00  0.00     0.054 A 
ATOM      3  C3  IND d   1      -0.964   0.817  -0.116  0.00  0.00    -0.031 A 
ATOM      4  C4  IND d   1       0.882  -0.278  -1.538  0.00  0.00     0.051 A 
ATOM      5  C5  IND d   1       2.196  -0.140  -1.888  0.00  0.00    -0.031 A 
ATOM      6  C6  IND d   1       2.991   0.856  -1.360  0.00  0.00     0.015 A 
ATOM      7  C7  IND d   1       2.503   1.749  -0.449  0.00  0.00    -0.016 A 
ATOM      8  C8  IND d   1       1.167   1.617  -0.096  0.00  0.00    -0.047 A 
ATOM      9  C9  IND d   1       0.344   0.634  -0.661  0.00  0.00    -0.096 A 
ATOM     10  HN1 IND d   1       0.655   3.031   1.230  0.00  0.00     0.298 HD
ENDROOT
TORSDOF 0
ENDMDL
