MODEL 1
REMARK minimizedAffinity -4.0247736
REMARK minimizedRMSD -1
REMARK  0 active torsions:
REMARK  status: ('A' for Active; 'I' for Inactive)
ROOT
ATOM      1  N1  IND d   1      -1.164  -0.714  -0.568  0.00  0.00    -0.196 N 
ATOM      2  C2  IND d   1      -1.779   0.393  -0.053  0.00  0.00     0.054 A 
ATOM      3  C3  IND d   1      -0.860   1.321   0.299  0.00  0.00    -0.031 A 
ATOM      4  C4  IND d   1       1.699   1.274   0.024  0.00  0.00     0.051 A 
ATOM      5  C5  IND d   1       2.726   0.460  -0.363  0.00  0.00    -0.031 A 
ATOM      6  C6  IND d   1       2.504  -0.812  -0.851  0.00  0.00     0.015 A 
ATOM      7  C7  IND d   1       1.240  -1.315  -0.981  0.00  0.00    -0.016 A 
ATOM      8  C8  IND d   1       0.195  -0.493  -0.582  0.00  0.00    -0.047 A 
ATOM      9  C9  IND d   1       0.417   0.782  -0.047  0.00  0.00    -0.096 A 
ATOM     10  HN1 IND d   1      -1.561  -1.427  -0.838  0.00  0.00     0.298 HD
ENDROOT
TORSDOF 0
ENDMDL
