MODEL 1
REMARK minimizedAffinity 4.74464083
REMARK minimizedRMSD -1
REMARK  0 active torsions:
REMARK  status: ('A' for Active; 'I' for Inactive)
ROOT
ATOM      1  N1  IND d   1      -0.389   2.479  -1.671  0.00  0.00    -0.196 N 
ATOM      2  C2  IND d   1      -1.041   1.708  -0.750  0.00  0.00     0.054 A 
ATOM      3  C3  IND d   1      -0.356   0.564  -0.525  0.00  0.00    -0.031 A 
ATOM      4  C4  IND d   1       1.908  -0.201  -1.482  0.00  0.00     0.051 A 
ATOM      5  C5  IND d   1       2.868   0.150  -2.389  0.00  0.00    -0.031 A 
ATOM      6  C6  IND d   1       2.791   1.320  -3.116  0.00  0.00     0.015 A 
ATOM      7  C7  IND d   1       1.752   2.192  -2.954  0.00  0.00    -0.016 A 
ATOM      8  C8  IND d   1       0.772   1.836  -2.038  0.00  0.00    -0.047 A 
ATOM      9  C9  IND d   1       0.823   0.629  -1.329  0.00  0.00    -0.096 A 
ATOM     10  HN1 IND d   1      -0.659   3.239  -1.970  0.00  0.00     0.298 HD
ENDROOT
TORSDOF 0
ENDMDL
