MODEL 1
REMARK minimizedAffinity 5.67487478
REMARK minimizedRMSD -1
REMARK  0 active torsions:
REMARK  status: ('A' for Active; 'I' for Inactive)
ROOT
ATOM      1  N1  IND d   1       2.245  -3.629   1.028  0.00  0.00    -0.196 N 
ATOM      2  C2  IND d   1       1.062  -4.243   1.332  0.00  0.00     0.054 A 
ATOM      3  C3  IND d   1       0.039  -3.638   0.687  0.00  0.00    -0.031 A 
ATOM      4  C4  IND d   1       0.089  -1.688  -0.993  0.00  0.00     0.051 A 
ATOM      5  C5  IND d   1       0.934  -0.776  -1.559  0.00  0.00    -0.031 A 
ATOM      6  C6  IND d   1       2.287  -0.770  -1.289  0.00  0.00     0.015 A 
ATOM      7  C7  IND d   1       2.850  -1.687  -0.447  0.00  0.00    -0.016 A 
ATOM      8  C8  IND d   1       1.993  -2.610   0.135  0.00  0.00    -0.047 A 
ATOM      9  C9  IND d   1       0.613  -2.595  -0.102  0.00  0.00    -0.096 A 
ATOM     10  HN1 IND d   1       3.016  -3.844   1.341  0.00  0.00     0.298 HD
ENDROOT
TORSDOF 0
ENDMDL
