MODEL 1
REMARK minimizedAffinity 1.65612984
REMARK minimizedRMSD -1
REMARK  0 active torsions:
REMARK  status: ('A' for Active; 'I' for Inactive)
ROOT
ATOM      1  C2' OXE d   1       5.992   2.405   5.439  0.00  0.00     0.078 C 
ATOM      2  C1' OXE d   1       5.993   1.701   2.722  0.00  0.00     0.078 C 
ATOM      3  C1  OXE d   1       5.963   3.169   3.068  0.00  0.00    -0.078 A 
ATOM      4  C2  OXE d   1       5.915   3.503   4.400  0.00  0.00    -0.078 A 
ATOM      5  C3  OXE d   1       5.941   4.843   4.776  0.00  0.00     0.003 A 
ATOM      6  C4  OXE d   1       5.860   5.852   3.809  0.00  0.00    -0.002 A 
ATOM      7  C5  OXE d   1       5.867   5.532   2.447  0.00  0.00    -0.002 A 
ATOM      8  C6  OXE d   1       5.961   4.200   2.060  0.00  0.00     0.003 A 
ENDROOT
TORSDOF 0
ENDMDL
