MODEL 1
REMARK minimizedAffinity 0.114360206
REMARK minimizedRMSD -1
REMARK  0 active torsions:
REMARK  status: ('A' for Active; 'I' for Inactive)
ROOT
ATOM      1  C2' OXE d   1       5.952   5.179   5.875  0.00  0.00     0.078 C 
ATOM      2  C1' OXE d   1       6.000   5.395   3.077  0.00  0.00     0.078 C 
ATOM      3  C1  OXE d   1       5.976   4.011   3.675  0.00  0.00    -0.078 A 
ATOM      4  C2  OXE d   1       6.000   3.914   5.046  0.00  0.00    -0.078 A 
ATOM      5  C3  OXE d   1       5.924   2.662   5.650  0.00  0.00     0.003 A 
ATOM      6  C4  OXE d   1       5.980   1.497   4.875  0.00  0.00    -0.002 A 
ATOM      7  C5  OXE d   1       5.996   1.573   3.479  0.00  0.00    -0.002 A 
ATOM      8  C6  OXE d   1       5.952   2.819   2.863  0.00  0.00     0.003 A 
ENDROOT
TORSDOF 0
ENDMDL
