MODEL 1
REMARK minimizedAffinity -2.91214705
REMARK minimizedRMSD -1
REMARK  0 active torsions:
REMARK  status: ('A' for Active; 'I' for Inactive)
ROOT
ATOM      1  C2' OXE d   1       5.992   4.090   1.869  0.00  0.00     0.078 C 
ATOM      2  C1' OXE d   1       6.000   4.996   4.526  0.00  0.00     0.078 C 
ATOM      3  C1  OXE d   1       5.973   3.506   4.291  0.00  0.00    -0.078 A 
ATOM      4  C2  OXE d   1       5.922   3.073   2.988  0.00  0.00    -0.078 A 
ATOM      5  C3  OXE d   1       5.951   1.709   2.714  0.00  0.00     0.003 A 
ATOM      6  C4  OXE d   1       5.877   0.775   3.755  0.00  0.00    -0.002 A 
ATOM      7  C5  OXE d   1       5.887   1.196   5.088  0.00  0.00    -0.002 A 
ATOM      8  C6  OXE d   1       5.978   2.554   5.374  0.00  0.00     0.003 A 
ENDROOT
TORSDOF 0
ENDMDL
