MODEL 1
REMARK minimizedAffinity 0.122403428
REMARK minimizedRMSD -1
REMARK  0 active torsions:
REMARK  status: ('A' for Active; 'I' for Inactive)
ROOT
ATOM      1  C2' OXE d   1       5.935  -0.370   2.835  0.00  0.00     0.078 C 
ATOM      2  C1' OXE d   1       5.956  -0.003   5.618  0.00  0.00     0.078 C 
ATOM      3  C1  OXE d   1       5.954   1.228   4.747  0.00  0.00    -0.078 A 
ATOM      4  C2  OXE d   1       5.991   1.039   3.386  0.00  0.00    -0.078 A 
ATOM      5  C3  OXE d   1       5.935   2.140   2.536  0.00  0.00     0.003 A 
ATOM      6  C4  OXE d   1       5.997   3.439   3.054  0.00  0.00    -0.002 A 
ATOM      7  C5  OXE d   1       6.000   3.653   4.436  0.00  0.00    -0.002 A 
ATOM      8  C6  OXE d   1       5.936   2.561   5.295  0.00  0.00     0.003 A 
ENDROOT
TORSDOF 0
ENDMDL
