MODEL 1
REMARK minimizedAffinity 0.712425232
REMARK minimizedRMSD -1
REMARK  0 active torsions:
REMARK  status: ('A' for Active; 'I' for Inactive)
ROOT
ATOM      1  C2' OXE d   1       5.951   1.517   2.262  0.00  0.00     0.078 C 
ATOM      2  C1' OXE d   1       5.939   2.922   4.693  0.00  0.00     0.078 C 
ATOM      3  C1  OXE d   1       5.956   1.415   4.751  0.00  0.00    -0.078 A 
ATOM      4  C2  OXE d   1       5.915   0.736   3.558  0.00  0.00    -0.078 A 
ATOM      5  C3  OXE d   1       5.984  -0.655   3.554  0.00  0.00     0.003 A 
ATOM      6  C4  OXE d   1       5.940  -1.370   4.756  0.00  0.00    -0.002 A 
ATOM      7  C5  OXE d   1       5.941  -0.698   5.983  0.00  0.00    -0.002 A 
ATOM      8  C6  OXE d   1       5.992   0.692   5.998  0.00  0.00     0.003 A 
ENDROOT
TORSDOF 0
ENDMDL
