MODEL 1
REMARK minimizedAffinity -0.466988057
REMARK minimizedRMSD -1
REMARK  0 active torsions:
REMARK  status: ('A' for Active; 'I' for Inactive)
ROOT
ATOM      1  C2' OXE d   1       5.848   0.370   5.759  0.00  0.00     0.078 C 
ATOM      2  C1' OXE d   1       5.836  -0.139   2.999  0.00  0.00     0.078 C 
ATOM      3  C1  OXE d   1       5.909   1.299   3.449  0.00  0.00    -0.078 A 
ATOM      4  C2  OXE d   1       5.867   1.541   4.801  0.00  0.00    -0.078 A 
ATOM      5  C3  OXE d   1       5.986   2.845   5.272  0.00  0.00     0.003 A 
ATOM      6  C4  OXE d   1       5.993   3.923   4.378  0.00  0.00    -0.002 A 
ATOM      7  C5  OXE d   1       5.996   3.701   2.997  0.00  0.00    -0.002 A 
ATOM      8  C6  OXE d   1       5.998   2.396   2.517  0.00  0.00     0.003 A 
ENDROOT
TORSDOF 0
ENDMDL
