MODEL 1
REMARK minimizedAffinity 2.02354026
REMARK minimizedRMSD -1
REMARK  0 active torsions:
REMARK  status: ('A' for Active; 'I' for Inactive)
ROOT
ATOM      1  C2' OXE d   1       6.000   4.506   2.733  0.00  0.00     0.078 C 
ATOM      2  C1' OXE d   1       6.000   4.354   5.536  0.00  0.00     0.078 C 
ATOM      3  C1  OXE d   1       5.984   3.060   4.761  0.00  0.00    -0.078 A 
ATOM      4  C2  OXE d   1       5.936   3.145   3.390  0.00  0.00    -0.078 A 
ATOM      5  C3  OXE d   1       5.975   1.981   2.627  0.00  0.00     0.003 A 
ATOM      6  C4  OXE d   1       5.906   0.726   3.243  0.00  0.00    -0.002 A 
ATOM      7  C5  OXE d   1       5.913   0.619   4.638  0.00  0.00    -0.002 A 
ATOM      8  C6  OXE d   1       5.995   1.772   5.409  0.00  0.00     0.003 A 
ENDROOT
TORSDOF 0
ENDMDL
