MODEL 1
REMARK minimizedAffinity 3.36878419
REMARK minimizedRMSD -1
REMARK  0 active torsions:
REMARK  status: ('A' for Active; 'I' for Inactive)
ROOT
ATOM      1  C2' OXE d   1       6.000   2.607   5.489  0.00  0.00     0.078 C 
ATOM      2  C1' OXE d   1       5.999   1.655   2.848  0.00  0.00     0.078 C 
ATOM      3  C1  OXE d   1       5.986   3.149   3.057  0.00  0.00    -0.078 A 
ATOM      4  C2  OXE d   1       5.939   3.605   4.353  0.00  0.00    -0.078 A 
ATOM      5  C3  OXE d   1       5.981   4.974   4.603  0.00  0.00     0.003 A 
ATOM      6  C4  OXE d   1       5.914   5.890   3.546  0.00  0.00    -0.002 A 
ATOM      7  C5  OXE d   1       5.921   5.446   2.220  0.00  0.00    -0.002 A 
ATOM      8  C6  OXE d   1       5.999   4.082   1.958  0.00  0.00     0.003 A 
ENDROOT
TORSDOF 0
ENDMDL
