MODEL 1
REMARK minimizedAffinity 14.020649
REMARK minimizedRMSD -1
REMARK  0 active torsions:
REMARK  status: ('A' for Active; 'I' for Inactive)
ROOT
ATOM      1  C2' OXE d   1       0.452   4.539   4.342  0.00  0.00     0.078 C 
ATOM      2  C1' OXE d   1      -2.353   4.659   4.384  0.00  0.00     0.078 C 
ATOM      3  C1  OXE d   1      -1.692   4.056   3.169  0.00  0.00    -0.078 A 
ATOM      4  C2  OXE d   1      -0.318   4.044   3.137  0.00  0.00    -0.078 A 
ATOM      5  C3  OXE d   1       0.341   3.451   2.064  0.00  0.00     0.003 A 
ATOM      6  C4  OXE d   1      -0.378   3.004   0.949  0.00  0.00    -0.002 A 
ATOM      7  C5  OXE d   1      -1.777   3.044   0.944  0.00  0.00    -0.002 A 
ATOM      8  C6  OXE d   1      -2.449   3.526   2.062  0.00  0.00     0.003 A 
ENDROOT
TORSDOF 0
ENDMDL
