MODEL 1
REMARK minimizedAffinity -0.261918515
REMARK minimizedRMSD -1
REMARK  0 active torsions:
REMARK  status: ('A' for Active; 'I' for Inactive)
ROOT
ATOM      1  C2' OXE d   1       5.999   4.292   4.161  0.00  0.00     0.078 C 
ATOM      2  C1' OXE d   1       4.309   3.375   2.116  0.00  0.00     0.078 C 
ATOM      3  C1  OXE d   1       4.745   2.384   3.166  0.00  0.00    -0.078 A 
ATOM      4  C2  OXE d   1       5.610   2.830   4.137  0.00  0.00    -0.078 A 
ATOM      5  C3  OXE d   1       5.999   1.971   5.160  0.00  0.00     0.003 A 
ATOM      6  C4  OXE d   1       5.642   0.618   5.125  0.00  0.00    -0.002 A 
ATOM      7  C5  OXE d   1       4.795   0.134   4.123  0.00  0.00    -0.002 A 
ATOM      8  C6  OXE d   1       4.304   1.011   3.162  0.00  0.00     0.003 A 
ENDROOT
TORSDOF 0
ENDMDL
