MODEL 1
REMARK minimizedAffinity 1.04212046
REMARK minimizedRMSD -1
REMARK  0 active torsions:
REMARK  status: ('A' for Active; 'I' for Inactive)
ROOT
ATOM      1  C2' OXE d   1       6.000   0.826   2.146  0.00  0.00     0.078 C 
ATOM      2  C1' OXE d   1       5.820  -0.720   4.482  0.00  0.00     0.078 C 
ATOM      3  C1  OXE d   1       5.864   0.780   4.633  0.00  0.00    -0.078 A 
ATOM      4  C2  OXE d   1       5.999   1.527   3.487  0.00  0.00    -0.078 A 
ATOM      5  C3  OXE d   1       5.990   2.917   3.565  0.00  0.00     0.003 A 
ATOM      6  C4  OXE d   1       6.000   3.557   4.810  0.00  0.00    -0.002 A 
ATOM      7  C5  OXE d   1       5.903   2.813   5.992  0.00  0.00    -0.002 A 
ATOM      8  C6  OXE d   1       5.792   1.429   5.918  0.00  0.00     0.003 A 
ENDROOT
TORSDOF 0
ENDMDL
