MODEL 1
REMARK minimizedAffinity 1.3483814
REMARK minimizedRMSD -1
REMARK  0 active torsions:
REMARK  status: ('A' for Active; 'I' for Inactive)
ROOT
ATOM      1  C2' OXE d   1       4.498   1.572   1.948  0.00  0.00     0.078 C 
ATOM      2  C1' OXE d   1       5.367   3.896   3.261  0.00  0.00     0.078 C 
ATOM      3  C1  OXE d   1       5.461   2.590   4.008  0.00  0.00    -0.078 A 
ATOM      4  C2  OXE d   1       4.991   1.464   3.375  0.00  0.00    -0.078 A 
ATOM      5  C3  OXE d   1       5.105   0.225   3.998  0.00  0.00     0.003 A 
ATOM      6  C4  OXE d   1       5.552   0.135   5.322  0.00  0.00    -0.002 A 
ATOM      7  C5  OXE d   1       5.999   1.275   5.999  0.00  0.00    -0.002 A 
ATOM      8  C6  OXE d   1       6.000   2.501   5.343  0.00  0.00     0.003 A 
ENDROOT
TORSDOF 0
ENDMDL
