MODEL 1
REMARK minimizedAffinity -1.15638089
REMARK minimizedRMSD -1
REMARK  0 active torsions:
REMARK  status: ('A' for Active; 'I' for Inactive)
ROOT
ATOM      1  C2' OXE d   1       5.985   1.288   2.124  0.00  0.00     0.078 C 
ATOM      2  C1' OXE d   1       5.995   2.869   4.444  0.00  0.00     0.078 C 
ATOM      3  C1  OXE d   1       5.975   1.371   4.614  0.00  0.00    -0.078 A 
ATOM      4  C2  OXE d   1       5.923   0.606   3.474  0.00  0.00    -0.078 A 
ATOM      5  C3  OXE d   1       5.959  -0.782   3.573  0.00  0.00     0.003 A 
ATOM      6  C4  OXE d   1       5.892  -1.405   4.825  0.00  0.00    -0.002 A 
ATOM      7  C5  OXE d   1       5.904  -0.644   5.999  0.00  0.00    -0.002 A 
ATOM      8  C6  OXE d   1       5.988   0.741   5.911  0.00  0.00     0.003 A 
ENDROOT
TORSDOF 0
ENDMDL
