MODEL 1
REMARK minimizedAffinity 1.82717586
REMARK minimizedRMSD -1
REMARK  0 active torsions:
REMARK  status: ('A' for Active; 'I' for Inactive)
ROOT
ATOM      1  C2' OXE d   1       5.996   2.493   5.307  0.00  0.00     0.078 C 
ATOM      2  C1' OXE d   1       5.984   1.875   2.569  0.00  0.00     0.078 C 
ATOM      3  C1  OXE d   1       5.981   3.332   2.961  0.00  0.00    -0.078 A 
ATOM      4  C2  OXE d   1       5.940   3.624   4.303  0.00  0.00    -0.078 A 
ATOM      5  C3  OXE d   1       5.990   4.951   4.721  0.00  0.00     0.003 A 
ATOM      6  C4  OXE d   1       5.928   5.992   3.786  0.00  0.00    -0.002 A 
ATOM      7  C5  OXE d   1       5.930   5.715   2.415  0.00  0.00    -0.002 A 
ATOM      8  C6  OXE d   1       5.999   4.394   1.987  0.00  0.00     0.003 A 
ENDROOT
TORSDOF 0
ENDMDL
