MODEL 1
REMARK minimizedAffinity -1.56168318
REMARK minimizedRMSD -1
REMARK  0 active torsions:
REMARK  status: ('A' for Active; 'I' for Inactive)
ROOT
ATOM      1  C2' OXE d   1       5.979   4.914   0.888  0.00  0.00     0.078 C 
ATOM      2  C1' OXE d   1       5.958   5.989   3.481  0.00  0.00     0.078 C 
ATOM      3  C1  OXE d   1       5.971   4.487   3.342  0.00  0.00    -0.078 A 
ATOM      4  C2  OXE d   1       5.934   3.970   2.069  0.00  0.00    -0.078 A 
ATOM      5  C3  OXE d   1       6.000   2.592   1.883  0.00  0.00     0.003 A 
ATOM      6  C4  OXE d   1       5.948   1.725   2.981  0.00  0.00    -0.002 A 
ATOM      7  C5  OXE d   1       5.945   2.231   4.286  0.00  0.00    -0.002 A 
ATOM      8  C6  OXE d   1       5.999   3.606   4.483  0.00  0.00     0.003 A 
ENDROOT
TORSDOF 0
ENDMDL
