MODEL 1
REMARK minimizedAffinity -1.44140851
REMARK minimizedRMSD -1
REMARK  0 active torsions:
REMARK  status: ('A' for Active; 'I' for Inactive)
ROOT
ATOM      1  C2' OXE d   1       6.000  -0.339   3.018  0.00  0.00     0.078 C 
ATOM      2  C1' OXE d   1       4.860   0.565   5.419  0.00  0.00     0.078 C 
ATOM      3  C1  OXE d   1       5.155   1.588   4.352  0.00  0.00    -0.078 A 
ATOM      4  C2  OXE d   1       5.756   1.144   3.199  0.00  0.00    -0.078 A 
ATOM      5  C3  OXE d   1       6.000   2.038   2.160  0.00  0.00     0.003 A 
ATOM      6  C4  OXE d   1       5.780   3.409   2.338  0.00  0.00    -0.002 A 
ATOM      7  C5  OXE d   1       5.206   3.888   3.520  0.00  0.00    -0.002 A 
ATOM      8  C6  OXE d   1       4.849   2.988   4.518  0.00  0.00     0.003 A 
ENDROOT
TORSDOF 0
ENDMDL
