MODEL 1
REMARK minimizedAffinity 0.412584007
REMARK minimizedRMSD -1
REMARK  0 active torsions:
REMARK  status: ('A' for Active; 'I' for Inactive)
ROOT
ATOM      1  C2' OXE d   1       5.972   1.482   5.888  0.00  0.00     0.078 C 
ATOM      2  C1' OXE d   1       5.951   1.179   3.097  0.00  0.00     0.078 C 
ATOM      3  C1  OXE d   1       5.968   2.582   3.652  0.00  0.00    -0.078 A 
ATOM      4  C2  OXE d   1       5.931   2.721   5.019  0.00  0.00    -0.078 A 
ATOM      5  C3  OXE d   1       6.000   3.991   5.584  0.00  0.00     0.003 A 
ATOM      6  C4  OXE d   1       5.951   5.131   4.774  0.00  0.00    -0.002 A 
ATOM      7  C5  OXE d   1       5.949   5.012   3.380  0.00  0.00    -0.002 A 
ATOM      8  C6  OXE d   1       6.000   3.748   2.804  0.00  0.00     0.003 A 
ENDROOT
TORSDOF 0
ENDMDL
