MODEL 1
REMARK minimizedAffinity -1.4663254
REMARK minimizedRMSD -1
REMARK  0 active torsions:
REMARK  status: ('A' for Active; 'I' for Inactive)
ROOT
ATOM      1  N1  IND d   1       0.688  -0.777   1.182  0.00  0.00    -0.196 N 
ATOM      2  C2  IND d   1       1.900  -0.636   0.566  0.00  0.00     0.054 A 
ATOM      3  C3  IND d   1       2.411   0.592   0.809  0.00  0.00    -0.031 A 
ATOM      4  C4  IND d   1       1.478   2.491   2.276  0.00  0.00     0.051 A 
ATOM      5  C5  IND d   1       0.383   2.843   3.013  0.00  0.00    -0.031 A 
ATOM      6  C6  IND d   1      -0.687   1.988   3.184  0.00  0.00     0.015 A 
ATOM      7  C7  IND d   1      -0.697   0.740   2.630  0.00  0.00    -0.016 A 
ATOM      8  C8  IND d   1       0.411   0.381   1.875  0.00  0.00    -0.047 A 
ATOM      9  C9  IND d   1       1.481   1.260   1.663  0.00  0.00    -0.096 A 
ATOM     10  HN1 IND d   1       0.184  -1.473   1.144  0.00  0.00     0.298 HD
ENDROOT
TORSDOF 0
ENDMDL
