MODEL 1
REMARK minimizedAffinity -4.24076128
REMARK minimizedRMSD -1
REMARK  0 active torsions:
REMARK  status: ('A' for Active; 'I' for Inactive)
ROOT
ATOM      1  N1  IND d   1       2.738   1.852  -2.123  0.00  0.00    -0.196 N 
ATOM      2  C2  IND d   1       2.223   1.954  -3.385  0.00  0.00     0.054 A 
ATOM      3  C3  IND d   1       1.184   1.103  -3.539  0.00  0.00    -0.031 A 
ATOM      4  C4  IND d   1       0.093  -0.475  -1.822  0.00  0.00     0.051 A 
ATOM      5  C5  IND d   1       0.237  -0.942  -0.545  0.00  0.00    -0.031 A 
ATOM      6  C6  IND d   1       1.240  -0.491   0.288  0.00  0.00     0.015 A 
ATOM      7  C7  IND d   1       2.134   0.457  -0.122  0.00  0.00    -0.016 A 
ATOM      8  C8  IND d   1       1.995   0.929  -1.420  0.00  0.00    -0.047 A 
ATOM      9  C9  IND d   1       1.006   0.444  -2.284  0.00  0.00    -0.096 A 
ATOM     10  HN1 IND d   1       3.412   2.291  -1.819  0.00  0.00     0.298 HD
ENDROOT
TORSDOF 0
ENDMDL
