MODEL 1
REMARK minimizedAffinity 7.89643288
REMARK minimizedRMSD -1
REMARK  0 active torsions:
REMARK  status: ('A' for Active; 'I' for Inactive)
ROOT
ATOM      1  N1  IND d   1       0.756  -0.895   2.648  0.00  0.00    -0.196 N 
ATOM      2  C2  IND d   1       1.988  -1.060   2.079  0.00  0.00     0.054 A 
ATOM      3  C3  IND d   1       1.908  -0.922   0.737  0.00  0.00    -0.031 A 
ATOM      4  C4  IND d   1      -0.122  -0.321  -0.728  0.00  0.00     0.051 A 
ATOM      5  C5  IND d   1      -1.471  -0.111  -0.665  0.00  0.00    -0.031 A 
ATOM      6  C6  IND d   1      -2.160  -0.149   0.529  0.00  0.00     0.015 A 
ATOM      7  C7  IND d   1      -1.521  -0.389   1.713  0.00  0.00    -0.016 A 
ATOM      8  C8  IND d   1      -0.152  -0.610   1.652  0.00  0.00    -0.047 A 
ATOM      9  C9  IND d   1       0.545  -0.615   0.438  0.00  0.00    -0.096 A 
ATOM     10  HN1 IND d   1       0.578  -0.958   3.487  0.00  0.00     0.298 HD
ENDROOT
TORSDOF 0
ENDMDL
