MODEL 1
REMARK minimizedAffinity -0.787471294
REMARK minimizedRMSD -1
REMARK  0 active torsions:
REMARK  status: ('A' for Active; 'I' for Inactive)
ROOT
ATOM      1  N1  IND d   1       1.311  -0.492   1.372  0.00  0.00    -0.196 N 
ATOM      2  C2  IND d   1       1.888  -0.770   0.165  0.00  0.00     0.054 A 
ATOM      3  C3  IND d   1       0.977  -0.661  -0.828  0.00  0.00    -0.031 A 
ATOM      4  C4  IND d   1      -1.492   0.059  -0.710  0.00  0.00     0.051 A 
ATOM      5  C5  IND d   1      -2.480   0.378   0.179  0.00  0.00    -0.031 A 
ATOM      6  C6  IND d   1      -2.250   0.426   1.538  0.00  0.00     0.015 A 
ATOM      7  C7  IND d   1      -1.014   0.168   2.061  0.00  0.00    -0.016 A 
ATOM      8  C8  IND d   1      -0.010  -0.163   1.162  0.00  0.00    -0.047 A 
ATOM      9  C9  IND d   1      -0.249  -0.255  -0.215  0.00  0.00    -0.096 A 
ATOM     10  HN1 IND d   1       1.706  -0.519   2.135  0.00  0.00     0.298 HD
ENDROOT
TORSDOF 0
ENDMDL
