MODEL 1
REMARK minimizedAffinity 1.48039186
REMARK minimizedRMSD -1
REMARK  0 active torsions:
REMARK  status: ('A' for Active; 'I' for Inactive)
ROOT
ATOM      1  N1  IND d   1       1.006  -0.761   1.219  0.00  0.00    -0.196 N 
ATOM      2  C2  IND d   1       1.527  -1.070  -0.007  0.00  0.00     0.054 A 
ATOM      3  C3  IND d   1       0.667  -0.712  -0.987  0.00  0.00    -0.031 A 
ATOM      4  C4  IND d   1      -1.604   0.488  -0.812  0.00  0.00     0.051 A 
ATOM      5  C5  IND d   1      -2.515   0.942   0.100  0.00  0.00    -0.031 A 
ATOM      6  C6  IND d   1      -2.293   0.853   1.459  0.00  0.00     0.015 A 
ATOM      7  C7  IND d   1      -1.142   0.314   1.958  0.00  0.00    -0.016 A 
ATOM      8  C8  IND d   1      -0.218  -0.155   1.035  0.00  0.00    -0.047 A 
ATOM      9  C9  IND d   1      -0.456  -0.106  -0.344  0.00  0.00    -0.096 A 
ATOM     10  HN1 IND d   1       1.381  -0.918   1.977  0.00  0.00     0.298 HD
ENDROOT
TORSDOF 0
ENDMDL
