MODEL 1
REMARK minimizedAffinity 6.61754608
REMARK minimizedRMSD -1
REMARK  0 active torsions:
REMARK  status: ('A' for Active; 'I' for Inactive)
ROOT
ATOM      1  N1  IND d   1       1.549  -0.671   0.265  0.00  0.00    -0.196 N 
ATOM      2  C2  IND d   1       2.073  -0.732   1.526  0.00  0.00     0.054 A 
ATOM      3  C3  IND d   1       1.132  -0.413   2.443  0.00  0.00    -0.031 A 
ATOM      4  C4  IND d   1      -1.359   0.143   2.104  0.00  0.00     0.051 A 
ATOM      5  C5  IND d   1      -2.291   0.358   1.128  0.00  0.00    -0.031 A 
ATOM      6  C6  IND d   1      -1.986   0.236  -0.212  0.00  0.00     0.015 A 
ATOM      7  C7  IND d   1      -0.734  -0.119  -0.628  0.00  0.00    -0.016 A 
ATOM      8  C8  IND d   1       0.218  -0.331   0.360  0.00  0.00    -0.047 A 
ATOM      9  C9  IND d   1      -0.075  -0.167   1.720  0.00  0.00    -0.096 A 
ATOM     10  HN1 IND d   1       1.979  -0.820  -0.465  0.00  0.00     0.298 HD
ENDROOT
TORSDOF 0
ENDMDL
