MODEL 1
REMARK minimizedAffinity 0.548476756
REMARK minimizedRMSD -1
REMARK  0 active torsions:
REMARK  status: ('A' for Active; 'I' for Inactive)
ROOT
ATOM      1  N1  IND d   1       1.173   0.102   0.383  0.00  0.00    -0.196 N 
ATOM      2  C2  IND d   1       1.158  -0.095  -0.969  0.00  0.00     0.054 A 
ATOM      3  C3  IND d   1      -0.114  -0.207  -1.414  0.00  0.00    -0.031 A 
ATOM      4  C4  IND d   1      -2.326   0.004  -0.114  0.00  0.00     0.051 A 
ATOM      5  C5  IND d   1      -2.822   0.147   1.151  0.00  0.00    -0.031 A 
ATOM      6  C6  IND d   1      -1.996   0.288   2.247  0.00  0.00     0.015 A 
ATOM      7  C7  IND d   1      -0.636   0.303   2.116  0.00  0.00    -0.016 A 
ATOM      8  C8  IND d   1      -0.128   0.150   0.834  0.00  0.00    -0.047 A 
ATOM      9  C9  IND d   1      -0.961  -0.036  -0.277  0.00  0.00    -0.096 A 
ATOM     10  HN1 IND d   1       1.877   0.182   0.871  0.00  0.00     0.298 HD
ENDROOT
TORSDOF 0
ENDMDL
