MODEL 1
REMARK minimizedAffinity -0.863831401
REMARK minimizedRMSD -1
REMARK  0 active torsions:
REMARK  status: ('A' for Active; 'I' for Inactive)
ROOT
ATOM      1  N1  IND d   1       1.906   0.157  -0.090  0.00  0.00    -0.196 N 
ATOM      2  C2  IND d   1       0.828  -0.617   0.239  0.00  0.00     0.054 A 
ATOM      3  C3  IND d   1      -0.001  -0.743  -0.821  0.00  0.00    -0.031 A 
ATOM      4  C4  IND d   1       0.263   0.151  -3.221  0.00  0.00     0.051 A 
ATOM      5  C5  IND d   1       1.066   0.943  -3.993  0.00  0.00    -0.031 A 
ATOM      6  C6  IND d   1       2.214   1.523  -3.494  0.00  0.00     0.015 A 
ATOM      7  C7  IND d   1       2.610   1.323  -2.202  0.00  0.00    -0.016 A 
ATOM      8  C8  IND d   1       1.794   0.525  -1.413  0.00  0.00    -0.047 A 
ATOM      9  C9  IND d   1       0.605  -0.032  -1.901  0.00  0.00    -0.096 A 
ATOM     10  HN1 IND d   1       2.546   0.378   0.440  0.00  0.00     0.298 HD
ENDROOT
TORSDOF 0
ENDMDL
