MODEL 1
REMARK minimizedAffinity 7.4375906
REMARK minimizedRMSD -1
REMARK  0 active torsions:
REMARK  status: ('A' for Active; 'I' for Inactive)
ROOT
ATOM      1  C   UNL d   1       0.381   4.575   3.475  0.00  0.00    -0.002 A 
ATOM      2  C1  UNL d   1       0.087   5.473   4.491  0.00  0.00     0.010 A 
ATOM      3  C2  UNL d   1       1.097   5.963   5.321  0.00  0.00     0.041 A 
ATOM      4  C3  UNL d   1       2.422   5.533   5.109  0.00  0.00    -0.075 A 
ATOM      5  S   UNL d   1       3.822   6.000   6.000  0.00  0.00     0.015 SA
ATOM      6  C4  UNL d   1       4.844   5.019   5.052  0.00  0.00     0.022 A 
ATOM      7  C5  UNL d   1       4.151   4.345   4.075  0.00  0.00     0.026 A 
ATOM      8  C6  UNL d   1       2.743   4.630   4.091  0.00  0.00    -0.082 A 
ATOM      9  C7  UNL d   1       1.696   4.151   3.267  0.00  0.00     0.045 A 
ENDROOT
TORSDOF 0
ENDMDL
