MODEL 1
REMARK minimizedAffinity 14.9837132
REMARK minimizedRMSD -1
REMARK  0 active torsions:
REMARK  status: ('A' for Active; 'I' for Inactive)
ROOT
ATOM      1  C   UNL d   1       3.036  -1.083  -1.485  0.00  0.00    -0.002 A 
ATOM      2  C1  UNL d   1       2.243   0.055  -1.493  0.00  0.00     0.010 A 
ATOM      3  C2  UNL d   1       1.376   0.325  -0.432  0.00  0.00     0.041 A 
ATOM      4  C3  UNL d   1       1.319  -0.578   0.648  0.00  0.00    -0.075 A 
ATOM      5  S   UNL d   1       0.333  -0.453   2.056  0.00  0.00     0.015 SA
ATOM      6  C4  UNL d   1       0.941  -1.908   2.702  0.00  0.00     0.022 A 
ATOM      7  C5  UNL d   1       1.875  -2.488   1.877  0.00  0.00     0.026 A 
ATOM      8  C6  UNL d   1       2.109  -1.731   0.680  0.00  0.00    -0.082 A 
ATOM      9  C7  UNL d   1       2.977  -1.976  -0.411  0.00  0.00     0.045 A 
ENDROOT
TORSDOF 0
ENDMDL
