MODEL 1
REMARK minimizedAffinity 5.6034379
REMARK minimizedRMSD -1
REMARK  0 active torsions:
REMARK  status: ('A' for Active; 'I' for Inactive)
ROOT
ATOM      1  C   UNL d   1       1.965   0.373  -2.142  0.00  0.00    -0.002 A 
ATOM      2  C1  UNL d   1       2.206   1.454  -1.306  0.00  0.00     0.010 A 
ATOM      3  C2  UNL d   1       2.318   1.273   0.074  0.00  0.00     0.041 A 
ATOM      4  C3  UNL d   1       2.186  -0.025   0.604  0.00  0.00    -0.075 A 
ATOM      5  S   UNL d   1       2.287  -0.486   2.263  0.00  0.00     0.015 SA
ATOM      6  C4  UNL d   1       2.014  -2.129   1.900  0.00  0.00     0.022 A 
ATOM      7  C5  UNL d   1       1.848  -2.339   0.551  0.00  0.00     0.026 A 
ATOM      8  C6  UNL d   1       1.944  -1.130  -0.218  0.00  0.00    -0.082 A 
ATOM      9  C7  UNL d   1       1.835  -0.914  -1.612  0.00  0.00     0.045 A 
ENDROOT
TORSDOF 0
ENDMDL
