MODEL 1
REMARK minimizedAffinity -2.61480045
REMARK minimizedRMSD -1
REMARK  0 active torsions:
REMARK  status: ('A' for Active; 'I' for Inactive)
ROOT
ATOM      1  O1  BZF d   1       0.503  -0.014  -2.023  0.00  0.00    -0.204 OA
ATOM      2  C2  BZF d   1       1.506   0.921  -1.855  0.00  0.00     0.174 A 
ATOM      3  C3  BZF d   1       1.872   1.449  -3.041  0.00  0.00    -0.012 A 
ATOM      4  C3A BZF d   1       0.981   0.871  -4.000  0.00  0.00    -0.107 A 
ATOM      5  C4  BZF d   1       0.835   1.014  -5.351  0.00  0.00     0.055 A 
ATOM      6  C5  BZF d   1      -0.083   0.251  -6.000  0.00  0.00    -0.016 A 
ATOM      7  C6  BZF d   1      -0.866  -0.668  -5.333  0.00  0.00     0.022 A 
ATOM      8  C7  BZF d   1      -0.760  -0.843  -3.993  0.00  0.00     0.029 A 
ATOM      9  C7A BZF d   1       0.143  -0.049  -3.329  0.00  0.00     0.058 A 
ENDROOT
TORSDOF 0
ENDMDL
