MODEL 1
REMARK minimizedAffinity 2.24834728
REMARK minimizedRMSD -1
REMARK  0 active torsions:
REMARK  status: ('A' for Active; 'I' for Inactive)
ROOT
ATOM      1  O1  BZF d   1      -2.268   0.012   4.060  0.00  0.00    -0.204 OA
ATOM      2  C2  BZF d   1      -2.743  -1.227   3.675  0.00  0.00     0.174 A 
ATOM      3  C3  BZF d   1      -2.492  -1.450   2.369  0.00  0.00    -0.012 A 
ATOM      4  C3A BZF d   1      -1.737  -0.316   1.931  0.00  0.00    -0.107 A 
ATOM      5  C4  BZF d   1      -1.180   0.036   0.735  0.00  0.00     0.055 A 
ATOM      6  C5  BZF d   1      -0.569   1.245   0.621  0.00  0.00    -0.016 A 
ATOM      7  C6  BZF d   1      -0.502   2.127   1.680  0.00  0.00     0.022 A 
ATOM      8  C7  BZF d   1      -1.035   1.819   2.887  0.00  0.00     0.029 A 
ATOM      9  C7A BZF d   1      -1.624   0.585   3.015  0.00  0.00     0.058 A 
ENDROOT
TORSDOF 0
ENDMDL
