MODEL 1
REMARK minimizedAffinity -2.57372737
REMARK minimizedRMSD -1
REMARK  0 active torsions:
REMARK  status: ('A' for Active; 'I' for Inactive)
ROOT
ATOM      1  O1  BZF d   1      -1.023  -0.989  -0.008  0.00  0.00    -0.204 OA
ATOM      2  C2  BZF d   1      -0.389  -0.794  -1.220  0.00  0.00     0.174 A 
ATOM      3  C3  BZF d   1       0.256   0.390  -1.237  0.00  0.00    -0.012 A 
ATOM      4  C3A BZF d   1       0.087   0.930   0.077  0.00  0.00    -0.107 A 
ATOM      5  C4  BZF d   1       0.512   2.078   0.682  0.00  0.00     0.055 A 
ATOM      6  C5  BZF d   1       0.113   2.341   1.954  0.00  0.00    -0.016 A 
ATOM      7  C6  BZF d   1      -0.714   1.482   2.648  0.00  0.00     0.022 A 
ATOM      8  C7  BZF d   1      -1.157   0.329   2.091  0.00  0.00     0.029 A 
ATOM      9  C7A BZF d   1      -0.729   0.044   0.818  0.00  0.00     0.058 A 
ENDROOT
TORSDOF 0
ENDMDL
