MODEL 1
REMARK minimizedAffinity -3.46001005
REMARK minimizedRMSD -1
REMARK  0 active torsions:
REMARK  status: ('A' for Active; 'I' for Inactive)
ROOT
ATOM      1  O1  BZF d   1       1.898  -0.835  -1.368  0.00  0.00    -0.204 OA
ATOM      2  C2  BZF d   1       0.905  -1.501  -0.677  0.00  0.00     0.174 A 
ATOM      3  C3  BZF d   1      -0.305  -1.249  -1.217  0.00  0.00    -0.012 A 
ATOM      4  C3A BZF d   1      -0.042  -0.444  -2.370  0.00  0.00    -0.107 A 
ATOM      5  C4  BZF d   1      -0.840   0.112  -3.329  0.00  0.00     0.055 A 
ATOM      6  C5  BZF d   1      -0.277   0.904  -4.279  0.00  0.00    -0.016 A 
ATOM      7  C6  BZF d   1       1.077   1.165  -4.297  0.00  0.00     0.022 A 
ATOM      8  C7  BZF d   1       1.910   0.631  -3.370  0.00  0.00     0.029 A 
ATOM      9  C7A BZF d   1       1.349  -0.196  -2.429  0.00  0.00     0.058 A 
ENDROOT
TORSDOF 0
ENDMDL
