MODEL 1
REMARK minimizedAffinity 0.415263683
REMARK minimizedRMSD -1
REMARK  0 active torsions:
REMARK  status: ('A' for Active; 'I' for Inactive)
ROOT
ATOM      1  O1  BZF d   1       1.296   0.707   2.814  0.00  0.00    -0.204 OA
ATOM      2  C2  BZF d   1       2.316  -0.013   2.225  0.00  0.00     0.174 A 
ATOM      3  C3  BZF d   1       1.901  -0.575   1.071  0.00  0.00    -0.012 A 
ATOM      4  C3A BZF d   1       0.563  -0.105   0.884  0.00  0.00    -0.107 A 
ATOM      5  C4  BZF d   1      -0.374  -0.302  -0.090  0.00  0.00     0.055 A 
ATOM      6  C5  BZF d   1      -1.611   0.241   0.064  0.00  0.00    -0.016 A 
ATOM      7  C6  BZF d   1      -1.945   0.981   1.179  0.00  0.00     0.022 A 
ATOM      8  C7  BZF d   1      -1.048   1.208   2.169  0.00  0.00     0.029 A 
ATOM      9  C7A BZF d   1       0.212   0.688   2.001  0.00  0.00     0.058 A 
ENDROOT
TORSDOF 0
ENDMDL
