MODEL 1
REMARK minimizedAffinity -3.74644518
REMARK minimizedRMSD -1
REMARK  0 active torsions:
REMARK  status: ('A' for Active; 'I' for Inactive)
ROOT
ATOM      1  O1  BZF d   1      -0.466   1.141  -4.214  0.00  0.00    -0.204 OA
ATOM      2  C2  BZF d   1      -1.187   0.014  -4.558  0.00  0.00     0.174 A 
ATOM      3  C3  BZF d   1      -0.370  -1.047  -4.717  0.00  0.00    -0.012 A 
ATOM      4  C3A BZF d   1       0.934  -0.573  -4.365  0.00  0.00    -0.107 A 
ATOM      5  C4  BZF d   1       2.164  -1.164  -4.308  0.00  0.00     0.055 A 
ATOM      6  C5  BZF d   1       3.247  -0.406  -3.997  0.00  0.00    -0.016 A 
ATOM      7  C6  BZF d   1       3.139   0.946  -3.744  0.00  0.00     0.022 A 
ATOM      8  C7  BZF d   1       1.939   1.576  -3.784  0.00  0.00     0.029 A 
ATOM      9  C7A BZF d   1       0.838   0.805  -4.065  0.00  0.00     0.058 A 
ENDROOT
TORSDOF 0
ENDMDL
