MODEL 1
REMARK minimizedAffinity -2.32393026
REMARK minimizedRMSD -1
REMARK  0 active torsions:
REMARK  status: ('A' for Active; 'I' for Inactive)
ROOT
ATOM      1  O1  BZF d   1       1.438  -0.595  -2.446  0.00  0.00    -0.204 OA
ATOM      2  C2  BZF d   1       0.785   0.321  -3.247  0.00  0.00     0.174 A 
ATOM      3  C3  BZF d   1       0.055   1.175  -2.501  0.00  0.00    -0.012 A 
ATOM      4  C3A BZF d   1       0.338   0.824  -1.143  0.00  0.00    -0.107 A 
ATOM      5  C4  BZF d   1      -0.074   1.320   0.061  0.00  0.00     0.055 A 
ATOM      6  C5  BZF d   1       0.331   0.705   1.203  0.00  0.00    -0.016 A 
ATOM      7  C6  BZF d   1       1.142  -0.410   1.178  0.00  0.00     0.022 A 
ATOM      8  C7  BZF d   1       1.581  -0.936   0.008  0.00  0.00     0.029 A 
ATOM      9  C7A BZF d   1       1.201  -0.297  -1.146  0.00  0.00     0.058 A 
ENDROOT
TORSDOF 0
ENDMDL
