MODEL 1
REMARK minimizedAffinity -3.93653917
REMARK minimizedRMSD -1
REMARK  0 active torsions:
REMARK  status: ('A' for Active; 'I' for Inactive)
ROOT
ATOM      1  O1  BZF d   1       1.914  -1.635   0.489  0.00  0.00    -0.204 OA
ATOM      2  C2  BZF d   1       3.035  -1.361   1.249  0.00  0.00     0.174 A 
ATOM      3  C3  BZF d   1       2.861  -0.237   1.972  0.00  0.00    -0.012 A 
ATOM      4  C3A BZF d   1       1.513   0.171   1.715  0.00  0.00    -0.107 A 
ATOM      5  C4  BZF d   1       0.746   1.210   2.158  0.00  0.00     0.055 A 
ATOM      6  C5  BZF d   1      -0.508   1.365   1.658  0.00  0.00    -0.016 A 
ATOM      7  C6  BZF d   1      -1.024   0.504   0.711  0.00  0.00     0.022 A 
ATOM      8  C7  BZF d   1      -0.302  -0.545   0.246  0.00  0.00     0.029 A 
ATOM      9  C7A BZF d   1       0.953  -0.723   0.773  0.00  0.00     0.058 A 
ENDROOT
TORSDOF 0
ENDMDL
