MODEL 1
REMARK minimizedAffinity -2.84437609
REMARK minimizedRMSD -1
REMARK  0 active torsions:
REMARK  status: ('A' for Active; 'I' for Inactive)
ROOT
ATOM      1  O1  BZF d   1       1.521  -0.612  -0.737  0.00  0.00    -0.204 OA
ATOM      2  C2  BZF d   1       0.531  -0.485   0.218  0.00  0.00     0.174 A 
ATOM      3  C3  BZF d   1      -0.630  -0.092  -0.346  0.00  0.00    -0.012 A 
ATOM      4  C3A BZF d   1      -0.371  -0.054  -1.752  0.00  0.00    -0.107 A 
ATOM      5  C4  BZF d   1      -1.139   0.250  -2.840  0.00  0.00     0.055 A 
ATOM      6  C5  BZF d   1      -0.564   0.262  -4.071  0.00  0.00    -0.016 A 
ATOM      7  C6  BZF d   1       0.775  -0.018  -4.251  0.00  0.00     0.022 A 
ATOM      8  C7  BZF d   1       1.575  -0.330  -3.202  0.00  0.00     0.029 A 
ATOM      9  C7A BZF d   1       0.990  -0.375  -1.961  0.00  0.00     0.058 A 
ENDROOT
TORSDOF 0
ENDMDL
