MODEL 1
REMARK minimizedAffinity -3.64366579
REMARK minimizedRMSD -1
REMARK  0 active torsions:
REMARK  status: ('A' for Active; 'I' for Inactive)
ROOT
ATOM      1  O1  BZF d   1      -0.337   0.180  -5.675  0.00  0.00    -0.204 OA
ATOM      2  C2  BZF d   1      -1.240  -0.728  -5.156  0.00  0.00     0.174 A 
ATOM      3  C3  BZF d   1      -0.931  -1.033  -3.879  0.00  0.00    -0.012 A 
ATOM      4  C3A BZF d   1       0.185  -0.199  -3.552  0.00  0.00    -0.107 A 
ATOM      5  C4  BZF d   1       0.932  -0.032  -2.421  0.00  0.00     0.055 A 
ATOM      6  C5  BZF d   1       1.999   0.809  -2.453  0.00  0.00    -0.016 A 
ATOM      7  C6  BZF d   1       2.349   1.494  -3.598  0.00  0.00     0.022 A 
ATOM      8  C7  BZF d   1       1.635   1.365  -4.743  0.00  0.00     0.029 A 
ATOM      9  C7A BZF d   1       0.537   0.541  -4.704  0.00  0.00     0.058 A 
ENDROOT
TORSDOF 0
ENDMDL
