MODEL 1
REMARK minimizedAffinity -0.443691909
REMARK minimizedRMSD -1
REMARK  0 active torsions:
REMARK  status: ('A' for Active; 'I' for Inactive)
ROOT
ATOM      1  O1  BZF d   1       1.349   2.116  -3.797  0.00  0.00    -0.204 OA
ATOM      2  C2  BZF d   1       0.324   1.318  -3.326  0.00  0.00     0.174 A 
ATOM      3  C3  BZF d   1       0.746   0.048  -3.155  0.00  0.00    -0.012 A 
ATOM      4  C3A BZF d   1       2.145   0.073  -3.455  0.00  0.00    -0.107 A 
ATOM      5  C4  BZF d   1       3.123  -0.880  -3.451  0.00  0.00     0.055 A 
ATOM      6  C5  BZF d   1       4.373  -0.546  -3.867  0.00  0.00    -0.016 A 
ATOM      7  C6  BZF d   1       4.678   0.729  -4.298  0.00  0.00     0.022 A 
ATOM      8  C7  BZF d   1       3.742   1.709  -4.315  0.00  0.00     0.029 A 
ATOM      9  C7A BZF d   1       2.487   1.383  -3.864  0.00  0.00     0.058 A 
ENDROOT
TORSDOF 0
ENDMDL
