MODEL 1
REMARK minimizedAffinity 6.81717443
REMARK minimizedRMSD -1
REMARK  0 active torsions:
REMARK  status: ('A' for Active; 'I' for Inactive)
ROOT
ATOM      1  C   UNL d   1       1.585  -2.971  -0.139  0.00  0.00     0.124 A 
ATOM      2  C1  UNL d   1       2.118  -1.768   0.305  0.00  0.00     0.062 A 
ATOM      3  C2  UNL d   1       1.296  -0.815   0.899  0.00  0.00     0.162 A 
ATOM      4  C3  UNL d   1      -0.069  -1.060   1.053  0.00  0.00    -0.034 A 
ATOM      5  C4  UNL d   1      -0.598  -2.271   0.603  0.00  0.00     0.162 A 
ATOM      6  C5  UNL d   1       0.228  -3.221   0.011  0.00  0.00     0.062 A 
ATOM      7  F   UNL d   1      -0.289  -4.381  -0.417  0.00  0.00    -0.097 F 
ATOM      8  F1  UNL d   1      -1.905  -2.539   0.736  0.00  0.00    -0.096 F 
ATOM      9  I   UNL d   1      -1.301   0.364   1.940  0.00  0.00    -0.060 I 
ATOM     10  F2  UNL d   1       1.838   0.338   1.318  0.00  0.00    -0.096 F 
ATOM     11  F3  UNL d   1       3.428  -1.524   0.161  0.00  0.00    -0.097 F 
ATOM     12  F4  UNL d   1       2.378  -3.886  -0.710  0.00  0.00    -0.092 F 
ENDROOT
TORSDOF 0
ENDMDL
