MODEL 1
REMARK minimizedAffinity 3.58915329
REMARK minimizedRMSD -1
REMARK  0 active torsions:
REMARK  status: ('A' for Active; 'I' for Inactive)
ROOT
ATOM      1  C   UNL d   1       1.533  -2.742  -0.156  0.00  0.00     0.124 A 
ATOM      2  C1  UNL d   1       0.170  -2.898   0.053  0.00  0.00     0.062 A 
ATOM      3  C2  UNL d   1      -0.561  -1.895   0.683  0.00  0.00     0.162 A 
ATOM      4  C3  UNL d   1       0.069  -0.725   1.106  0.00  0.00    -0.034 A 
ATOM      5  C4  UNL d   1       1.440  -0.575   0.893  0.00  0.00     0.162 A 
ATOM      6  C5  UNL d   1       2.167  -1.581   0.263  0.00  0.00     0.062 A 
ATOM      7  F   UNL d   1       3.484  -1.428   0.062  0.00  0.00    -0.097 F 
ATOM      8  F1  UNL d   1       2.078   0.537   1.287  0.00  0.00    -0.096 F 
ATOM      9  I   UNL d   1      -1.021   0.778   2.047  0.00  0.00    -0.060 I 
ATOM     10  F2  UNL d   1      -1.877  -2.073   0.872  0.00  0.00    -0.096 F 
ATOM     11  F3  UNL d   1      -0.445  -4.020  -0.350  0.00  0.00    -0.097 F 
ATOM     12  F4  UNL d   1       2.234  -3.709  -0.761  0.00  0.00    -0.092 F 
ENDROOT
TORSDOF 0
ENDMDL
