MODEL 1
REMARK minimizedAffinity -0.683847189
REMARK minimizedRMSD -1
REMARK  0 active torsions:
REMARK  status: ('A' for Active; 'I' for Inactive)
ROOT
ATOM      1  C   UNL d   1       1.696  -2.008   0.068  0.00  0.00     0.124 A 
ATOM      2  C1  UNL d   1       0.643  -2.682   0.669  0.00  0.00     0.062 A 
ATOM      3  C2  UNL d   1      -0.315  -1.979   1.395  0.00  0.00     0.162 A 
ATOM      4  C3  UNL d   1      -0.223  -0.593   1.523  0.00  0.00    -0.034 A 
ATOM      5  C4  UNL d   1       0.840   0.078   0.917  0.00  0.00     0.162 A 
ATOM      6  C5  UNL d   1       1.794  -0.629   0.192  0.00  0.00     0.062 A 
ATOM      7  F   UNL d   1       2.812   0.024  -0.388  0.00  0.00    -0.097 F 
ATOM      8  F1  UNL d   1       0.959   1.410   1.020  0.00  0.00    -0.096 F 
ATOM      9  I   UNL d   1      -1.652   0.461   2.608  0.00  0.00    -0.060 I 
ATOM     10  F2  UNL d   1      -1.322  -2.656   1.965  0.00  0.00    -0.096 F 
ATOM     11  F3  UNL d   1       0.546  -4.014   0.551  0.00  0.00    -0.097 F 
ATOM     12  F4  UNL d   1       2.617  -2.686  -0.630  0.00  0.00    -0.092 F 
ENDROOT
TORSDOF 0
ENDMDL
