MODEL 1
REMARK minimizedAffinity 4.44231606
REMARK minimizedRMSD -1
REMARK  0 active torsions:
REMARK  status: ('A' for Active; 'I' for Inactive)
ROOT
ATOM      1  C   UNL d   1       4.531   4.501   1.192  0.00  0.00     0.124 A 
ATOM      2  C1  UNL d   1       5.172   4.889   0.024  0.00  0.00     0.062 A 
ATOM      3  C2  UNL d   1       5.040   4.127  -1.133  0.00  0.00     0.162 A 
ATOM      4  C3  UNL d   1       4.261   2.970  -1.128  0.00  0.00    -0.034 A 
ATOM      5  C4  UNL d   1       3.620   2.586   0.051  0.00  0.00     0.162 A 
ATOM      6  C5  UNL d   1       3.756   3.350   1.205  0.00  0.00     0.062 A 
ATOM      7  F   UNL d   1       3.136   2.974   2.333  0.00  0.00    -0.097 F 
ATOM      8  F1  UNL d   1       2.864   1.478   0.091  0.00  0.00    -0.096 F 
ATOM      9  I   UNL d   1       4.060   1.828  -2.857  0.00  0.00    -0.060 I 
ATOM     10  F2  UNL d   1       5.671   4.525  -2.248  0.00  0.00    -0.096 F 
ATOM     11  F3  UNL d   1       5.923   6.000   0.010  0.00  0.00    -0.097 F 
ATOM     12  F4  UNL d   1       4.661   5.236   2.305  0.00  0.00    -0.092 F 
ENDROOT
TORSDOF 0
ENDMDL
