MODEL 1
REMARK minimizedAffinity 0.594884813
REMARK minimizedRMSD -1
REMARK  0 active torsions:
REMARK  status: ('A' for Active; 'I' for Inactive)
ROOT
ATOM      1  C   UNL d   1       1.542  -2.795  -0.095  0.00  0.00     0.124 A 
ATOM      2  C1  UNL d   1       2.110  -1.620   0.377  0.00  0.00     0.062 A 
ATOM      3  C2  UNL d   1       1.307  -0.630   0.936  0.00  0.00     0.162 A 
ATOM      4  C3  UNL d   1      -0.073  -0.811   1.027  0.00  0.00    -0.034 A 
ATOM      5  C4  UNL d   1      -0.637  -1.995   0.549  0.00  0.00     0.162 A 
ATOM      6  C5  UNL d   1       0.170  -2.982  -0.009  0.00  0.00     0.062 A 
ATOM      7  F   UNL d   1      -0.380  -4.116  -0.465  0.00  0.00    -0.097 F 
ATOM      8  F1  UNL d   1      -1.960  -2.202   0.620  0.00  0.00    -0.096 F 
ATOM      9  I   UNL d   1      -1.277   0.667   1.862  0.00  0.00    -0.060 I 
ATOM     10  F2  UNL d   1       1.883   0.495   1.385  0.00  0.00    -0.096 F 
ATOM     11  F3  UNL d   1       3.436  -1.437   0.295  0.00  0.00    -0.097 F 
ATOM     12  F4  UNL d   1       2.317  -3.746  -0.633  0.00  0.00    -0.092 F 
ENDROOT
TORSDOF 0
ENDMDL
