MODEL 1
REMARK minimizedAffinity 1.81322801
REMARK minimizedRMSD -1
REMARK  0 active torsions:
REMARK  status: ('A' for Active; 'I' for Inactive)
ROOT
ATOM      1  C   UNL d   1      -1.303  -0.877   1.555  0.00  0.00     0.124 A 
ATOM      2  C1  UNL d   1      -0.720  -0.638   2.792  0.00  0.00     0.062 A 
ATOM      3  C2  UNL d   1       0.656  -0.454   2.894  0.00  0.00     0.162 A 
ATOM      4  C3  UNL d   1       1.459  -0.505   1.754  0.00  0.00    -0.034 A 
ATOM      5  C4  UNL d   1       0.865  -0.747   0.514  0.00  0.00     0.162 A 
ATOM      6  C5  UNL d   1      -0.510  -0.931   0.418  0.00  0.00     0.062 A 
ATOM      7  F   UNL d   1      -1.072  -1.161  -0.778  0.00  0.00    -0.097 F 
ATOM      8  F1  UNL d   1       1.608  -0.803  -0.602  0.00  0.00    -0.096 F 
ATOM      9  I   UNL d   1       3.516  -0.230   1.902  0.00  0.00    -0.060 I 
ATOM     10  F2  UNL d   1       1.192  -0.225   4.102  0.00  0.00    -0.096 F 
ATOM     11  F3  UNL d   1      -1.484  -0.587   3.893  0.00  0.00    -0.097 F 
ATOM     12  F4  UNL d   1      -2.627  -1.055   1.461  0.00  0.00    -0.092 F 
ENDROOT
TORSDOF 0
ENDMDL
