MODEL 1
REMARK minimizedAffinity 3.53282261
REMARK minimizedRMSD -1
REMARK  0 active torsions:
REMARK  status: ('A' for Active; 'I' for Inactive)
ROOT
ATOM      1  C   UNL d   1       0.198  -0.666   0.630  0.00  0.00     0.124 A 
ATOM      2  C1  UNL d   1       1.565  -0.491   0.462  0.00  0.00     0.062 A 
ATOM      3  C2  UNL d   1       2.368  -1.566   0.092  0.00  0.00     0.162 A 
ATOM      4  C3  UNL d   1       1.806  -2.826  -0.114  0.00  0.00    -0.034 A 
ATOM      5  C4  UNL d   1       0.431  -2.995   0.059  0.00  0.00     0.162 A 
ATOM      6  C5  UNL d   1      -0.367  -1.917   0.429  0.00  0.00     0.062 A 
ATOM      7  F   UNL d   1      -1.687  -2.088   0.591  0.00  0.00    -0.097 F 
ATOM      8  F1  UNL d   1      -0.142  -4.193  -0.130  0.00  0.00    -0.096 F 
ATOM      9  I   UNL d   1       3.003  -4.436  -0.667  0.00  0.00    -0.060 I 
ATOM     10  F2  UNL d   1       3.685  -1.368  -0.064  0.00  0.00    -0.096 F 
ATOM     11  F3  UNL d   1       2.114   0.716   0.656  0.00  0.00    -0.097 F 
ATOM     12  F4  UNL d   1      -0.572   0.370   0.987  0.00  0.00    -0.092 F 
ENDROOT
TORSDOF 0
ENDMDL
