MODEL 1
REMARK minimizedAffinity 2.82711577
REMARK minimizedRMSD -1
REMARK  0 active torsions:
REMARK  status: ('A' for Active; 'I' for Inactive)
ROOT
ATOM      1  C   UNL d   1       1.889  -2.851  -0.294  0.00  0.00     0.124 A 
ATOM      2  C1  UNL d   1       2.527  -1.771   0.300  0.00  0.00     0.062 A 
ATOM      3  C2  UNL d   1       1.812  -0.895   1.111  0.00  0.00     0.162 A 
ATOM      4  C3  UNL d   1       0.450  -1.097   1.336  0.00  0.00    -0.034 A 
ATOM      5  C4  UNL d   1      -0.185  -2.185   0.734  0.00  0.00     0.162 A 
ATOM      6  C5  UNL d   1       0.534  -3.057  -0.076  0.00  0.00     0.062 A 
ATOM      7  F   UNL d   1      -0.084  -4.100  -0.649  0.00  0.00    -0.097 F 
ATOM      8  F1  UNL d   1      -1.494  -2.408   0.929  0.00  0.00    -0.096 F 
ATOM      9  I   UNL d   1      -0.623   0.210   2.549  0.00  0.00    -0.060 I 
ATOM     10  F2  UNL d   1       2.454   0.140   1.672  0.00  0.00    -0.096 F 
ATOM     11  F3  UNL d   1       3.836  -1.569   0.090  0.00  0.00    -0.097 F 
ATOM     12  F4  UNL d   1       2.579  -3.692  -1.076  0.00  0.00    -0.092 F 
ENDROOT
TORSDOF 0
ENDMDL
