MODEL 1
REMARK minimizedAffinity 9.52633286
REMARK minimizedRMSD -1
REMARK  0 active torsions:
REMARK  status: ('A' for Active; 'I' for Inactive)
ROOT
ATOM      1  C   UNL d   1       0.470  -1.296   0.165  0.00  0.00     0.124 A 
ATOM      2  C1  UNL d   1       0.153  -0.603   1.325  0.00  0.00     0.062 A 
ATOM      3  C2  UNL d   1      -1.020   0.143   1.396  0.00  0.00     0.162 A 
ATOM      4  C3  UNL d   1      -1.885   0.200   0.304  0.00  0.00    -0.034 A 
ATOM      5  C4  UNL d   1      -1.559  -0.499  -0.860  0.00  0.00     0.162 A 
ATOM      6  C5  UNL d   1      -0.386  -1.244  -0.926  0.00  0.00     0.062 A 
ATOM      7  F   UNL d   1      -0.081  -1.913  -2.048  0.00  0.00    -0.097 F 
ATOM      8  F1  UNL d   1      -2.369  -0.467  -1.929  0.00  0.00    -0.096 F 
ATOM      9  I   UNL d   1      -3.640   1.314   0.406  0.00  0.00    -0.060 I 
ATOM     10  F2  UNL d   1      -1.301   0.803   2.529  0.00  0.00    -0.096 F 
ATOM     11  F3  UNL d   1       0.979  -0.651   2.380  0.00  0.00    -0.097 F 
ATOM     12  F4  UNL d   1       1.600  -2.012   0.099  0.00  0.00    -0.092 F 
ENDROOT
TORSDOF 0
ENDMDL
