MODEL 1
REMARK minimizedAffinity 2.06059003
REMARK minimizedRMSD -1
REMARK  0 active torsions:
REMARK  status: ('A' for Active; 'I' for Inactive)
ROOT
ATOM      1  C   UNL d   1       0.897  -0.985   0.179  0.00  0.00     0.124 A 
ATOM      2  C1  UNL d   1      -0.428  -1.077   0.583  0.00  0.00     0.062 A 
ATOM      3  C2  UNL d   1      -0.767  -0.890   1.920  0.00  0.00     0.162 A 
ATOM      4  C3  UNL d   1       0.221  -0.609   2.864  0.00  0.00    -0.034 A 
ATOM      5  C4  UNL d   1       1.551  -0.519   2.450  0.00  0.00     0.162 A 
ATOM      6  C5  UNL d   1       1.885  -0.706   1.113  0.00  0.00     0.062 A 
ATOM      7  F   UNL d   1       3.165  -0.617   0.724  0.00  0.00    -0.097 F 
ATOM      8  F1  UNL d   1       2.526  -0.250   3.331  0.00  0.00    -0.096 F 
ATOM      9  I   UNL d   1      -0.281  -0.329   4.864  0.00  0.00    -0.060 I 
ATOM     10  F2  UNL d   1      -2.055  -0.984   2.282  0.00  0.00    -0.096 F 
ATOM     11  F3  UNL d   1      -1.385  -1.347  -0.317  0.00  0.00    -0.097 F 
ATOM     12  F4  UNL d   1       1.220  -1.166  -1.108  0.00  0.00    -0.092 F 
ENDROOT
TORSDOF 0
ENDMDL
