MODEL 1
REMARK minimizedAffinity 6.62303591
REMARK minimizedRMSD -1
REMARK  0 active torsions:
REMARK  status: ('A' for Active; 'I' for Inactive)
ROOT
ATOM      1  C   UNL d   1       0.120  -0.700   0.917  0.00  0.00     0.124 A 
ATOM      2  C1  UNL d   1       1.495  -0.526   1.001  0.00  0.00     0.062 A 
ATOM      3  C2  UNL d   1       2.356  -1.515   0.536  0.00  0.00     0.162 A 
ATOM      4  C3  UNL d   1       1.846  -2.689  -0.019  0.00  0.00    -0.034 A 
ATOM      5  C4  UNL d   1       0.462  -2.858  -0.100  0.00  0.00     0.162 A 
ATOM      6  C5  UNL d   1      -0.394  -1.866   0.367  0.00  0.00     0.062 A 
ATOM      7  F   UNL d   1      -1.722  -2.037   0.284  0.00  0.00    -0.097 F 
ATOM      8  F1  UNL d   1      -0.062  -3.974  -0.627  0.00  0.00    -0.096 F 
ATOM      9  I   UNL d   1       3.130  -4.170  -0.716  0.00  0.00    -0.060 I 
ATOM     10  F2  UNL d   1       3.680  -1.319   0.630  0.00  0.00    -0.096 F 
ATOM     11  F3  UNL d   1       1.995   0.599   1.533  0.00  0.00    -0.097 F 
ATOM     12  F4  UNL d   1      -0.706   0.253   1.366  0.00  0.00    -0.092 F 
ENDROOT
TORSDOF 0
ENDMDL
