MODEL 1
REMARK minimizedAffinity 3.57283068
REMARK minimizedRMSD -1
REMARK  0 active torsions:
REMARK  status: ('A' for Active; 'I' for Inactive)
ROOT
ATOM      1  C   UNL d   1       0.311  -0.725   0.824  0.00  0.00     0.124 A 
ATOM      2  C1  UNL d   1       1.675  -0.489   0.717  0.00  0.00     0.062 A 
ATOM      3  C2  UNL d   1       2.527  -1.496   0.275  0.00  0.00     0.162 A 
ATOM      4  C3  UNL d   1       2.019  -2.750  -0.064  0.00  0.00    -0.034 A 
ATOM      5  C4  UNL d   1       0.647  -2.981   0.048  0.00  0.00     0.162 A 
ATOM      6  C5  UNL d   1      -0.201  -1.971   0.490  0.00  0.00     0.062 A 
ATOM      7  F   UNL d   1      -1.518  -2.202   0.593  0.00  0.00    -0.097 F 
ATOM      8  F1  UNL d   1       0.125  -4.175  -0.269  0.00  0.00    -0.096 F 
ATOM      9  I   UNL d   1       3.291  -4.259  -0.724  0.00  0.00    -0.060 I 
ATOM     10  F2  UNL d   1       3.840  -1.239   0.181  0.00  0.00    -0.096 F 
ATOM     11  F3  UNL d   1       2.172   0.714   1.040  0.00  0.00    -0.097 F 
ATOM     12  F4  UNL d   1      -0.507   0.246   1.250  0.00  0.00    -0.092 F 
ENDROOT
TORSDOF 0
ENDMDL
