MODEL 1
REMARK minimizedAffinity 12.0915499
REMARK minimizedRMSD -1
REMARK  0 active torsions:
REMARK  status: ('A' for Active; 'I' for Inactive)
ROOT
ATOM      1  C   UNL d   1      -0.201  -2.632  -0.594  0.00  0.00     0.124 A 
ATOM      2  C1  UNL d   1       0.471  -1.824   0.313  0.00  0.00     0.062 A 
ATOM      3  C2  UNL d   1       1.405  -0.896  -0.135  0.00  0.00     0.162 A 
ATOM      4  C3  UNL d   1       1.674  -0.769  -1.498  0.00  0.00    -0.034 A 
ATOM      5  C4  UNL d   1       0.996  -1.586  -2.404  0.00  0.00     0.162 A 
ATOM      6  C5  UNL d   1       0.062  -2.513  -1.951  0.00  0.00     0.062 A 
ATOM      7  F   UNL d   1      -0.585  -3.293  -2.829  0.00  0.00    -0.097 F 
ATOM      8  F1  UNL d   1       1.230  -1.491  -3.721  0.00  0.00    -0.096 F 
ATOM      9  I   UNL d   1       3.071   0.618  -2.172  0.00  0.00    -0.060 I 
ATOM     10  F2  UNL d   1       2.039  -0.128   0.764  0.00  0.00    -0.096 F 
ATOM     11  F3  UNL d   1       0.219  -1.938   1.625  0.00  0.00    -0.097 F 
ATOM     12  F4  UNL d   1      -1.099  -3.526  -0.160  0.00  0.00    -0.092 F 
ENDROOT
TORSDOF 0
ENDMDL
