MODEL 1
REMARK minimizedAffinity 11.6675568
REMARK minimizedRMSD -1
REMARK  0 active torsions:
REMARK  status: ('A' for Active; 'I' for Inactive)
ROOT
ATOM      1  C   UNL d   1      -0.694  -1.623   0.662  0.00  0.00     0.124 A 
ATOM      2  C1  UNL d   1       0.005  -2.676   0.089  0.00  0.00     0.062 A 
ATOM      3  C2  UNL d   1       1.369  -2.557  -0.161  0.00  0.00     0.162 A 
ATOM      4  C3  UNL d   1       2.044  -1.380   0.164  0.00  0.00    -0.034 A 
ATOM      5  C4  UNL d   1       1.334  -0.325   0.739  0.00  0.00     0.162 A 
ATOM      6  C5  UNL d   1      -0.029  -0.449   0.987  0.00  0.00     0.062 A 
ATOM      7  F   UNL d   1      -0.703   0.569   1.541  0.00  0.00    -0.097 F 
ATOM      8  F1  UNL d   1       1.952   0.820   1.063  0.00  0.00    -0.096 F 
ATOM      9  I   UNL d   1       4.084  -1.199  -0.208  0.00  0.00    -0.060 I 
ATOM     10  F2  UNL d   1       2.020  -3.591  -0.715  0.00  0.00    -0.096 F 
ATOM     11  F3  UNL d   1      -0.635  -3.812  -0.226  0.00  0.00    -0.097 F 
ATOM     12  F4  UNL d   1      -2.007  -1.740   0.901  0.00  0.00    -0.092 F 
ENDROOT
TORSDOF 0
ENDMDL
