MODEL 1
REMARK minimizedAffinity -5.42040539
REMARK minimizedRMSD -1
REMARK  2 active torsions:
REMARK  status: ('A' for Active; 'I' for Inactive)
REMARK    1  A    between atoms: C2'_3  and  C1'_4 
REMARK    2  A    between atoms: C1'_4  and  C1_5 
ROOT
ATOM      1  C1  I4B d   1       0.024  -0.040  -0.738  0.00  0.00    -0.075 A 
ATOM      2  C2  I4B d   1      -0.451   1.044  -1.432  0.00  0.00     0.003 A 
ATOM      3  C3  I4B d   1      -0.960   2.169  -0.738  0.00  0.00     0.002 A 
ATOM      4  C4  I4B d   1      -1.019   2.146   0.641  0.00  0.00    -0.004 A 
ATOM      5  C5  I4B d   1      -0.516   1.056   1.344  0.00  0.00     0.002 A 
ATOM      6  C6  I4B d   1       0.021  -0.039   0.651  0.00  0.00     0.003 A 
ENDROOT
BRANCH   1   7
ATOM      7  C1' I4B d   1       0.523  -1.224  -1.504  0.00  0.00     0.060 C 
BRANCH   7   8
ATOM      8  C2' I4B d   1      -0.285  -2.432  -1.075  0.00  0.00    -0.013 C 
ATOM      9  C4' I4B d   1      -1.522  -2.588  -1.920  0.00  0.00     0.013 C 
ATOM     10  C3' I4B d   1       0.597  -3.640  -1.178  0.00  0.00     0.013 C 
ENDBRANCH   7   8
ENDBRANCH   1   7
TORSDOF 2
ENDMDL
