MODEL 1
REMARK minimizedAffinity -2.9793992
REMARK minimizedRMSD -1
REMARK  2 active torsions:
REMARK  status: ('A' for Active; 'I' for Inactive)
REMARK    1  A    between atoms: C2'_3  and  C1'_4 
REMARK    2  A    between atoms: C1'_4  and  C1_5 
ROOT
ATOM      1  C1  I4B d   1      -0.408   1.032   0.501  0.00  0.00    -0.075 A 
ATOM      2  C2  I4B d   1      -0.685  -0.028  -0.326  0.00  0.00     0.003 A 
ATOM      3  C3  I4B d   1       0.028  -1.243  -0.191  0.00  0.00     0.002 A 
ATOM      4  C4  I4B d   1       1.038  -1.338   0.745  0.00  0.00    -0.004 A 
ATOM      5  C5  I4B d   1       1.302  -0.271   1.598  0.00  0.00     0.002 A 
ATOM      6  C6  I4B d   1       0.566   0.918   1.484  0.00  0.00     0.003 A 
ENDROOT
BRANCH   1   7
ATOM      7  C1' I4B d   1      -1.158   2.312   0.309  0.00  0.00     0.060 C 
BRANCH   7   8
ATOM      8  C2' I4B d   1      -1.093   3.090   1.607  0.00  0.00    -0.013 C 
ATOM      9  C4' I4B d   1       0.322   3.493   1.931  0.00  0.00     0.013 C 
ATOM     10  C3' I4B d   1      -1.980   4.292   1.471  0.00  0.00     0.013 C 
ENDBRANCH   7   8
ENDBRANCH   1   7
TORSDOF 2
ENDMDL
