MODEL 1
REMARK minimizedAffinity -4.31538963
REMARK minimizedRMSD -1
REMARK  2 active torsions:
REMARK  status: ('A' for Active; 'I' for Inactive)
REMARK    1  A    between atoms: C2'_3  and  C1'_4 
REMARK    2  A    between atoms: C1'_4  and  C1_5 
ROOT
ATOM      1  C1  I4B d   1       0.094   0.442   0.198  0.00  0.00    -0.075 A 
ATOM      2  C2  I4B d   1      -0.527   1.508  -0.404  0.00  0.00     0.003 A 
ATOM      3  C3  I4B d   1      -0.806   2.682   0.338  0.00  0.00     0.002 A 
ATOM      4  C4  I4B d   1      -0.495   2.727   1.682  0.00  0.00    -0.004 A 
ATOM      5  C5  I4B d   1       0.156   1.654   2.284  0.00  0.00     0.002 A 
ATOM      6  C6  I4B d   1       0.463   0.509   1.535  0.00  0.00     0.003 A 
ENDROOT
BRANCH   1   7
ATOM      7  C1' I4B d   1       0.344  -0.794  -0.606  0.00  0.00     0.060 C 
BRANCH   7   8
ATOM      8  C2' I4B d   1      -0.990  -1.468  -0.853  0.00  0.00    -0.013 C 
ATOM      9  C4' I4B d   1      -0.813  -2.932  -1.162  0.00  0.00     0.013 C 
ATOM     10  C3' I4B d   1      -1.841  -1.271   0.366  0.00  0.00     0.013 C 
ENDBRANCH   7   8
ENDBRANCH   1   7
TORSDOF 2
ENDMDL
