MODEL 1
REMARK minimizedAffinity -2.37793064
REMARK minimizedRMSD -1
REMARK  2 active torsions:
REMARK  status: ('A' for Active; 'I' for Inactive)
REMARK    1  A    between atoms: C2'_3  and  C1'_4 
REMARK    2  A    between atoms: C1'_4  and  C1_5 
ROOT
ATOM      1  C1  I4B d   1       0.468  -0.052   0.498  0.00  0.00    -0.075 A 
ATOM      2  C2  I4B d   1       0.472  -0.643   1.737  0.00  0.00     0.003 A 
ATOM      3  C3  I4B d   1       0.259   0.138   2.900  0.00  0.00     0.002 A 
ATOM      4  C4  I4B d   1       0.098   1.503   2.782  0.00  0.00    -0.004 A 
ATOM      5  C5  I4B d   1       0.071   2.097   1.523  0.00  0.00     0.002 A 
ATOM      6  C6  I4B d   1       0.245   1.313   0.373  0.00  0.00     0.003 A 
ENDROOT
BRANCH   1   7
ATOM      7  C1' I4B d   1       0.729  -0.900  -0.706  0.00  0.00     0.060 C 
BRANCH   7   8
ATOM      8  C2' I4B d   1       0.180  -2.285  -0.429  0.00  0.00    -0.013 C 
ATOM      9  C4' I4B d   1      -0.761  -2.727  -1.518  0.00  0.00     0.013 C 
ATOM     10  C3' I4B d   1       1.340  -3.226  -0.301  0.00  0.00     0.013 C 
ENDBRANCH   7   8
ENDBRANCH   1   7
TORSDOF 2
ENDMDL
