MODEL 1
REMARK minimizedAffinity 6.99716949
REMARK minimizedRMSD -1
REMARK  2 active torsions:
REMARK  status: ('A' for Active; 'I' for Inactive)
REMARK    1  A    between atoms: C2'_3  and  C1'_4 
REMARK    2  A    between atoms: C1'_4  and  C1_5 
ROOT
ATOM      1  C1  I4B d   1       3.891  -1.366  -1.159  0.00  0.00    -0.075 A 
ATOM      2  C2  I4B d   1       5.161  -1.096  -1.604  0.00  0.00     0.003 A 
ATOM      3  C3  I4B d   1       5.956  -2.128  -2.160  0.00  0.00     0.002 A 
ATOM      4  C4  I4B d   1       5.464  -3.416  -2.204  0.00  0.00    -0.004 A 
ATOM      5  C5  I4B d   1       4.168  -3.684  -1.773  0.00  0.00     0.002 A 
ATOM      6  C6  I4B d   1       3.371  -2.650  -1.259  0.00  0.00     0.003 A 
ENDROOT
BRANCH   1   7
ATOM      7  C1' I4B d   1       3.091  -0.260  -0.548  0.00  0.00     0.060 C 
BRANCH   7   8
ATOM      8  C2' I4B d   1       1.651  -0.721  -0.457  0.00  0.00    -0.013 C 
ATOM      9  C4' I4B d   1       1.345  -1.289   0.904  0.00  0.00     0.013 C 
ATOM     10  C3' I4B d   1       0.769   0.453  -0.763  0.00  0.00     0.013 C 
ENDBRANCH   7   8
ENDBRANCH   1   7
TORSDOF 2
ENDMDL
