MODEL 1
REMARK minimizedAffinity -5.02788448
REMARK minimizedRMSD -1
REMARK  0 active torsions:
REMARK  status: ('A' for Active; 'I' for Inactive)
ROOT
ATOM      1  C1  BNZ d   1      -1.066   0.674   0.834  0.00  0.00     0.000 A 
ATOM      2  C2  BNZ d   1      -0.811   1.999   0.600  0.00  0.00     0.000 A 
ATOM      3  C3  BNZ d   1       0.416   2.407   0.155  0.00  0.00     0.000 A 
ATOM      4  C4  BNZ d   1       1.395   1.497  -0.017  0.00  0.00     0.000 A 
ATOM      5  C5  BNZ d   1       1.156   0.158   0.223  0.00  0.00     0.000 A 
ATOM      6  C6  BNZ d   1      -0.091  -0.254   0.634  0.00  0.00     0.000 A 
ENDROOT
TORSDOF 0
ENDMDL
