MODEL 1
REMARK minimizedAffinity -1.92521703
REMARK minimizedRMSD -1
REMARK  0 active torsions:
REMARK  status: ('A' for Active; 'I' for Inactive)
ROOT
ATOM      1  C1  BNZ d   1       0.001   0.067   0.235  0.00  0.00     0.000 A 
ATOM      2  C2  BNZ d   1      -0.769   1.159   0.537  0.00  0.00     0.000 A 
ATOM      3  C3  BNZ d   1      -0.193   2.333   0.935  0.00  0.00     0.000 A 
ATOM      4  C4  BNZ d   1       1.147   2.403   1.068  0.00  0.00     0.000 A 
ATOM      5  C5  BNZ d   1       1.937   1.308   0.776  0.00  0.00     0.000 A 
ATOM      6  C6  BNZ d   1       1.356   0.140   0.339  0.00  0.00     0.000 A 
ENDROOT
TORSDOF 0
ENDMDL
