MODEL 1
REMARK minimizedAffinity -3.01902914
REMARK minimizedRMSD -1
REMARK  0 active torsions:
REMARK  status: ('A' for Active; 'I' for Inactive)
ROOT
ATOM      1  C1  BNZ d   1       0.747   1.863  -0.129  0.00  0.00     0.000 A 
ATOM      2  C2  BNZ d   1       0.475   0.522  -0.170  0.00  0.00     0.000 A 
ATOM      3  C3  BNZ d   1      -0.750   0.044   0.201  0.00  0.00     0.000 A 
ATOM      4  C4  BNZ d   1      -1.688   0.902   0.652  0.00  0.00     0.000 A 
ATOM      5  C5  BNZ d   1      -1.426   2.257   0.708  0.00  0.00     0.000 A 
ATOM      6  C6  BNZ d   1      -0.205   2.738   0.297  0.00  0.00     0.000 A 
ENDROOT
TORSDOF 0
ENDMDL
