MODEL 1
REMARK minimizedAffinity -2.73582292
REMARK minimizedRMSD -1
REMARK  0 active torsions:
REMARK  status: ('A' for Active; 'I' for Inactive)
ROOT
ATOM      1  C1  BNZ d   1       2.271  -1.298   0.596  0.00  0.00     0.000 A 
ATOM      2  C2  BNZ d   1       1.238  -2.158   0.338  0.00  0.00     0.000 A 
ATOM      3  C3  BNZ d   1       0.072  -1.706  -0.213  0.00  0.00     0.000 A 
ATOM      4  C4  BNZ d   1      -0.075  -0.390  -0.468  0.00  0.00     0.000 A 
ATOM      5  C5  BNZ d   1       0.955   0.492  -0.204  0.00  0.00     0.000 A 
ATOM      6  C6  BNZ d   1       2.141   0.027   0.314  0.00  0.00     0.000 A 
ENDROOT
TORSDOF 0
ENDMDL
