MODEL 1
REMARK minimizedAffinity -2.74004483
REMARK minimizedRMSD -1
REMARK  0 active torsions:
REMARK  status: ('A' for Active; 'I' for Inactive)
ROOT
ATOM      1  C1  BNZ d   1      -0.431  -0.152   1.220  0.00  0.00     0.000 A 
ATOM      2  C2  BNZ d   1       0.023  -1.392   0.860  0.00  0.00     0.000 A 
ATOM      3  C3  BNZ d   1       0.317  -1.678  -0.444  0.00  0.00     0.000 A 
ATOM      4  C4  BNZ d   1       0.118  -0.737  -1.390  0.00  0.00     0.000 A 
ATOM      5  C5  BNZ d   1      -0.349   0.515  -1.044  0.00  0.00     0.000 A 
ATOM      6  C6  BNZ d   1      -0.606   0.812   0.275  0.00  0.00     0.000 A 
ENDROOT
TORSDOF 0
ENDMDL
