MODEL 1
REMARK minimizedAffinity -4.12776995
REMARK minimizedRMSD -1
REMARK  0 active torsions:
REMARK  status: ('A' for Active; 'I' for Inactive)
ROOT
ATOM      1  C1  BNZ d   1       0.190  -3.088  -1.120  0.00  0.00     0.000 A 
ATOM      2  C2  BNZ d   1      -0.293  -3.448  -2.350  0.00  0.00     0.000 A 
ATOM      3  C3  BNZ d   1      -1.524  -4.030  -2.475  0.00  0.00     0.000 A 
ATOM      4  C4  BNZ d   1      -2.251  -4.287  -1.369  0.00  0.00     0.000 A 
ATOM      5  C5  BNZ d   1      -1.773  -3.939  -0.121  0.00  0.00     0.000 A 
ATOM      6  C6  BNZ d   1      -0.551  -3.318  -0.002  0.00  0.00     0.000 A 
ENDROOT
TORSDOF 0
ENDMDL
