MODEL 1
REMARK minimizedAffinity -2.22435808
REMARK minimizedRMSD -1
REMARK  0 active torsions:
REMARK  status: ('A' for Active; 'I' for Inactive)
ROOT
ATOM      1  C1  BNZ d   1      -1.381  -3.670  -1.165  0.00  0.00     0.000 A 
ATOM      2  C2  BNZ d   1      -1.127  -2.649  -0.288  0.00  0.00     0.000 A 
ATOM      3  C3  BNZ d   1      -0.150  -1.729  -0.549  0.00  0.00     0.000 A 
ATOM      4  C4  BNZ d   1       0.599  -1.855  -1.664  0.00  0.00     0.000 A 
ATOM      5  C5  BNZ d   1       0.361  -2.885  -2.552  0.00  0.00     0.000 A 
ATOM      6  C6  BNZ d   1      -0.649  -3.786  -2.306  0.00  0.00     0.000 A 
ENDROOT
TORSDOF 0
ENDMDL
