MODEL 1
REMARK minimizedAffinity -1.3022207
REMARK minimizedRMSD -1
REMARK  0 active torsions:
REMARK  status: ('A' for Active; 'I' for Inactive)
ROOT
ATOM      1  C1  BNZ d   1       0.322  -0.474   0.448  0.00  0.00     0.000 A 
ATOM      2  C2  BNZ d   1       0.304   0.639   1.246  0.00  0.00     0.000 A 
ATOM      3  C3  BNZ d   1      -0.705   1.556   1.146  0.00  0.00     0.000 A 
ATOM      4  C4  BNZ d   1      -1.672   1.379   0.223  0.00  0.00     0.000 A 
ATOM      5  C5  BNZ d   1      -1.663   0.267  -0.595  0.00  0.00     0.000 A 
ATOM      6  C6  BNZ d   1      -0.667  -0.673  -0.465  0.00  0.00     0.000 A 
ENDROOT
TORSDOF 0
ENDMDL
