MODEL 1
REMARK minimizedAffinity -2.34832025
REMARK minimizedRMSD -1
REMARK  0 active torsions:
REMARK  status: ('A' for Active; 'I' for Inactive)
ROOT
ATOM      1  C1  BNZ d   1      -0.160  -1.169   0.605  0.00  0.00     0.000 A 
ATOM      2  C2  BNZ d   1      -0.175  -2.207  -0.289  0.00  0.00     0.000 A 
ATOM      3  C3  BNZ d   1      -0.459  -1.990  -1.608  0.00  0.00     0.000 A 
ATOM      4  C4  BNZ d   1      -0.767  -0.745  -2.024  0.00  0.00     0.000 A 
ATOM      5  C5  BNZ d   1      -0.766   0.310  -1.134  0.00  0.00     0.000 A 
ATOM      6  C6  BNZ d   1      -0.441   0.095   0.186  0.00  0.00     0.000 A 
ENDROOT
TORSDOF 0
ENDMDL
