MODEL 1
REMARK minimizedAffinity -2.93669367
REMARK minimizedRMSD -1
REMARK  0 active torsions:
REMARK  status: ('A' for Active; 'I' for Inactive)
ROOT
ATOM      1  C1  BNZ d   1      -0.966   2.527   0.456  0.00  0.00     0.000 A 
ATOM      2  C2  BNZ d   1      -0.983   1.316  -0.183  0.00  0.00     0.000 A 
ATOM      3  C3  BNZ d   1       0.138   0.534  -0.230  0.00  0.00     0.000 A 
ATOM      4  C4  BNZ d   1       1.282   0.981   0.326  0.00  0.00     0.000 A 
ATOM      5  C5  BNZ d   1       1.317   2.204   0.966  0.00  0.00     0.000 A 
ATOM      6  C6  BNZ d   1       0.177   2.971   1.046  0.00  0.00     0.000 A 
ENDROOT
TORSDOF 0
ENDMDL
