MODEL 1
REMARK minimizedAffinity -3.83441353
REMARK minimizedRMSD -1
REMARK  0 active torsions:
REMARK  status: ('A' for Active; 'I' for Inactive)
ROOT
ATOM      1  C1  BNZ d   1      -0.472   0.770   0.715  0.00  0.00     0.000 A 
ATOM      2  C2  BNZ d   1       0.272  -0.352   0.464  0.00  0.00     0.000 A 
ATOM      3  C3  BNZ d   1      -0.174  -1.307  -0.407  0.00  0.00     0.000 A 
ATOM      4  C4  BNZ d   1      -1.378  -1.158  -0.994  0.00  0.00     0.000 A 
ATOM      5  C5  BNZ d   1      -2.145  -0.037  -0.744  0.00  0.00     0.000 A 
ATOM      6  C6  BNZ d   1      -1.676   0.941   0.103  0.00  0.00     0.000 A 
ENDROOT
TORSDOF 0
ENDMDL
