MODEL 1
REMARK minimizedAffinity -1.34426439
REMARK minimizedRMSD -1
REMARK  0 active torsions:
REMARK  status: ('A' for Active; 'I' for Inactive)
ROOT
ATOM      1  C1  BNZ d   1      -0.974  -3.158  -2.476  0.00  0.00     0.000 A 
ATOM      2  C2  BNZ d   1      -2.079  -3.800  -2.970  0.00  0.00     0.000 A 
ATOM      3  C3  BNZ d   1      -2.993  -4.367  -2.128  0.00  0.00     0.000 A 
ATOM      4  C4  BNZ d   1      -2.782  -4.328  -0.796  0.00  0.00     0.000 A 
ATOM      5  C5  BNZ d   1      -1.668  -3.694  -0.283  0.00  0.00     0.000 A 
ATOM      6  C6  BNZ d   1      -0.770  -3.090  -1.133  0.00  0.00     0.000 A 
ENDROOT
TORSDOF 0
ENDMDL
