MODEL 1
REMARK minimizedAffinity -1.38140213
REMARK minimizedRMSD -1
REMARK  0 active torsions:
REMARK  status: ('A' for Active; 'I' for Inactive)
ROOT
ATOM      1  C1  BNZ d   1       1.777   0.405   0.547  0.00  0.00     0.000 A 
ATOM      2  C2  BNZ d   1       0.722   1.276   0.491  0.00  0.00     0.000 A 
ATOM      3  C3  BNZ d   1      -0.551   0.821   0.290  0.00  0.00     0.000 A 
ATOM      4  C4  BNZ d   1      -0.762  -0.498   0.106  0.00  0.00     0.000 A 
ATOM      5  C5  BNZ d   1       0.292  -1.388   0.150  0.00  0.00     0.000 A 
ATOM      6  C6  BNZ d   1       1.567  -0.930   0.392  0.00  0.00     0.000 A 
ENDROOT
TORSDOF 0
ENDMDL
