MODEL 1
REMARK minimizedAffinity -5.07902718
REMARK minimizedRMSD -1
REMARK  0 active torsions:
REMARK  status: ('A' for Active; 'I' for Inactive)
ROOT
ATOM      1  C1  BNZ d   1      -1.004   1.131   0.385  0.00  0.00     0.000 A 
ATOM      2  C2  BNZ d   1      -0.602   2.395   0.042  0.00  0.00     0.000 A 
ATOM      3  C3  BNZ d   1       0.682   2.636  -0.361  0.00  0.00     0.000 A 
ATOM      4  C4  BNZ d   1       1.571   1.623  -0.382  0.00  0.00     0.000 A 
ATOM      5  C5  BNZ d   1       1.184   0.346  -0.030  0.00  0.00     0.000 A 
ATOM      6  C6  BNZ d   1      -0.119   0.099   0.337  0.00  0.00     0.000 A 
ENDROOT
TORSDOF 0
ENDMDL
