MODEL 1
REMARK minimizedAffinity -0.377785355
REMARK minimizedRMSD -1
REMARK  0 active torsions:
REMARK  status: ('A' for Active; 'I' for Inactive)
ROOT
ATOM      1  C1  BNZ d   1      -1.162  -0.005   1.391  0.00  0.00     0.000 A 
ATOM      2  C2  BNZ d   1      -0.600  -1.254   1.398  0.00  0.00     0.000 A 
ATOM      3  C3  BNZ d   1       0.115  -1.706   0.324  0.00  0.00     0.000 A 
ATOM      4  C4  BNZ d   1       0.233  -0.926  -0.770  0.00  0.00     0.000 A 
ATOM      5  C5  BNZ d   1      -0.336   0.332  -0.796  0.00  0.00     0.000 A 
ATOM      6  C6  BNZ d   1      -1.021   0.799   0.302  0.00  0.00     0.000 A 
ENDROOT
TORSDOF 0
ENDMDL
