MODEL 1
REMARK minimizedAffinity -4.05880022
REMARK minimizedRMSD -1
REMARK  0 active torsions:
REMARK  status: ('A' for Active; 'I' for Inactive)
ROOT
ATOM      1  C1  BNZ d   1      -0.941  -0.363   0.170  0.00  0.00     0.000 A 
ATOM      2  C2  BNZ d   1      -1.653   0.733   0.578  0.00  0.00     0.000 A 
ATOM      3  C3  BNZ d   1      -1.070   1.969   0.622  0.00  0.00     0.000 A 
ATOM      4  C4  BNZ d   1       0.232   2.100   0.297  0.00  0.00     0.000 A 
ATOM      5  C5  BNZ d   1       0.965   1.002  -0.108  0.00  0.00     0.000 A 
ATOM      6  C6  BNZ d   1       0.365  -0.233  -0.188  0.00  0.00     0.000 A 
ENDROOT
TORSDOF 0
ENDMDL
