MODEL 1
REMARK minimizedAffinity -3.97269845
REMARK minimizedRMSD -1
REMARK  0 active torsions:
REMARK  status: ('A' for Active; 'I' for Inactive)
ROOT
ATOM      1  C   UNL d   1       0.276  -0.640  -0.365  0.00  0.00     0.172 C 
ATOM      2  N   UNL d   1      -1.105  -0.639   0.056  0.00  0.00    -0.070 N 
ATOM      3  C1  UNL d   1      -2.177  -0.300  -0.726  0.00  0.00    -0.004 A 
ATOM      4  C2  UNL d   1      -3.316  -0.429   0.041  0.00  0.00    -0.047 A 
ATOM      5  C3  UNL d   1      -2.914  -0.859   1.327  0.00  0.00    -0.047 A 
ATOM      6  C4  UNL d   1      -1.540  -0.982   1.309  0.00  0.00    -0.004 A 
ENDROOT
TORSDOF 0
ENDMDL
