MODEL 1
REMARK minimizedAffinity -3.58894181
REMARK minimizedRMSD -1
REMARK  0 active torsions:
REMARK  status: ('A' for Active; 'I' for Inactive)
ROOT
ATOM      1  C   UNL d   1       0.907  -0.204   1.043  0.00  0.00     0.172 C 
ATOM      2  N   UNL d   1      -0.348  -0.196   0.328  0.00  0.00    -0.070 N 
ATOM      3  C1  UNL d   1      -1.575  -0.477   0.866  0.00  0.00    -0.004 A 
ATOM      4  C2  UNL d   1      -2.513  -0.362  -0.137  0.00  0.00    -0.047 A 
ATOM      5  C3  UNL d   1      -1.825  -0.001  -1.320  0.00  0.00    -0.047 A 
ATOM      6  C4  UNL d   1      -0.486   0.094  -1.004  0.00  0.00    -0.004 A 
ENDROOT
TORSDOF 0
ENDMDL
