MODEL 1
REMARK minimizedAffinity -0.677339733
REMARK minimizedRMSD -1
REMARK  0 active torsions:
REMARK  status: ('A' for Active; 'I' for Inactive)
ROOT
ATOM      1  C   UNL d   1      -4.920   5.988   1.921  0.00  0.00     0.172 C 
ATOM      2  N   UNL d   1      -4.889   5.990   3.365  0.00  0.00    -0.070 N 
ATOM      3  C1  UNL d   1      -3.760   5.990   4.139  0.00  0.00    -0.004 A 
ATOM      4  C2  UNL d   1      -4.154   5.992   5.460  0.00  0.00    -0.047 A 
ATOM      5  C3  UNL d   1      -5.569   5.993   5.480  0.00  0.00    -0.047 A 
ATOM      6  C4  UNL d   1      -5.998   5.991   4.169  0.00  0.00    -0.004 A 
ENDROOT
TORSDOF 0
ENDMDL
