MODEL 1
REMARK minimizedAffinity 0.189336643
REMARK minimizedRMSD -1
REMARK  0 active torsions:
REMARK  status: ('A' for Active; 'I' for Inactive)
ROOT
ATOM      1  C   UNL d   1       0.489  -1.504   1.237  0.00  0.00     0.172 C 
ATOM      2  N   UNL d   1       0.179  -0.623   0.136  0.00  0.00    -0.070 N 
ATOM      3  C1  UNL d   1       0.787   0.577  -0.122  0.00  0.00    -0.004 A 
ATOM      4  C2  UNL d   1       0.209   1.107  -1.255  0.00  0.00    -0.047 A 
ATOM      5  C3  UNL d   1      -0.780   0.196  -1.693  0.00  0.00    -0.047 A 
ATOM      6  C4  UNL d   1      -0.778  -0.866  -0.813  0.00  0.00    -0.004 A 
ENDROOT
TORSDOF 0
ENDMDL
