MODEL 1
REMARK minimizedAffinity -1.80967021
REMARK minimizedRMSD -1
REMARK  0 active torsions:
REMARK  status: ('A' for Active; 'I' for Inactive)
ROOT
ATOM      1  C   UNL d   1       1.504   1.399   1.757  0.00  0.00     0.172 C 
ATOM      2  N   UNL d   1       0.805   0.572   0.801  0.00  0.00    -0.070 N 
ATOM      3  C1  UNL d   1       0.732  -0.795   0.830  0.00  0.00    -0.004 A 
ATOM      4  C2  UNL d   1      -0.022  -1.200  -0.250  0.00  0.00    -0.047 A 
ATOM      5  C3  UNL d   1      -0.414  -0.036  -0.954  0.00  0.00    -0.047 A 
ATOM      6  C4  UNL d   1       0.111   1.047  -0.281  0.00  0.00    -0.004 A 
ENDROOT
TORSDOF 0
ENDMDL
