MODEL 1
REMARK minimizedAffinity -2.5808866
REMARK minimizedRMSD -1
REMARK  0 active torsions:
REMARK  status: ('A' for Active; 'I' for Inactive)
ROOT
ATOM      1  C   UNL d   1      -4.147   5.981   4.952  0.00  0.00     0.172 C 
ATOM      2  N   UNL d   1      -4.691   5.522   3.695  0.00  0.00    -0.070 N 
ATOM      3  C1  UNL d   1      -5.646   4.553   3.545  0.00  0.00    -0.004 A 
ATOM      4  C2  UNL d   1      -5.892   4.407   2.197  0.00  0.00    -0.047 A 
ATOM      5  C3  UNL d   1      -5.055   5.321   1.513  0.00  0.00    -0.047 A 
ATOM      6  C4  UNL d   1      -4.322   5.998   2.465  0.00  0.00    -0.004 A 
ENDROOT
TORSDOF 0
ENDMDL
