MODEL 1
REMARK minimizedAffinity 3.54579878
REMARK minimizedRMSD -1
REMARK  0 active torsions:
REMARK  status: ('A' for Active; 'I' for Inactive)
ROOT
ATOM      1  C   UNL d   1       1.728  -0.920  -0.474  0.00  0.00     0.172 C 
ATOM      2  N   UNL d   1       1.042  -1.371   0.714  0.00  0.00    -0.070 N 
ATOM      3  C1  UNL d   1       1.637  -1.695   1.904  0.00  0.00    -0.004 A 
ATOM      4  C2  UNL d   1       0.645  -2.076   2.782  0.00  0.00    -0.047 A 
ATOM      5  C3  UNL d   1      -0.588  -1.978   2.095  0.00  0.00    -0.047 A 
ATOM      6  C4  UNL d   1      -0.313  -1.539   0.817  0.00  0.00    -0.004 A 
ENDROOT
TORSDOF 0
ENDMDL
