MODEL 1
REMARK minimizedAffinity 0.548999488
REMARK minimizedRMSD -1
REMARK  0 active torsions:
REMARK  status: ('A' for Active; 'I' for Inactive)
ROOT
ATOM      1  C   UNL d   1       1.832   2.164   1.380  0.00  0.00     0.172 C 
ATOM      2  N   UNL d   1       1.078   0.943   1.545  0.00  0.00    -0.070 N 
ATOM      3  C1  UNL d   1       0.010   0.772   2.384  0.00  0.00    -0.004 A 
ATOM      4  C2  UNL d   1      -0.428  -0.527   2.250  0.00  0.00    -0.047 A 
ATOM      5  C3  UNL d   1       0.406  -1.160   1.299  0.00  0.00    -0.047 A 
ATOM      6  C4  UNL d   1       1.330  -0.226   0.878  0.00  0.00    -0.004 A 
ENDROOT
TORSDOF 0
ENDMDL
