MODEL 1
REMARK minimizedAffinity 5.05897856
REMARK minimizedRMSD -1
REMARK  0 active torsions:
REMARK  status: ('A' for Active; 'I' for Inactive)
ROOT
ATOM      1  C   UNL d   1       3.688   4.593  -1.936  0.00  0.00     0.172 C 
ATOM      2  N   UNL d   1       3.320   3.555  -1.001  0.00  0.00    -0.070 N 
ATOM      3  C1  UNL d   1       2.812   3.756   0.255  0.00  0.00    -0.004 A 
ATOM      4  C2  UNL d   1       2.593   2.520   0.824  0.00  0.00    -0.047 A 
ATOM      5  C3  UNL d   1       2.982   1.543  -0.123  0.00  0.00    -0.047 A 
ATOM      6  C4  UNL d   1       3.428   2.212  -1.243  0.00  0.00    -0.004 A 
ENDROOT
TORSDOF 0
ENDMDL
