MODEL 1
REMARK minimizedAffinity 2.69332576
REMARK minimizedRMSD -1
REMARK  0 active torsions:
REMARK  status: ('A' for Active; 'I' for Inactive)
ROOT
ATOM      1  C   UNL d   1      -2.914   1.183  -2.364  0.00  0.00     0.172 C 
ATOM      2  N   UNL d   1      -1.782   1.646  -3.132  0.00  0.00    -0.070 N 
ATOM      3  C1  UNL d   1      -1.788   2.699  -4.007  0.00  0.00    -0.004 A 
ATOM      4  C2  UNL d   1      -0.520   2.817  -4.534  0.00  0.00    -0.047 A 
ATOM      5  C3  UNL d   1       0.275   1.798  -3.957  0.00  0.00    -0.047 A 
ATOM      6  C4  UNL d   1      -0.532   1.088  -3.093  0.00  0.00    -0.004 A 
ENDROOT
TORSDOF 0
ENDMDL
