MODEL 1
REMARK minimizedAffinity 1.91032016
REMARK minimizedRMSD -1
REMARK  0 active torsions:
REMARK  status: ('A' for Active; 'I' for Inactive)
ROOT
ATOM      1  C   UNL d   1      -1.263   1.416  -3.190  0.00  0.00     0.172 C 
ATOM      2  N   UNL d   1      -1.728   0.441  -2.232  0.00  0.00    -0.070 N 
ATOM      3  C1  UNL d   1      -1.020  -0.644  -1.788  0.00  0.00    -0.004 A 
ATOM      4  C2  UNL d   1      -1.810  -1.322  -0.885  0.00  0.00    -0.047 A 
ATOM      5  C3  UNL d   1      -3.035  -0.622  -0.783  0.00  0.00    -0.047 A 
ATOM      6  C4  UNL d   1      -2.958   0.466  -1.628  0.00  0.00    -0.004 A 
ENDROOT
TORSDOF 0
ENDMDL
