MODEL 1
REMARK minimizedAffinity 4.43451023
REMARK minimizedRMSD -1
REMARK  0 active torsions:
REMARK  status: ('A' for Active; 'I' for Inactive)
ROOT
ATOM      1  C   UNL d   1      -2.216  -1.600  -2.446  0.00  0.00     0.172 C 
ATOM      2  N   UNL d   1      -2.551  -0.869  -1.247  0.00  0.00    -0.070 N 
ATOM      3  C1  UNL d   1      -1.687  -0.102  -0.512  0.00  0.00    -0.004 A 
ATOM      4  C2  UNL d   1      -2.390   0.426   0.550  0.00  0.00    -0.047 A 
ATOM      5  C3  UNL d   1      -3.722  -0.041   0.450  0.00  0.00    -0.047 A 
ATOM      6  C4  UNL d   1      -3.794  -0.840  -0.672  0.00  0.00    -0.004 A 
ENDROOT
TORSDOF 0
ENDMDL
