MODEL 1
REMARK minimizedAffinity -1.92959797
REMARK minimizedRMSD -1
REMARK  0 active torsions:
REMARK  status: ('A' for Active; 'I' for Inactive)
ROOT
ATOM      1  C   UNL d   1       6.000   3.751  -3.520  0.00  0.00     0.172 C 
ATOM      2  N   UNL d   1       4.949   3.568  -2.546  0.00  0.00    -0.070 N 
ATOM      3  C1  UNL d   1       4.990   2.709  -1.480  0.00  0.00    -0.004 A 
ATOM      4  C2  UNL d   1       3.800   2.831  -0.795  0.00  0.00    -0.047 A 
ATOM      5  C3  UNL d   1       3.017   3.795  -1.473  0.00  0.00    -0.047 A 
ATOM      6  C4  UNL d   1       3.753   4.235  -2.553  0.00  0.00    -0.004 A 
ENDROOT
TORSDOF 0
ENDMDL
