MODEL 1
REMARK minimizedAffinity 1.35128415
REMARK minimizedRMSD -1
REMARK  0 active torsions:
REMARK  status: ('A' for Active; 'I' for Inactive)
ROOT
ATOM      1  C   UNL d   1       0.226  -0.125  -2.601  0.00  0.00     0.172 C 
ATOM      2  N   UNL d   1      -1.012  -0.216  -1.862  0.00  0.00    -0.070 N 
ATOM      3  C1  UNL d   1      -1.344  -1.210  -0.981  0.00  0.00    -0.004 A 
ATOM      4  C2  UNL d   1      -2.602  -0.934  -0.489  0.00  0.00    -0.047 A 
ATOM      5  C3  UNL d   1      -3.040   0.267  -1.096  0.00  0.00    -0.047 A 
ATOM      6  C4  UNL d   1      -2.037   0.690  -1.941  0.00  0.00    -0.004 A 
ENDROOT
TORSDOF 0
ENDMDL
