MODEL 1
REMARK minimizedAffinity 16.3118134
REMARK minimizedRMSD -1
REMARK  0 active torsions:
REMARK  status: ('A' for Active; 'I' for Inactive)
ROOT
ATOM      1  C   UNL d   1       2.618  -5.630   1.134  0.00  0.00    -0.002 A 
ATOM      2  C1  UNL d   1       1.376  -5.988   1.639  0.00  0.00     0.010 A 
ATOM      3  C2  UNL d   1       0.457  -5.010   2.024  0.00  0.00     0.041 A 
ATOM      4  C3  UNL d   1       0.809  -3.652   1.889  0.00  0.00    -0.075 A 
ATOM      5  S   UNL d   1      -0.156  -2.282   2.295  0.00  0.00     0.015 SA
ATOM      6  C4  UNL d   1       1.058  -1.190   1.807  0.00  0.00     0.022 A 
ATOM      7  C5  UNL d   1       2.179  -1.837   1.343  0.00  0.00     0.026 A 
ATOM      8  C6  UNL d   1       2.054  -3.267   1.383  0.00  0.00    -0.082 A 
ATOM      9  C7  UNL d   1       2.964  -4.282   1.003  0.00  0.00     0.045 A 
ENDROOT
TORSDOF 0
ENDMDL
