MODEL 1
REMARK minimizedAffinity 14.3987598
REMARK minimizedRMSD -1
REMARK  0 active torsions:
REMARK  status: ('A' for Active; 'I' for Inactive)
ROOT
ATOM      1  C   UNL d   1      -0.561  -1.184   1.917  0.00  0.00    -0.002 A 
ATOM      2  C1  UNL d   1      -0.302  -0.886   3.248  0.00  0.00     0.010 A 
ATOM      3  C2  UNL d   1      -1.188  -0.097   3.983  0.00  0.00     0.041 A 
ATOM      4  C3  UNL d   1      -2.350   0.392   3.354  0.00  0.00    -0.075 A 
ATOM      5  S   UNL d   1      -3.577   1.377   4.058  0.00  0.00     0.015 SA
ATOM      6  C4  UNL d   1      -4.474   1.425   2.609  0.00  0.00     0.022 A 
ATOM      7  C5  UNL d   1      -3.866   0.713   1.603  0.00  0.00     0.026 A 
ATOM      8  C6  UNL d   1      -2.632   0.105   2.015  0.00  0.00    -0.082 A 
ATOM      9  C7  UNL d   1      -1.714  -0.698   1.296  0.00  0.00     0.045 A 
ENDROOT
TORSDOF 0
ENDMDL
