MODEL 1
REMARK minimizedAffinity 15.7114744
REMARK minimizedRMSD -1
REMARK  0 active torsions:
REMARK  status: ('A' for Active; 'I' for Inactive)
ROOT
ATOM      1  C   UNL d   1       0.538  -2.524   1.447  0.00  0.00    -0.002 A 
ATOM      2  C1  UNL d   1       0.464  -1.443   2.314  0.00  0.00     0.010 A 
ATOM      3  C2  UNL d   1       1.434  -1.255   3.301  0.00  0.00     0.041 A 
ATOM      4  C3  UNL d   1       2.492  -2.181   3.400  0.00  0.00    -0.075 A 
ATOM      5  S   UNL d   1       3.794  -2.152   4.530  0.00  0.00     0.015 SA
ATOM      6  C4  UNL d   1       4.481  -3.574   3.887  0.00  0.00     0.022 A 
ATOM      7  C5  UNL d   1       3.747  -4.071   2.836  0.00  0.00     0.026 A 
ATOM      8  C6  UNL d   1       2.589  -3.276   2.538  0.00  0.00    -0.082 A 
ATOM      9  C7  UNL d   1       1.589  -3.439   1.549  0.00  0.00     0.045 A 
ENDROOT
TORSDOF 0
ENDMDL
