MODEL 1
REMARK minimizedAffinity 0.27193284
REMARK minimizedRMSD -1
REMARK  0 active torsions:
REMARK  status: ('A' for Active; 'I' for Inactive)
ROOT
ATOM      1  C   UNL d   1       2.567  -4.631   1.964  0.00  0.00    -0.002 A 
ATOM      2  C1  UNL d   1       2.359  -3.355   2.470  0.00  0.00     0.010 A 
ATOM      3  C2  UNL d   1       2.891  -2.986   3.707  0.00  0.00     0.041 A 
ATOM      4  C3  UNL d   1       3.645  -3.928   4.433  0.00  0.00    -0.075 A 
ATOM      5  S   UNL d   1       4.395  -3.699   5.969  0.00  0.00     0.015 SA
ATOM      6  C4  UNL d   1       5.010  -5.288   5.989  0.00  0.00     0.022 A 
ATOM      7  C5  UNL d   1       4.661  -5.991   4.860  0.00  0.00     0.026 A 
ATOM      8  C6  UNL d   1       3.869  -5.218   3.944  0.00  0.00    -0.082 A 
ATOM      9  C7  UNL d   1       3.315  -5.563   2.688  0.00  0.00     0.045 A 
ENDROOT
TORSDOF 0
ENDMDL
