MODEL 1
REMARK minimizedAffinity 3.6274035
REMARK minimizedRMSD -1
REMARK  0 active torsions:
REMARK  status: ('A' for Active; 'I' for Inactive)
ROOT
ATOM      1  C   UNL d   1       5.975   0.143   0.651  0.00  0.00    -0.002 A 
ATOM      2  C1  UNL d   1       5.981   1.529   0.708  0.00  0.00     0.010 A 
ATOM      3  C2  UNL d   1       5.989   2.288  -0.463  0.00  0.00     0.041 A 
ATOM      4  C3  UNL d   1       5.989   1.624  -1.706  0.00  0.00    -0.075 A 
ATOM      5  S   UNL d   1       5.998   2.347  -3.271  0.00  0.00     0.015 SA
ATOM      6  C4  UNL d   1       5.992   0.832  -4.052  0.00  0.00     0.022 A 
ATOM      7  C5  UNL d   1       5.985  -0.210  -3.156  0.00  0.00     0.026 A 
ATOM      8  C6  UNL d   1       5.982   0.229  -1.789  0.00  0.00    -0.082 A 
ATOM      9  C7  UNL d   1       5.975  -0.513  -0.583  0.00  0.00     0.045 A 
ENDROOT
TORSDOF 0
ENDMDL
