MODEL 1
REMARK minimizedAffinity 7.63882303
REMARK minimizedRMSD -1
REMARK  0 active torsions:
REMARK  status: ('A' for Active; 'I' for Inactive)
ROOT
ATOM      1  C   UNL d   1       5.978   1.782   0.731  0.00  0.00    -0.002 A 
ATOM      2  C1  UNL d   1       5.982   2.869  -0.131  0.00  0.00     0.010 A 
ATOM      3  C2  UNL d   1       5.990   2.679  -1.514  0.00  0.00     0.041 A 
ATOM      4  C3  UNL d   1       5.991   1.364  -2.021  0.00  0.00    -0.075 A 
ATOM      5  S   UNL d   1       5.999   0.889  -3.678  0.00  0.00     0.015 SA
ATOM      6  C4  UNL d   1       5.996  -0.768  -3.280  0.00  0.00     0.022 A 
ATOM      7  C5  UNL d   1       5.990  -0.972  -1.921  0.00  0.00     0.026 A 
ATOM      8  C6  UNL d   1       5.986   0.253  -1.173  0.00  0.00    -0.082 A 
ATOM      9  C7  UNL d   1       5.980   0.480   0.225  0.00  0.00     0.045 A 
ENDROOT
TORSDOF 0
ENDMDL
