MODEL 1
REMARK minimizedAffinity -1.69296491
REMARK minimizedRMSD -1
REMARK  1 active torsions:
REMARK  status: ('A' for Active; 'I' for Inactive)
REMARK    1  A    between atoms: C1_2  and  C2_3 
ROOT
ATOM      1  C2  UNL d   1       0.507   0.141  -0.718  0.00  0.00    -0.081 A 
ATOM      2  C3  UNL d   1      -0.715  -0.215  -1.303  0.00  0.00     0.006 A 
ATOM      3  C4  UNL d   1      -1.044  -1.559  -1.493  0.00  0.00     0.002 A 
ATOM      4  C5  UNL d   1      -0.161  -2.569  -1.095  0.00  0.00    -0.080 A 
ATOM      5  C6  UNL d   1      -0.515  -4.016  -1.266  0.00  0.00     0.076 C 
ATOM      6  C7  UNL d   1       1.067  -2.213  -0.527  0.00  0.00     0.002 A 
ATOM      7  C8  UNL d   1       1.396  -0.869  -0.337  0.00  0.00     0.006 A 
ENDROOT
BRANCH   1   8
ATOM      8  C1  UNL d   1       0.836   1.588  -0.453  0.00  0.00     0.054 C 
ATOM      9  C   UNL d   1       0.808   1.897   1.037  0.00  0.00     0.018 C 
ENDBRANCH   1   8
TORSDOF 1
ENDMDL
