MODEL 1
REMARK minimizedAffinity 2.59716368
REMARK minimizedRMSD -1
REMARK  1 active torsions:
REMARK  status: ('A' for Active; 'I' for Inactive)
REMARK    1  A    between atoms: C1_2  and  C2_3 
ROOT
ATOM      1  C2  UNL d   1       2.602  -0.366  -0.908  0.00  0.00    -0.081 A 
ATOM      2  C3  UNL d   1       1.534   0.485  -0.597  0.00  0.00     0.006 A 
ATOM      3  C4  UNL d   1       0.283  -0.041  -0.267  0.00  0.00     0.002 A 
ATOM      4  C5  UNL d   1       0.080  -1.425  -0.234  0.00  0.00    -0.080 A 
ATOM      5  C6  UNL d   1      -1.250  -2.002   0.149  0.00  0.00     0.076 C 
ATOM      6  C7  UNL d   1       1.142  -2.275  -0.561  0.00  0.00     0.002 A 
ATOM      7  C8  UNL d   1       2.393  -1.750  -0.892  0.00  0.00     0.006 A 
ENDROOT
BRANCH   1   8
ATOM      8  C1  UNL d   1       3.970   0.195  -1.202  0.00  0.00     0.054 C 
ATOM      9  C   UNL d   1       4.159   1.559  -0.552  0.00  0.00     0.018 C 
ENDBRANCH   1   8
TORSDOF 1
ENDMDL
