MODEL 1
REMARK minimizedAffinity -1.13804555
REMARK minimizedRMSD -1
REMARK  1 active torsions:
REMARK  status: ('A' for Active; 'I' for Inactive)
REMARK    1  A    between atoms: C1_2  and  C2_3 
ROOT
ATOM      1  C2  UNL d   1       3.537  -0.477  -0.897  0.00  0.00    -0.081 A 
ATOM      2  C3  UNL d   1       3.308  -1.855  -1.003  0.00  0.00     0.006 A 
ATOM      3  C4  UNL d   1       2.005  -2.358  -1.011  0.00  0.00     0.002 A 
ATOM      4  C5  UNL d   1       0.910  -1.493  -0.923  0.00  0.00    -0.080 A 
ATOM      5  C6  UNL d   1      -0.495  -2.017  -0.962  0.00  0.00     0.076 C 
ATOM      6  C7  UNL d   1       1.138  -0.118  -0.799  0.00  0.00     0.002 A 
ATOM      7  C8  UNL d   1       2.441   0.386  -0.790  0.00  0.00     0.006 A 
ENDROOT
BRANCH   1   8
ATOM      8  C1  UNL d   1       4.939   0.073  -0.952  0.00  0.00     0.054 C 
ATOM      9  C   UNL d   1       5.178   0.850  -2.239  0.00  0.00     0.018 C 
ENDBRANCH   1   8
TORSDOF 1
ENDMDL
