MODEL 1
REMARK minimizedAffinity 0.707926393
REMARK minimizedRMSD -1
REMARK  1 active torsions:
REMARK  status: ('A' for Active; 'I' for Inactive)
REMARK    1  A    between atoms: C1_2  and  C2_3 
ROOT
ATOM      1  C2  UNL d   1      -0.763  -2.377  -3.472  0.00  0.00    -0.081 A 
ATOM      2  C3  UNL d   1      -1.127  -1.056  -3.184  0.00  0.00     0.006 A 
ATOM      3  C4  UNL d   1      -0.739  -0.460  -1.982  0.00  0.00     0.002 A 
ATOM      4  C5  UNL d   1       0.025  -1.171  -1.052  0.00  0.00    -0.080 A 
ATOM      5  C6  UNL d   1       0.474  -0.533   0.229  0.00  0.00     0.076 C 
ATOM      6  C7  UNL d   1       0.375  -2.497  -1.331  0.00  0.00     0.002 A 
ATOM      7  C8  UNL d   1      -0.014  -3.094  -2.532  0.00  0.00     0.006 A 
ENDROOT
BRANCH   1   8
ATOM      8  C1  UNL d   1      -1.125  -3.002  -4.795  0.00  0.00     0.054 C 
ATOM      9  C   UNL d   1      -2.210  -4.056  -4.631  0.00  0.00     0.018 C 
ENDBRANCH   1   8
TORSDOF 1
ENDMDL
