MODEL 1
REMARK minimizedAffinity -0.566927671
REMARK minimizedRMSD -1
REMARK  1 active torsions:
REMARK  status: ('A' for Active; 'I' for Inactive)
REMARK    1  A    between atoms: C1_2  and  C2_3 
ROOT
ATOM      1  C2  UNL d   1       2.376  -0.357  -0.859  0.00  0.00    -0.081 A 
ATOM      2  C3  UNL d   1       3.371   0.567  -1.202  0.00  0.00     0.006 A 
ATOM      3  C4  UNL d   1       4.441   0.187  -2.016  0.00  0.00     0.002 A 
ATOM      4  C5  UNL d   1       4.529  -1.120  -2.507  0.00  0.00    -0.080 A 
ATOM      5  C6  UNL d   1       5.656  -1.533  -3.406  0.00  0.00     0.076 C 
ATOM      6  C7  UNL d   1       3.545  -2.048  -2.150  0.00  0.00     0.002 A 
ATOM      7  C8  UNL d   1       2.476  -1.668  -1.336  0.00  0.00     0.006 A 
ENDROOT
BRANCH   1   8
ATOM      8  C1  UNL d   1       1.188   0.067  -0.034  0.00  0.00     0.054 C 
ATOM      9  C   UNL d   1      -0.120  -0.245  -0.748  0.00  0.00     0.018 C 
ENDBRANCH   1   8
TORSDOF 1
ENDMDL
