MODEL 1
REMARK minimizedAffinity 1.72999942
REMARK minimizedRMSD -1
REMARK  1 active torsions:
REMARK  status: ('A' for Active; 'I' for Inactive)
REMARK    1  A    between atoms: C1_2  and  C2_3 
ROOT
ATOM      1  C2  UNL d   1       1.452  -0.529  -1.215  0.00  0.00    -0.081 A 
ATOM      2  C3  UNL d   1       1.859   0.805  -1.091  0.00  0.00     0.006 A 
ATOM      3  C4  UNL d   1       3.203   1.153  -1.248  0.00  0.00     0.002 A 
ATOM      4  C5  UNL d   1       4.160   0.176  -1.541  0.00  0.00    -0.080 A 
ATOM      5  C6  UNL d   1       5.600   0.540  -1.742  0.00  0.00     0.076 C 
ATOM      6  C7  UNL d   1       3.756  -1.160  -1.648  0.00  0.00     0.002 A 
ATOM      7  C8  UNL d   1       2.413  -1.508  -1.490  0.00  0.00     0.006 A 
ENDROOT
BRANCH   1   8
ATOM      8  C1  UNL d   1      -0.006  -0.898  -1.110  0.00  0.00     0.054 C 
ATOM      9  C   UNL d   1      -0.554  -0.597   0.277  0.00  0.00     0.018 C 
ENDBRANCH   1   8
TORSDOF 1
ENDMDL
