MODEL 1
REMARK minimizedAffinity 4.75116634
REMARK minimizedRMSD -1
REMARK  0 active torsions:
REMARK  status: ('A' for Active; 'I' for Inactive)
ROOT
ATOM      1  O1  BZF d   1      -2.712  -0.680  -5.476  0.00  0.00    -0.204 OA
ATOM      2  C2  BZF d   1      -2.206  -1.524  -4.507  0.00  0.00     0.174 A 
ATOM      3  C3  BZF d   1      -2.328  -0.974  -3.282  0.00  0.00    -0.012 A 
ATOM      4  C3A BZF d   1      -3.033   0.253  -3.489  0.00  0.00    -0.107 A 
ATOM      5  C4  BZF d   1      -3.469   1.239  -2.650  0.00  0.00     0.055 A 
ATOM      6  C5  BZF d   1      -4.061   2.342  -3.178  0.00  0.00    -0.016 A 
ATOM      7  C6  BZF d   1      -4.230   2.494  -4.539  0.00  0.00     0.022 A 
ATOM      8  C7  BZF d   1      -3.818   1.541  -5.410  0.00  0.00     0.029 A 
ATOM      9  C7A BZF d   1      -3.249   0.411  -4.878  0.00  0.00     0.058 A 
ENDROOT
TORSDOF 0
ENDMDL
