MODEL 1
REMARK minimizedAffinity 0.402910322
REMARK minimizedRMSD -1
REMARK  0 active torsions:
REMARK  status: ('A' for Active; 'I' for Inactive)
ROOT
ATOM      1  O1  BZF d   1      -2.860  -1.642  -4.004  0.00  0.00    -0.204 OA
ATOM      2  C2  BZF d   1      -1.925  -1.526  -5.015  0.00  0.00     0.174 A 
ATOM      3  C3  BZF d   1      -2.359  -0.682  -5.973  0.00  0.00    -0.012 A 
ATOM      4  C3A BZF d   1      -3.605  -0.171  -5.489  0.00  0.00    -0.107 A 
ATOM      5  C4  BZF d   1      -4.510   0.722  -5.986  0.00  0.00     0.055 A 
ATOM      6  C5  BZF d   1      -5.661   0.947  -5.300  0.00  0.00    -0.016 A 
ATOM      7  C6  BZF d   1      -5.942   0.293  -4.118  0.00  0.00     0.022 A 
ATOM      8  C7  BZF d   1      -5.072  -0.598  -3.583  0.00  0.00     0.029 A 
ATOM      9  C7A BZF d   1      -3.893  -0.802  -4.257  0.00  0.00     0.058 A 
ENDROOT
TORSDOF 0
ENDMDL
