MODEL 1
REMARK minimizedAffinity -1.32508576
REMARK minimizedRMSD -1
REMARK  0 active torsions:
REMARK  status: ('A' for Active; 'I' for Inactive)
ROOT
ATOM      1  O1  BZF d   1      -3.135   2.666  -4.185  0.00  0.00    -0.204 OA
ATOM      2  C2  BZF d   1      -2.699   2.998  -2.917  0.00  0.00     0.174 A 
ATOM      3  C3  BZF d   1      -2.673   1.911  -2.120  0.00  0.00    -0.012 A 
ATOM      4  C3A BZF d   1      -3.032   0.815  -2.966  0.00  0.00    -0.107 A 
ATOM      5  C4  BZF d   1      -3.165  -0.528  -2.758  0.00  0.00     0.055 A 
ATOM      6  C5  BZF d   1      -3.601  -1.315  -3.776  0.00  0.00    -0.016 A 
ATOM      7  C6  BZF d   1      -3.918  -0.792  -5.013  0.00  0.00     0.022 A 
ATOM      8  C7  BZF d   1      -3.797   0.534  -5.269  0.00  0.00     0.029 A 
ATOM      9  C7A BZF d   1      -3.325   1.326  -4.252  0.00  0.00     0.058 A 
ENDROOT
TORSDOF 0
ENDMDL
