MODEL 1
REMARK minimizedAffinity 9.8125
REMARK minimizedRMSD -1
REMARK  0 active torsions:
REMARK  status: ('A' for Active; 'I' for Inactive)
ROOT
ATOM      1  O1  BZF d   1      -4.838   0.002  -4.796  0.00  0.00    -0.204 OA
ATOM      2  C2  BZF d   1      -4.989   0.718  -5.968  0.00  0.00     0.174 A 
ATOM      3  C3  BZF d   1      -4.434   1.942  -5.856  0.00  0.00    -0.012 A 
ATOM      4  C3A BZF d   1      -3.823   1.961  -4.562  0.00  0.00    -0.107 A 
ATOM      5  C4  BZF d   1      -3.102   2.898  -3.878  0.00  0.00     0.055 A 
ATOM      6  C5  BZF d   1      -2.711   2.629  -2.605  0.00  0.00    -0.016 A 
ATOM      7  C6  BZF d   1      -3.027   1.439  -1.984  0.00  0.00     0.022 A 
ATOM      8  C7  BZF d   1      -3.736   0.477  -2.624  0.00  0.00     0.029 A 
ATOM      9  C7A BZF d   1      -4.104   0.732  -3.922  0.00  0.00     0.058 A 
ENDROOT
TORSDOF 0
ENDMDL
