MODEL 1
REMARK minimizedAffinity 3.02469206
REMARK minimizedRMSD -1
REMARK  0 active torsions:
REMARK  status: ('A' for Active; 'I' for Inactive)
ROOT
ATOM      1  C1  BNZ d   1       2.615  -4.770   5.999  0.00  0.00     0.000 A 
ATOM      2  C2  BNZ d   1       3.286  -5.964   5.997  0.00  0.00     0.000 A 
ATOM      3  C3  BNZ d   1       4.652  -5.999   6.000  0.00  0.00     0.000 A 
ATOM      4  C4  BNZ d   1       5.345  -4.842   5.964  0.00  0.00     0.000 A 
ATOM      5  C5  BNZ d   1       4.684  -3.631   5.956  0.00  0.00     0.000 A 
ATOM      6  C6  BNZ d   1       3.309  -3.599   5.992  0.00  0.00     0.000 A 
ENDROOT
TORSDOF 0
ENDMDL
