MODEL 1
REMARK minimizedAffinity 5.76440144
REMARK minimizedRMSD -1
REMARK  0 active torsions:
REMARK  status: ('A' for Active; 'I' for Inactive)
ROOT
ATOM      1  C1  BNZ d   1       2.359  -1.082   1.347  0.00  0.00     0.000 A 
ATOM      2  C2  BNZ d   1       1.218  -0.912   0.610  0.00  0.00     0.000 A 
ATOM      3  C3  BNZ d   1       0.622  -1.973  -0.013  0.00  0.00     0.000 A 
ATOM      4  C4  BNZ d   1       1.190  -3.193   0.069  0.00  0.00     0.000 A 
ATOM      5  C5  BNZ d   1       2.346  -3.379   0.800  0.00  0.00     0.000 A 
ATOM      6  C6  BNZ d   1       2.921  -2.316   1.458  0.00  0.00     0.000 A 
ENDROOT
TORSDOF 0
ENDMDL
