MODEL 1
REMARK minimizedAffinity 7.05471039
REMARK minimizedRMSD -1
REMARK  0 active torsions:
REMARK  status: ('A' for Active; 'I' for Inactive)
ROOT
ATOM      1  C1  BNZ d   1       0.227  -1.874   0.942  0.00  0.00     0.000 A 
ATOM      2  C2  BNZ d   1       0.898  -2.912   0.351  0.00  0.00     0.000 A 
ATOM      3  C3  BNZ d   1       2.208  -3.160   0.652  0.00  0.00     0.000 A 
ATOM      4  C4  BNZ d   1       2.856  -2.347   1.511  0.00  0.00     0.000 A 
ATOM      5  C5  BNZ d   1       2.197  -1.291   2.107  0.00  0.00     0.000 A 
ATOM      6  C6  BNZ d   1       0.867  -1.068   1.832  0.00  0.00     0.000 A 
ENDROOT
TORSDOF 0
ENDMDL
