MODEL 1
REMARK minimizedAffinity 4.27752829
REMARK minimizedRMSD -1
REMARK  0 active torsions:
REMARK  status: ('A' for Active; 'I' for Inactive)
ROOT
ATOM      1  C1  BNZ d   1       2.924  -1.990   1.494  0.00  0.00     0.000 A 
ATOM      2  C2  BNZ d   1       1.867  -1.208   1.874  0.00  0.00     0.000 A 
ATOM      3  C3  BNZ d   1       0.600  -1.487   1.444  0.00  0.00     0.000 A 
ATOM      4  C4  BNZ d   1       0.398  -2.523   0.604  0.00  0.00     0.000 A 
ATOM      5  C5  BNZ d   1       1.455  -3.315   0.204  0.00  0.00     0.000 A 
ATOM      6  C6  BNZ d   1       2.723  -3.055   0.670  0.00  0.00     0.000 A 
ENDROOT
TORSDOF 0
ENDMDL
