MODEL 1
REMARK minimizedAffinity -0.925640464
REMARK minimizedRMSD -1
REMARK  0 active torsions:
REMARK  status: ('A' for Active; 'I' for Inactive)
ROOT
ATOM      1  C1  BNZ d   1       4.818  -3.279   5.998  0.00  0.00     0.000 A 
ATOM      2  C2  BNZ d   1       3.637  -3.962   5.884  0.00  0.00     0.000 A 
ATOM      3  C3  BNZ d   1       3.624  -5.325   5.779  0.00  0.00     0.000 A 
ATOM      4  C4  BNZ d   1       4.792  -5.998   5.748  0.00  0.00     0.000 A 
ATOM      5  C5  BNZ d   1       5.992  -5.323   5.853  0.00  0.00     0.000 A 
ATOM      6  C6  BNZ d   1       5.999  -3.954   5.998  0.00  0.00     0.000 A 
ENDROOT
TORSDOF 0
ENDMDL
