MODEL 1
REMARK minimizedAffinity 6.97113752
REMARK minimizedRMSD -1
REMARK  0 active torsions:
REMARK  status: ('A' for Active; 'I' for Inactive)
ROOT
ATOM      1  C1  BNZ d   1       2.135  -2.082   0.368  0.00  0.00     0.000 A 
ATOM      2  C2  BNZ d   1       1.041  -1.467   0.916  0.00  0.00     0.000 A 
ATOM      3  C3  BNZ d   1       0.963  -1.247   2.262  0.00  0.00     0.000 A 
ATOM      4  C4  BNZ d   1       1.959  -1.677   3.063  0.00  0.00     0.000 A 
ATOM      5  C5  BNZ d   1       3.065  -2.307   2.527  0.00  0.00     0.000 A 
ATOM      6  C6  BNZ d   1       3.158  -2.492   1.167  0.00  0.00     0.000 A 
ENDROOT
TORSDOF 0
ENDMDL
