MODEL 1
REMARK minimizedAffinity 3.42188072
REMARK minimizedRMSD -1
REMARK  0 active torsions:
REMARK  status: ('A' for Active; 'I' for Inactive)
ROOT
ATOM      1  C1  BNZ d   1       2.517  -2.002   0.361  0.00  0.00     0.000 A 
ATOM      2  C2  BNZ d   1       1.951  -1.078   1.198  0.00  0.00     0.000 A 
ATOM      3  C3  BNZ d   1       0.922  -1.425   2.029  0.00  0.00     0.000 A 
ATOM      4  C4  BNZ d   1       0.435  -2.682   1.991  0.00  0.00     0.000 A 
ATOM      5  C5  BNZ d   1       0.989  -3.622   1.145  0.00  0.00     0.000 A 
ATOM      6  C6  BNZ d   1       2.050  -3.279   0.339  0.00  0.00     0.000 A 
ENDROOT
TORSDOF 0
ENDMDL
