MODEL 1
REMARK minimizedAffinity 2.11947632
REMARK minimizedRMSD -1
REMARK  0 active torsions:
REMARK  status: ('A' for Active; 'I' for Inactive)
ROOT
ATOM      1  C1  BNZ d   1       5.954  -2.516   5.967  0.00  0.00     0.000 A 
ATOM      2  C2  BNZ d   1       6.000  -3.884   6.000  0.00  0.00     0.000 A 
ATOM      3  C3  BNZ d   1       4.850  -4.623   5.996  0.00  0.00     0.000 A 
ATOM      4  C4  BNZ d   1       3.657  -3.993   5.999  0.00  0.00     0.000 A 
ATOM      5  C5  BNZ d   1       3.595  -2.614   5.975  0.00  0.00     0.000 A 
ATOM      6  C6  BNZ d   1       4.755  -1.874   5.940  0.00  0.00     0.000 A 
ENDROOT
TORSDOF 0
ENDMDL
