MODEL 1
REMARK minimizedAffinity -2.0411675
REMARK minimizedRMSD -1
REMARK  2 active torsions:
REMARK  status: ('A' for Active; 'I' for Inactive)
REMARK    1  A    between atoms: C2'_3  and  C1'_4 
REMARK    2  A    between atoms: C1'_4  and  C1_5 
ROOT
ATOM      1  C1  I4B d   1      -1.120  -0.050  -1.538  0.00  0.00    -0.075 A 
ATOM      2  C2  I4B d   1      -1.641   0.961  -2.307  0.00  0.00     0.003 A 
ATOM      3  C3  I4B d   1      -1.937   0.738  -3.673  0.00  0.00     0.002 A 
ATOM      4  C4  I4B d   1      -1.650  -0.487  -4.239  0.00  0.00    -0.004 A 
ATOM      5  C5  I4B d   1      -1.143  -1.518  -3.454  0.00  0.00     0.002 A 
ATOM      6  C6  I4B d   1      -0.887  -1.302  -2.092  0.00  0.00     0.003 A 
ENDROOT
BRANCH   1   7
ATOM      7  C1' I4B d   1      -0.788   0.230  -0.107  0.00  0.00     0.060 C 
BRANCH   7   8
ATOM      8  C2' I4B d   1       0.649   0.705  -0.045  0.00  0.00    -0.013 C 
ATOM      9  C4' I4B d   1       0.727   2.209  -0.066  0.00  0.00     0.013 C 
ATOM     10  C3' I4B d   1       1.267   0.148   1.203  0.00  0.00     0.013 C 
ENDBRANCH   7   8
ENDBRANCH   1   7
TORSDOF 2
ENDMDL
