MODEL 1
REMARK minimizedAffinity 5.66108465
REMARK minimizedRMSD -1
REMARK  2 active torsions:
REMARK  status: ('A' for Active; 'I' for Inactive)
REMARK    1  A    between atoms: C2'_3  and  C1'_4 
REMARK    2  A    between atoms: C1'_4  and  C1_5 
ROOT
ATOM      1  C1  I4B d   1       1.973  -0.779  -0.148  0.00  0.00    -0.075 A 
ATOM      2  C2  I4B d   1       0.826  -1.099  -0.831  0.00  0.00     0.003 A 
ATOM      3  C3  I4B d   1      -0.420  -0.563  -0.424  0.00  0.00     0.002 A 
ATOM      4  C4  I4B d   1      -0.480   0.244   0.694  0.00  0.00    -0.004 A 
ATOM      5  C5  I4B d   1       0.687   0.586   1.372  0.00  0.00     0.002 A 
ATOM      6  C6  I4B d   1       1.923   0.081   0.941  0.00  0.00     0.003 A 
ENDROOT
BRANCH   1   7
ATOM      7  C1' I4B d   1       3.266  -1.389  -0.585  0.00  0.00     0.060 C 
BRANCH   7   8
ATOM      8  C2' I4B d   1       3.243  -1.501  -2.096  0.00  0.00    -0.013 C 
ATOM      9  C4' I4B d   1       4.240  -0.565  -2.727  0.00  0.00     0.013 C 
ATOM     10  C3' I4B d   1       3.533  -2.926  -2.459  0.00  0.00     0.013 C 
ENDBRANCH   7   8
ENDBRANCH   1   7
TORSDOF 2
ENDMDL
