MODEL 1
REMARK minimizedAffinity -2.62469912
REMARK minimizedRMSD -1
REMARK  0 active torsions:
REMARK  status: ('A' for Active; 'I' for Inactive)
ROOT
ATOM      1  C   UNL d   1      -0.465  -0.742  -0.176  0.00  0.00     0.172 C 
ATOM      2  N   UNL d   1      -1.398  -0.451  -1.239  0.00  0.00    -0.070 N 
ATOM      3  C1  UNL d   1      -1.450  -1.087  -2.451  0.00  0.00    -0.004 A 
ATOM      4  C2  UNL d   1      -2.474  -0.521  -3.180  0.00  0.00    -0.047 A 
ATOM      5  C3  UNL d   1      -3.056   0.490  -2.379  0.00  0.00    -0.047 A 
ATOM      6  C4  UNL d   1      -2.371   0.512  -1.183  0.00  0.00    -0.004 A 
ENDROOT
TORSDOF 0
ENDMDL
