MODEL 1
REMARK minimizedAffinity -2.64961672
REMARK minimizedRMSD -1
REMARK  0 active torsions:
REMARK  status: ('A' for Active; 'I' for Inactive)
ROOT
ATOM      1  C   UNL d   1       2.309   0.759   0.524  0.00  0.00     0.172 C 
ATOM      2  N   UNL d   1       0.934   0.546   0.137  0.00  0.00    -0.070 N 
ATOM      3  C1  UNL d   1       0.265  -0.647   0.193  0.00  0.00    -0.004 A 
ATOM      4  C2  UNL d   1      -1.019  -0.433  -0.260  0.00  0.00    -0.047 A 
ATOM      5  C3  UNL d   1      -1.125   0.937  -0.599  0.00  0.00    -0.047 A 
ATOM      6  C4  UNL d   1       0.098   1.519  -0.344  0.00  0.00    -0.004 A 
ENDROOT
TORSDOF 0
ENDMDL
