MODEL 1
REMARK minimizedAffinity -2.90547848
REMARK minimizedRMSD -1
REMARK  0 active torsions:
REMARK  status: ('A' for Active; 'I' for Inactive)
ROOT
ATOM      1  C   UNL d   1      -3.862   2.958  -3.286  0.00  0.00     0.172 C 
ATOM      2  N   UNL d   1      -3.395   1.661  -2.856  0.00  0.00    -0.070 N 
ATOM      3  C1  UNL d   1      -2.983   1.340  -1.591  0.00  0.00    -0.004 A 
ATOM      4  C2  UNL d   1      -2.617   0.011  -1.590  0.00  0.00    -0.047 A 
ATOM      5  C3  UNL d   1      -2.816  -0.483  -2.901  0.00  0.00    -0.047 A 
ATOM      6  C4  UNL d   1      -3.299   0.559  -3.664  0.00  0.00    -0.004 A 
ENDROOT
TORSDOF 0
ENDMDL
