MODEL 1
REMARK minimizedAffinity -3.94233465
REMARK minimizedRMSD -1
REMARK  0 active torsions:
REMARK  status: ('A' for Active; 'I' for Inactive)
ROOT
ATOM      1  C   UNL d   1      -0.004   0.187   0.381  0.00  0.00     0.172 C 
ATOM      2  N   UNL d   1       1.164  -0.511   0.864  0.00  0.00    -0.070 N 
ATOM      3  C1  UNL d   1       1.159  -1.581   1.718  0.00  0.00    -0.004 A 
ATOM      4  C2  UNL d   1       2.467  -1.956   1.934  0.00  0.00    -0.047 A 
ATOM      5  C3  UNL d   1       3.288  -1.080   1.184  0.00  0.00    -0.047 A 
ATOM      6  C4  UNL d   1       2.455  -0.196   0.531  0.00  0.00    -0.004 A 
ENDROOT
TORSDOF 0
ENDMDL
