MODEL 1
REMARK minimizedAffinity -3.84864044
REMARK minimizedRMSD -1
REMARK  0 active torsions:
REMARK  status: ('A' for Active; 'I' for Inactive)
ROOT
ATOM      1  C   UNL d   1      -0.616   0.006  -0.308  0.00  0.00     0.172 C 
ATOM      2  N   UNL d   1       0.603  -0.417   0.340  0.00  0.00    -0.070 N 
ATOM      3  C1  UNL d   1       0.777  -1.588   1.028  0.00  0.00    -0.004 A 
ATOM      4  C2  UNL d   1       2.075  -1.618   1.490  0.00  0.00    -0.047 A 
ATOM      5  C3  UNL d   1       2.703  -0.422   1.067  0.00  0.00    -0.047 A 
ATOM      6  C4  UNL d   1       1.769   0.303   0.356  0.00  0.00    -0.004 A 
ENDROOT
TORSDOF 0
ENDMDL
