MODEL 1
REMARK minimizedAffinity -3.78639817
REMARK minimizedRMSD -1
REMARK  0 active torsions:
REMARK  status: ('A' for Active; 'I' for Inactive)
ROOT
ATOM      1  C   UNL d   1      -1.127  -0.219   0.089  0.00  0.00     0.172 C 
ATOM      2  N   UNL d   1       0.202  -0.618   0.489  0.00  0.00    -0.070 N 
ATOM      3  C1  UNL d   1       1.343   0.121   0.320  0.00  0.00    -0.004 A 
ATOM      4  C2  UNL d   1       2.396  -0.605   0.832  0.00  0.00    -0.047 A 
ATOM      5  C3  UNL d   1       1.871  -1.823   1.325  0.00  0.00    -0.047 A 
ATOM      6  C4  UNL d   1       0.511  -1.805   1.100  0.00  0.00    -0.004 A 
ENDROOT
TORSDOF 0
ENDMDL
