MODEL 1
REMARK minimizedAffinity -3.96757817
REMARK minimizedRMSD -1
REMARK  0 active torsions:
REMARK  status: ('A' for Active; 'I' for Inactive)
ROOT
ATOM      1  C   UNL d   1       0.742   0.508   0.325  0.00  0.00     0.172 C 
ATOM      2  N   UNL d   1       1.669  -0.257   1.124  0.00  0.00    -0.070 N 
ATOM      3  C1  UNL d   1       2.963   0.096   1.403  0.00  0.00    -0.004 A 
ATOM      4  C2  UNL d   1       3.510  -0.894   2.191  0.00  0.00    -0.047 A 
ATOM      5  C3  UNL d   1       2.511  -1.876   2.392  0.00  0.00    -0.047 A 
ATOM      6  C4  UNL d   1       1.382  -1.457   1.720  0.00  0.00    -0.004 A 
ENDROOT
TORSDOF 0
ENDMDL
