MODEL 1
REMARK minimizedAffinity 15.0616798
REMARK minimizedRMSD -1
REMARK  0 active torsions:
REMARK  status: ('A' for Active; 'I' for Inactive)
ROOT
ATOM      1  C   UNL d   1       3.277  -5.868   0.352  0.00  0.00    -0.002 A 
ATOM      2  C1  UNL d   1       1.924  -5.899   0.663  0.00  0.00     0.010 A 
ATOM      3  C2  UNL d   1       0.964  -5.939  -0.350  0.00  0.00     0.041 A 
ATOM      4  C3  UNL d   1       1.390  -5.949  -1.693  0.00  0.00    -0.075 A 
ATOM      5  S   UNL d   1       0.393  -5.998  -3.099  0.00  0.00     0.015 SA
ATOM      6  C4  UNL d   1       1.739  -5.979  -4.145  0.00  0.00     0.022 A 
ATOM      7  C5  UNL d   1       2.927  -5.937  -3.455  0.00  0.00     0.026 A 
ATOM      8  C6  UNL d   1       2.746  -5.920  -2.031  0.00  0.00    -0.082 A 
ATOM      9  C7  UNL d   1       3.695  -5.878  -0.981  0.00  0.00     0.045 A 
ENDROOT
TORSDOF 0
ENDMDL
