MODEL 1
REMARK minimizedAffinity 8.43412781
REMARK minimizedRMSD -1
REMARK  0 active torsions:
REMARK  status: ('A' for Active; 'I' for Inactive)
ROOT
ATOM      1  C   UNL d   1       4.484  -3.179   2.343  0.00  0.00    -0.002 A 
ATOM      2  C1  UNL d   1       4.544  -4.531   2.647  0.00  0.00     0.010 A 
ATOM      3  C2  UNL d   1       3.800  -5.055   3.706  0.00  0.00     0.041 A 
ATOM      4  C3  UNL d   1       2.984  -4.188   4.460  0.00  0.00    -0.075 A 
ATOM      5  S   UNL d   1       1.984  -4.606   5.800  0.00  0.00     0.015 SA
ATOM      6  C4  UNL d   1       1.452  -2.999   6.000  0.00  0.00     0.022 A 
ATOM      7  C5  UNL d   1       2.014  -2.151   5.075  0.00  0.00     0.026 A 
ATOM      8  C6  UNL d   1       2.906  -2.823   4.172  0.00  0.00    -0.082 A 
ATOM      9  C7  UNL d   1       3.674  -2.322   3.093  0.00  0.00     0.045 A 
ENDROOT
TORSDOF 0
ENDMDL
