MODEL 1
REMARK minimizedAffinity -4.07627535
REMARK minimizedRMSD -1
REMARK  0 active torsions:
REMARK  status: ('A' for Active; 'I' for Inactive)
ROOT
ATOM      1  C   UNL d   1       3.426  -5.961  -1.260  0.00  0.00    -0.002 A 
ATOM      2  C1  UNL d   1       2.061  -5.999  -1.508  0.00  0.00     0.010 A 
ATOM      3  C2  UNL d   1       1.577  -6.000  -2.818  0.00  0.00     0.041 A 
ATOM      4  C3  UNL d   1       2.497  -5.963  -3.884  0.00  0.00    -0.075 A 
ATOM      5  S   UNL d   1       2.135  -5.957  -5.570  0.00  0.00     0.015 SA
ATOM      6  C4  UNL d   1       3.783  -5.905  -6.000  0.00  0.00     0.022 A 
ATOM      7  C5  UNL d   1       4.604  -5.892  -4.897  0.00  0.00     0.026 A 
ATOM      8  C6  UNL d   1       3.876  -5.925  -3.659  0.00  0.00    -0.082 A 
ATOM      9  C7  UNL d   1       4.335  -5.925  -2.320  0.00  0.00     0.045 A 
ENDROOT
TORSDOF 0
ENDMDL
