MODEL 1
REMARK minimizedAffinity 3.355793
REMARK minimizedRMSD -1
REMARK  0 active torsions:
REMARK  status: ('A' for Active; 'I' for Inactive)
ROOT
ATOM      1  C   UNL d   1       0.659  -5.975   1.288  0.00  0.00    -0.002 A 
ATOM      2  C1  UNL d   1      -0.392  -5.992   0.381  0.00  0.00     0.010 A 
ATOM      3  C2  UNL d   1      -0.144  -6.000  -0.993  0.00  0.00     0.041 A 
ATOM      4  C3  UNL d   1       1.190  -5.992  -1.445  0.00  0.00    -0.075 A 
ATOM      5  S   UNL d   1       1.732  -5.999  -3.082  0.00  0.00     0.015 SA
ATOM      6  C4  UNL d   1       3.372  -5.981  -2.616  0.00  0.00     0.022 A 
ATOM      7  C5  UNL d   1       3.520  -5.968  -1.250  0.00  0.00     0.026 A 
ATOM      8  C6  UNL d   1       2.265  -5.975  -0.552  0.00  0.00    -0.082 A 
ATOM      9  C7  UNL d   1       1.981  -5.967   0.835  0.00  0.00     0.045 A 
ENDROOT
TORSDOF 0
ENDMDL
