MODEL 1
REMARK minimizedAffinity 9.8897295
REMARK minimizedRMSD -1
REMARK  0 active torsions:
REMARK  status: ('A' for Active; 'I' for Inactive)
ROOT
ATOM      1  C   UNL d   1       1.369  -2.540   2.847  0.00  0.00    -0.002 A 
ATOM      2  C1  UNL d   1       1.482  -2.047   4.139  0.00  0.00     0.010 A 
ATOM      3  C2  UNL d   1       1.857  -0.721   4.363  0.00  0.00     0.041 A 
ATOM      4  C3  UNL d   1       2.119   0.110   3.256  0.00  0.00    -0.075 A 
ATOM      5  S   UNL d   1       2.592   1.767   3.288  0.00  0.00     0.015 SA
ATOM      6  C4  UNL d   1       2.656   1.859   1.587  0.00  0.00     0.022 A 
ATOM      7  C5  UNL d   1       2.327   0.664   0.993  0.00  0.00     0.026 A 
ATOM      8  C6  UNL d   1       2.011  -0.364   1.945  0.00  0.00    -0.082 A 
ATOM      9  C7  UNL d   1       1.630  -1.714   1.751  0.00  0.00     0.045 A 
ENDROOT
TORSDOF 0
ENDMDL
