MODEL 1
REMARK minimizedAffinity 9.7217474
REMARK minimizedRMSD -1
REMARK  0 active torsions:
REMARK  status: ('A' for Active; 'I' for Inactive)
ROOT
ATOM      1  C   UNL d   1       2.228  -3.328   5.648  0.00  0.00    -0.002 A 
ATOM      2  C1  UNL d   1       2.179  -4.220   4.586  0.00  0.00     0.010 A 
ATOM      3  C2  UNL d   1       1.965  -3.764   3.284  0.00  0.00     0.041 A 
ATOM      4  C3  UNL d   1       1.802  -2.382   3.065  0.00  0.00    -0.075 A 
ATOM      5  S   UNL d   1       1.530  -1.594   1.556  0.00  0.00     0.015 SA
ATOM      6  C4  UNL d   1       1.474  -0.054   2.285  0.00  0.00     0.022 A 
ATOM      7  C5  UNL d   1       1.656  -0.121   3.646  0.00  0.00     0.026 A 
ATOM      8  C6  UNL d   1       1.849  -1.463   4.118  0.00  0.00    -0.082 A 
ATOM      9  C7  UNL d   1       2.066  -1.958   5.426  0.00  0.00     0.045 A 
ENDROOT
TORSDOF 0
ENDMDL
