MODEL 1
REMARK minimizedAffinity 9.10199738
REMARK minimizedRMSD -1
REMARK  0 active torsions:
REMARK  status: ('A' for Active; 'I' for Inactive)
ROOT
ATOM      1  C   UNL d   1      -2.104   0.128  -3.365  0.00  0.00    -0.002 A 
ATOM      2  C1  UNL d   1      -2.406  -1.055  -2.705  0.00  0.00     0.010 A 
ATOM      3  C2  UNL d   1      -1.698  -1.431  -1.562  0.00  0.00     0.041 A 
ATOM      4  C3  UNL d   1      -0.673  -0.589  -1.087  0.00  0.00    -0.075 A 
ATOM      5  S   UNL d   1       0.327  -0.845   0.294  0.00  0.00     0.015 SA
ATOM      6  C4  UNL d   1       1.177   0.610   0.041  0.00  0.00     0.022 A 
ATOM      7  C5  UNL d   1       0.723   1.287  -1.066  0.00  0.00     0.026 A 
ATOM      8  C6  UNL d   1      -0.351   0.607  -1.734  0.00  0.00    -0.082 A 
ATOM      9  C7  UNL d   1      -1.087   0.960  -2.891  0.00  0.00     0.045 A 
ENDROOT
TORSDOF 0
ENDMDL
