MODEL 1
REMARK minimizedAffinity -1.28973091
REMARK minimizedRMSD -1
REMARK  0 active torsions:
REMARK  status: ('A' for Active; 'I' for Inactive)
ROOT
ATOM      1  C   UNL d   1      -2.933   1.656   3.468  0.00  0.00     0.124 A 
ATOM      2  C1  UNL d   1      -1.546   1.605   3.433  0.00  0.00     0.062 A 
ATOM      3  C2  UNL d   1      -0.899   0.767   2.530  0.00  0.00     0.162 A 
ATOM      4  C3  UNL d   1      -1.637  -0.027   1.652  0.00  0.00    -0.034 A 
ATOM      5  C4  UNL d   1      -3.032   0.028   1.694  0.00  0.00     0.162 A 
ATOM      6  C5  UNL d   1      -3.674   0.868   2.598  0.00  0.00     0.062 A 
ATOM      7  F   UNL d   1      -5.014   0.915   2.631  0.00  0.00    -0.097 F 
ATOM      8  F1  UNL d   1      -3.772  -0.722   0.865  0.00  0.00    -0.096 F 
ATOM      9  I   UNL d   1      -0.673  -1.281   0.300  0.00  0.00    -0.060 I 
ATOM     10  F2  UNL d   1       0.442   0.739   2.518  0.00  0.00    -0.096 F 
ATOM     11  F3  UNL d   1      -0.828   2.365   4.272  0.00  0.00    -0.097 F 
ATOM     12  F4  UNL d   1      -3.553   2.462   4.338  0.00  0.00    -0.092 F 
ENDROOT
TORSDOF 0
ENDMDL
