MODEL 1
REMARK minimizedAffinity 8.36415482
REMARK minimizedRMSD -1
REMARK  0 active torsions:
REMARK  status: ('A' for Active; 'I' for Inactive)
ROOT
ATOM      1  C   UNL d   1      -0.282  -1.955  -1.777  0.00  0.00     0.124 A 
ATOM      2  C1  UNL d   1      -0.103  -2.438  -0.488  0.00  0.00     0.062 A 
ATOM      3  C2  UNL d   1      -0.237  -1.585   0.604  0.00  0.00     0.162 A 
ATOM      4  C3  UNL d   1      -0.554  -0.240   0.412  0.00  0.00    -0.034 A 
ATOM      5  C4  UNL d   1      -0.731   0.238  -0.888  0.00  0.00     0.162 A 
ATOM      6  C5  UNL d   1      -0.595  -0.618  -1.975  0.00  0.00     0.062 A 
ATOM      7  F   UNL d   1      -0.768  -0.150  -3.220  0.00  0.00    -0.097 F 
ATOM      8  F1  UNL d   1      -1.036   1.525  -1.108  0.00  0.00    -0.096 F 
ATOM      9  I   UNL d   1      -0.756   1.038   2.042  0.00  0.00    -0.060 I 
ATOM     10  F2  UNL d   1      -0.059  -2.079   1.839  0.00  0.00    -0.096 F 
ATOM     11  F3  UNL d   1       0.201  -3.729  -0.293  0.00  0.00    -0.097 F 
ATOM     12  F4  UNL d   1      -0.150  -2.778  -2.825  0.00  0.00    -0.092 F 
ENDROOT
TORSDOF 0
ENDMDL
