MODEL 1
REMARK minimizedAffinity -1.29162788
REMARK minimizedRMSD -1
REMARK  0 active torsions:
REMARK  status: ('A' for Active; 'I' for Inactive)
ROOT
ATOM      1  C   UNL d   1      -4.009   0.701   2.498  0.00  0.00     0.124 A 
ATOM      2  C1  UNL d   1      -3.429   1.662   3.314  0.00  0.00     0.062 A 
ATOM      3  C2  UNL d   1      -2.044   1.733   3.437  0.00  0.00     0.162 A 
ATOM      4  C3  UNL d   1      -1.229   0.840   2.740  0.00  0.00    -0.034 A 
ATOM      5  C4  UNL d   1      -1.820  -0.124   1.922  0.00  0.00     0.162 A 
ATOM      6  C5  UNL d   1      -3.205  -0.191   1.803  0.00  0.00     0.062 A 
ATOM      7  F   UNL d   1      -3.763  -1.120   1.014  0.00  0.00    -0.097 F 
ATOM      8  F1  UNL d   1      -1.067  -0.998   1.238  0.00  0.00    -0.096 F 
ATOM      9  I   UNL d   1       0.841   0.943   2.921  0.00  0.00    -0.060 I 
ATOM     10  F2  UNL d   1      -1.511   2.672   4.232  0.00  0.00    -0.096 F 
ATOM     11  F3  UNL d   1      -4.204   2.524   3.987  0.00  0.00    -0.097 F 
ATOM     12  F4  UNL d   1      -5.342   0.634   2.383  0.00  0.00    -0.092 F 
ENDROOT
TORSDOF 0
ENDMDL
