MODEL 1
REMARK minimizedAffinity -4.55177641
REMARK minimizedRMSD -1
REMARK  0 active torsions:
REMARK  status: ('A' for Active; 'I' for Inactive)
ROOT
ATOM      1  C   UNL d   1      -2.787   1.450   2.917  0.00  0.00     0.124 A 
ATOM      2  C1  UNL d   1      -3.440   0.679   1.965  0.00  0.00     0.062 A 
ATOM      3  C2  UNL d   1      -2.720  -0.206   1.168  0.00  0.00     0.162 A 
ATOM      4  C3  UNL d   1      -1.339  -0.326   1.319  0.00  0.00    -0.034 A 
ATOM      5  C4  UNL d   1      -0.689   0.454   2.278  0.00  0.00     0.162 A 
ATOM      6  C5  UNL d   1      -1.413   1.337   3.072  0.00  0.00     0.062 A 
ATOM      7  F   UNL d   1      -0.780   2.082   3.991  0.00  0.00    -0.097 F 
ATOM      8  F1  UNL d   1       0.638   0.364   2.449  0.00  0.00    -0.096 F 
ATOM      9  I   UNL d   1      -0.259  -1.648   0.129  0.00  0.00    -0.060 I 
ATOM     10  F2  UNL d   1      -3.377  -0.939   0.257  0.00  0.00    -0.096 F 
ATOM     11  F3  UNL d   1      -4.768   0.787   1.813  0.00  0.00    -0.097 F 
ATOM     12  F4  UNL d   1      -3.482   2.302   3.682  0.00  0.00    -0.092 F 
ENDROOT
TORSDOF 0
ENDMDL
