MODEL 1
REMARK minimizedAffinity 2.58088684
REMARK minimizedRMSD -1
REMARK  0 active torsions:
REMARK  status: ('A' for Active; 'I' for Inactive)
ROOT
ATOM      1  C   UNL d   1      -4.604   1.903   3.110  0.00  0.00     0.124 A 
ATOM      2  C1  UNL d   1      -3.428   2.190   3.790  0.00  0.00     0.062 A 
ATOM      3  C2  UNL d   1      -2.203   1.777   3.275  0.00  0.00     0.162 A 
ATOM      4  C3  UNL d   1      -2.147   1.073   2.072  0.00  0.00    -0.034 A 
ATOM      5  C4  UNL d   1      -3.333   0.787   1.394  0.00  0.00     0.162 A 
ATOM      6  C5  UNL d   1      -4.555   1.202   1.914  0.00  0.00     0.062 A 
ATOM      7  F   UNL d   1      -5.690   0.924   1.255  0.00  0.00    -0.097 F 
ATOM      8  F1  UNL d   1      -3.316   0.112   0.236  0.00  0.00    -0.096 F 
ATOM      9  I   UNL d   1      -0.317   0.453   1.298  0.00  0.00    -0.060 I 
ATOM     10  F2  UNL d   1      -1.083   2.068   3.953  0.00  0.00    -0.096 F 
ATOM     11  F3  UNL d   1      -3.472   2.866   4.947  0.00  0.00    -0.097 F 
ATOM     12  F4  UNL d   1      -5.781   2.301   3.609  0.00  0.00    -0.092 F 
ENDROOT
TORSDOF 0
ENDMDL
