MODEL 1
REMARK minimizedAffinity 1.1618979
REMARK minimizedRMSD -1
REMARK  0 active torsions:
REMARK  status: ('A' for Active; 'I' for Inactive)
ROOT
ATOM      1  C   UNL d   1       0.863   0.278  -1.893  0.00  0.00     0.124 A 
ATOM      2  C1  UNL d   1       1.661   1.231  -1.278  0.00  0.00     0.062 A 
ATOM      3  C2  UNL d   1       1.565   1.446   0.094  0.00  0.00     0.162 A 
ATOM      4  C3  UNL d   1       0.667   0.704   0.861  0.00  0.00    -0.034 A 
ATOM      5  C4  UNL d   1      -0.134  -0.253   0.235  0.00  0.00     0.162 A 
ATOM      6  C5  UNL d   1      -0.034  -0.463  -1.137  0.00  0.00     0.062 A 
ATOM      7  F   UNL d   1      -0.807  -1.385  -1.729  0.00  0.00    -0.097 F 
ATOM      8  F1  UNL d   1      -1.009  -0.984   0.942  0.00  0.00    -0.096 F 
ATOM      9  I   UNL d   1       0.519   1.022   2.912  0.00  0.00    -0.060 I 
ATOM     10  F2  UNL d   1       2.349   2.374   0.662  0.00  0.00    -0.096 F 
ATOM     11  F3  UNL d   1       2.528   1.949  -2.007  0.00  0.00    -0.097 F 
ATOM     12  F4  UNL d   1       0.957   0.074  -3.214  0.00  0.00    -0.092 F 
ENDROOT
TORSDOF 0
ENDMDL
