MODEL 1
REMARK minimizedAffinity -1.78117096
REMARK minimizedRMSD -1
REMARK  0 active torsions:
REMARK  status: ('A' for Active; 'I' for Inactive)
ROOT
ATOM      1  C   UNL d   1       1.260  -0.828  -2.075  0.00  0.00     0.124 A 
ATOM      2  C1  UNL d   1       1.012  -1.603  -0.951  0.00  0.00     0.062 A 
ATOM      3  C2  UNL d   1       0.100  -1.174   0.009  0.00  0.00     0.162 A 
ATOM      4  C3  UNL d   1      -0.572   0.038  -0.152  0.00  0.00    -0.034 A 
ATOM      5  C4  UNL d   1      -0.317   0.813  -1.284  0.00  0.00     0.162 A 
ATOM      6  C5  UNL d   1       0.596   0.379  -2.241  0.00  0.00     0.062 A 
ATOM      7  F   UNL d   1       0.834   1.130  -3.326  0.00  0.00    -0.097 F 
ATOM      8  F1  UNL d   1      -0.945   1.983  -1.470  0.00  0.00    -0.096 F 
ATOM      9  I   UNL d   1      -1.936   0.684   1.281  0.00  0.00    -0.060 I 
ATOM     10  F2  UNL d   1      -0.119  -1.943   1.085  0.00  0.00    -0.096 F 
ATOM     11  F3  UNL d   1       1.654  -2.769  -0.788  0.00  0.00    -0.097 F 
ATOM     12  F4  UNL d   1       2.139  -1.243  -2.996  0.00  0.00    -0.092 F 
ENDROOT
TORSDOF 0
ENDMDL
