MODEL 1
REMARK minimizedAffinity 3.91467357
REMARK minimizedRMSD -1
REMARK  0 active torsions:
REMARK  status: ('A' for Active; 'I' for Inactive)
ROOT
ATOM      1  C   UNL d   1      -1.344  -0.017  -0.387  0.00  0.00     0.124 A 
ATOM      2  C1  UNL d   1      -0.506  -1.103  -0.174  0.00  0.00     0.062 A 
ATOM      3  C2  UNL d   1       0.867  -0.977  -0.362  0.00  0.00     0.162 A 
ATOM      4  C3  UNL d   1       1.412   0.242  -0.766  0.00  0.00    -0.034 A 
ATOM      5  C4  UNL d   1       0.563   1.330  -0.980  0.00  0.00     0.162 A 
ATOM      6  C5  UNL d   1      -0.808   1.198  -0.790  0.00  0.00     0.062 A 
ATOM      7  F   UNL d   1      -1.616   2.249  -0.997  0.00  0.00    -0.097 F 
ATOM      8  F1  UNL d   1       1.054   2.516  -1.369  0.00  0.00    -0.096 F 
ATOM      9  I   UNL d   1       3.465   0.436  -1.050  0.00  0.00    -0.060 I 
ATOM     10  F2  UNL d   1       1.652  -2.043  -0.148  0.00  0.00    -0.096 F 
ATOM     11  F3  UNL d   1      -1.022  -2.279   0.215  0.00  0.00    -0.097 F 
ATOM     12  F4  UNL d   1      -2.665  -0.142  -0.206  0.00  0.00    -0.092 F 
ENDROOT
TORSDOF 0
ENDMDL
