MODEL 1
REMARK minimizedAffinity -1.54032791
REMARK minimizedRMSD -1
REMARK  0 active torsions:
REMARK  status: ('A' for Active; 'I' for Inactive)
ROOT
ATOM      1  C   UNL d   1       1.014  -0.558  -1.820  0.00  0.00     0.124 A 
ATOM      2  C1  UNL d   1       1.279   0.753  -1.447  0.00  0.00     0.062 A 
ATOM      3  C2  UNL d   1       0.942   1.200  -0.173  0.00  0.00     0.162 A 
ATOM      4  C3  UNL d   1       0.337   0.336   0.739  0.00  0.00    -0.034 A 
ATOM      5  C4  UNL d   1       0.072  -0.981   0.357  0.00  0.00     0.162 A 
ATOM      6  C5  UNL d   1       0.411  -1.423  -0.918  0.00  0.00     0.062 A 
ATOM      7  F   UNL d   1       0.154  -2.689  -1.276  0.00  0.00    -0.097 F 
ATOM      8  F1  UNL d   1      -0.509  -1.838   1.209  0.00  0.00    -0.096 F 
ATOM      9  I   UNL d   1      -0.168   1.001   2.645  0.00  0.00    -0.060 I 
ATOM     10  F2  UNL d   1       1.211   2.471   0.160  0.00  0.00    -0.096 F 
ATOM     11  F3  UNL d   1       1.861   1.591  -2.317  0.00  0.00    -0.097 F 
ATOM     12  F4  UNL d   1       1.338  -0.985  -3.047  0.00  0.00    -0.092 F 
ENDROOT
TORSDOF 0
ENDMDL
