MODEL 1
REMARK minimizedAffinity -3.72842646
REMARK minimizedRMSD -1
REMARK  0 active torsions:
REMARK  status: ('A' for Active; 'I' for Inactive)
ROOT
ATOM      1  C   UNL d   1      -3.907   1.145   2.066  0.00  0.00     0.124 A 
ATOM      2  C1  UNL d   1      -3.335   2.040   2.959  0.00  0.00     0.062 A 
ATOM      3  C2  UNL d   1      -1.984   1.941   3.281  0.00  0.00     0.162 A 
ATOM      4  C3  UNL d   1      -1.196   0.944   2.707  0.00  0.00    -0.034 A 
ATOM      5  C4  UNL d   1      -1.778   0.046   1.811  0.00  0.00     0.162 A 
ATOM      6  C5  UNL d   1      -3.129   0.149   1.493  0.00  0.00     0.062 A 
ATOM      7  F   UNL d   1      -3.680  -0.717   0.630  0.00  0.00    -0.097 F 
ATOM      8  F1  UNL d   1      -1.049  -0.925   1.241  0.00  0.00    -0.096 F 
ATOM      9  I   UNL d   1       0.824   0.793   3.185  0.00  0.00    -0.060 I 
ATOM     10  F2  UNL d   1      -1.458   2.820   4.147  0.00  0.00    -0.096 F 
ATOM     11  F3  UNL d   1      -4.085   3.002   3.515  0.00  0.00    -0.097 F 
ATOM     12  F4  UNL d   1      -5.207   1.241   1.759  0.00  0.00    -0.092 F 
ENDROOT
TORSDOF 0
ENDMDL
