MODEL 1
REMARK minimizedAffinity 2.3531003
REMARK minimizedRMSD -1
REMARK  0 active torsions:
REMARK  status: ('A' for Active; 'I' for Inactive)
ROOT
ATOM      1  C   UNL d   1      -3.421  -3.397  -4.805  0.00  0.00     0.124 A 
ATOM      2  C1  UNL d   1      -2.632  -3.691  -3.702  0.00  0.00     0.062 A 
ATOM      3  C2  UNL d   1      -2.932  -3.140  -2.460  0.00  0.00     0.162 A 
ATOM      4  C3  UNL d   1      -4.028  -2.289  -2.314  0.00  0.00    -0.034 A 
ATOM      5  C4  UNL d   1      -4.816  -1.997  -3.428  0.00  0.00     0.162 A 
ATOM      6  C5  UNL d   1      -4.512  -2.551  -4.668  0.00  0.00     0.062 A 
ATOM      7  F   UNL d   1      -5.275  -2.266  -5.732  0.00  0.00    -0.097 F 
ATOM      8  F1  UNL d   1      -5.877  -1.183  -3.323  0.00  0.00    -0.096 F 
ATOM      9  I   UNL d   1      -4.480  -1.463  -0.458  0.00  0.00    -0.060 I 
ATOM     10  F2  UNL d   1      -2.153  -3.442  -1.411  0.00  0.00    -0.096 F 
ATOM     11  F3  UNL d   1      -1.577  -4.508  -3.833  0.00  0.00    -0.097 F 
ATOM     12  F4  UNL d   1      -3.129  -3.928  -6.000  0.00  0.00    -0.092 F 
ENDROOT
TORSDOF 0
ENDMDL
