MODEL 1
REMARK minimizedAffinity 5.07983685
REMARK minimizedRMSD -1
REMARK  0 active torsions:
REMARK  status: ('A' for Active; 'I' for Inactive)
ROOT
ATOM      1  C   UNL d   1      -0.118   0.859   1.505  0.00  0.00     0.124 A 
ATOM      2  C1  UNL d   1      -0.975   1.878   1.111  0.00  0.00     0.062 A 
ATOM      3  C2  UNL d   1      -1.983   2.315   1.965  0.00  0.00     0.162 A 
ATOM      4  C3  UNL d   1      -2.140   1.735   3.224  0.00  0.00    -0.034 A 
ATOM      5  C4  UNL d   1      -1.275   0.710   3.613  0.00  0.00     0.162 A 
ATOM      6  C5  UNL d   1      -0.269   0.276   2.756  0.00  0.00     0.062 A 
ATOM      7  F   UNL d   1       0.557  -0.708   3.139  0.00  0.00    -0.097 F 
ATOM      8  F1  UNL d   1      -1.398   0.130   4.816  0.00  0.00    -0.096 F 
ATOM      9  I   UNL d   1      -3.646   2.385   4.504  0.00  0.00    -0.060 I 
ATOM     10  F2  UNL d   1      -2.796   3.301   1.558  0.00  0.00    -0.096 F 
ATOM     11  F3  UNL d   1      -0.831   2.442  -0.097  0.00  0.00    -0.097 F 
ATOM     12  F4  UNL d   1       0.850   0.440   0.681  0.00  0.00    -0.092 F 
ENDROOT
TORSDOF 0
ENDMDL
