MODEL 1
REMARK minimizedAffinity 5.04704046
REMARK minimizedRMSD -1
REMARK  0 active torsions:
REMARK  status: ('A' for Active; 'I' for Inactive)
ROOT
ATOM      1  C2' OXE d   1      -4.303  -5.997   3.276  0.00  0.00     0.078 C 
ATOM      2  C1' OXE d   1      -3.320  -5.971   0.646  0.00  0.00     0.078 C 
ATOM      3  C1  OXE d   1      -2.316  -5.976   1.773  0.00  0.00    -0.078 A 
ATOM      4  C2  OXE d   1      -2.806  -5.941   3.056  0.00  0.00    -0.078 A 
ATOM      5  C3  OXE d   1      -1.926  -5.999   4.132  0.00  0.00     0.003 A 
ATOM      6  C4  OXE d   1      -0.543  -5.937   3.920  0.00  0.00    -0.002 A 
ATOM      7  C5  OXE d   1      -0.023  -5.932   2.622  0.00  0.00    -0.002 A 
ATOM      8  C6  OXE d   1      -0.893  -5.994   1.539  0.00  0.00     0.003 A 
ENDROOT
TORSDOF 0
ENDMDL
