MODEL 1
REMARK minimizedAffinity 11.4693165
REMARK minimizedRMSD -1
REMARK  0 active torsions:
REMARK  status: ('A' for Active; 'I' for Inactive)
ROOT
ATOM      1  C2' OXE d   1       2.604  -5.964   1.683  0.00  0.00     0.078 C 
ATOM      2  C1' OXE d   1       1.432  -5.921   4.233  0.00  0.00     0.078 C 
ATOM      3  C1  OXE d   1       0.513  -5.944   3.037  0.00  0.00    -0.078 A 
ATOM      4  C2  OXE d   1       1.095  -5.917   1.793  0.00  0.00    -0.078 A 
ATOM      5  C3  OXE d   1       0.295  -5.992   0.656  0.00  0.00     0.003 A 
ATOM      6  C4  OXE d   1      -1.099  -5.939   0.766  0.00  0.00    -0.002 A 
ATOM      7  C5  OXE d   1      -1.712  -5.925   2.023  0.00  0.00    -0.002 A 
ATOM      8  C6  OXE d   1      -0.923  -5.970   3.167  0.00  0.00     0.003 A 
ENDROOT
TORSDOF 0
ENDMDL
