MODEL 1
REMARK minimizedAffinity 6.60422897
REMARK minimizedRMSD -1
REMARK  0 active torsions:
REMARK  status: ('A' for Active; 'I' for Inactive)
ROOT
ATOM      1  C2' OXE d   1       3.615   1.805  -5.848  0.00  0.00     0.078 C 
ATOM      2  C1' OXE d   1       5.398   1.823  -3.680  0.00  0.00     0.078 C 
ATOM      3  C1  OXE d   1       4.277   0.814  -3.661  0.00  0.00    -0.078 A 
ATOM      4  C2  OXE d   1       3.382   0.844  -4.703  0.00  0.00    -0.078 A 
ATOM      5  C3  OXE d   1       2.361  -0.101  -4.761  0.00  0.00     0.003 A 
ATOM      6  C4  OXE d   1       2.147  -0.980  -3.693  0.00  0.00    -0.002 A 
ATOM      7  C5  OXE d   1       3.023  -1.000  -2.603  0.00  0.00    -0.002 A 
ATOM      8  C6  OXE d   1       4.116  -0.140  -2.592  0.00  0.00     0.003 A 
ENDROOT
TORSDOF 0
ENDMDL
