MODEL 1
REMARK minimizedAffinity 3.63910127
REMARK minimizedRMSD -1
REMARK  0 active torsions:
REMARK  status: ('A' for Active; 'I' for Inactive)
ROOT
ATOM      1  C2' OXE d   1       1.591  -5.949   5.528  0.00  0.00     0.078 C 
ATOM      2  C1' OXE d   1       3.362  -5.998   3.351  0.00  0.00     0.078 C 
ATOM      3  C1  OXE d   1       1.883  -5.976   3.054  0.00  0.00    -0.078 A 
ATOM      4  C2  OXE d   1       1.024  -6.000   4.126  0.00  0.00    -0.078 A 
ATOM      5  C3  OXE d   1      -0.350  -5.926   3.910  0.00  0.00     0.003 A 
ATOM      6  C4  OXE d   1      -0.867  -5.983   2.610  0.00  0.00    -0.002 A 
ATOM      7  C5  OXE d   1      -0.009  -6.000   1.505  0.00  0.00    -0.002 A 
ATOM      8  C6  OXE d   1       1.366  -5.954   1.709  0.00  0.00     0.003 A 
ENDROOT
TORSDOF 0
ENDMDL
