MODEL 1
REMARK minimizedAffinity 4.34483194
REMARK minimizedRMSD -1
REMARK  0 active torsions:
REMARK  status: ('A' for Active; 'I' for Inactive)
ROOT
ATOM      1  C2' OXE d   1      -5.994   2.219   3.183  0.00  0.00     0.078 C 
ATOM      2  C1' OXE d   1      -6.000   2.215   5.990  0.00  0.00     0.078 C 
ATOM      3  C1  OXE d   1      -5.954   0.882   5.284  0.00  0.00    -0.078 A 
ATOM      4  C2  OXE d   1      -5.999   0.892   3.911  0.00  0.00    -0.078 A 
ATOM      5  C3  OXE d   1      -5.904  -0.306   3.209  0.00  0.00     0.003 A 
ATOM      6  C4  OXE d   1      -5.919  -1.529   3.891  0.00  0.00    -0.002 A 
ATOM      7  C5  OXE d   1      -5.913  -1.563   5.289  0.00  0.00    -0.002 A 
ATOM      8  C6  OXE d   1      -5.888  -0.368   6.000  0.00  0.00     0.003 A 
ENDROOT
TORSDOF 0
ENDMDL
