MODEL 1
REMARK minimizedAffinity 11.036871
REMARK minimizedRMSD -1
REMARK  0 active torsions:
REMARK  status: ('A' for Active; 'I' for Inactive)
ROOT
ATOM      1  C2' OXE d   1       1.173  -6.000   1.849  0.00  0.00     0.078 C 
ATOM      2  C1' OXE d   1      -1.079  -4.478   2.552  0.00  0.00     0.078 C 
ATOM      3  C1  OXE d   1      -0.124  -4.871   3.652  0.00  0.00    -0.078 A 
ATOM      4  C2  OXE d   1       0.950  -5.655   3.306  0.00  0.00    -0.078 A 
ATOM      5  C3  OXE d   1       1.891  -6.000   4.272  0.00  0.00     0.003 A 
ATOM      6  C4  OXE d   1       1.673  -5.685   5.619  0.00  0.00    -0.002 A 
ATOM      7  C5  OXE d   1       0.564  -4.921   5.998  0.00  0.00    -0.002 A 
ATOM      8  C6  OXE d   1      -0.319  -4.471   5.023  0.00  0.00     0.003 A 
ENDROOT
TORSDOF 0
ENDMDL
