MODEL 1
REMARK minimizedAffinity 9.00143337
REMARK minimizedRMSD -1
REMARK  0 active torsions:
REMARK  status: ('A' for Active; 'I' for Inactive)
ROOT
ATOM      1  C2' OXE d   1       3.951  -5.998   3.253  0.00  0.00     0.078 C 
ATOM      2  C1' OXE d   1       3.069  -5.976   5.918  0.00  0.00     0.078 C 
ATOM      3  C1  OXE d   1       2.024  -5.958   4.831  0.00  0.00    -0.078 A 
ATOM      4  C2  OXE d   1       2.465  -5.922   3.530  0.00  0.00    -0.078 A 
ATOM      5  C3  OXE d   1       1.543  -5.960   2.488  0.00  0.00     0.003 A 
ATOM      6  C4  OXE d   1       0.171  -5.879   2.752  0.00  0.00    -0.002 A 
ATOM      7  C5  OXE d   1      -0.299  -5.875   4.070  0.00  0.00    -0.002 A 
ATOM      8  C6  OXE d   1       0.611  -5.957   5.118  0.00  0.00     0.003 A 
ENDROOT
TORSDOF 0
ENDMDL
