MODEL 1
REMARK minimizedAffinity 4.38439989
REMARK minimizedRMSD -1
REMARK  0 active torsions:
REMARK  status: ('A' for Active; 'I' for Inactive)
ROOT
ATOM      1  C2' OXE d   1      -1.005  -5.997   1.654  0.00  0.00     0.078 C 
ATOM      2  C1' OXE d   1       1.765  -5.981   1.201  0.00  0.00     0.078 C 
ATOM      3  C1  OXE d   1       1.286  -5.981   2.631  0.00  0.00    -0.078 A 
ATOM      4  C2  OXE d   1      -0.071  -5.942   2.844  0.00  0.00    -0.078 A 
ATOM      5  C3  OXE d   1      -0.567  -5.995   4.143  0.00  0.00     0.003 A 
ATOM      6  C4  OXE d   1       0.304  -5.933   5.238  0.00  0.00    -0.002 A 
ATOM      7  C5  OXE d   1       1.689  -5.933   5.043  0.00  0.00    -0.002 A 
ATOM      8  C6  OXE d   1       2.196  -5.999   3.750  0.00  0.00     0.003 A 
ENDROOT
TORSDOF 0
ENDMDL
