MODEL 1
REMARK minimizedAffinity 7.368752
REMARK minimizedRMSD -1
REMARK  0 active torsions:
REMARK  status: ('A' for Active; 'I' for Inactive)
ROOT
ATOM      1  C2' OXE d   1       0.492  -5.842   5.426  0.00  0.00     0.078 C 
ATOM      2  C1' OXE d   1      -1.452  -5.828   3.401  0.00  0.00     0.078 C 
ATOM      3  C1  OXE d   1      -0.004  -5.905   2.986  0.00  0.00    -0.078 A 
ATOM      4  C2  OXE d   1       0.942  -5.864   3.982  0.00  0.00    -0.078 A 
ATOM      5  C3  OXE d   1       2.290  -5.986   3.657  0.00  0.00     0.003 A 
ATOM      6  C4  OXE d   1       2.699  -5.996   2.318  0.00  0.00    -0.002 A 
ATOM      7  C5  OXE d   1       1.753  -5.998   1.287  0.00  0.00    -0.002 A 
ATOM      8  C6  OXE d   1       0.399  -5.996   1.604  0.00  0.00     0.003 A 
ENDROOT
TORSDOF 0
ENDMDL
