MODEL 1
REMARK minimizedAffinity 1.13477612
REMARK minimizedRMSD -1
REMARK  0 active torsions:
REMARK  status: ('A' for Active; 'I' for Inactive)
ROOT
ATOM      1  C2' OXE d   1       1.501  -4.862   5.201  0.00  0.00     0.078 C 
ATOM      2  C1' OXE d   1       3.106  -5.701   3.055  0.00  0.00     0.078 C 
ATOM      3  C1  OXE d   1       1.613  -5.656   2.842  0.00  0.00    -0.078 A 
ATOM      4  C2  OXE d   1       0.832  -5.289   3.912  0.00  0.00    -0.078 A 
ATOM      5  C3  OXE d   1      -0.546  -5.178   3.753  0.00  0.00     0.003 A 
ATOM      6  C4  OXE d   1      -1.157  -5.584   2.560  0.00  0.00    -0.002 A 
ATOM      7  C5  OXE d   1      -0.383  -5.999   1.471  0.00  0.00    -0.002 A 
ATOM      8  C6  OXE d   1       1.003  -6.000   1.582  0.00  0.00     0.003 A 
ENDROOT
TORSDOF 0
ENDMDL
