MODEL 1
REMARK minimizedAffinity 6.22103739
REMARK minimizedRMSD -1
REMARK  0 active torsions:
REMARK  status: ('A' for Active; 'I' for Inactive)
ROOT
ATOM      1  C2' OXE d   1       2.603  -4.154   3.549  0.00  0.00     0.078 C 
ATOM      2  C1' OXE d   1       1.509  -6.000   5.360  0.00  0.00     0.078 C 
ATOM      3  C1  OXE d   1       0.635  -5.522   4.228  0.00  0.00    -0.078 A 
ATOM      4  C2  OXE d   1       1.162  -4.584   3.374  0.00  0.00    -0.078 A 
ATOM      5  C3  OXE d   1       0.417  -4.151   2.281  0.00  0.00     0.003 A 
ATOM      6  C4  OXE d   1      -0.918  -4.545   2.131  0.00  0.00    -0.002 A 
ATOM      7  C5  OXE d   1      -1.487  -5.470   3.013  0.00  0.00    -0.002 A 
ATOM      8  C6  OXE d   1      -0.713  -6.000   4.039  0.00  0.00     0.003 A 
ENDROOT
TORSDOF 0
ENDMDL
