MODEL 1
REMARK minimizedAffinity 6.9681406
REMARK minimizedRMSD -1
REMARK  0 active torsions:
REMARK  status: ('A' for Active; 'I' for Inactive)
ROOT
ATOM      1  C2' OXE d   1      -0.340  -2.844  -5.481  0.00  0.00     0.078 C 
ATOM      2  C1' OXE d   1      -2.362  -4.159  -4.045  0.00  0.00     0.078 C 
ATOM      3  C1  OXE d   1      -2.095  -2.711  -3.719  0.00  0.00    -0.078 A 
ATOM      4  C2  OXE d   1      -1.073  -2.089  -4.394  0.00  0.00    -0.078 A 
ATOM      5  C3  OXE d   1      -0.820  -0.738  -4.170  0.00  0.00     0.003 A 
ATOM      6  C4  OXE d   1      -1.496  -0.049  -3.155  0.00  0.00    -0.002 A 
ATOM      7  C5  OXE d   1      -2.514  -0.676  -2.428  0.00  0.00    -0.002 A 
ATOM      8  C6  OXE d   1      -2.854  -1.991  -2.726  0.00  0.00     0.003 A 
ENDROOT
TORSDOF 0
ENDMDL
