MODEL 1
REMARK minimizedAffinity 5.73647642
REMARK minimizedRMSD -1
REMARK  0 active torsions:
REMARK  status: ('A' for Active; 'I' for Inactive)
ROOT
ATOM      1  C2' OXE d   1      -1.300  -6.000   2.008  0.00  0.00     0.078 C 
ATOM      2  C1' OXE d   1       1.138  -5.991   0.617  0.00  0.00     0.078 C 
ATOM      3  C1  OXE d   1       1.188  -5.984   2.125  0.00  0.00    -0.078 A 
ATOM      4  C2  OXE d   1      -0.010  -5.941   2.797  0.00  0.00    -0.078 A 
ATOM      5  C3  OXE d   1      -0.022  -5.989   4.188  0.00  0.00     0.003 A 
ATOM      6  C4  OXE d   1       1.176  -5.925   4.910  0.00  0.00    -0.002 A 
ATOM      7  C5  OXE d   1       2.407  -5.927   4.245  0.00  0.00    -0.002 A 
ATOM      8  C6  OXE d   1       2.431  -6.000   2.856  0.00  0.00     0.003 A 
ENDROOT
TORSDOF 0
ENDMDL
