MODEL 1
REMARK minimizedAffinity 3.29456568
REMARK minimizedRMSD -1
REMARK  0 active torsions:
REMARK  status: ('A' for Active; 'I' for Inactive)
ROOT
ATOM      1  C2' OXE d   1      -4.601  -5.980   3.773  0.00  0.00     0.078 C 
ATOM      2  C1' OXE d   1      -1.859  -5.934   3.172  0.00  0.00     0.078 C 
ATOM      3  C1  OXE d   1      -2.832  -5.927   2.020  0.00  0.00    -0.078 A 
ATOM      4  C2  OXE d   1      -4.171  -5.996   2.322  0.00  0.00    -0.078 A 
ATOM      5  C3  OXE d   1      -5.113  -5.937   1.299  0.00  0.00     0.003 A 
ATOM      6  C4  OXE d   1      -4.707  -5.963  -0.041  0.00  0.00    -0.002 A 
ATOM      7  C5  OXE d   1      -3.348  -5.933  -0.371  0.00  0.00    -0.002 A 
ATOM      8  C6  OXE d   1      -2.400  -5.871   0.645  0.00  0.00     0.003 A 
ENDROOT
TORSDOF 0
ENDMDL
