MODEL 1
REMARK minimizedAffinity 4.83683157
REMARK minimizedRMSD -1
REMARK  0 active torsions:
REMARK  status: ('A' for Active; 'I' for Inactive)
ROOT
ATOM      1  C2' OXE d   1       0.513  -5.956   0.796  0.00  0.00     0.078 C 
ATOM      2  C1' OXE d   1      -1.135  -5.974   3.068  0.00  0.00     0.078 C 
ATOM      3  C1  OXE d   1       0.358  -5.953   3.282  0.00  0.00    -0.078 A 
ATOM      4  C2  OXE d   1       1.157  -5.992   2.165  0.00  0.00    -0.078 A 
ATOM      5  C3  OXE d   1       2.540  -5.919   2.304  0.00  0.00     0.003 A 
ATOM      6  C4  OXE d   1       3.128  -5.962   3.574  0.00  0.00    -0.002 A 
ATOM      7  C5  OXE d   1       2.333  -5.963   4.725  0.00  0.00    -0.002 A 
ATOM      8  C6  OXE d   1       0.949  -5.916   4.597  0.00  0.00     0.003 A 
ENDROOT
TORSDOF 0
ENDMDL
