MODEL 1
REMARK minimizedAffinity 12.0193081
REMARK minimizedRMSD -1
REMARK  0 active torsions:
REMARK  status: ('A' for Active; 'I' for Inactive)
ROOT
ATOM      1  C2' OXE d   1       1.461  -1.377  -3.305  0.00  0.00     0.078 C 
ATOM      2  C1' OXE d   1      -1.243  -2.076  -3.585  0.00  0.00     0.078 C 
ATOM      3  C1  OXE d   1      -0.741  -1.749  -2.201  0.00  0.00    -0.078 A 
ATOM      4  C2  OXE d   1       0.595  -1.454  -2.066  0.00  0.00    -0.078 A 
ATOM      5  C3  OXE d   1       1.098  -1.092  -0.820  0.00  0.00     0.003 A 
ATOM      6  C4  OXE d   1       0.293  -1.175   0.322  0.00  0.00    -0.002 A 
ATOM      7  C5  OXE d   1      -1.061  -1.513   0.213  0.00  0.00    -0.002 A 
ATOM      8  C6  OXE d   1      -1.602  -1.761  -1.044  0.00  0.00     0.003 A 
ENDROOT
TORSDOF 0
ENDMDL
