MODEL 1
REMARK minimizedAffinity 7.47034121
REMARK minimizedRMSD -1
REMARK  0 active torsions:
REMARK  status: ('A' for Active; 'I' for Inactive)
ROOT
ATOM      1  C2' OXE d   1      -1.219  -5.910   2.473  0.00  0.00     0.078 C 
ATOM      2  C1' OXE d   1       1.529  -5.888   1.904  0.00  0.00     0.078 C 
ATOM      3  C1  OXE d   1       1.111  -5.937   3.352  0.00  0.00    -0.078 A 
ATOM      4  C2  OXE d   1      -0.236  -5.901   3.623  0.00  0.00    -0.078 A 
ATOM      5  C3  OXE d   1      -0.677  -6.000   4.939  0.00  0.00     0.003 A 
ATOM      6  C4  OXE d   1       0.239  -5.981   5.998  0.00  0.00    -0.002 A 
ATOM      7  C5  OXE d   1       1.615  -5.978   5.745  0.00  0.00    -0.002 A 
ATOM      8  C6  OXE d   1       2.067  -5.999   4.430  0.00  0.00     0.003 A 
ENDROOT
TORSDOF 0
ENDMDL
