MODEL 1
REMARK minimizedAffinity 1.23767734
REMARK minimizedRMSD -1
REMARK  0 active torsions:
REMARK  status: ('A' for Active; 'I' for Inactive)
ROOT
ATOM      1  C2' OXE d   1       1.507  -5.933   5.622  0.00  0.00     0.078 C 
ATOM      2  C1' OXE d   1       3.153  -5.998   3.349  0.00  0.00     0.078 C 
ATOM      3  C1  OXE d   1       1.660  -5.974   3.136  0.00  0.00    -0.078 A 
ATOM      4  C2  OXE d   1       0.862  -5.989   4.254  0.00  0.00    -0.078 A 
ATOM      5  C3  OXE d   1      -0.521  -5.912   4.114  0.00  0.00     0.003 A 
ATOM      6  C4  OXE d   1      -1.110  -5.975   2.846  0.00  0.00    -0.002 A 
ATOM      7  C5  OXE d   1      -0.316  -6.000   1.695  0.00  0.00    -0.002 A 
ATOM      8  C6  OXE d   1       1.068  -5.957   1.821  0.00  0.00     0.003 A 
ENDROOT
TORSDOF 0
ENDMDL
