MODEL 1
REMARK minimizedAffinity 9.17780304
REMARK minimizedRMSD -1
REMARK  0 active torsions:
REMARK  status: ('A' for Active; 'I' for Inactive)
ROOT
ATOM      1  C2' OXE d   1      -0.154  -2.723  -6.000  0.00  0.00     0.078 C 
ATOM      2  C1' OXE d   1      -2.342  -4.114  -4.924  0.00  0.00     0.078 C 
ATOM      3  C1  OXE d   1      -1.899  -2.853  -4.227  0.00  0.00    -0.078 A 
ATOM      4  C2  OXE d   1      -0.798  -2.204  -4.733  0.00  0.00    -0.078 A 
ATOM      5  C3  OXE d   1      -0.381  -1.006  -4.160  0.00  0.00     0.003 A 
ATOM      6  C4  OXE d   1      -0.976  -0.537  -2.982  0.00  0.00    -0.002 A 
ATOM      7  C5  OXE d   1      -2.074  -1.205  -2.428  0.00  0.00    -0.002 A 
ATOM      8  C6  OXE d   1      -2.573  -2.338  -3.061  0.00  0.00     0.003 A 
ENDROOT
TORSDOF 0
ENDMDL
