MODEL 1
REMARK minimizedAffinity 2.0320816
REMARK minimizedRMSD -1
REMARK  2 active torsions:
REMARK  status: ('A' for Active; 'I' for Inactive)
REMARK    1  A    between atoms: C2'_3  and  C1'_4 
REMARK    2  A    between atoms: C1'_4  and  C1_5 
ROOT
ATOM      1  C1  I4B d   1       2.307   1.652   0.062  0.00  0.00    -0.075 A 
ATOM      2  C2  I4B d   1       1.169   2.416  -0.003  0.00  0.00     0.003 A 
ATOM      3  C3  I4B d   1      -0.056   1.835  -0.413  0.00  0.00     0.002 A 
ATOM      4  C4  I4B d   1      -0.086   0.509  -0.794  0.00  0.00    -0.004 A 
ATOM      5  C5  I4B d   1       1.064  -0.269  -0.705  0.00  0.00     0.002 A 
ATOM      6  C6  I4B d   1       2.266   0.303  -0.263  0.00  0.00     0.003 A 
ENDROOT
BRANCH   1   7
ATOM      7  C1' I4B d   1       3.591   2.305   0.467  0.00  0.00     0.060 C 
BRANCH   7   8
ATOM      8  C2' I4B d   1       4.708   1.681  -0.343  0.00  0.00    -0.013 C 
ATOM      9  C4' I4B d   1       5.462   2.724  -1.127  0.00  0.00     0.013 C 
ATOM     10  C3' I4B d   1       5.616   0.954   0.603  0.00  0.00     0.013 C 
ENDBRANCH   7   8
ENDBRANCH   1   7
TORSDOF 2
ENDMDL
