MODEL 1
REMARK minimizedAffinity 0.0963303149
REMARK minimizedRMSD -1
REMARK  2 active torsions:
REMARK  status: ('A' for Active; 'I' for Inactive)
REMARK    1  A    between atoms: C2'_3  and  C1'_4 
REMARK    2  A    between atoms: C1'_4  and  C1_5 
ROOT
ATOM      1  C1  I4B d   1       3.719  -0.618  -0.157  0.00  0.00    -0.075 A 
ATOM      2  C2  I4B d   1       2.935  -1.718  -0.398  0.00  0.00     0.003 A 
ATOM      3  C3  I4B d   1       2.962  -2.349  -1.666  0.00  0.00     0.002 A 
ATOM      4  C4  I4B d   1       3.744  -1.819  -2.672  0.00  0.00    -0.004 A 
ATOM      5  C5  I4B d   1       4.556  -0.717  -2.419  0.00  0.00     0.002 A 
ATOM      6  C6  I4B d   1       4.553  -0.120  -1.150  0.00  0.00     0.003 A 
ENDROOT
BRANCH   1   7
ATOM      7  C1' I4B d   1       3.641   0.044   1.182  0.00  0.00     0.060 C 
BRANCH   7   8
ATOM      8  C2' I4B d   1       2.714   1.236   1.061  0.00  0.00    -0.013 C 
ATOM      9  C4' I4B d   1       3.254   2.250   0.088  0.00  0.00     0.013 C 
ATOM     10  C3' I4B d   1       1.368   0.734   0.629  0.00  0.00     0.013 C 
ENDBRANCH   7   8
ENDBRANCH   1   7
TORSDOF 2
ENDMDL
