MODEL 1
REMARK minimizedAffinity 7.49330759
REMARK minimizedRMSD -1
REMARK  2 active torsions:
REMARK  status: ('A' for Active; 'I' for Inactive)
REMARK    1  A    between atoms: C2'_3  and  C1'_4 
REMARK    2  A    between atoms: C1'_4  and  C1_5 
ROOT
ATOM      1  C1  I4B d   1       1.336   0.132   0.181  0.00  0.00    -0.075 A 
ATOM      2  C2  I4B d   1       2.487  -0.538   0.513  0.00  0.00     0.003 A 
ATOM      3  C3  I4B d   1       2.991  -1.552  -0.337  0.00  0.00     0.002 A 
ATOM      4  C4  I4B d   1       2.291  -1.896  -1.475  0.00  0.00    -0.004 A 
ATOM      5  C5  I4B d   1       1.137  -1.199  -1.822  0.00  0.00     0.002 A 
ATOM      6  C6  I4B d   1       0.663  -0.170  -0.995  0.00  0.00     0.003 A 
ENDROOT
BRANCH   1   7
ATOM      7  C1' I4B d   1       0.814   1.175   1.118  0.00  0.00     0.060 C 
BRANCH   7   8
ATOM      8  C2' I4B d   1      -0.444   0.632   1.766  0.00  0.00    -0.013 C 
ATOM      9  C4' I4B d   1      -0.128  -0.092   3.048  0.00  0.00     0.013 C 
ATOM     10  C3' I4B d   1      -1.373   1.784   2.009  0.00  0.00     0.013 C 
ENDBRANCH   7   8
ENDBRANCH   1   7
TORSDOF 2
ENDMDL
