MODEL 1
REMARK minimizedAffinity 6.98593235
REMARK minimizedRMSD -1
REMARK  2 active torsions:
REMARK  status: ('A' for Active; 'I' for Inactive)
REMARK    1  A    between atoms: C2'_3  and  C1'_4 
REMARK    2  A    between atoms: C1'_4  and  C1_5 
ROOT
ATOM      1  C1  I4B d   1       1.548   1.471   1.052  0.00  0.00    -0.075 A 
ATOM      2  C2  I4B d   1       1.079   0.980   2.245  0.00  0.00     0.003 A 
ATOM      3  C3  I4B d   1      -0.204   1.353   2.714  0.00  0.00     0.002 A 
ATOM      4  C4  I4B d   1      -0.958   2.253   1.989  0.00  0.00    -0.004 A 
ATOM      5  C5  I4B d   1      -0.490   2.732   0.769  0.00  0.00     0.002 A 
ATOM      6  C6  I4B d   1       0.765   2.329   0.291  0.00  0.00     0.003 A 
ENDROOT
BRANCH   1   7
ATOM      7  C1' I4B d   1       2.920   1.082   0.603  0.00  0.00     0.060 C 
BRANCH   7   8
ATOM      8  C2' I4B d   1       3.191  -0.325   1.095  0.00  0.00    -0.013 C 
ATOM      9  C4' I4B d   1       2.964  -1.338   0.004  0.00  0.00     0.013 C 
ATOM     10  C3' I4B d   1       4.604  -0.377   1.595  0.00  0.00     0.013 C 
ENDBRANCH   7   8
ENDBRANCH   1   7
TORSDOF 2
ENDMDL
