MODEL 1
REMARK minimizedAffinity 1.87291384
REMARK minimizedRMSD -1
REMARK  2 active torsions:
REMARK  status: ('A' for Active; 'I' for Inactive)
REMARK    1  A    between atoms: C2'_3  and  C1'_4 
REMARK    2  A    between atoms: C1'_4  and  C1_5 
ROOT
ATOM      1  C1  I4B d   1       2.831  -0.432   0.548  0.00  0.00    -0.075 A 
ATOM      2  C2  I4B d   1       4.116   0.050   0.535  0.00  0.00     0.003 A 
ATOM      3  C3  I4B d   1       4.355   1.445   0.560  0.00  0.00     0.002 A 
ATOM      4  C4  I4B d   1       3.286   2.318   0.546  0.00  0.00    -0.004 A 
ATOM      5  C5  I4B d   1       1.984   1.827   0.583  0.00  0.00     0.002 A 
ATOM      6  C6  I4B d   1       1.754   0.444   0.596  0.00  0.00     0.003 A 
ENDROOT
BRANCH   1   7
ATOM      7  C1' I4B d   1       2.615  -1.911   0.488  0.00  0.00     0.060 C 
BRANCH   7   8
ATOM      8  C2' I4B d   1       1.895  -2.225  -0.807  0.00  0.00    -0.013 C 
ATOM      9  C4' I4B d   1       2.868  -2.412  -1.941  0.00  0.00     0.013 C 
ATOM     10  C3' I4B d   1       1.072  -3.461  -0.591  0.00  0.00     0.013 C 
ENDBRANCH   7   8
ENDBRANCH   1   7
TORSDOF 2
ENDMDL
