MODEL 1
REMARK minimizedAffinity -1.04261637
REMARK minimizedRMSD -1
REMARK  2 active torsions:
REMARK  status: ('A' for Active; 'I' for Inactive)
REMARK    1  A    between atoms: C2'_3  and  C1'_4 
REMARK    2  A    between atoms: C1'_4  and  C1_5 
ROOT
ATOM      1  C1  I4B d   1       1.614   0.971   0.945  0.00  0.00    -0.075 A 
ATOM      2  C2  I4B d   1       1.277   0.511   2.194  0.00  0.00     0.003 A 
ATOM      3  C3  I4B d   1      -0.029   0.719   2.701  0.00  0.00     0.002 A 
ATOM      4  C4  I4B d   1      -0.944   1.431   1.952  0.00  0.00    -0.004 A 
ATOM      5  C5  I4B d   1      -0.607   1.877   0.677  0.00  0.00     0.002 A 
ATOM      6  C6  I4B d   1       0.676   1.635   0.165  0.00  0.00     0.003 A 
ENDROOT
BRANCH   1   7
ATOM      7  C1' I4B d   1       3.012   0.763   0.454  0.00  0.00     0.060 C 
BRANCH   7   8
ATOM      8  C2' I4B d   1       3.257   1.734  -0.683  0.00  0.00    -0.013 C 
ATOM      9  C4' I4B d   1       3.751   3.061  -0.169  0.00  0.00     0.013 C 
ATOM     10  C3' I4B d   1       4.249   1.112  -1.618  0.00  0.00     0.013 C 
ENDBRANCH   7   8
ENDBRANCH   1   7
TORSDOF 2
ENDMDL
