MODEL 1
REMARK minimizedAffinity 6.45756149
REMARK minimizedRMSD -1
REMARK  2 active torsions:
REMARK  status: ('A' for Active; 'I' for Inactive)
REMARK    1  A    between atoms: C2'_3  and  C1'_4 
REMARK    2  A    between atoms: C1'_4  and  C1_5 
ROOT
ATOM      1  C1  I4B d   1       1.569  -0.556  -0.743  0.00  0.00    -0.075 A 
ATOM      2  C2  I4B d   1       2.160  -1.791  -0.645  0.00  0.00     0.003 A 
ATOM      3  C3  I4B d   1       1.363  -2.961  -0.596  0.00  0.00     0.002 A 
ATOM      4  C4  I4B d   1      -0.012  -2.846  -0.596  0.00  0.00    -0.004 A 
ATOM      5  C5  I4B d   1      -0.609  -1.595  -0.719  0.00  0.00     0.002 A 
ATOM      6  C6  I4B d   1       0.187  -0.443  -0.805  0.00  0.00     0.003 A 
ENDROOT
BRANCH   1   7
ATOM      7  C1' I4B d   1       2.440   0.660  -0.760  0.00  0.00     0.060 C 
BRANCH   7   8
ATOM      8  C2' I4B d   1       3.825   0.236  -1.206  0.00  0.00    -0.013 C 
ATOM      9  C4' I4B d   1       3.838  -0.135  -2.665  0.00  0.00     0.013 C 
ATOM     10  C3' I4B d   1       4.768   1.369  -0.927  0.00  0.00     0.013 C 
ENDBRANCH   7   8
ENDBRANCH   1   7
TORSDOF 2
ENDMDL
