MODEL 1
REMARK minimizedAffinity 20.8858471
REMARK minimizedRMSD -1
REMARK  2 active torsions:
REMARK  status: ('A' for Active; 'I' for Inactive)
REMARK    1  A    between atoms: C1_2  and  C2_3 
REMARK    2  A    between atoms: C2_3  and  C3_4 
ROOT
ATOM      1  C3  UNL d   1       2.210   2.278  -0.567  0.00  0.00    -0.075 A 
ATOM      2  C4  UNL d   1       1.964   2.994  -1.748  0.00  0.00     0.002 A 
ATOM      3  C5  UNL d   1       1.346   4.244  -1.703  0.00  0.00     0.002 A 
ATOM      4  C6  UNL d   1       0.958   4.789  -0.482  0.00  0.00    -0.004 A 
ATOM      5  C7  UNL d   1       1.182   4.080   0.696  0.00  0.00     0.002 A 
ATOM      6  C8  UNL d   1       1.805   2.831   0.655  0.00  0.00     0.002 A 
ENDROOT
BRANCH   1   7
ATOM      7  C2  UNL d   1       2.905   0.938  -0.607  0.00  0.00     0.056 C 
BRANCH   7   8
ATOM      8  C1  UNL d   1       2.263  -0.069  -1.566  0.00  0.00     0.007 C 
ATOM      9  C   UNL d   1       1.823  -1.356  -0.879  0.00  0.00     0.009 C 
ENDBRANCH   7   8
ENDBRANCH   1   7
TORSDOF 2
ENDMDL
