MODEL 1
REMARK minimizedAffinity 17.0215626
REMARK minimizedRMSD -1
REMARK  2 active torsions:
REMARK  status: ('A' for Active; 'I' for Inactive)
REMARK    1  A    between atoms: C1_2  and  C2_3 
REMARK    2  A    between atoms: C2_3  and  C3_4 
ROOT
ATOM      1  C3  UNL d   1      -3.324   3.792  -5.734  0.00  0.00    -0.075 A 
ATOM      2  C4  UNL d   1      -4.441   2.956  -5.876  0.00  0.00     0.002 A 
ATOM      3  C5  UNL d   1      -5.721   3.498  -5.997  0.00  0.00     0.002 A 
ATOM      4  C6  UNL d   1      -5.902   4.879  -5.966  0.00  0.00    -0.004 A 
ATOM      5  C7  UNL d   1      -4.801   5.719  -5.808  0.00  0.00     0.002 A 
ATOM      6  C8  UNL d   1      -3.519   5.179  -5.692  0.00  0.00     0.002 A 
ENDROOT
BRANCH   1   7
ATOM      7  C2  UNL d   1      -1.933   3.213  -5.633  0.00  0.00     0.056 C 
BRANCH   7   8
ATOM      8  C1  UNL d   1      -1.723   2.305  -4.416  0.00  0.00     0.007 C 
ATOM      9  C   UNL d   1      -0.263   1.938  -4.187  0.00  0.00     0.009 C 
ENDBRANCH   7   8
ENDBRANCH   1   7
TORSDOF 2
ENDMDL
