MODEL 1
REMARK minimizedAffinity 11.7108212
REMARK minimizedRMSD -1
REMARK  2 active torsions:
REMARK  status: ('A' for Active; 'I' for Inactive)
REMARK    1  A    between atoms: C1_2  and  C2_3 
REMARK    2  A    between atoms: C2_3  and  C3_4 
ROOT
ATOM      1  C3  UNL d   1      -0.252  -3.202  -1.267  0.00  0.00    -0.075 A 
ATOM      2  C4  UNL d   1       0.698  -3.092  -0.241  0.00  0.00     0.002 A 
ATOM      3  C5  UNL d   1       1.660  -2.082  -0.272  0.00  0.00     0.002 A 
ATOM      4  C6  UNL d   1       1.691  -1.178  -1.331  0.00  0.00    -0.004 A 
ATOM      5  C7  UNL d   1       0.763  -1.288  -2.364  0.00  0.00     0.002 A 
ATOM      6  C8  UNL d   1      -0.204  -2.295  -2.333  0.00  0.00     0.002 A 
ENDROOT
BRANCH   1   7
ATOM      7  C2  UNL d   1      -1.314  -4.275  -1.224  0.00  0.00     0.056 C 
BRANCH   7   8
ATOM      8  C1  UNL d   1      -1.829  -4.586   0.185  0.00  0.00     0.007 C 
ATOM      9  C   UNL d   1      -3.121  -5.393   0.187  0.00  0.00     0.009 C 
ENDBRANCH   7   8
ENDBRANCH   1   7
TORSDOF 2
ENDMDL
