MODEL 1
REMARK minimizedAffinity 15.4965544
REMARK minimizedRMSD -1
REMARK  2 active torsions:
REMARK  status: ('A' for Active; 'I' for Inactive)
REMARK    1  A    between atoms: C1_2  and  C2_3 
REMARK    2  A    between atoms: C2_3  and  C3_4 
ROOT
ATOM      1  C3  UNL d   1      -0.378  -2.075  -1.560  0.00  0.00    -0.075 A 
ATOM      2  C4  UNL d   1      -1.195  -1.088  -2.130  0.00  0.00     0.002 A 
ATOM      3  C5  UNL d   1      -2.459  -1.413  -2.623  0.00  0.00     0.002 A 
ATOM      4  C6  UNL d   1      -2.917  -2.727  -2.563  0.00  0.00    -0.004 A 
ATOM      5  C7  UNL d   1      -2.107  -3.719  -2.015  0.00  0.00     0.002 A 
ATOM      6  C8  UNL d   1      -0.843  -3.396  -1.516  0.00  0.00     0.002 A 
ENDROOT
BRANCH   1   7
ATOM      7  C2  UNL d   1       0.979  -1.724  -0.998  0.00  0.00     0.056 C 
BRANCH   7   8
ATOM      8  C1  UNL d   1       1.792  -0.771  -1.879  0.00  0.00     0.007 C 
ATOM      9  C   UNL d   1       2.679   0.175  -1.081  0.00  0.00     0.009 C 
ENDBRANCH   7   8
ENDBRANCH   1   7
TORSDOF 2
ENDMDL
