MODEL 1
REMARK minimizedAffinity 11.6448116
REMARK minimizedRMSD -1
REMARK  2 active torsions:
REMARK  status: ('A' for Active; 'I' for Inactive)
REMARK    1  A    between atoms: C1_2  and  C2_3 
REMARK    2  A    between atoms: C2_3  and  C3_4 
ROOT
ATOM      1  C3  UNL d   1       2.688  -0.869  -1.223  0.00  0.00    -0.075 A 
ATOM      2  C4  UNL d   1       3.877  -1.518  -0.862  0.00  0.00     0.002 A 
ATOM      3  C5  UNL d   1       3.999  -2.901  -0.998  0.00  0.00     0.002 A 
ATOM      4  C6  UNL d   1       2.933  -3.653  -1.486  0.00  0.00    -0.004 A 
ATOM      5  C7  UNL d   1       1.741  -3.021  -1.833  0.00  0.00     0.002 A 
ATOM      6  C8  UNL d   1       1.617  -1.637  -1.702  0.00  0.00     0.002 A 
ENDROOT
BRANCH   1   7
ATOM      7  C2  UNL d   1       2.560   0.631  -1.106  0.00  0.00     0.056 C 
BRANCH   7   8
ATOM      8  C1  UNL d   1       3.382   1.240   0.034  0.00  0.00     0.007 C 
ATOM      9  C   UNL d   1       4.694   1.856  -0.435  0.00  0.00     0.009 C 
ENDBRANCH   7   8
ENDBRANCH   1   7
TORSDOF 2
ENDMDL
