MODEL 1
REMARK minimizedAffinity 1.00504076
REMARK minimizedRMSD -1
REMARK  2 active torsions:
REMARK  status: ('A' for Active; 'I' for Inactive)
REMARK    1  A    between atoms: C1_2  and  C2_3 
REMARK    2  A    between atoms: C2_3  and  C3_4 
ROOT
ATOM      1  C3  UNL d   1      -4.865   1.123   4.940  0.00  0.00    -0.075 A 
ATOM      2  C4  UNL d   1      -5.646  -0.041   4.981  0.00  0.00     0.002 A 
ATOM      3  C5  UNL d   1      -5.442  -1.063   4.053  0.00  0.00     0.002 A 
ATOM      4  C6  UNL d   1      -4.465  -0.930   3.069  0.00  0.00    -0.004 A 
ATOM      5  C7  UNL d   1      -3.696   0.229   3.008  0.00  0.00     0.002 A 
ATOM      6  C8  UNL d   1      -3.894   1.252   3.938  0.00  0.00     0.002 A 
ENDROOT
BRANCH   1   7
ATOM      7  C2  UNL d   1      -5.060   2.221   5.959  0.00  0.00     0.056 C 
BRANCH   7   8
ATOM      8  C1  UNL d   1      -5.999   3.341   5.497  0.00  0.00     0.007 C 
ATOM      9  C   UNL d   1      -5.579   4.718   5.994  0.00  0.00     0.009 C 
ENDBRANCH   7   8
ENDBRANCH   1   7
TORSDOF 2
ENDMDL
