MODEL 1
REMARK minimizedAffinity 0.794549763
REMARK minimizedRMSD -1
REMARK  2 active torsions:
REMARK  status: ('A' for Active; 'I' for Inactive)
REMARK    1  A    between atoms: C1_2  and  C2_3 
REMARK    2  A    between atoms: C2_3  and  C3_4 
ROOT
ATOM      1  C3  UNL d   1       2.458  -3.340  -1.413  0.00  0.00    -0.075 A 
ATOM      2  C4  UNL d   1       3.557  -4.035  -0.889  0.00  0.00     0.002 A 
ATOM      3  C5  UNL d   1       3.807  -5.355  -1.267  0.00  0.00     0.002 A 
ATOM      4  C6  UNL d   1       2.957  -5.998  -2.165  0.00  0.00    -0.004 A 
ATOM      5  C7  UNL d   1       1.852  -5.322  -2.679  0.00  0.00     0.002 A 
ATOM      6  C8  UNL d   1       1.603  -4.000  -2.305  0.00  0.00     0.002 A 
ENDROOT
BRANCH   1   7
ATOM      7  C2  UNL d   1       2.199  -1.902  -1.030  0.00  0.00     0.056 C 
BRANCH   7   8
ATOM      8  C1  UNL d   1       1.953  -0.973  -2.223  0.00  0.00     0.007 C 
ATOM      9  C   UNL d   1       1.921   0.500  -1.841  0.00  0.00     0.009 C 
ENDBRANCH   7   8
ENDBRANCH   1   7
TORSDOF 2
ENDMDL
