MODEL 1
REMARK minimizedAffinity 3.8011477
REMARK minimizedRMSD -1
REMARK  2 active torsions:
REMARK  status: ('A' for Active; 'I' for Inactive)
REMARK    1  A    between atoms: C1_2  and  C2_3 
REMARK    2  A    between atoms: C2_3  and  C3_4 
ROOT
ATOM      1  C3  UNL d   1      -4.104  -5.216  -4.157  0.00  0.00    -0.075 A 
ATOM      2  C4  UNL d   1      -4.185  -3.816  -4.160  0.00  0.00     0.002 A 
ATOM      3  C5  UNL d   1      -5.018  -3.156  -5.064  0.00  0.00     0.002 A 
ATOM      4  C6  UNL d   1      -5.771  -3.885  -5.982  0.00  0.00    -0.004 A 
ATOM      5  C7  UNL d   1      -5.685  -5.276  -5.999  0.00  0.00     0.002 A 
ATOM      6  C8  UNL d   1      -4.856  -5.939  -5.093  0.00  0.00     0.002 A 
ENDROOT
BRANCH   1   7
ATOM      7  C2  UNL d   1      -3.227  -5.937  -3.162  0.00  0.00     0.056 C 
BRANCH   7   8
ATOM      8  C1  UNL d   1      -3.809  -5.996  -1.746  0.00  0.00     0.007 C 
ATOM      9  C   UNL d   1      -2.743  -6.000  -0.658  0.00  0.00     0.009 C 
ENDBRANCH   7   8
ENDBRANCH   1   7
TORSDOF 2
ENDMDL
