MODEL 1
REMARK minimizedAffinity 8.77192688
REMARK minimizedRMSD -1
REMARK  2 active torsions:
REMARK  status: ('A' for Active; 'I' for Inactive)
REMARK    1  A    between atoms: C1_2  and  C2_3 
REMARK    2  A    between atoms: C2_3  and  C3_4 
ROOT
ATOM      1  C3  UNL d   1      -1.446   1.043   3.247  0.00  0.00    -0.075 A 
ATOM      2  C4  UNL d   1      -0.381   0.344   2.660  0.00  0.00     0.002 A 
ATOM      3  C5  UNL d   1       0.784   0.090   3.384  0.00  0.00     0.002 A 
ATOM      4  C6  UNL d   1       0.903   0.538   4.697  0.00  0.00    -0.004 A 
ATOM      5  C7  UNL d   1      -0.142   1.248   5.285  0.00  0.00     0.002 A 
ATOM      6  C8  UNL d   1      -1.310   1.501   4.564  0.00  0.00     0.002 A 
ENDROOT
BRANCH   1   7
ATOM      7  C2  UNL d   1      -2.721   1.296   2.478  0.00  0.00     0.056 C 
BRANCH   7   8
ATOM      8  C1  UNL d   1      -3.996   0.958   3.257  0.00  0.00     0.007 C 
ATOM      9  C   UNL d   1      -4.637  -0.353   2.821  0.00  0.00     0.009 C 
ENDBRANCH   7   8
ENDBRANCH   1   7
TORSDOF 2
ENDMDL
