MODEL 1
REMARK minimizedAffinity 20.4611568
REMARK minimizedRMSD -1
REMARK  2 active torsions:
REMARK  status: ('A' for Active; 'I' for Inactive)
REMARK    1  A    between atoms: C1_2  and  C2_3 
REMARK    2  A    between atoms: C2_3  and  C3_4 
ROOT
ATOM      1  C3  UNL d   1      -0.792  -1.995  -2.363  0.00  0.00    -0.075 A 
ATOM      2  C4  UNL d   1      -0.794  -3.393  -2.249  0.00  0.00     0.002 A 
ATOM      3  C5  UNL d   1      -1.929  -4.130  -2.586  0.00  0.00     0.002 A 
ATOM      4  C6  UNL d   1      -3.078  -3.480  -3.031  0.00  0.00    -0.004 A 
ATOM      5  C7  UNL d   1      -3.093  -2.090  -3.133  0.00  0.00     0.002 A 
ATOM      6  C8  UNL d   1      -1.957  -1.351  -2.800  0.00  0.00     0.002 A 
ENDROOT
BRANCH   1   7
ATOM      7  C2  UNL d   1       0.443  -1.194  -2.027  0.00  0.00     0.056 C 
BRANCH   7   8
ATOM      8  C1  UNL d   1       0.992  -1.453  -0.621  0.00  0.00     0.007 C 
ATOM      9  C   UNL d   1       2.250  -0.654  -0.310  0.00  0.00     0.009 C 
ENDBRANCH   7   8
ENDBRANCH   1   7
TORSDOF 2
ENDMDL
