MODEL 1
REMARK minimizedAffinity 9.65459061
REMARK minimizedRMSD -1
REMARK  2 active torsions:
REMARK  status: ('A' for Active; 'I' for Inactive)
REMARK    1  A    between atoms: C1_2  and  C2_3 
REMARK    2  A    between atoms: C2_3  and  C3_4 
ROOT
ATOM      1  C3  UNL d   1      -0.977  -2.436  -2.588  0.00  0.00    -0.075 A 
ATOM      2  C4  UNL d   1      -1.322  -3.722  -2.147  0.00  0.00     0.002 A 
ATOM      3  C5  UNL d   1      -2.413  -4.391  -2.702  0.00  0.00     0.002 A 
ATOM      4  C6  UNL d   1      -3.177  -3.782  -3.694  0.00  0.00    -0.004 A 
ATOM      5  C7  UNL d   1      -2.853  -2.498  -4.128  0.00  0.00     0.002 A 
ATOM      6  C8  UNL d   1      -1.759  -1.827  -3.578  0.00  0.00     0.002 A 
ENDROOT
BRANCH   1   7
ATOM      7  C2  UNL d   1       0.221  -1.718  -2.012  0.00  0.00     0.056 C 
BRANCH   7   8
ATOM      8  C1  UNL d   1       0.857  -2.428  -0.813  0.00  0.00     0.007 C 
ATOM      9  C   UNL d   1       2.039  -1.670  -0.224  0.00  0.00     0.009 C 
ENDBRANCH   7   8
ENDBRANCH   1   7
TORSDOF 2
ENDMDL
