MODEL 1
REMARK minimizedAffinity 8.41710854
REMARK minimizedRMSD -1
REMARK  2 active torsions:
REMARK  status: ('A' for Active; 'I' for Inactive)
REMARK    1  A    between atoms: C1_2  and  C2_3 
REMARK    2  A    between atoms: C2_3  and  C3_4 
ROOT
ATOM      1  C3  UNL d   1       2.998  -2.559  -2.691  0.00  0.00    -0.075 A 
ATOM      2  C4  UNL d   1       2.608  -3.201  -1.507  0.00  0.00     0.002 A 
ATOM      3  C5  UNL d   1       1.851  -2.524  -0.550  0.00  0.00     0.002 A 
ATOM      4  C6  UNL d   1       1.484  -1.197  -0.760  0.00  0.00    -0.004 A 
ATOM      5  C7  UNL d   1       1.880  -0.544  -1.925  0.00  0.00     0.002 A 
ATOM      6  C8  UNL d   1       2.634  -1.220  -2.886  0.00  0.00     0.002 A 
ENDROOT
BRANCH   1   7
ATOM      7  C2  UNL d   1       3.793  -3.295  -3.744  0.00  0.00     0.056 C 
BRANCH   7   8
ATOM      8  C1  UNL d   1       3.741  -2.646  -5.131  0.00  0.00     0.007 C 
ATOM      9  C   UNL d   1       4.943  -2.990  -6.000  0.00  0.00     0.009 C 
ENDBRANCH   7   8
ENDBRANCH   1   7
TORSDOF 2
ENDMDL
