MODEL 1
REMARK minimizedAffinity 13.9626064
REMARK minimizedRMSD -1
REMARK  2 active torsions:
REMARK  status: ('A' for Active; 'I' for Inactive)
REMARK    1  A    between atoms: C1_2  and  C2_3 
REMARK    2  A    between atoms: C2_3  and  C3_4 
ROOT
ATOM      1  C3  UNL d   1      -2.240   0.888  -3.726  0.00  0.00    -0.075 A 
ATOM      2  C4  UNL d   1      -2.820   0.326  -4.873  0.00  0.00     0.002 A 
ATOM      3  C5  UNL d   1      -3.123   1.125  -5.977  0.00  0.00     0.002 A 
ATOM      4  C6  UNL d   1      -2.861   2.492  -5.944  0.00  0.00    -0.004 A 
ATOM      5  C7  UNL d   1      -2.300   3.063  -4.803  0.00  0.00     0.002 A 
ATOM      6  C8  UNL d   1      -1.992   2.266  -3.700  0.00  0.00     0.002 A 
ENDROOT
BRANCH   1   7
ATOM      7  C2  UNL d   1      -1.882   0.024  -2.540  0.00  0.00     0.056 C 
BRANCH   7   8
ATOM      8  C1  UNL d   1      -0.881  -1.091  -2.860  0.00  0.00     0.007 C 
ATOM      9  C   UNL d   1       0.565  -0.694  -2.594  0.00  0.00     0.009 C 
ENDBRANCH   7   8
ENDBRANCH   1   7
TORSDOF 2
ENDMDL
