MODEL 1
REMARK minimizedAffinity -3.08830261
REMARK minimizedRMSD -1
REMARK  3 active torsions:
REMARK  status: ('A' for Active; 'I' for Inactive)
REMARK    1  A    between atoms: C3'_2  and  C2'_3 
REMARK    2  A    between atoms: C2'_3  and  C1'_4 
REMARK    3  A    between atoms: C1'_4  and  C1_5 
ROOT
ATOM      1  C1  N4B d   1       0.119   0.181  -0.156  0.00  0.00    -0.075 A 
ATOM      2  C2  N4B d   1       0.955   0.116   0.981  0.00  0.00     0.002 A 
ATOM      3  C3  N4B d   1       0.435   0.353   2.229  0.00  0.00     0.002 A 
ATOM      4  C4  N4B d   1      -0.908   0.674   2.364  0.00  0.00    -0.004 A 
ATOM      5  C5  N4B d   1      -1.714   0.710   1.264  0.00  0.00     0.002 A 
ATOM      6  C6  N4B d   1      -1.205   0.470   0.003  0.00  0.00     0.002 A 
ENDROOT
BRANCH   1   7
ATOM      7  C1' N4B d   1       0.660   0.013  -1.550  0.00  0.00     0.057 C 
BRANCH   7   8
ATOM      8  C2' N4B d   1       0.300  -1.378  -2.063  0.00  0.00     0.009 C 
BRANCH   8   9
ATOM      9  C3' N4B d   1       0.906  -1.654  -3.428  0.00  0.00     0.004 C 
ATOM     10  C4' N4B d   1       2.405  -1.648  -3.410  0.00  0.00     0.003 C 
ENDBRANCH   8   9
ENDBRANCH   7   8
ENDBRANCH   1   7
TORSDOF 3
ENDMDL
