MODEL 1
REMARK minimizedAffinity -0.449093491
REMARK minimizedRMSD -1
REMARK  3 active torsions:
REMARK  status: ('A' for Active; 'I' for Inactive)
REMARK    1  A    between atoms: C3'_2  and  C2'_3 
REMARK    2  A    between atoms: C2'_3  and  C1'_4 
REMARK    3  A    between atoms: C1'_4  and  C1_5 
ROOT
ATOM      1  C1  N4B d   1       0.745  -0.486  -2.077  0.00  0.00    -0.075 A 
ATOM      2  C2  N4B d   1       1.829   0.387  -2.314  0.00  0.00     0.002 A 
ATOM      3  C3  N4B d   1       2.794   0.050  -3.231  0.00  0.00     0.002 A 
ATOM      4  C4  N4B d   1       2.707  -1.159  -3.906  0.00  0.00    -0.004 A 
ATOM      5  C5  N4B d   1       1.644  -1.985  -3.689  0.00  0.00     0.002 A 
ATOM      6  C6  N4B d   1       0.664  -1.657  -2.774  0.00  0.00     0.002 A 
ENDROOT
BRANCH   1   7
ATOM      7  C1' N4B d   1      -0.290  -0.201  -1.023  0.00  0.00     0.057 C 
BRANCH   7   8
ATOM      8  C2' N4B d   1       0.229   0.896  -0.097  0.00  0.00     0.009 C 
BRANCH   8   9
ATOM      9  C3' N4B d   1       1.238   0.362   0.906  0.00  0.00     0.004 C 
ATOM     10  C4' N4B d   1       0.884   0.702   2.323  0.00  0.00     0.003 C 
ENDBRANCH   8   9
ENDBRANCH   7   8
ENDBRANCH   1   7
TORSDOF 3
ENDMDL
