MODEL 1
REMARK minimizedAffinity -4.03936434
REMARK minimizedRMSD -1
REMARK  3 active torsions:
REMARK  status: ('A' for Active; 'I' for Inactive)
REMARK    1  A    between atoms: C3'_2  and  C2'_3 
REMARK    2  A    between atoms: C2'_3  and  C1'_4 
REMARK    3  A    between atoms: C1'_4  and  C1_5 
ROOT
ATOM      1  C1  N4B d   1       0.029   0.376  -0.049  0.00  0.00    -0.075 A 
ATOM      2  C2  N4B d   1      -0.987   0.582   0.910  0.00  0.00     0.002 A 
ATOM      3  C3  N4B d   1      -0.681   0.569   2.249  0.00  0.00     0.002 A 
ATOM      4  C4  N4B d   1       0.626   0.334   2.651  0.00  0.00    -0.004 A 
ATOM      5  C5  N4B d   1       1.606   0.162   1.718  0.00  0.00     0.002 A 
ATOM      6  C6  N4B d   1       1.313   0.176   0.369  0.00  0.00     0.002 A 
ENDROOT
BRANCH   1   7
ATOM      7  C1' N4B d   1      -0.273   0.296  -1.520  0.00  0.00     0.057 C 
BRANCH   7   8
ATOM      8  C2' N4B d   1       0.941  -0.272  -2.250  0.00  0.00     0.009 C 
BRANCH   8   9
ATOM      9  C3' N4B d   1       0.552  -1.350  -3.247  0.00  0.00     0.004 C 
ATOM     10  C4' N4B d   1       1.685  -2.276  -3.573  0.00  0.00     0.003 C 
ENDBRANCH   8   9
ENDBRANCH   7   8
ENDBRANCH   1   7
TORSDOF 3
ENDMDL
