MODEL 1
REMARK minimizedAffinity 0.618257642
REMARK minimizedRMSD -1
REMARK  1 active torsions:
REMARK  status: ('A' for Active; 'I' for Inactive)
REMARK    1  A    between atoms: N_2  and  C1_3 
ROOT
ATOM      1  C1  UNL d   1       5.463  -2.512   4.957  0.00  0.00     0.143 A 
ATOM      2  C2  UNL d   1       5.603  -3.138   3.714  0.00  0.00    -0.057 A 
ATOM      3  C3  UNL d   1       5.145  -4.445   3.503  0.00  0.00     0.033 A 
ATOM      4  C4  UNL d   1       4.565  -5.161   4.544  0.00  0.00    -0.042 A 
ATOM      5  C5  UNL d   1       4.439  -4.568   5.795  0.00  0.00     0.033 A 
ATOM      6  C6  UNL d   1       4.891  -3.261   5.998  0.00  0.00    -0.057 A 
ENDROOT
BRANCH   1   7
ATOM      7  N   UNL d   1       5.986  -1.252   5.257  0.00  0.00    -0.732 N 
ATOM      8  C   UNL d   1       5.873  -0.163   4.309  0.00  0.00     0.284 C 
ATOM      9  H3  UNL d   1       5.817  -0.981   6.223  0.00  0.00     0.395 HD
ENDBRANCH   1   7
TORSDOF 1
ENDMDL
