MODEL 1
REMARK minimizedAffinity -0.88879776
REMARK minimizedRMSD -1
REMARK  1 active torsions:
REMARK  status: ('A' for Active; 'I' for Inactive)
REMARK    1  A    between atoms: N_2  and  C1_3 
ROOT
ATOM      1  C1  UNL d   1       5.460  -3.044   5.348  0.00  0.00     0.143 A 
ATOM      2  C2  UNL d   1       5.764  -1.843   5.998  0.00  0.00    -0.057 A 
ATOM      3  C3  UNL d   1       5.940  -0.654   5.280  0.00  0.00     0.033 A 
ATOM      4  C4  UNL d   1       5.844  -0.652   3.892  0.00  0.00    -0.042 A 
ATOM      5  C5  UNL d   1       5.567  -1.839   3.224  0.00  0.00     0.033 A 
ATOM      6  C6  UNL d   1       5.385  -3.022   3.947  0.00  0.00    -0.057 A 
ENDROOT
BRANCH   1   7
ATOM      7  N   UNL d   1       5.370  -4.278   5.997  0.00  0.00    -0.732 N 
ATOM      8  C   UNL d   1       4.196  -5.109   5.842  0.00  0.00     0.284 C 
ATOM      9  H3  UNL d   1       6.248  -4.792   5.978  0.00  0.00     0.395 HD
ENDBRANCH   1   7
TORSDOF 1
ENDMDL
