MODEL 1
REMARK minimizedAffinity -1.84348774
REMARK minimizedRMSD -1
REMARK  1 active torsions:
REMARK  status: ('A' for Active; 'I' for Inactive)
REMARK    1  A    between atoms: N_2  and  C1_3 
ROOT
ATOM      1  C1  UNL d   1       5.710  -1.351   4.278  0.00  0.00     0.143 A 
ATOM      2  C2  UNL d   1       5.670  -1.734   5.623  0.00  0.00    -0.057 A 
ATOM      3  C3  UNL d   1       5.275  -3.024   5.999  0.00  0.00     0.033 A 
ATOM      4  C4  UNL d   1       4.884  -3.947   5.035  0.00  0.00    -0.042 A 
ATOM      5  C5  UNL d   1       4.892  -3.580   3.694  0.00  0.00     0.033 A 
ATOM      6  C6  UNL d   1       5.294  -2.293   3.324  0.00  0.00    -0.057 A 
ENDROOT
BRANCH   1   7
ATOM      7  N   UNL d   1       5.999  -0.054   3.847  0.00  0.00    -0.732 N 
ATOM      8  C   UNL d   1       5.628   0.380   2.517  0.00  0.00     0.284 C 
ATOM      9  H3  UNL d   1       5.837   0.641   4.572  0.00  0.00     0.395 HD
ENDBRANCH   1   7
TORSDOF 1
ENDMDL
