MODEL 1
REMARK minimizedAffinity 10.9069338
REMARK minimizedRMSD -1
REMARK  1 active torsions:
REMARK  status: ('A' for Active; 'I' for Inactive)
REMARK    1  A    between atoms: N_2  and  C1_3 
ROOT
ATOM      1  C1  UNL d   1       5.078  -2.695   2.805  0.00  0.00     0.143 A 
ATOM      2  C2  UNL d   1       5.999  -1.842   3.422  0.00  0.00    -0.057 A 
ATOM      3  C3  UNL d   1       5.664  -0.521   3.741  0.00  0.00     0.033 A 
ATOM      4  C4  UNL d   1       4.406  -0.019   3.422  0.00  0.00    -0.042 A 
ATOM      5  C5  UNL d   1       3.483  -0.842   2.786  0.00  0.00     0.033 A 
ATOM      6  C6  UNL d   1       3.822  -2.163   2.476  0.00  0.00    -0.057 A 
ENDROOT
BRANCH   1   7
ATOM      7  N   UNL d   1       5.384  -3.988   2.373  0.00  0.00    -0.732 N 
ATOM      8  C   UNL d   1       4.911  -5.142   3.107  0.00  0.00     0.284 C 
ATOM      9  H3  UNL d   1       5.321  -4.085   1.362  0.00  0.00     0.395 HD
ENDBRANCH   1   7
TORSDOF 1
ENDMDL
