MODEL 1
REMARK minimizedAffinity 0.95000577
REMARK minimizedRMSD -1
REMARK  1 active torsions:
REMARK  status: ('A' for Active; 'I' for Inactive)
REMARK    1  A    between atoms: N_2  and  C1_3 
ROOT
ATOM      1  C1  UNL d   1      -0.472   0.431   0.548  0.00  0.00     0.143 A 
ATOM      2  C2  UNL d   1       0.787   0.494   1.154  0.00  0.00    -0.057 A 
ATOM      3  C3  UNL d   1       0.956   1.064   2.422  0.00  0.00     0.033 A 
ATOM      4  C4  UNL d   1      -0.132   1.609   3.096  0.00  0.00    -0.042 A 
ATOM      5  C5  UNL d   1      -1.389   1.581   2.502  0.00  0.00     0.033 A 
ATOM      6  C6  UNL d   1      -1.552   1.004   1.239  0.00  0.00    -0.057 A 
ENDROOT
BRANCH   1   7
ATOM      7  N   UNL d   1      -0.688  -0.034  -0.751  0.00  0.00    -0.732 N 
ATOM      8  C   UNL d   1       0.004   0.564  -1.873  0.00  0.00     0.284 C 
ATOM      9  H3  UNL d   1      -0.751  -1.049  -0.795  0.00  0.00     0.395 HD
ENDBRANCH   1   7
TORSDOF 1
ENDMDL
