MODEL 1
REMARK minimizedAffinity 8.51808453
REMARK minimizedRMSD -1
REMARK  1 active torsions:
REMARK  status: ('A' for Active; 'I' for Inactive)
REMARK    1  A    between atoms: N_2  and  C1_3 
ROOT
ATOM      1  C1  UNL d   1       0.027  -0.240   0.322  0.00  0.00     0.143 A 
ATOM      2  C2  UNL d   1       0.939  -0.660   1.297  0.00  0.00    -0.057 A 
ATOM      3  C3  UNL d   1       0.730  -1.836   2.028  0.00  0.00     0.033 A 
ATOM      4  C4  UNL d   1      -0.413  -2.600   1.816  0.00  0.00    -0.042 A 
ATOM      5  C5  UNL d   1      -1.345  -2.188   0.870  0.00  0.00     0.033 A 
ATOM      6  C6  UNL d   1      -1.127  -1.017   0.139  0.00  0.00    -0.057 A 
ENDROOT
BRANCH   1   7
ATOM      7  N   UNL d   1       0.129   0.970  -0.368  0.00  0.00    -0.732 N 
ATOM      8  C   UNL d   1       1.326   1.777  -0.269  0.00  0.00     0.284 C 
ATOM      9  H3  UNL d   1      -0.259   0.915  -1.307  0.00  0.00     0.395 HD
ENDBRANCH   1   7
TORSDOF 1
ENDMDL
