MODEL 1
REMARK minimizedAffinity -2.17293549
REMARK minimizedRMSD -1
REMARK  1 active torsions:
REMARK  status: ('A' for Active; 'I' for Inactive)
REMARK    1  A    between atoms: N_2  and  C1_3 
ROOT
ATOM      1  C1  UNL d   1       5.335  -4.367   5.266  0.00  0.00     0.143 A 
ATOM      2  C2  UNL d   1       5.285  -4.250   3.872  0.00  0.00    -0.057 A 
ATOM      3  C3  UNL d   1       5.611  -3.048   3.233  0.00  0.00     0.033 A 
ATOM      4  C4  UNL d   1       5.967  -1.930   3.980  0.00  0.00    -0.042 A 
ATOM      5  C5  UNL d   1       5.999  -2.016   5.367  0.00  0.00     0.033 A 
ATOM      6  C6  UNL d   1       5.678  -3.221   6.000  0.00  0.00    -0.057 A 
ENDROOT
BRANCH   1   7
ATOM      7  N   UNL d   1       4.927  -5.506   5.966  0.00  0.00    -0.732 N 
ATOM      8  C   UNL d   1       3.534  -5.898   5.987  0.00  0.00     0.284 C 
ATOM      9  H3  UNL d   1       5.576  -6.281   5.857  0.00  0.00     0.395 HD
ENDBRANCH   1   7
TORSDOF 1
ENDMDL
