MODEL 1
REMARK minimizedAffinity 1.04293692
REMARK minimizedRMSD -1
REMARK  1 active torsions:
REMARK  status: ('A' for Active; 'I' for Inactive)
REMARK    1  A    between atoms: N_2  and  C1_3 
ROOT
ATOM      1  C1  UNL d   1      -2.261  -0.057  -1.719  0.00  0.00     0.143 A 
ATOM      2  C2  UNL d   1      -1.434   0.925  -1.165  0.00  0.00    -0.057 A 
ATOM      3  C3  UNL d   1      -0.906   0.787   0.125  0.00  0.00     0.033 A 
ATOM      4  C4  UNL d   1      -1.222  -0.327   0.896  0.00  0.00    -0.042 A 
ATOM      5  C5  UNL d   1      -2.062  -1.305   0.374  0.00  0.00     0.033 A 
ATOM      6  C6  UNL d   1      -2.580  -1.164  -0.917  0.00  0.00    -0.057 A 
ENDROOT
BRANCH   1   7
ATOM      7  N   UNL d   1      -2.895   0.069  -2.958  0.00  0.00    -0.732 N 
ATOM      8  C   UNL d   1      -2.200  -0.271  -4.180  0.00  0.00     0.284 C 
ATOM      9  H3  UNL d   1      -3.864  -0.241  -2.931  0.00  0.00     0.395 HD
ENDBRANCH   1   7
TORSDOF 1
ENDMDL
