MODEL 1
REMARK minimizedAffinity 0.263674825
REMARK minimizedRMSD -1
REMARK  1 active torsions:
REMARK  status: ('A' for Active; 'I' for Inactive)
REMARK    1  A    between atoms: N_2  and  C1_3 
ROOT
ATOM      1  C1  UNL d   1       5.999  -3.363   4.122  0.00  0.00     0.143 A 
ATOM      2  C2  UNL d   1       5.977  -2.288   3.227  0.00  0.00    -0.057 A 
ATOM      3  C3  UNL d   1       5.992  -0.964   3.682  0.00  0.00     0.033 A 
ATOM      4  C4  UNL d   1       5.999  -0.691   5.046  0.00  0.00    -0.042 A 
ATOM      5  C5  UNL d   1       5.995  -1.743   5.954  0.00  0.00     0.033 A 
ATOM      6  C6  UNL d   1       5.987  -3.064   5.494  0.00  0.00    -0.057 A 
ENDROOT
BRANCH   1   7
ATOM      7  N   UNL d   1       5.886  -4.700   3.734  0.00  0.00    -0.732 N 
ATOM      8  C   UNL d   1       5.951  -5.761   4.717  0.00  0.00     0.284 C 
ATOM      9  H3  UNL d   1       5.176  -4.839   3.019  0.00  0.00     0.395 HD
ENDBRANCH   1   7
TORSDOF 1
ENDMDL
