MODEL 1
REMARK minimizedAffinity 0.420875698
REMARK minimizedRMSD -1
REMARK  1 active torsions:
REMARK  status: ('A' for Active; 'I' for Inactive)
REMARK    1  A    between atoms: N_2  and  C1_3 
ROOT
ATOM      1  C1  UNL d   1       2.117   1.064  -3.122  0.00  0.00     0.143 A 
ATOM      2  C2  UNL d   1       0.976   1.205  -3.919  0.00  0.00    -0.057 A 
ATOM      3  C3  UNL d   1      -0.308   1.162  -3.363  0.00  0.00     0.033 A 
ATOM      4  C4  UNL d   1      -0.475   0.947  -1.998  0.00  0.00    -0.042 A 
ATOM      5  C5  UNL d   1       0.645   0.780  -1.191  0.00  0.00     0.033 A 
ATOM      6  C6  UNL d   1       1.925   0.831  -1.752  0.00  0.00    -0.057 A 
ENDROOT
BRANCH   1   7
ATOM      7  N   UNL d   1       3.417   1.000  -3.630  0.00  0.00    -0.732 N 
ATOM      8  C   UNL d   1       3.877  -0.180  -4.330  0.00  0.00     0.284 C 
ATOM      9  H3  UNL d   1       3.712   1.876  -4.054  0.00  0.00     0.395 HD
ENDBRANCH   1   7
TORSDOF 1
ENDMDL
