MODEL 1
REMARK minimizedAffinity 4.65733624
REMARK minimizedRMSD -1
REMARK  1 active torsions:
REMARK  status: ('A' for Active; 'I' for Inactive)
REMARK    1  A    between atoms: N_2  and  C1_3 
ROOT
ATOM      1  C1  UNL d   1      -3.415   0.794   1.560  0.00  0.00     0.143 A 
ATOM      2  C2  UNL d   1      -4.188   1.925   1.846  0.00  0.00    -0.057 A 
ATOM      3  C3  UNL d   1      -5.462   1.808   2.414  0.00  0.00     0.033 A 
ATOM      4  C4  UNL d   1      -6.000   0.553   2.679  0.00  0.00    -0.042 A 
ATOM      5  C5  UNL d   1      -5.260  -0.585   2.380  0.00  0.00     0.033 A 
ATOM      6  C6  UNL d   1      -3.985  -0.462   1.819  0.00  0.00    -0.057 A 
ENDROOT
BRANCH   1   7
ATOM      7  N   UNL d   1      -2.182   0.840   0.904  0.00  0.00    -0.732 N 
ATOM      8  C   UNL d   1      -1.107  -0.047   1.293  0.00  0.00     0.284 C 
ATOM      9  H3  UNL d   1      -2.281   0.958  -0.101  0.00  0.00     0.395 HD
ENDBRANCH   1   7
TORSDOF 1
ENDMDL
