MODEL 1
REMARK minimizedAffinity 6.82639551
REMARK minimizedRMSD -1
REMARK  1 active torsions:
REMARK  status: ('A' for Active; 'I' for Inactive)
REMARK    1  A    between atoms: N_2  and  C1_3 
ROOT
ATOM      1  C1  UNL d   1       2.524  -1.815  -5.075  0.00  0.00     0.143 A 
ATOM      2  C2  UNL d   1       2.328  -1.511  -3.723  0.00  0.00    -0.057 A 
ATOM      3  C3  UNL d   1       3.303  -0.832  -2.983  0.00  0.00     0.033 A 
ATOM      4  C4  UNL d   1       4.509  -0.470  -3.576  0.00  0.00    -0.042 A 
ATOM      5  C5  UNL d   1       4.735  -0.785  -4.911  0.00  0.00     0.033 A 
ATOM      6  C6  UNL d   1       3.755  -1.457  -5.647  0.00  0.00    -0.057 A 
ENDROOT
BRANCH   1   7
ATOM      7  N   UNL d   1       1.634  -2.574  -5.838  0.00  0.00    -0.732 N 
ATOM      8  C   UNL d   1       0.257  -2.158  -5.996  0.00  0.00     0.284 C 
ATOM      9  H3  UNL d   1       2.060  -2.932  -6.690  0.00  0.00     0.395 HD
ENDBRANCH   1   7
TORSDOF 1
ENDMDL
