MODEL 1
REMARK minimizedAffinity -3.98351693
REMARK minimizedRMSD -1
REMARK  2 active torsions:
REMARK  status: ('A' for Active; 'I' for Inactive)
REMARK    1  A    between atoms: C2'_3  and  C1'_4 
REMARK    2  A    between atoms: C1'_4  and  C1_5 
ROOT
ATOM      1  C1  I4B d   1      -4.880  -3.624  -4.298  0.00  0.00    -0.075 A 
ATOM      2  C2  I4B d   1      -5.132  -4.407  -5.396  0.00  0.00     0.003 A 
ATOM      3  C3  I4B d   1      -4.094  -5.177  -5.975  0.00  0.00     0.002 A 
ATOM      4  C4  I4B d   1      -2.817  -5.096  -5.458  0.00  0.00    -0.004 A 
ATOM      5  C5  I4B d   1      -2.569  -4.318  -4.330  0.00  0.00     0.002 A 
ATOM      6  C6  I4B d   1      -3.609  -3.587  -3.739  0.00  0.00     0.003 A 
ENDROOT
BRANCH   1   7
ATOM      7  C1' I4B d   1      -5.991  -2.798  -3.731  0.00  0.00     0.060 C 
BRANCH   7   8
ATOM      8  C2' I4B d   1      -5.504  -1.367  -3.630  0.00  0.00    -0.013 C 
ATOM      9  C4' I4B d   1      -5.980  -0.545  -4.799  0.00  0.00     0.013 C 
ATOM     10  C3' I4B d   1      -5.999  -0.800  -2.332  0.00  0.00     0.013 C 
ENDBRANCH   7   8
ENDBRANCH   1   7
TORSDOF 2
ENDMDL
