MODEL 1
REMARK minimizedAffinity -2.5182271
REMARK minimizedRMSD -1
REMARK  2 active torsions:
REMARK  status: ('A' for Active; 'I' for Inactive)
REMARK    1  A    between atoms: C2'_3  and  C1'_4 
REMARK    2  A    between atoms: C1'_4  and  C1_5 
ROOT
ATOM      1  C1  I4B d   1      -3.527  -3.939  -5.660  0.00  0.00    -0.075 A 
ATOM      2  C2  I4B d   1      -4.678  -4.646  -5.902  0.00  0.00     0.003 A 
ATOM      3  C3  I4B d   1      -5.938  -4.095  -5.564  0.00  0.00     0.002 A 
ATOM      4  C4  I4B d   1      -5.996  -2.864  -4.943  0.00  0.00    -0.004 A 
ATOM      5  C5  I4B d   1      -4.830  -2.138  -4.719  0.00  0.00     0.002 A 
ATOM      6  C6  I4B d   1      -3.588  -2.673  -5.091  0.00  0.00     0.003 A 
ENDROOT
BRANCH   1   7
ATOM      7  C1' I4B d   1      -2.212  -4.565  -6.000  0.00  0.00     0.060 C 
BRANCH   7   8
ATOM      8  C2' I4B d   1      -1.629  -5.146  -4.728  0.00  0.00    -0.013 C 
ATOM      9  C4' I4B d   1      -2.639  -5.998  -4.005  0.00  0.00     0.013 C 
ATOM     10  C3' I4B d   1      -0.414  -5.943  -5.097  0.00  0.00     0.013 C 
ENDBRANCH   7   8
ENDBRANCH   1   7
TORSDOF 2
ENDMDL
