MODEL 1
REMARK minimizedAffinity -0.406328499
REMARK minimizedRMSD -1
REMARK  2 active torsions:
REMARK  status: ('A' for Active; 'I' for Inactive)
REMARK    1  A    between atoms: C2'_3  and  C1'_4 
REMARK    2  A    between atoms: C1'_4  and  C1_5 
ROOT
ATOM      1  C1  I4B d   1      -3.355  -4.014  -5.129  0.00  0.00    -0.075 A 
ATOM      2  C2  I4B d   1      -2.738  -3.898  -3.908  0.00  0.00     0.003 A 
ATOM      3  C3  I4B d   1      -1.743  -4.829  -3.521  0.00  0.00     0.002 A 
ATOM      4  C4  I4B d   1      -1.436  -5.883  -4.358  0.00  0.00    -0.004 A 
ATOM      5  C5  I4B d   1      -2.047  -5.985  -5.605  0.00  0.00     0.002 A 
ATOM      6  C6  I4B d   1      -3.004  -5.038  -5.998  0.00  0.00     0.003 A 
ENDROOT
BRANCH   1   7
ATOM      7  C1' I4B d   1      -4.424  -3.032  -5.491  0.00  0.00     0.060 C 
BRANCH   7   8
ATOM      8  C2' I4B d   1      -4.519  -2.012  -4.375  0.00  0.00    -0.013 C 
ATOM      9  C4' I4B d   1      -4.045  -0.658  -4.832  0.00  0.00     0.013 C 
ATOM     10  C3' I4B d   1      -5.946  -1.960  -3.917  0.00  0.00     0.013 C 
ENDBRANCH   7   8
ENDBRANCH   1   7
TORSDOF 2
ENDMDL
