MODEL 1
REMARK minimizedAffinity -2.82932425
REMARK minimizedRMSD -1
REMARK  2 active torsions:
REMARK  status: ('A' for Active; 'I' for Inactive)
REMARK    1  A    between atoms: C2'_3  and  C1'_4 
REMARK    2  A    between atoms: C1'_4  and  C1_5 
ROOT
ATOM      1  C1  I4B d   1      -4.059  -5.186  -4.451  0.00  0.00    -0.075 A 
ATOM      2  C2  I4B d   1      -4.086  -3.814  -4.453  0.00  0.00     0.003 A 
ATOM      3  C3  I4B d   1      -5.085  -3.122  -5.180  0.00  0.00     0.002 A 
ATOM      4  C4  I4B d   1      -6.000  -3.836  -5.927  0.00  0.00    -0.004 A 
ATOM      5  C5  I4B d   1      -5.985  -5.228  -5.906  0.00  0.00     0.002 A 
ATOM      6  C6  I4B d   1      -5.016  -5.908  -5.153  0.00  0.00     0.003 A 
ENDROOT
BRANCH   1   7
ATOM      7  C1' I4B d   1      -2.971  -5.885  -3.699  0.00  0.00     0.060 C 
BRANCH   7   8
ATOM      8  C2' I4B d   1      -1.769  -5.999  -4.615  0.00  0.00    -0.013 C 
ATOM      9  C4' I4B d   1      -2.079  -5.465  -5.989  0.00  0.00     0.013 C 
ATOM     10  C3' I4B d   1      -0.634  -5.248  -3.986  0.00  0.00     0.013 C 
ENDBRANCH   7   8
ENDBRANCH   1   7
TORSDOF 2
ENDMDL
