MODEL 1
REMARK minimizedAffinity -2.13017297
REMARK minimizedRMSD -1
REMARK  2 active torsions:
REMARK  status: ('A' for Active; 'I' for Inactive)
REMARK    1  A    between atoms: C2'_3  and  C1'_4 
REMARK    2  A    between atoms: C1'_4  and  C1_5 
ROOT
ATOM      1  C1  I4B d   1      -4.115  -4.082  -4.505  0.00  0.00    -0.075 A 
ATOM      2  C2  I4B d   1      -2.780  -3.766  -4.549  0.00  0.00     0.003 A 
ATOM      3  C3  I4B d   1      -1.888  -4.545  -5.327  0.00  0.00     0.002 A 
ATOM      4  C4  I4B d   1      -2.362  -5.653  -5.999  0.00  0.00    -0.004 A 
ATOM      5  C5  I4B d   1      -3.720  -5.958  -5.971  0.00  0.00     0.002 A 
ATOM      6  C6  I4B d   1      -4.604  -5.161  -5.230  0.00  0.00     0.003 A 
ENDROOT
BRANCH   1   7
ATOM      7  C1' I4B d   1      -5.022  -3.258  -3.648  0.00  0.00     0.060 C 
BRANCH   7   8
ATOM      8  C2' I4B d   1      -6.000  -2.542  -4.557  0.00  0.00    -0.013 C 
ATOM      9  C4' I4B d   1      -5.637  -1.088  -4.711  0.00  0.00     0.013 C 
ATOM     10  C3' I4B d   1      -5.999  -3.244  -5.882  0.00  0.00     0.013 C 
ENDBRANCH   7   8
ENDBRANCH   1   7
TORSDOF 2
ENDMDL
