MODEL 1
REMARK minimizedAffinity -0.294007242
REMARK minimizedRMSD -1
REMARK  2 active torsions:
REMARK  status: ('A' for Active; 'I' for Inactive)
REMARK    1  A    between atoms: C2'_3  and  C1'_4 
REMARK    2  A    between atoms: C1'_4  and  C1_5 
ROOT
ATOM      1  C1  I4B d   1      -5.296  -3.920  -5.292  0.00  0.00    -0.075 A 
ATOM      2  C2  I4B d   1      -5.510  -3.960  -3.937  0.00  0.00     0.003 A 
ATOM      3  C3  I4B d   1      -5.892  -2.788  -3.240  0.00  0.00     0.002 A 
ATOM      4  C4  I4B d   1      -5.999  -1.595  -3.925  0.00  0.00    -0.004 A 
ATOM      5  C5  I4B d   1      -5.804  -1.561  -5.302  0.00  0.00     0.002 A 
ATOM      6  C6  I4B d   1      -5.462  -2.733  -5.993  0.00  0.00     0.003 A 
ENDROOT
BRANCH   1   7
ATOM      7  C1' I4B d   1      -4.861  -5.169  -5.991  0.00  0.00     0.060 C 
BRANCH   7   8
ATOM      8  C2' I4B d   1      -3.445  -5.480  -5.552  0.00  0.00    -0.013 C 
ATOM      9  C4' I4B d   1      -2.487  -4.408  -5.999  0.00  0.00     0.013 C 
ATOM     10  C3' I4B d   1      -3.443  -5.619  -4.059  0.00  0.00     0.013 C 
ENDBRANCH   7   8
ENDBRANCH   1   7
TORSDOF 2
ENDMDL
