MODEL 1
REMARK minimizedAffinity 0.0941941813
REMARK minimizedRMSD -1
REMARK  2 active torsions:
REMARK  status: ('A' for Active; 'I' for Inactive)
REMARK    1  A    between atoms: C2'_3  and  C1'_4 
REMARK    2  A    between atoms: C1'_4  and  C1_5 
ROOT
ATOM      1  C1  I4B d   1      -4.293  -4.487  -4.067  0.00  0.00    -0.075 A 
ATOM      2  C2  I4B d   1      -4.309  -3.249  -3.476  0.00  0.00     0.003 A 
ATOM      3  C3  I4B d   1      -5.192  -2.246  -3.946  0.00  0.00     0.002 A 
ATOM      4  C4  I4B d   1      -5.999  -2.507  -5.034  0.00  0.00    -0.004 A 
ATOM      5  C5  I4B d   1      -5.998  -3.770  -5.618  0.00  0.00     0.002 A 
ATOM      6  C6  I4B d   1      -5.148  -4.771  -5.124  0.00  0.00     0.003 A 
ENDROOT
BRANCH   1   7
ATOM      7  C1' I4B d   1      -3.325  -5.512  -3.567  0.00  0.00     0.060 C 
BRANCH   7   8
ATOM      8  C2' I4B d   1      -2.318  -5.780  -4.667  0.00  0.00    -0.013 C 
ATOM      9  C4' I4B d   1      -3.000  -5.958  -5.998  0.00  0.00     0.013 C 
ATOM     10  C3' I4B d   1      -1.354  -4.632  -4.701  0.00  0.00     0.013 C 
ENDBRANCH   7   8
ENDBRANCH   1   7
TORSDOF 2
ENDMDL
