MODEL 1
REMARK minimizedAffinity 1.88840759
REMARK minimizedRMSD -1
REMARK  2 active torsions:
REMARK  status: ('A' for Active; 'I' for Inactive)
REMARK    1  A    between atoms: C2'_3  and  C1'_4 
REMARK    2  A    between atoms: C1'_4  and  C1_5 
ROOT
ATOM      1  C1  I4B d   1      -3.603  -3.782  -5.214  0.00  0.00    -0.075 A 
ATOM      2  C2  I4B d   1      -3.254  -4.852  -6.000  0.00  0.00     0.003 A 
ATOM      3  C3  I4B d   1      -2.646  -5.992  -5.421  0.00  0.00     0.002 A 
ATOM      4  C4  I4B d   1      -2.359  -5.999  -4.072  0.00  0.00    -0.004 A 
ATOM      5  C5  I4B d   1      -2.734  -4.922  -3.273  0.00  0.00     0.002 A 
ATOM      6  C6  I4B d   1      -3.371  -3.812  -3.845  0.00  0.00     0.003 A 
ENDROOT
BRANCH   1   7
ATOM      7  C1' I4B d   1      -4.214  -2.581  -5.863  0.00  0.00     0.060 C 
BRANCH   7   8
ATOM      8  C2' I4B d   1      -5.635  -2.447  -5.353  0.00  0.00    -0.013 C 
ATOM      9  C4' I4B d   1      -5.996  -3.589  -4.440  0.00  0.00     0.013 C 
ATOM     10  C3' I4B d   1      -5.751  -1.130  -4.645  0.00  0.00     0.013 C 
ENDBRANCH   7   8
ENDBRANCH   1   7
TORSDOF 2
ENDMDL
