MODEL 1
REMARK minimizedAffinity 3.38861227
REMARK minimizedRMSD -1
REMARK  0 active torsions:
REMARK  status: ('A' for Active; 'I' for Inactive)
ROOT
ATOM      1  C   UNL d   1       6.000  -5.442   3.159  0.00  0.00     0.023 A 
ATOM      2  C1  UNL d   1       5.505  -4.887   1.979  0.00  0.00     0.003 A 
ATOM      3  C2  UNL d   1       4.132  -4.888   1.727  0.00  0.00     0.048 A 
ATOM      4  C3  UNL d   1       3.258  -5.445   2.661  0.00  0.00     0.023 A 
ATOM      5  C4  UNL d   1       3.749  -6.000   3.844  0.00  0.00     0.048 A 
ATOM      6  C5  UNL d   1       5.123  -5.998   4.091  0.00  0.00     0.003 A 
ATOM      7  I   UNL d   1       1.214  -5.447   2.289  0.00  0.00    -0.146 I 
ENDROOT
TORSDOF 0
ENDMDL
