MODEL 1
REMARK minimizedAffinity 6.29824877
REMARK minimizedRMSD -1
REMARK  0 active torsions:
REMARK  status: ('A' for Active; 'I' for Inactive)
ROOT
ATOM      1  C   UNL d   1      -3.883  -1.162  -5.819  0.00  0.00     0.023 A 
ATOM      2  C1  UNL d   1      -4.846  -2.165  -5.712  0.00  0.00     0.003 A 
ATOM      3  C2  UNL d   1      -4.465  -3.508  -5.741  0.00  0.00     0.048 A 
ATOM      4  C3  UNL d   1      -3.118  -3.841  -5.877  0.00  0.00     0.023 A 
ATOM      5  C4  UNL d   1      -2.150  -2.841  -5.984  0.00  0.00     0.048 A 
ATOM      6  C5  UNL d   1      -2.536  -1.500  -5.956  0.00  0.00     0.003 A 
ATOM      7  I   UNL d   1      -2.547  -5.839  -5.921  0.00  0.00    -0.146 I 
ENDROOT
TORSDOF 0
ENDMDL
