MODEL 1
REMARK minimizedAffinity 0.775498211
REMARK minimizedRMSD -1
REMARK  0 active torsions:
REMARK  status: ('A' for Active; 'I' for Inactive)
ROOT
ATOM      1  C   UNL d   1      -3.075   2.093   2.551  0.00  0.00     0.023 A 
ATOM      2  C1  UNL d   1      -2.864   0.734   2.319  0.00  0.00     0.003 A 
ATOM      3  C2  UNL d   1      -1.615   0.166   2.582  0.00  0.00     0.048 A 
ATOM      4  C3  UNL d   1      -0.583   0.963   3.076  0.00  0.00     0.023 A 
ATOM      5  C4  UNL d   1      -0.791   2.323   3.310  0.00  0.00     0.048 A 
ATOM      6  C5  UNL d   1      -2.040   2.887   3.046  0.00  0.00     0.003 A 
ATOM      7  I   UNL d   1       1.275   0.119   3.468  0.00  0.00    -0.146 I 
ENDROOT
TORSDOF 0
ENDMDL
