MODEL 1
REMARK minimizedAffinity 14.630331
REMARK minimizedRMSD -1
REMARK  0 active torsions:
REMARK  status: ('A' for Active; 'I' for Inactive)
ROOT
ATOM      1  C   UNL d   1      -4.184  -2.819   5.954  0.00  0.00     0.023 A 
ATOM      2  C1  UNL d   1      -3.195  -1.835   5.940  0.00  0.00     0.003 A 
ATOM      3  C2  UNL d   1      -3.550  -0.485   5.953  0.00  0.00     0.048 A 
ATOM      4  C3  UNL d   1      -4.897  -0.125   5.980  0.00  0.00     0.023 A 
ATOM      5  C4  UNL d   1      -5.891  -1.105   5.995  0.00  0.00     0.048 A 
ATOM      6  C5  UNL d   1      -5.530  -2.454   5.982  0.00  0.00     0.003 A 
ATOM      7  I   UNL d   1      -5.429   1.884   5.999  0.00  0.00    -0.146 I 
ENDROOT
TORSDOF 0
ENDMDL
