MODEL 1
REMARK minimizedAffinity 3.1273849
REMARK minimizedRMSD -1
REMARK  0 active torsions:
REMARK  status: ('A' for Active; 'I' for Inactive)
ROOT
ATOM      1  C   UNL d   1      -4.022   1.585   1.308  0.00  0.00     0.023 A 
ATOM      2  C1  UNL d   1      -3.224   0.735   0.543  0.00  0.00     0.003 A 
ATOM      3  C2  UNL d   1      -2.000   0.286   1.043  0.00  0.00     0.048 A 
ATOM      4  C3  UNL d   1      -1.580   0.691   2.309  0.00  0.00     0.023 A 
ATOM      5  C4  UNL d   1      -2.376   1.541   3.079  0.00  0.00     0.048 A 
ATOM      6  C5  UNL d   1      -3.599   1.988   2.575  0.00  0.00     0.003 A 
ATOM      7  I   UNL d   1       0.242   0.025   3.055  0.00  0.00    -0.146 I 
ENDROOT
TORSDOF 0
ENDMDL
