MODEL 1
REMARK minimizedAffinity 6.29916573
REMARK minimizedRMSD -1
REMARK  0 active torsions:
REMARK  status: ('A' for Active; 'I' for Inactive)
ROOT
ATOM      1  C   UNL d   1      -3.578   1.174   1.887  0.00  0.00     0.023 A 
ATOM      2  C1  UNL d   1      -2.257   0.749   2.020  0.00  0.00     0.003 A 
ATOM      3  C2  UNL d   1      -1.869  -0.496   1.521  0.00  0.00     0.048 A 
ATOM      4  C3  UNL d   1      -2.808  -1.310   0.888  0.00  0.00     0.023 A 
ATOM      5  C4  UNL d   1      -4.131  -0.888   0.752  0.00  0.00     0.048 A 
ATOM      6  C5  UNL d   1      -4.515   0.357   1.254  0.00  0.00     0.003 A 
ATOM      7  I   UNL d   1      -2.233  -3.164   0.144  0.00  0.00    -0.146 I 
ENDROOT
TORSDOF 0
ENDMDL
