MODEL 1
REMARK minimizedAffinity -2.31564474
REMARK minimizedRMSD -1
REMARK  0 active torsions:
REMARK  status: ('A' for Active; 'I' for Inactive)
ROOT
ATOM      1  C   UNL d   1       1.217   0.096   3.453  0.00  0.00     0.023 A 
ATOM      2  C1  UNL d   1       0.730   1.329   3.018  0.00  0.00     0.003 A 
ATOM      3  C2  UNL d   1      -0.517   1.407   2.393  0.00  0.00     0.048 A 
ATOM      4  C3  UNL d   1      -1.272   0.249   2.209  0.00  0.00     0.023 A 
ATOM      5  C4  UNL d   1      -0.788  -0.986   2.643  0.00  0.00     0.048 A 
ATOM      6  C5  UNL d   1       0.459  -1.060   3.266  0.00  0.00     0.003 A 
ATOM      7  I   UNL d   1      -3.128   0.363   1.281  0.00  0.00    -0.146 I 
ENDROOT
TORSDOF 0
ENDMDL
