MODEL 1
REMARK minimizedAffinity 7.99136066
REMARK minimizedRMSD -1
REMARK  0 active torsions:
REMARK  status: ('A' for Active; 'I' for Inactive)
ROOT
ATOM      1  C   UNL d   1      -2.110   0.654   1.024  0.00  0.00     0.023 A 
ATOM      2  C1  UNL d   1      -1.445   0.138   2.136  0.00  0.00     0.003 A 
ATOM      3  C2  UNL d   1      -2.150  -0.132   3.310  0.00  0.00     0.048 A 
ATOM      4  C3  UNL d   1      -3.521   0.116   3.365  0.00  0.00     0.023 A 
ATOM      5  C4  UNL d   1      -4.191   0.632   2.255  0.00  0.00     0.048 A 
ATOM      6  C5  UNL d   1      -3.481   0.901   1.083  0.00  0.00     0.003 A 
ATOM      7  I   UNL d   1      -4.574  -0.284   5.112  0.00  0.00    -0.146 I 
ENDROOT
TORSDOF 0
ENDMDL
