MODEL 1
REMARK minimizedAffinity 12.6007833
REMARK minimizedRMSD -1
REMARK  0 active torsions:
REMARK  status: ('A' for Active; 'I' for Inactive)
ROOT
ATOM      1  C   UNL d   1      -2.412   2.115   1.531  0.00  0.00     0.023 A 
ATOM      2  C1  UNL d   1      -1.524   1.041   1.601  0.00  0.00     0.003 A 
ATOM      3  C2  UNL d   1      -1.928  -0.228   1.180  0.00  0.00     0.048 A 
ATOM      4  C3  UNL d   1      -3.220  -0.415   0.690  0.00  0.00     0.023 A 
ATOM      5  C4  UNL d   1      -4.111   0.657   0.617  0.00  0.00     0.048 A 
ATOM      6  C5  UNL d   1      -3.703   1.924   1.039  0.00  0.00     0.003 A 
ATOM      7  I   UNL d   1      -3.823  -2.303   0.063  0.00  0.00    -0.146 I 
ENDROOT
TORSDOF 0
ENDMDL
