MODEL 1
REMARK minimizedAffinity 6.38168097
REMARK minimizedRMSD -1
REMARK  0 active torsions:
REMARK  status: ('A' for Active; 'I' for Inactive)
ROOT
ATOM      1  C   UNL d   1      -5.090   0.699   1.837  0.00  0.00     0.023 A 
ATOM      2  C1  UNL d   1      -4.288   0.612   0.698  0.00  0.00     0.003 A 
ATOM      3  C2  UNL d   1      -2.902   0.507   0.825  0.00  0.00     0.048 A 
ATOM      4  C3  UNL d   1      -2.323   0.489   2.094  0.00  0.00     0.023 A 
ATOM      5  C4  UNL d   1      -3.121   0.575   3.236  0.00  0.00     0.048 A 
ATOM      6  C5  UNL d   1      -4.507   0.681   3.104  0.00  0.00     0.003 A 
ATOM      7  I   UNL d   1      -0.259   0.333   2.285  0.00  0.00    -0.146 I 
ENDROOT
TORSDOF 0
ENDMDL
