MODEL 1
REMARK minimizedAffinity 2.0808742
REMARK minimizedRMSD -1
REMARK  0 active torsions:
REMARK  status: ('A' for Active; 'I' for Inactive)
ROOT
ATOM      1  C   UNL d   1      -2.610  -4.683   0.457  0.00  0.00     0.023 A 
ATOM      2  C1  UNL d   1      -2.508  -5.620   1.485  0.00  0.00     0.003 A 
ATOM      3  C2  UNL d   1      -1.252  -6.000   1.964  0.00  0.00     0.048 A 
ATOM      4  C3  UNL d   1      -0.102  -5.437   1.410  0.00  0.00     0.023 A 
ATOM      5  C4  UNL d   1      -0.200  -4.498   0.382  0.00  0.00     0.048 A 
ATOM      6  C5  UNL d   1      -1.457  -4.122  -0.094  0.00  0.00     0.003 A 
ATOM      7  I   UNL d   1       1.768  -6.000   2.121  0.00  0.00    -0.146 I 
ENDROOT
TORSDOF 0
ENDMDL
