MODEL 1
REMARK minimizedAffinity 4.0699439
REMARK minimizedRMSD -1
REMARK  0 active torsions:
REMARK  status: ('A' for Active; 'I' for Inactive)
ROOT
ATOM      1  C   UNL d   1       5.772  -5.950   2.707  0.00  0.00     0.023 A 
ATOM      2  C1  UNL d   1       4.763  -5.927   3.670  0.00  0.00     0.003 A 
ATOM      3  C2  UNL d   1       3.422  -5.939   3.280  0.00  0.00     0.048 A 
ATOM      4  C3  UNL d   1       3.098  -5.975   1.924  0.00  0.00     0.023 A 
ATOM      5  C4  UNL d   1       4.104  -5.999   0.957  0.00  0.00     0.048 A 
ATOM      6  C5  UNL d   1       5.443  -5.986   1.352  0.00  0.00     0.003 A 
ATOM      7  I   UNL d   1       1.103  -5.993   1.340  0.00  0.00    -0.146 I 
ENDROOT
TORSDOF 0
ENDMDL
