MODEL 1
REMARK minimizedAffinity 2.99334049
REMARK minimizedRMSD -1
REMARK  0 active torsions:
REMARK  status: ('A' for Active; 'I' for Inactive)
ROOT
ATOM      1  C   UNL d   1      -2.624  -4.069   0.522  0.00  0.00     0.023 A 
ATOM      2  C1  UNL d   1      -2.503  -5.447   0.703  0.00  0.00     0.003 A 
ATOM      3  C2  UNL d   1      -1.274  -6.000   1.067  0.00  0.00     0.048 A 
ATOM      4  C3  UNL d   1      -0.169  -5.169   1.250  0.00  0.00     0.023 A 
ATOM      5  C4  UNL d   1      -0.285  -3.789   1.071  0.00  0.00     0.048 A 
ATOM      6  C5  UNL d   1      -1.516  -3.241   0.706  0.00  0.00     0.003 A 
ATOM      7  I   UNL d   1       1.662  -5.989   1.791  0.00  0.00    -0.146 I 
ENDROOT
TORSDOF 0
ENDMDL
