MODEL 1
REMARK minimizedAffinity 0.345766544
REMARK minimizedRMSD -1
REMARK  0 active torsions:
REMARK  status: ('A' for Active; 'I' for Inactive)
ROOT
ATOM      1  C   UNL d   1       4.187  -0.040  -0.092  0.00  0.00     0.023 A 
ATOM      2  C1  UNL d   1       4.496  -0.175   1.262  0.00  0.00     0.003 A 
ATOM      3  C2  UNL d   1       3.522   0.079   2.230  0.00  0.00     0.048 A 
ATOM      4  C3  UNL d   1       2.241   0.465   1.838  0.00  0.00     0.023 A 
ATOM      5  C4  UNL d   1       1.927   0.600   0.484  0.00  0.00     0.048 A 
ATOM      6  C5  UNL d   1       2.904   0.346  -0.480  0.00  0.00     0.003 A 
ATOM      7  I   UNL d   1       0.790   0.843   3.277  0.00  0.00    -0.146 I 
ENDROOT
TORSDOF 0
ENDMDL
