MODEL 1
REMARK minimizedAffinity 7.65639448
REMARK minimizedRMSD -1
REMARK  0 active torsions:
REMARK  status: ('A' for Active; 'I' for Inactive)
ROOT
ATOM      1  C   UNL d   1      -2.171   0.160   0.455  0.00  0.00     0.023 A 
ATOM      2  C1  UNL d   1      -3.522  -0.182   0.405  0.00  0.00     0.003 A 
ATOM      3  C2  UNL d   1      -4.355   0.095   1.491  0.00  0.00     0.048 A 
ATOM      4  C3  UNL d   1      -3.830   0.716   2.624  0.00  0.00     0.023 A 
ATOM      5  C4  UNL d   1      -2.479   1.061   2.678  0.00  0.00     0.048 A 
ATOM      6  C5  UNL d   1      -1.650   0.781   1.591  0.00  0.00     0.003 A 
ATOM      7  I   UNL d   1      -5.068   1.131   4.241  0.00  0.00    -0.146 I 
ENDROOT
TORSDOF 0
ENDMDL
