MODEL 1
REMARK minimizedAffinity 3.96004128
REMARK minimizedRMSD -1
REMARK  0 active torsions:
REMARK  status: ('A' for Active; 'I' for Inactive)
ROOT
ATOM      1  C   UNL d   1       0.027   2.087   3.643  0.00  0.00     0.023 A 
ATOM      2  C1  UNL d   1       0.189   0.768   3.219  0.00  0.00     0.003 A 
ATOM      3  C2  UNL d   1      -0.765   0.180   2.386  0.00  0.00     0.048 A 
ATOM      4  C3  UNL d   1      -1.876   0.917   1.979  0.00  0.00     0.023 A 
ATOM      5  C4  UNL d   1      -2.042   2.237   2.400  0.00  0.00     0.048 A 
ATOM      6  C5  UNL d   1      -1.086   2.821   3.234  0.00  0.00     0.003 A 
ATOM      7  I   UNL d   1      -3.297   0.043   0.738  0.00  0.00    -0.146 I 
ENDROOT
TORSDOF 0
ENDMDL
