MODEL 1
REMARK minimizedAffinity -0.321692526
REMARK minimizedRMSD -1
REMARK  0 active torsions:
REMARK  status: ('A' for Active; 'I' for Inactive)
ROOT
ATOM      1  C   UNL d   1       4.131  -5.983   1.240  0.00  0.00     0.023 A 
ATOM      2  C1  UNL d   1       3.244  -5.995   2.317  0.00  0.00     0.003 A 
ATOM      3  C2  UNL d   1       3.732  -5.999   3.625  0.00  0.00     0.048 A 
ATOM      4  C3  UNL d   1       5.109  -5.989   3.850  0.00  0.00     0.023 A 
ATOM      5  C4  UNL d   1       6.000  -5.976   2.776  0.00  0.00     0.048 A 
ATOM      6  C5  UNL d   1       5.507  -5.973   1.470  0.00  0.00     0.003 A 
ATOM      7  I   UNL d   1       5.837  -5.994   5.796  0.00  0.00    -0.146 I 
ENDROOT
TORSDOF 0
ENDMDL
