MODEL 1
REMARK minimizedAffinity 2.15703821
REMARK minimizedRMSD -1
REMARK  0 active torsions:
REMARK  status: ('A' for Active; 'I' for Inactive)
ROOT
ATOM      1  C   UNL d   1      -1.576   0.389   1.615  0.00  0.00     0.023 A 
ATOM      2  C1  UNL d   1      -1.379   0.538   2.988  0.00  0.00     0.003 A 
ATOM      3  C2  UNL d   1      -2.475   0.689   3.840  0.00  0.00     0.048 A 
ATOM      4  C3  UNL d   1      -3.766   0.690   3.313  0.00  0.00     0.023 A 
ATOM      5  C4  UNL d   1      -3.968   0.540   1.940  0.00  0.00     0.048 A 
ATOM      6  C5  UNL d   1      -2.869   0.390   1.092  0.00  0.00     0.003 A 
ATOM      7  I   UNL d   1      -5.399   0.915   4.579  0.00  0.00    -0.146 I 
ENDROOT
TORSDOF 0
ENDMDL
