MODEL 1
REMARK minimizedAffinity -0.840005815
REMARK minimizedRMSD -1
REMARK  0 active torsions:
REMARK  status: ('A' for Active; 'I' for Inactive)
ROOT
ATOM      1  C1  DEN d   1       1.169   1.764  -1.369  0.00  0.00     0.130 A 
ATOM      2  C2  DEN d   1       2.444   2.015  -0.701  0.00  0.00    -0.031 A 
ATOM      3  C3  DEN d   1       2.764   0.836   0.128  0.00  0.00     0.027 A 
ATOM      4  C4  DEN d   1       1.421  -1.344   0.437  0.00  0.00     0.027 A 
ATOM      5  C5  DEN d   1       0.270  -2.013   0.084  0.00  0.00    -0.003 A 
ATOM      6  C6  DEN d   1      -0.671  -1.461  -0.745  0.00  0.00     0.001 A 
ATOM      7  C7  DEN d   1      -0.455  -0.220  -1.285  0.00  0.00     0.017 A 
ATOM      8  C8  DEN d   1       0.700   0.463  -0.927  0.00  0.00    -0.094 A 
ATOM      9  C9  DEN d   1       1.644  -0.117  -0.097  0.00  0.00    -0.072 A 
ENDROOT
TORSDOF 0
ENDMDL
