MODEL 1
REMARK minimizedAffinity -2.26192904
REMARK minimizedRMSD -1
REMARK  0 active torsions:
REMARK  status: ('A' for Active; 'I' for Inactive)
ROOT
ATOM      1  C1  DEN d   1       1.677  -0.105  -0.113  0.00  0.00     0.130 A 
ATOM      2  C2  DEN d   1       1.070  -1.427   0.017  0.00  0.00    -0.031 A 
ATOM      3  C3  DEN d   1      -0.350  -1.243   0.381  0.00  0.00     0.027 A 
ATOM      4  C4  DEN d   1      -1.659   0.948   0.750  0.00  0.00     0.027 A 
ATOM      5  C5  DEN d   1      -1.567   2.323   0.764  0.00  0.00    -0.003 A 
ATOM      6  C6  DEN d   1      -0.389   2.978   0.521  0.00  0.00     0.001 A 
ATOM      7  C7  DEN d   1       0.736   2.260   0.211  0.00  0.00     0.017 A 
ATOM      8  C8  DEN d   1       0.652   0.873   0.202  0.00  0.00    -0.094 A 
ATOM      9  C9  DEN d   1      -0.551   0.230   0.438  0.00  0.00    -0.072 A 
ENDROOT
TORSDOF 0
ENDMDL
