MODEL 1
REMARK minimizedAffinity -0.627144754
REMARK minimizedRMSD -1
REMARK  0 active torsions:
REMARK  status: ('A' for Active; 'I' for Inactive)
ROOT
ATOM      1  C1  DEN d   1      -0.733  -4.014  -1.161  0.00  0.00     0.130 A 
ATOM      2  C2  DEN d   1      -0.905  -4.177  -2.602  0.00  0.00    -0.031 A 
ATOM      3  C3  DEN d   1      -0.889  -2.835  -3.218  0.00  0.00     0.027 A 
ATOM      4  C4  DEN d   1      -0.612  -0.533  -2.087  0.00  0.00     0.027 A 
ATOM      5  C5  DEN d   1      -0.448   0.112  -0.882  0.00  0.00    -0.003 A 
ATOM      6  C6  DEN d   1      -0.401  -0.564   0.308  0.00  0.00     0.001 A 
ATOM      7  C7  DEN d   1      -0.475  -1.932   0.315  0.00  0.00     0.017 A 
ATOM      8  C8  DEN d   1      -0.649  -2.589  -0.895  0.00  0.00    -0.094 A 
ATOM      9  C9  DEN d   1      -0.681  -1.889  -2.089  0.00  0.00    -0.072 A 
ENDROOT
TORSDOF 0
ENDMDL
