MODEL 1
REMARK minimizedAffinity -3.88208151
REMARK minimizedRMSD -1
REMARK  0 active torsions:
REMARK  status: ('A' for Active; 'I' for Inactive)
ROOT
ATOM      1  C1  DEN d   1      -1.459  -1.521  -0.100  0.00  0.00     0.130 A 
ATOM      2  C2  DEN d   1      -0.701  -2.769  -0.091  0.00  0.00    -0.031 A 
ATOM      3  C3  DEN d   1       0.733  -2.431   0.003  0.00  0.00     0.027 A 
ATOM      4  C4  DEN d   1       1.848  -0.109   0.139  0.00  0.00     0.027 A 
ATOM      5  C5  DEN d   1       1.616   1.248   0.153  0.00  0.00    -0.003 A 
ATOM      6  C6  DEN d   1       0.355   1.775   0.050  0.00  0.00     0.001 A 
ATOM      7  C7  DEN d   1      -0.726   0.937  -0.026  0.00  0.00     0.017 A 
ATOM      8  C8  DEN d   1      -0.499  -0.433  -0.048  0.00  0.00    -0.094 A 
ATOM      9  C9  DEN d   1       0.782  -0.946   0.069  0.00  0.00    -0.072 A 
ENDROOT
TORSDOF 0
ENDMDL
