MODEL 1
REMARK minimizedAffinity -0.844024897
REMARK minimizedRMSD -1
REMARK  0 active torsions:
REMARK  status: ('A' for Active; 'I' for Inactive)
ROOT
ATOM      1  C1  DEN d   1       0.894  -0.419  -0.362  0.00  0.00     0.130 A 
ATOM      2  C2  DEN d   1       0.026  -1.572  -0.139  0.00  0.00    -0.031 A 
ATOM      3  C3  DEN d   1      -1.168  -1.110   0.596  0.00  0.00     0.027 A 
ATOM      4  C4  DEN d   1      -1.758   1.268   1.402  0.00  0.00     0.027 A 
ATOM      5  C5  DEN d   1      -1.324   2.575   1.456  0.00  0.00    -0.003 A 
ATOM      6  C6  DEN d   1      -0.116   2.965   0.943  0.00  0.00     0.001 A 
ATOM      7  C7  DEN d   1       0.681   2.048   0.311  0.00  0.00     0.017 A 
ATOM      8  C8  DEN d   1       0.255   0.727   0.260  0.00  0.00    -0.094 A 
ATOM      9  C9  DEN d   1      -0.975   0.355   0.774  0.00  0.00    -0.072 A 
ENDROOT
TORSDOF 0
ENDMDL
