MODEL 1
REMARK minimizedAffinity -4.80454683
REMARK minimizedRMSD -1
REMARK  0 active torsions:
REMARK  status: ('A' for Active; 'I' for Inactive)
ROOT
ATOM      1  C1  DEN d   1       0.708  -0.411  -0.432  0.00  0.00     0.130 A 
ATOM      2  C2  DEN d   1      -0.378  -1.263   0.042  0.00  0.00    -0.031 A 
ATOM      3  C3  DEN d   1      -1.432  -0.392   0.599  0.00  0.00     0.027 A 
ATOM      4  C4  DEN d   1      -1.489   2.181   0.768  0.00  0.00     0.027 A 
ATOM      5  C5  DEN d   1      -0.789   3.339   0.510  0.00  0.00    -0.003 A 
ATOM      6  C6  DEN d   1       0.464   3.326  -0.045  0.00  0.00     0.001 A 
ATOM      7  C7  DEN d   1       1.036   2.134  -0.401  0.00  0.00     0.017 A 
ATOM      8  C8  DEN d   1       0.339   0.962  -0.137  0.00  0.00    -0.094 A 
ATOM      9  C9  DEN d   1      -0.931   0.996   0.413  0.00  0.00    -0.072 A 
ENDROOT
TORSDOF 0
ENDMDL
