MODEL 1
REMARK minimizedAffinity 1.34161925
REMARK minimizedRMSD -1
REMARK  0 active torsions:
REMARK  status: ('A' for Active; 'I' for Inactive)
ROOT
ATOM      1  C1  DEN d   1       0.456   0.025  -0.714  0.00  0.00     0.130 A 
ATOM      2  C2  DEN d   1      -0.360   0.542   0.380  0.00  0.00    -0.031 A 
ATOM      3  C3  DEN d   1      -1.330  -0.505   0.761  0.00  0.00     0.027 A 
ATOM      4  C4  DEN d   1      -1.640  -2.867  -0.228  0.00  0.00     0.027 A 
ATOM      5  C5  DEN d   1      -1.188  -3.753  -1.181  0.00  0.00    -0.003 A 
ATOM      6  C6  DEN d   1      -0.188  -3.432  -2.061  0.00  0.00     0.001 A 
ATOM      7  C7  DEN d   1       0.425  -2.210  -1.975  0.00  0.00     0.017 A 
ATOM      8  C8  DEN d   1      -0.030  -1.308  -1.022  0.00  0.00    -0.094 A 
ATOM      9  C9  DEN d   1      -1.034  -1.656  -0.134  0.00  0.00    -0.072 A 
ENDROOT
TORSDOF 0
ENDMDL
