MODEL 1
REMARK minimizedAffinity -4.41777849
REMARK minimizedRMSD -1
REMARK  0 active torsions:
REMARK  status: ('A' for Active; 'I' for Inactive)
ROOT
ATOM      1  C1  DEN d   1       1.768   2.883   1.698  0.00  0.00     0.130 A 
ATOM      2  C2  DEN d   1       2.899   1.987   1.474  0.00  0.00    -0.031 A 
ATOM      3  C3  DEN d   1       2.383   0.742   0.870  0.00  0.00     0.027 A 
ATOM      4  C4  DEN d   1      -0.045   0.119   0.261  0.00  0.00     0.027 A 
ATOM      5  C5  DEN d   1      -1.352   0.552   0.275  0.00  0.00    -0.003 A 
ATOM      6  C6  DEN d   1      -1.713   1.769   0.792  0.00  0.00     0.001 A 
ATOM      7  C7  DEN d   1      -0.749   2.614   1.274  0.00  0.00     0.017 A 
ATOM      8  C8  DEN d   1       0.571   2.181   1.270  0.00  0.00    -0.094 A 
ATOM      9  C9  DEN d   1       0.917   0.953   0.732  0.00  0.00    -0.072 A 
ENDROOT
TORSDOF 0
ENDMDL
