MODEL 1
REMARK minimizedAffinity -5.98436785
REMARK minimizedRMSD -1
REMARK  0 active torsions:
REMARK  status: ('A' for Active; 'I' for Inactive)
ROOT
ATOM      1  C1  DEN d   1       2.528   1.045   0.826  0.00  0.00     0.130 A 
ATOM      2  C2  DEN d   1       2.799   2.404   1.289  0.00  0.00    -0.031 A 
ATOM      3  C3  DEN d   1       1.509   3.116   1.391  0.00  0.00     0.027 A 
ATOM      4  C4  DEN d   1      -0.867   2.251   0.885  0.00  0.00     0.027 A 
ATOM      5  C5  DEN d   1      -1.599   1.166   0.454  0.00  0.00    -0.003 A 
ATOM      6  C6  DEN d   1      -1.008  -0.014   0.087  0.00  0.00     0.001 A 
ATOM      7  C7  DEN d   1       0.351  -0.153   0.188  0.00  0.00     0.017 A 
ATOM      8  C8  DEN d   1       1.096   0.939   0.615  0.00  0.00    -0.094 A 
ATOM      9  C9  DEN d   1       0.479   2.119   0.993  0.00  0.00    -0.072 A 
ENDROOT
TORSDOF 0
ENDMDL
