MODEL 1
REMARK minimizedAffinity -2.96268463
REMARK minimizedRMSD -1
REMARK  0 active torsions:
REMARK  status: ('A' for Active; 'I' for Inactive)
ROOT
ATOM      1  C1  DEN d   1      -1.216  -0.804   0.229  0.00  0.00     0.130 A 
ATOM      2  C2  DEN d   1       0.027  -0.081  -0.026  0.00  0.00    -0.031 A 
ATOM      3  C3  DEN d   1       0.895  -0.942  -0.854  0.00  0.00     0.027 A 
ATOM      4  C4  DEN d   1       0.435  -3.310  -1.767  0.00  0.00     0.027 A 
ATOM      5  C5  DEN d   1      -0.478  -4.341  -1.805  0.00  0.00    -0.003 A 
ATOM      6  C6  DEN d   1      -1.677  -4.279  -1.145  0.00  0.00     0.001 A 
ATOM      7  C7  DEN d   1      -2.014  -3.145  -0.456  0.00  0.00     0.017 A 
ATOM      8  C8  DEN d   1      -1.096  -2.104  -0.407  0.00  0.00    -0.094 A 
ATOM      9  C9  DEN d   1       0.105  -2.181  -1.090  0.00  0.00    -0.072 A 
ENDROOT
TORSDOF 0
ENDMDL
