MODEL 1
REMARK minimizedAffinity 17.0376778
REMARK minimizedRMSD -1
REMARK  0 active torsions:
REMARK  status: ('A' for Active; 'I' for Inactive)
ROOT
ATOM      1  O1  BZF d   1      -2.612   2.574  -0.822  0.00  0.00    -0.204 OA
ATOM      2  C2  BZF d   1      -1.506   2.530   0.004  0.00  0.00     0.174 A 
ATOM      3  C3  BZF d   1      -1.454   3.623   0.792  0.00  0.00    -0.012 A 
ATOM      4  C3A BZF d   1      -2.649   4.355   0.501  0.00  0.00    -0.107 A 
ATOM      5  C4  BZF d   1      -3.175   5.522   0.977  0.00  0.00     0.055 A 
ATOM      6  C5  BZF d   1      -4.324   5.999   0.431  0.00  0.00    -0.016 A 
ATOM      7  C6  BZF d   1      -4.970   5.339  -0.594  0.00  0.00     0.022 A 
ATOM      8  C7  BZF d   1      -4.490   4.175  -1.095  0.00  0.00     0.029 A 
ATOM      9  C7A BZF d   1      -3.346   3.673  -0.523  0.00  0.00     0.058 A 
ENDROOT
TORSDOF 0
ENDMDL
