MODEL 1
REMARK minimizedAffinity 11.7252989
REMARK minimizedRMSD -1
REMARK  0 active torsions:
REMARK  status: ('A' for Active; 'I' for Inactive)
ROOT
ATOM      1  O1  BZF d   1      -2.551   1.966   3.914  0.00  0.00    -0.204 OA
ATOM      2  C2  BZF d   1      -2.124   0.693   4.238  0.00  0.00     0.174 A 
ATOM      3  C3  BZF d   1      -2.974   0.110   5.108  0.00  0.00    -0.012 A 
ATOM      4  C3A BZF d   1      -4.045   1.045   5.271  0.00  0.00    -0.107 A 
ATOM      5  C4  BZF d   1      -5.200   1.032   6.000  0.00  0.00     0.055 A 
ATOM      6  C5  BZF d   1      -5.995   2.134   5.997  0.00  0.00    -0.016 A 
ATOM      7  C6  BZF d   1      -5.664   3.266   5.283  0.00  0.00     0.022 A 
ATOM      8  C7  BZF d   1      -4.531   3.325   4.542  0.00  0.00     0.029 A 
ATOM      9  C7A BZF d   1      -3.742   2.201   4.516  0.00  0.00     0.058 A 
ENDROOT
TORSDOF 0
ENDMDL
