MODEL 1
REMARK minimizedAffinity 6.18101883
REMARK minimizedRMSD -1
REMARK  0 active torsions:
REMARK  status: ('A' for Active; 'I' for Inactive)
ROOT
ATOM      1  O1  BZF d   1       6.000  -3.875   5.901  0.00  0.00    -0.204 OA
ATOM      2  C2  BZF d   1       5.714  -5.223   6.000  0.00  0.00     0.174 A 
ATOM      3  C3  BZF d   1       4.509  -5.497   5.460  0.00  0.00    -0.012 A 
ATOM      4  C3A BZF d   1       4.051  -4.257   4.911  0.00  0.00    -0.107 A 
ATOM      5  C4  BZF d   1       2.926  -3.890   4.230  0.00  0.00     0.055 A 
ATOM      6  C5  BZF d   1       2.751  -2.584   3.899  0.00  0.00    -0.016 A 
ATOM      7  C6  BZF d   1       3.677  -1.619   4.237  0.00  0.00     0.022 A 
ATOM      8  C7  BZF d   1       4.811  -1.936   4.908  0.00  0.00     0.029 A 
ATOM      9  C7A BZF d   1       5.007  -3.260   5.215  0.00  0.00     0.058 A 
ENDROOT
TORSDOF 0
ENDMDL
