MODEL 1
REMARK minimizedAffinity 8.58204746
REMARK minimizedRMSD -1
REMARK  0 active torsions:
REMARK  status: ('A' for Active; 'I' for Inactive)
ROOT
ATOM      1  O1  BZF d   1      -4.562   1.554   5.652  0.00  0.00    -0.204 OA
ATOM      2  C2  BZF d   1      -5.838   1.122   5.961  0.00  0.00     0.174 A 
ATOM      3  C3  BZF d   1      -5.889  -0.225   6.000  0.00  0.00    -0.012 A 
ATOM      4  C3A BZF d   1      -4.543  -0.660   5.788  0.00  0.00    -0.107 A 
ATOM      5  C4  BZF d   1      -3.951  -1.889   5.733  0.00  0.00     0.055 A 
ATOM      6  C5  BZF d   1      -2.627  -1.972   5.436  0.00  0.00    -0.016 A 
ATOM      7  C6  BZF d   1      -1.868  -0.849   5.183  0.00  0.00     0.022 A 
ATOM      8  C7  BZF d   1      -2.410   0.393   5.231  0.00  0.00     0.029 A 
ATOM      9  C7A BZF d   1      -3.739   0.482   5.563  0.00  0.00     0.058 A 
ENDROOT
TORSDOF 0
ENDMDL
