MODEL 1
REMARK minimizedAffinity 26.2329025
REMARK minimizedRMSD -1
REMARK  0 active torsions:
REMARK  status: ('A' for Active; 'I' for Inactive)
ROOT
ATOM      1  O1  BZF d   1      -5.941  -1.945   5.623  0.00  0.00    -0.204 OA
ATOM      2  C2  BZF d   1      -6.000  -3.273   6.000  0.00  0.00     0.174 A 
ATOM      3  C3  BZF d   1      -4.771  -3.828   5.988  0.00  0.00    -0.012 A 
ATOM      4  C3A BZF d   1      -3.877  -2.758   5.667  0.00  0.00    -0.107 A 
ATOM      5  C4  BZF d   1      -2.522  -2.678   5.523  0.00  0.00     0.055 A 
ATOM      6  C5  BZF d   1      -1.968  -1.500   5.133  0.00  0.00    -0.016 A 
ATOM      7  C6  BZF d   1      -2.738  -0.385   4.874  0.00  0.00     0.022 A 
ATOM      8  C7  BZF d   1      -4.087  -0.414   5.009  0.00  0.00     0.029 A 
ATOM      9  C7A BZF d   1      -4.647  -1.594   5.435  0.00  0.00     0.058 A 
ENDROOT
TORSDOF 0
ENDMDL
