MODEL 1
REMARK minimizedAffinity 16.3362141
REMARK minimizedRMSD -1
REMARK  0 active torsions:
REMARK  status: ('A' for Active; 'I' for Inactive)
ROOT
ATOM      1  O1  BZF d   1      -2.865  -2.208   3.912  0.00  0.00    -0.204 OA
ATOM      2  C2  BZF d   1      -2.822  -1.622   5.162  0.00  0.00     0.174 A 
ATOM      3  C3  BZF d   1      -2.407  -0.342   5.076  0.00  0.00    -0.012 A 
ATOM      4  C3A BZF d   1      -2.266  -0.085   3.675  0.00  0.00    -0.107 A 
ATOM      5  C4  BZF d   1      -1.898   1.015   2.955  0.00  0.00     0.055 A 
ATOM      6  C5  BZF d   1      -1.790   0.914   1.604  0.00  0.00    -0.016 A 
ATOM      7  C6  BZF d   1      -2.036  -0.272   0.942  0.00  0.00     0.022 A 
ATOM      8  C7  BZF d   1      -2.409  -1.388   1.614  0.00  0.00     0.029 A 
ATOM      9  C7A BZF d   1      -2.551  -1.281   2.976  0.00  0.00     0.058 A 
ENDROOT
TORSDOF 0
ENDMDL
