MODEL 1
REMARK minimizedAffinity 0.800866783
REMARK minimizedRMSD -1
REMARK  0 active torsions:
REMARK  status: ('A' for Active; 'I' for Inactive)
ROOT
ATOM      1  O1  BZF d   1       5.998  -2.606  -2.645  0.00  0.00    -0.204 OA
ATOM      2  C2  BZF d   1       5.331  -1.397  -2.640  0.00  0.00     0.174 A 
ATOM      3  C3  BZF d   1       4.548  -1.278  -3.732  0.00  0.00    -0.012 A 
ATOM      4  C3A BZF d   1       4.668  -2.527  -4.418  0.00  0.00    -0.107 A 
ATOM      5  C4  BZF d   1       4.116  -3.026  -5.563  0.00  0.00     0.055 A 
ATOM      6  C5  BZF d   1       4.496  -4.256  -5.999  0.00  0.00    -0.016 A 
ATOM      7  C6  BZF d   1       5.428  -5.011  -5.317  0.00  0.00     0.022 A 
ATOM      8  C7  BZF d   1       5.999  -4.561  -4.174  0.00  0.00     0.029 A 
ATOM      9  C7A BZF d   1       5.592  -3.332  -3.714  0.00  0.00     0.058 A 
ENDROOT
TORSDOF 0
ENDMDL
