MODEL 1
REMARK minimizedAffinity 11.6963406
REMARK minimizedRMSD -1
REMARK  0 active torsions:
REMARK  status: ('A' for Active; 'I' for Inactive)
ROOT
ATOM      1  O1  BZF d   1       4.405  -0.997   5.510  0.00  0.00    -0.204 OA
ATOM      2  C2  BZF d   1       3.048  -0.891   5.274  0.00  0.00     0.174 A 
ATOM      3  C3  BZF d   1       2.477  -2.112   5.217  0.00  0.00    -0.012 A 
ATOM      4  C3A BZF d   1       3.527  -3.034   5.522  0.00  0.00    -0.107 A 
ATOM      5  C4  BZF d   1       3.579  -4.394   5.636  0.00  0.00     0.055 A 
ATOM      6  C5  BZF d   1       4.776  -4.992   5.873  0.00  0.00    -0.016 A 
ATOM      7  C6  BZF d   1       5.940  -4.262   5.998  0.00  0.00     0.022 A 
ATOM      8  C7  BZF d   1       5.938  -2.911   5.898  0.00  0.00     0.029 A 
ATOM      9  C7A BZF d   1       4.724  -2.301   5.691  0.00  0.00     0.058 A 
ENDROOT
TORSDOF 0
ENDMDL
