MODEL 1
REMARK minimizedAffinity -1.93895614
REMARK minimizedRMSD -1
REMARK  0 active torsions:
REMARK  status: ('A' for Active; 'I' for Inactive)
ROOT
ATOM      1  O1  BZF d   1       3.186  -1.228   5.640  0.00  0.00    -0.204 OA
ATOM      2  C2  BZF d   1       2.019  -1.873   6.000  0.00  0.00     0.174 A 
ATOM      3  C3  BZF d   1       2.103  -3.194   5.742  0.00  0.00    -0.012 A 
ATOM      4  C3A BZF d   1       3.439  -3.401   5.273  0.00  0.00    -0.107 A 
ATOM      5  C4  BZF d   1       4.131  -4.507   4.871  0.00  0.00     0.055 A 
ATOM      6  C5  BZF d   1       5.398  -4.359   4.401  0.00  0.00    -0.016 A 
ATOM      7  C6  BZF d   1       5.999  -3.120   4.314  0.00  0.00     0.022 A 
ATOM      8  C7  BZF d   1       5.354  -1.995   4.706  0.00  0.00     0.029 A 
ATOM      9  C7A BZF d   1       4.086  -2.146   5.212  0.00  0.00     0.058 A 
ENDROOT
TORSDOF 0
ENDMDL
