MODEL 1
REMARK minimizedAffinity 9.81838226
REMARK minimizedRMSD -1
REMARK  0 active torsions:
REMARK  status: ('A' for Active; 'I' for Inactive)
ROOT
ATOM      1  O1  BZF d   1       3.260  -3.860  -3.049  0.00  0.00    -0.204 OA
ATOM      2  C2  BZF d   1       2.642  -2.676  -3.404  0.00  0.00     0.174 A 
ATOM      3  C3  BZF d   1       3.225  -2.140  -4.495  0.00  0.00    -0.012 A 
ATOM      4  C3A BZF d   1       4.215  -3.092  -4.899  0.00  0.00    -0.107 A 
ATOM      5  C4  BZF d   1       5.111  -3.135  -5.928  0.00  0.00     0.055 A 
ATOM      6  C5  BZF d   1       5.987  -4.171  -5.998  0.00  0.00    -0.016 A 
ATOM      7  C6  BZF d   1       5.998  -5.178  -5.055  0.00  0.00     0.022 A 
ATOM      8  C7  BZF d   1       5.124  -5.181  -4.019  0.00  0.00     0.029 A 
ATOM      9  C7A BZF d   1       4.216  -4.152  -3.964  0.00  0.00     0.058 A 
ENDROOT
TORSDOF 0
ENDMDL
