MODEL 1
REMARK minimizedAffinity 2.55354953
REMARK minimizedRMSD -1
REMARK  0 active torsions:
REMARK  status: ('A' for Active; 'I' for Inactive)
ROOT
ATOM      1  O1  BZF d   1       3.807  -4.881  -5.440  0.00  0.00    -0.204 OA
ATOM      2  C2  BZF d   1       4.970  -5.374  -5.999  0.00  0.00     0.174 A 
ATOM      3  C3  BZF d   1       5.998  -4.527  -5.791  0.00  0.00    -0.012 A 
ATOM      4  C3A BZF d   1       5.463  -3.480  -4.975  0.00  0.00    -0.107 A 
ATOM      5  C4  BZF d   1       6.000  -2.352  -4.424  0.00  0.00     0.055 A 
ATOM      6  C5  BZF d   1       5.190  -1.500  -3.742  0.00  0.00    -0.016 A 
ATOM      7  C6  BZF d   1       3.839  -1.742  -3.597  0.00  0.00     0.022 A 
ATOM      8  C7  BZF d   1       3.262  -2.850  -4.122  0.00  0.00     0.029 A 
ATOM      9  C7A BZF d   1       4.084  -3.729  -4.784  0.00  0.00     0.058 A 
ENDROOT
TORSDOF 0
ENDMDL
