MODEL 1
REMARK minimizedAffinity 11.0582314
REMARK minimizedRMSD -1
REMARK  0 active torsions:
REMARK  status: ('A' for Active; 'I' for Inactive)
ROOT
ATOM      1  O1  BZF d   1      -2.160  -2.377   5.888  0.00  0.00    -0.204 OA
ATOM      2  C2  BZF d   1      -1.279  -1.314   5.841  0.00  0.00     0.174 A 
ATOM      3  C3  BZF d   1      -1.945  -0.142   5.797  0.00  0.00    -0.012 A 
ATOM      4  C3A BZF d   1      -3.328  -0.491   5.913  0.00  0.00    -0.107 A 
ATOM      5  C4  BZF d   1      -4.481   0.240   5.948  0.00  0.00     0.055 A 
ATOM      6  C5  BZF d   1      -5.673  -0.409   5.993  0.00  0.00    -0.016 A 
ATOM      7  C6  BZF d   1      -5.751  -1.787   5.998  0.00  0.00     0.022 A 
ATOM      8  C7  BZF d   1      -4.634  -2.554   5.969  0.00  0.00     0.029 A 
ATOM      9  C7A BZF d   1      -3.426  -1.901   5.957  0.00  0.00     0.058 A 
ENDROOT
TORSDOF 0
ENDMDL
