MODEL 1
REMARK minimizedAffinity 11.0798788
REMARK minimizedRMSD -1
REMARK  0 active torsions:
REMARK  status: ('A' for Active; 'I' for Inactive)
ROOT
ATOM      1  O1  BZF d   1       2.490  -3.604   5.538  0.00  0.00    -0.204 OA
ATOM      2  C2  BZF d   1       2.938  -4.827   6.000  0.00  0.00     0.174 A 
ATOM      3  C3  BZF d   1       4.286  -4.874   6.000  0.00  0.00    -0.012 A 
ATOM      4  C3A BZF d   1       4.708  -3.568   5.595  0.00  0.00    -0.107 A 
ATOM      5  C4  BZF d   1       5.932  -2.989   5.420  0.00  0.00     0.055 A 
ATOM      6  C5  BZF d   1       6.000  -1.717   4.946  0.00  0.00    -0.016 A 
ATOM      7  C6  BZF d   1       4.865  -0.998   4.632  0.00  0.00     0.022 A 
ATOM      8  C7  BZF d   1       3.628  -1.528   4.793  0.00  0.00     0.029 A 
ATOM      9  C7A BZF d   1       3.556  -2.801   5.304  0.00  0.00     0.058 A 
ENDROOT
TORSDOF 0
ENDMDL
