MODEL 1
REMARK minimizedAffinity 6.91115141
REMARK minimizedRMSD -1
REMARK  0 active torsions:
REMARK  status: ('A' for Active; 'I' for Inactive)
ROOT
ATOM      1  O1  BZF d   1       3.754  -1.611  -3.878  0.00  0.00    -0.204 OA
ATOM      2  C2  BZF d   1       4.941  -1.105  -3.383  0.00  0.00     0.174 A 
ATOM      3  C3  BZF d   1       5.983  -1.873  -3.760  0.00  0.00    -0.012 A 
ATOM      4  C3A BZF d   1       5.423  -2.872  -4.617  0.00  0.00    -0.107 A 
ATOM      5  C4  BZF d   1       5.958  -3.916  -5.317  0.00  0.00     0.055 A 
ATOM      6  C5  BZF d   1       5.129  -4.748  -6.000  0.00  0.00    -0.016 A 
ATOM      7  C6  BZF d   1       3.761  -4.570  -6.000  0.00  0.00     0.022 A 
ATOM      8  C7  BZF d   1       3.184  -3.546  -5.324  0.00  0.00     0.029 A 
ATOM      9  C7A BZF d   1       4.022  -2.684  -4.661  0.00  0.00     0.058 A 
ENDROOT
TORSDOF 0
ENDMDL
