MODEL 1
REMARK minimizedAffinity 0.41188243
REMARK minimizedRMSD -1
REMARK  0 active torsions:
REMARK  status: ('A' for Active; 'I' for Inactive)
ROOT
ATOM      1  O1  BZF d   1       2.421   4.163  -3.792  0.00  0.00    -0.204 OA
ATOM      2  C2  BZF d   1       1.610   5.155  -3.277  0.00  0.00     0.174 A 
ATOM      3  C3  BZF d   1       2.320   5.998  -2.499  0.00  0.00    -0.012 A 
ATOM      4  C3A BZF d   1       3.676   5.555  -2.605  0.00  0.00    -0.107 A 
ATOM      5  C4  BZF d   1       4.853   5.999  -2.073  0.00  0.00     0.055 A 
ATOM      6  C5  BZF d   1       5.993   5.299  -2.313  0.00  0.00    -0.016 A 
ATOM      7  C6  BZF d   1       5.991   4.149  -3.076  0.00  0.00     0.022 A 
ATOM      8  C7  BZF d   1       4.849   3.672  -3.628  0.00  0.00     0.029 A 
ATOM      9  C7A BZF d   1       3.701   4.396  -3.414  0.00  0.00     0.058 A 
ENDROOT
TORSDOF 0
ENDMDL
