MODEL 1
REMARK minimizedAffinity 1.3407203
REMARK minimizedRMSD -1
REMARK  0 active torsions:
REMARK  status: ('A' for Active; 'I' for Inactive)
ROOT
ATOM      1  O1  BZF d   1       3.832   3.378  -5.058  0.00  0.00    -0.204 OA
ATOM      2  C2  BZF d   1       4.962   2.628  -5.317  0.00  0.00     0.174 A 
ATOM      3  C3  BZF d   1       5.999   3.049  -4.563  0.00  0.00    -0.012 A 
ATOM      4  C3A BZF d   1       5.459   4.070  -3.718  0.00  0.00    -0.107 A 
ATOM      5  C4  BZF d   1       5.993   4.857  -2.739  0.00  0.00     0.055 A 
ATOM      6  C5  BZF d   1       5.214   5.807  -2.157  0.00  0.00    -0.016 A 
ATOM      7  C6  BZF d   1       3.901   6.000  -2.533  0.00  0.00     0.022 A 
ATOM      8  C7  BZF d   1       3.326   5.239  -3.496  0.00  0.00     0.029 A 
ATOM      9  C7A BZF d   1       4.100   4.257  -4.063  0.00  0.00     0.058 A 
ENDROOT
TORSDOF 0
ENDMDL
