MODEL 1
REMARK minimizedAffinity -1.30266941
REMARK minimizedRMSD -1
REMARK  0 active torsions:
REMARK  status: ('A' for Active; 'I' for Inactive)
ROOT
ATOM      1  O1  BZF d   1      -1.787   1.500  -0.004  0.00  0.00    -0.204 OA
ATOM      2  C2  BZF d   1      -2.234   0.764   1.076  0.00  0.00     0.174 A 
ATOM      3  C3  BZF d   1      -1.380  -0.240   1.358  0.00  0.00    -0.012 A 
ATOM      4  C3A BZF d   1      -0.286  -0.069   0.452  0.00  0.00    -0.107 A 
ATOM      5  C4  BZF d   1       0.884  -0.746   0.253  0.00  0.00     0.055 A 
ATOM      6  C5  BZF d   1       1.702  -0.366  -0.763  0.00  0.00    -0.016 A 
ATOM      7  C6  BZF d   1       1.381   0.681  -1.601  0.00  0.00     0.022 A 
ATOM      8  C7  BZF d   1       0.234   1.386  -1.441  0.00  0.00     0.029 A 
ATOM      9  C7A BZF d   1      -0.579   1.025  -0.394  0.00  0.00     0.058 A 
ENDROOT
TORSDOF 0
ENDMDL
