MODEL 1
REMARK minimizedAffinity 6.87373018
REMARK minimizedRMSD -1
REMARK  0 active torsions:
REMARK  status: ('A' for Active; 'I' for Inactive)
ROOT
ATOM      1  O1  BZF d   1      -1.546  -5.019  -5.778  0.00  0.00    -0.204 OA
ATOM      2  C2  BZF d   1      -2.494  -5.999  -6.000  0.00  0.00     0.174 A 
ATOM      3  C3  BZF d   1      -3.420  -6.000  -5.020  0.00  0.00    -0.012 A 
ATOM      4  C3A BZF d   1      -3.079  -4.893  -4.179  0.00  0.00    -0.107 A 
ATOM      5  C4  BZF d   1      -3.634  -4.368  -3.047  0.00  0.00     0.055 A 
ATOM      6  C5  BZF d   1      -3.014  -3.328  -2.429  0.00  0.00    -0.016 A 
ATOM      7  C6  BZF d   1      -1.837  -2.794  -2.911  0.00  0.00     0.022 A 
ATOM      8  C7  BZF d   1      -1.252  -3.278  -4.033  0.00  0.00     0.029 A 
ATOM      9  C7A BZF d   1      -1.893  -4.307  -4.679  0.00  0.00     0.058 A 
ENDROOT
TORSDOF 0
ENDMDL
