MODEL 1
REMARK minimizedAffinity 3.47752285
REMARK minimizedRMSD -1
REMARK  0 active torsions:
REMARK  status: ('A' for Active; 'I' for Inactive)
ROOT
ATOM      1  O1  BZF d   1      -1.458   1.504   0.754  0.00  0.00    -0.204 OA
ATOM      2  C2  BZF d   1      -0.546   2.522   0.554  0.00  0.00     0.174 A 
ATOM      3  C3  BZF d   1       0.682   2.022   0.307  0.00  0.00    -0.012 A 
ATOM      4  C3A BZF d   1       0.509   0.603   0.265  0.00  0.00    -0.107 A 
ATOM      5  C4  BZF d   1       1.361  -0.441   0.043  0.00  0.00     0.055 A 
ATOM      6  C5  BZF d   1       0.889  -1.712   0.143  0.00  0.00    -0.016 A 
ATOM      7  C6  BZF d   1      -0.425  -1.975   0.468  0.00  0.00     0.022 A 
ATOM      8  C7  BZF d   1      -1.309  -0.972   0.692  0.00  0.00     0.029 A 
ATOM      9  C7A BZF d   1      -0.844   0.313   0.560  0.00  0.00     0.058 A 
ENDROOT
TORSDOF 0
ENDMDL
