MODEL 1
REMARK minimizedAffinity -2.28684831
REMARK minimizedRMSD -1
REMARK  0 active torsions:
REMARK  status: ('A' for Active; 'I' for Inactive)
ROOT
ATOM      1  O1  BZF d   1      -1.528  -0.706   0.319  0.00  0.00    -0.204 OA
ATOM      2  C2  BZF d   1      -0.399   0.086   0.246  0.00  0.00     0.174 A 
ATOM      3  C3  BZF d   1      -0.215   0.541  -1.010  0.00  0.00    -0.012 A 
ATOM      4  C3A BZF d   1      -1.348   0.076  -1.749  0.00  0.00    -0.107 A 
ATOM      5  C4  BZF d   1      -1.744   0.218  -3.048  0.00  0.00     0.055 A 
ATOM      6  C5  BZF d   1      -2.865  -0.424  -3.470  0.00  0.00    -0.016 A 
ATOM      7  C6  BZF d   1      -3.610  -1.218  -2.623  0.00  0.00     0.022 A 
ATOM      8  C7  BZF d   1      -3.259  -1.385  -1.325  0.00  0.00     0.029 A 
ATOM      9  C7A BZF d   1      -2.145  -0.712  -0.887  0.00  0.00     0.058 A 
ENDROOT
TORSDOF 0
ENDMDL
