MODEL 1
REMARK minimizedAffinity -5.18864202
REMARK minimizedRMSD -1
REMARK  0 active torsions:
REMARK  status: ('A' for Active; 'I' for Inactive)
ROOT
ATOM      1  O1  BZF d   1       1.875   0.541  -0.645  0.00  0.00    -0.204 OA
ATOM      2  C2  BZF d   1       3.018   0.010  -0.079  0.00  0.00     0.174 A 
ATOM      3  C3  BZF d   1       2.705  -0.898   0.868  0.00  0.00    -0.012 A 
ATOM      4  C3A BZF d   1       1.279  -1.004   0.831  0.00  0.00    -0.107 A 
ATOM      5  C4  BZF d   1       0.375  -1.757   1.525  0.00  0.00     0.055 A 
ATOM      6  C5  BZF d   1      -0.952  -1.570   1.299  0.00  0.00    -0.016 A 
ATOM      7  C6  BZF d   1      -1.410  -0.638   0.391  0.00  0.00     0.022 A 
ATOM      8  C7  BZF d   1      -0.551   0.129  -0.324  0.00  0.00     0.029 A 
ATOM      9  C7A BZF d   1       0.791  -0.081  -0.122  0.00  0.00     0.058 A 
ENDROOT
TORSDOF 0
ENDMDL
