MODEL 1
REMARK minimizedAffinity -0.893067718
REMARK minimizedRMSD -1
REMARK  0 active torsions:
REMARK  status: ('A' for Active; 'I' for Inactive)
ROOT
ATOM      1  O1  BZF d   1       1.931   1.749   1.080  0.00  0.00    -0.204 OA
ATOM      2  C2  BZF d   1       2.911   1.332   1.960  0.00  0.00     0.174 A 
ATOM      3  C3  BZF d   1       2.670   0.074   2.383  0.00  0.00    -0.012 A 
ATOM      4  C3A BZF d   1       1.515  -0.353   1.655  0.00  0.00    -0.107 A 
ATOM      5  C4  BZF d   1       0.800  -1.516   1.626  0.00  0.00     0.055 A 
ATOM      6  C5  BZF d   1      -0.320  -1.585   0.859  0.00  0.00    -0.016 A 
ATOM      7  C6  BZF d   1      -0.756  -0.509   0.114  0.00  0.00     0.022 A 
ATOM      8  C7  BZF d   1      -0.078   0.664   0.107  0.00  0.00     0.029 A 
ATOM      9  C7A BZF d   1       1.073   0.726   0.855  0.00  0.00     0.058 A 
ENDROOT
TORSDOF 0
ENDMDL
