MODEL 1
REMARK minimizedAffinity -5.22319746
REMARK minimizedRMSD -1
REMARK  0 active torsions:
REMARK  status: ('A' for Active; 'I' for Inactive)
ROOT
ATOM      1  O1  BZF d   1      -0.775   0.218   0.777  0.00  0.00    -0.204 OA
ATOM      2  C2  BZF d   1       0.511  -0.118   0.402  0.00  0.00     0.174 A 
ATOM      3  C3  BZF d   1       1.262   0.988   0.224  0.00  0.00    -0.012 A 
ATOM      4  C3A BZF d   1       0.416   2.081   0.595  0.00  0.00    -0.107 A 
ATOM      5  C4  BZF d   1       0.598   3.433   0.646  0.00  0.00     0.055 A 
ATOM      6  C5  BZF d   1      -0.452   4.229   0.982  0.00  0.00    -0.016 A 
ATOM      7  C6  BZF d   1      -1.696   3.707   1.266  0.00  0.00     0.022 A 
ATOM      8  C7  BZF d   1      -1.924   2.371   1.233  0.00  0.00     0.029 A 
ATOM      9  C7A BZF d   1      -0.857   1.562   0.927  0.00  0.00     0.058 A 
ENDROOT
TORSDOF 0
ENDMDL
