MODEL 1
REMARK minimizedAffinity -4.52628279
REMARK minimizedRMSD -1
REMARK  0 active torsions:
REMARK  status: ('A' for Active; 'I' for Inactive)
ROOT
ATOM      1  O1  BZF d   1       0.594   1.499   0.889  0.00  0.00    -0.204 OA
ATOM      2  C2  BZF d   1      -0.479   1.063   0.137  0.00  0.00     0.174 A 
ATOM      3  C3  BZF d   1      -0.217  -0.138  -0.419  0.00  0.00    -0.012 A 
ATOM      4  C3A BZF d   1       1.066  -0.516   0.089  0.00  0.00    -0.107 A 
ATOM      5  C4  BZF d   1       1.858  -1.614  -0.086  0.00  0.00     0.055 A 
ATOM      6  C5  BZF d   1       3.087  -1.641   0.494  0.00  0.00    -0.016 A 
ATOM      7  C6  BZF d   1       3.556  -0.586   1.249  0.00  0.00     0.022 A 
ATOM      8  C7  BZF d   1       2.805   0.522   1.455  0.00  0.00     0.029 A 
ATOM      9  C7A BZF d   1       1.549   0.539   0.898  0.00  0.00     0.058 A 
ENDROOT
TORSDOF 0
ENDMDL
