MODEL 1
REMARK minimizedAffinity -4.74263048
REMARK minimizedRMSD -1
REMARK  0 active torsions:
REMARK  status: ('A' for Active; 'I' for Inactive)
ROOT
ATOM      1  O1  BZF d   1      -0.565   1.139   0.391  0.00  0.00    -0.204 OA
ATOM      2  C2  BZF d   1       0.007   2.390   0.517  0.00  0.00     0.174 A 
ATOM      3  C3  BZF d   1       1.329   2.289   0.763  0.00  0.00    -0.012 A 
ATOM      4  C3A BZF d   1       1.618   0.889   0.700  0.00  0.00    -0.107 A 
ATOM      5  C4  BZF d   1       2.764   0.160   0.843  0.00  0.00     0.055 A 
ATOM      6  C5  BZF d   1       2.693  -1.197   0.796  0.00  0.00    -0.016 A 
ATOM      7  C6  BZF d   1       1.495  -1.855   0.613  0.00  0.00     0.022 A 
ATOM      8  C7  BZF d   1       0.333  -1.174   0.461  0.00  0.00     0.029 A 
ATOM      9  C7A BZF d   1       0.406   0.197   0.475  0.00  0.00     0.058 A 
ENDROOT
TORSDOF 0
ENDMDL
