MODEL 1
REMARK minimizedAffinity -1.29860961
REMARK minimizedRMSD -1
REMARK  0 active torsions:
REMARK  status: ('A' for Active; 'I' for Inactive)
ROOT
ATOM      1  O1  BZF d   1      -1.310  -1.673   1.094  0.00  0.00    -0.204 OA
ATOM      2  C2  BZF d   1      -0.781  -2.882   1.502  0.00  0.00     0.174 A 
ATOM      3  C3  BZF d   1       0.467  -3.046   1.019  0.00  0.00    -0.012 A 
ATOM      4  C3A BZF d   1       0.770  -1.824   0.338  0.00  0.00    -0.107 A 
ATOM      5  C4  BZF d   1       1.869  -1.373  -0.336  0.00  0.00     0.055 A 
ATOM      6  C5  BZF d   1       1.816  -0.161  -0.948  0.00  0.00    -0.016 A 
ATOM      7  C6  BZF d   1       0.681   0.623  -0.911  0.00  0.00     0.022 A 
ATOM      8  C7  BZF d   1      -0.431   0.219  -0.251  0.00  0.00     0.029 A 
ATOM      9  C7A BZF d   1      -0.370  -0.991   0.397  0.00  0.00     0.058 A 
ENDROOT
TORSDOF 0
ENDMDL
