MODEL 1
REMARK minimizedAffinity -1.89891732
REMARK minimizedRMSD -1
REMARK  0 active torsions:
REMARK  status: ('A' for Active; 'I' for Inactive)
ROOT
ATOM      1  C1  DEN d   1       0.431  -1.143   0.303  0.00  0.00     0.130 A 
ATOM      2  C2  DEN d   1       0.704  -1.402  -1.108  0.00  0.00    -0.031 A 
ATOM      3  C3  DEN d   1       0.317  -0.202  -1.876  0.00  0.00     0.027 A 
ATOM      4  C4  DEN d   1      -0.667   2.023  -1.021  0.00  0.00     0.027 A 
ATOM      5  C5  DEN d   1      -1.087   2.709   0.098  0.00  0.00    -0.003 A 
ATOM      6  C6  DEN d   1      -1.061   2.151   1.349  0.00  0.00     0.001 A 
ATOM      7  C7  DEN d   1      -0.565   0.885   1.517  0.00  0.00     0.017 A 
ATOM      8  C8  DEN d   1      -0.147   0.185   0.393  0.00  0.00    -0.094 A 
ATOM      9  C9  DEN d   1      -0.169   0.771  -0.861  0.00  0.00    -0.072 A 
ENDROOT
TORSDOF 0
ENDMDL
