MODEL 1
REMARK minimizedAffinity -3.72908187
REMARK minimizedRMSD -1
REMARK  0 active torsions:
REMARK  status: ('A' for Active; 'I' for Inactive)
ROOT
ATOM      1  C1  DEN d   1      -1.537   2.102  -0.092  0.00  0.00     0.130 A 
ATOM      2  C2  DEN d   1      -1.638   1.851   1.343  0.00  0.00    -0.031 A 
ATOM      3  C3  DEN d   1      -0.731   0.735   1.676  0.00  0.00     0.027 A 
ATOM      4  C4  DEN d   1       0.816  -0.620   0.119  0.00  0.00     0.027 A 
ATOM      5  C5  DEN d   1       1.235  -0.781  -1.184  0.00  0.00    -0.003 A 
ATOM      6  C6  DEN d   1       0.738  -0.022  -2.210  0.00  0.00     0.001 A 
ATOM      7  C7  DEN d   1      -0.174   0.965  -1.945  0.00  0.00     0.017 A 
ATOM      8  C8  DEN d   1      -0.607   1.129  -0.635  0.00  0.00    -0.094 A 
ATOM      9  C9  DEN d   1      -0.084   0.360   0.390  0.00  0.00    -0.072 A 
ENDROOT
TORSDOF 0
ENDMDL
