MODEL 1
REMARK minimizedAffinity -2.12971592
REMARK minimizedRMSD -1
REMARK  0 active torsions:
REMARK  status: ('A' for Active; 'I' for Inactive)
ROOT
ATOM      1  C1  DEN d   1       1.161   0.017  -1.249  0.00  0.00     0.130 A 
ATOM      2  C2  DEN d   1       1.172  -0.900  -0.113  0.00  0.00    -0.031 A 
ATOM      3  C3  DEN d   1       0.067  -0.521   0.790  0.00  0.00     0.027 A 
ATOM      4  C4  DEN d   1      -1.653   1.384   0.539  0.00  0.00     0.027 A 
ATOM      5  C5  DEN d   1      -2.055   2.436  -0.254  0.00  0.00    -0.003 A 
ATOM      6  C6  DEN d   1      -1.399   2.773  -1.408  0.00  0.00     0.001 A 
ATOM      7  C7  DEN d   1      -0.331   2.024  -1.825  0.00  0.00     0.017 A 
ATOM      8  C8  DEN d   1       0.086   0.967  -1.026  0.00  0.00    -0.094 A 
ATOM      9  C9  DEN d   1      -0.599   0.634   0.130  0.00  0.00    -0.072 A 
ENDROOT
TORSDOF 0
ENDMDL
