MODEL 1
REMARK minimizedAffinity -5.29247046
REMARK minimizedRMSD -1
REMARK  0 active torsions:
REMARK  status: ('A' for Active; 'I' for Inactive)
ROOT
ATOM      1  C1  DEN d   1      -1.320   2.599   0.178  0.00  0.00     0.130 A 
ATOM      2  C2  DEN d   1      -1.216   2.883   1.607  0.00  0.00    -0.031 A 
ATOM      3  C3  DEN d   1      -0.467   1.777   2.239  0.00  0.00     0.027 A 
ATOM      4  C4  DEN d   1       0.541  -0.331   1.147  0.00  0.00     0.027 A 
ATOM      5  C5  DEN d   1       0.699  -1.015  -0.038  0.00  0.00    -0.003 A 
ATOM      6  C6  DEN d   1       0.170  -0.564  -1.218  0.00  0.00     0.001 A 
ATOM      7  C7  DEN d   1      -0.503   0.629  -1.248  0.00  0.00     0.017 A 
ATOM      8  C8  DEN d   1      -0.673   1.321  -0.056  0.00  0.00    -0.094 A 
ATOM      9  C9  DEN d   1      -0.121   0.853   1.125  0.00  0.00    -0.072 A 
ENDROOT
TORSDOF 0
ENDMDL
