MODEL 1
REMARK minimizedAffinity -2.63077593
REMARK minimizedRMSD -1
REMARK  0 active torsions:
REMARK  status: ('A' for Active; 'I' for Inactive)
ROOT
ATOM      1  C1  DEN d   1      -1.466   2.143   0.523  0.00  0.00     0.130 A 
ATOM      2  C2  DEN d   1      -0.817   2.872   1.610  0.00  0.00    -0.031 A 
ATOM      3  C3  DEN d   1       0.416   2.146   1.974  0.00  0.00     0.027 A 
ATOM      4  C4  DEN d   1       1.381  -0.022   0.963  0.00  0.00     0.027 A 
ATOM      5  C5  DEN d   1       1.178  -1.011   0.026  0.00  0.00    -0.003 A 
ATOM      6  C6  DEN d   1       0.071  -1.037  -0.781  0.00  0.00     0.001 A 
ATOM      7  C7  DEN d   1      -0.853  -0.029  -0.697  0.00  0.00     0.017 A 
ATOM      8  C8  DEN d   1      -0.659   0.968   0.250  0.00  0.00    -0.094 A 
ATOM      9  C9  DEN d   1       0.473   0.983   1.048  0.00  0.00    -0.072 A 
ENDROOT
TORSDOF 0
ENDMDL
