MODEL 1
REMARK minimizedAffinity -1.35130155
REMARK minimizedRMSD -1
REMARK  0 active torsions:
REMARK  status: ('A' for Active; 'I' for Inactive)
ROOT
ATOM      1  C1  DEN d   1      -0.971   2.635   0.324  0.00  0.00     0.130 A 
ATOM      2  C2  DEN d   1      -0.697   3.042   1.699  0.00  0.00    -0.031 A 
ATOM      3  C3  DEN d   1      -0.122   1.883   2.412  0.00  0.00     0.027 A 
ATOM      4  C4  DEN d   1       0.372  -0.487   1.523  0.00  0.00     0.027 A 
ATOM      5  C5  DEN d   1       0.298  -1.310   0.421  0.00  0.00    -0.003 A 
ATOM      6  C6  DEN d   1      -0.231  -0.891  -0.770  0.00  0.00     0.001 A 
ATOM      7  C7  DEN d   1      -0.666   0.402  -0.902  0.00  0.00     0.017 A 
ATOM      8  C8  DEN d   1      -0.602   1.236   0.206  0.00  0.00    -0.094 A 
ATOM      9  C9  DEN d   1      -0.052   0.796   1.399  0.00  0.00    -0.072 A 
ENDROOT
TORSDOF 0
ENDMDL
