MODEL 1
REMARK minimizedAffinity -1.7071085
REMARK minimizedRMSD -1
REMARK  0 active torsions:
REMARK  status: ('A' for Active; 'I' for Inactive)
ROOT
ATOM      1  C1  DEN d   1       0.455  -0.011   2.264  0.00  0.00     0.130 A 
ATOM      2  C2  DEN d   1      -0.010   1.358   2.469  0.00  0.00    -0.031 A 
ATOM      3  C3  DEN d   1      -0.246   1.963   1.142  0.00  0.00     0.027 A 
ATOM      4  C4  DEN d   1       0.059   0.917  -1.195  0.00  0.00     0.027 A 
ATOM      5  C5  DEN d   1       0.445  -0.216  -1.876  0.00  0.00    -0.003 A 
ATOM      6  C6  DEN d   1       0.890  -1.340  -1.231  0.00  0.00     0.001 A 
ATOM      7  C7  DEN d   1       0.917  -1.371   0.138  0.00  0.00     0.017 A 
ATOM      8  C8  DEN d   1       0.536  -0.229   0.831  0.00  0.00    -0.094 A 
ATOM      9  C9  DEN d   1       0.078   0.892   0.161  0.00  0.00    -0.072 A 
ENDROOT
TORSDOF 0
ENDMDL
