MODEL 1
REMARK minimizedAffinity 7.57065582
REMARK minimizedRMSD -1
REMARK  0 active torsions:
REMARK  status: ('A' for Active; 'I' for Inactive)
ROOT
ATOM      1  C1  DEN d   1      -0.199  -3.214   1.473  0.00  0.00     0.130 A 
ATOM      2  C2  DEN d   1      -1.535  -3.640   1.879  0.00  0.00    -0.031 A 
ATOM      3  C3  DEN d   1      -2.255  -2.458   2.393  0.00  0.00     0.027 A 
ATOM      4  C4  DEN d   1      -1.437  -0.021   2.595  0.00  0.00     0.027 A 
ATOM      5  C5  DEN d   1      -0.370   0.826   2.388  0.00  0.00    -0.003 A 
ATOM      6  C6  DEN d   1       0.829   0.383   1.898  0.00  0.00     0.001 A 
ATOM      7  C7  DEN d   1       0.978  -0.935   1.556  0.00  0.00     0.017 A 
ATOM      8  C8  DEN d   1      -0.091  -1.796   1.768  0.00  0.00    -0.094 A 
ATOM      9  C9  DEN d   1      -1.300  -1.327   2.253  0.00  0.00    -0.072 A 
ENDROOT
TORSDOF 0
ENDMDL
