MODEL 1
REMARK minimizedAffinity 4.29365635
REMARK minimizedRMSD -1
REMARK  0 active torsions:
REMARK  status: ('A' for Active; 'I' for Inactive)
ROOT
ATOM      1  C1  DEN d   1       1.328  -0.374  -0.384  0.00  0.00     0.130 A 
ATOM      2  C2  DEN d   1       0.132   0.373  -0.766  0.00  0.00    -0.031 A 
ATOM      3  C3  DEN d   1       0.520   1.784  -0.965  0.00  0.00     0.027 A 
ATOM      4  C4  DEN d   1       2.844   2.877  -0.724  0.00  0.00     0.027 A 
ATOM      5  C5  DEN d   1       4.165   2.648  -0.408  0.00  0.00    -0.003 A 
ATOM      6  C6  DEN d   1       4.622   1.414  -0.031  0.00  0.00     0.001 A 
ATOM      7  C7  DEN d   1       3.760   0.349  -0.005  0.00  0.00     0.017 A 
ATOM      8  C8  DEN d   1       2.425   0.574  -0.316  0.00  0.00    -0.094 A 
ATOM      9  C9  DEN d   1       1.985   1.827  -0.706  0.00  0.00    -0.072 A 
ENDROOT
TORSDOF 0
ENDMDL
