MODEL 1
REMARK minimizedAffinity 7.28246832
REMARK minimizedRMSD -1
REMARK  0 active torsions:
REMARK  status: ('A' for Active; 'I' for Inactive)
ROOT
ATOM      1  C1  DEN d   1      -0.236   0.101   1.421  0.00  0.00     0.130 A 
ATOM      2  C2  DEN d   1      -1.467   0.872   1.573  0.00  0.00    -0.031 A 
ATOM      3  C3  DEN d   1      -2.383   0.104   2.441  0.00  0.00     0.027 A 
ATOM      4  C4  DEN d   1      -2.013  -2.189   3.562  0.00  0.00     0.027 A 
ATOM      5  C5  DEN d   1      -1.129  -3.234   3.716  0.00  0.00    -0.003 A 
ATOM      6  C6  DEN d   1       0.091  -3.256   3.093  0.00  0.00     0.001 A 
ATOM      7  C7  DEN d   1       0.479  -2.192   2.323  0.00  0.00     0.017 A 
ATOM      8  C8  DEN d   1      -0.410  -1.138   2.157  0.00  0.00    -0.094 A 
ATOM      9  C9  DEN d   1      -1.633  -1.129   2.805  0.00  0.00    -0.072 A 
ENDROOT
TORSDOF 0
ENDMDL
