MODEL 1
REMARK minimizedAffinity -3.79552388
REMARK minimizedRMSD -1
REMARK  0 active torsions:
REMARK  status: ('A' for Active; 'I' for Inactive)
ROOT
ATOM      1  C1  DEN d   1       3.497  -2.980   0.957  0.00  0.00     0.130 A 
ATOM      2  C2  DEN d   1       3.885  -3.832   2.078  0.00  0.00    -0.031 A 
ATOM      3  C3  DEN d   1       2.917  -3.616   3.172  0.00  0.00     0.027 A 
ATOM      4  C4  DEN d   1       0.864  -2.057   3.238  0.00  0.00     0.027 A 
ATOM      5  C5  DEN d   1       0.137  -1.127   2.527  0.00  0.00    -0.003 A 
ATOM      6  C6  DEN d   1       0.496  -0.728   1.267  0.00  0.00     0.001 A 
ATOM      7  C7  DEN d   1       1.586  -1.294   0.660  0.00  0.00     0.017 A 
ATOM      8  C8  DEN d   1       2.328  -2.227   1.373  0.00  0.00    -0.094 A 
ATOM      9  C9  DEN d   1       1.942  -2.626   2.641  0.00  0.00    -0.072 A 
ENDROOT
TORSDOF 0
ENDMDL
