MODEL 1
REMARK minimizedAffinity 2.83458376
REMARK minimizedRMSD -1
REMARK  0 active torsions:
REMARK  status: ('A' for Active; 'I' for Inactive)
ROOT
ATOM      1  C1  DEN d   1       2.365  -1.376   0.766  0.00  0.00     0.130 A 
ATOM      2  C2  DEN d   1       1.989  -0.016   0.388  0.00  0.00    -0.031 A 
ATOM      3  C3  DEN d   1       0.684   0.287   1.008  0.00  0.00     0.027 A 
ATOM      4  C4  DEN d   1      -0.781  -1.208   2.516  0.00  0.00     0.027 A 
ATOM      5  C5  DEN d   1      -0.885  -2.448   3.106  0.00  0.00    -0.003 A 
ATOM      6  C6  DEN d   1       0.062  -3.421   2.931  0.00  0.00     0.001 A 
ATOM      7  C7  DEN d   1       1.179  -3.155   2.184  0.00  0.00     0.017 A 
ATOM      8  C8  DEN d   1       1.287  -1.910   1.580  0.00  0.00    -0.094 A 
ATOM      9  C9  DEN d   1       0.325  -0.935   1.778  0.00  0.00    -0.072 A 
ENDROOT
TORSDOF 0
ENDMDL
