MODEL 1
REMARK minimizedAffinity 16.4327202
REMARK minimizedRMSD -1
REMARK  0 active torsions:
REMARK  status: ('A' for Active; 'I' for Inactive)
ROOT
ATOM      1  C1  DEN d   1       5.611  -2.325   4.657  0.00  0.00     0.130 A 
ATOM      2  C2  DEN d   1       5.125  -2.630   6.000  0.00  0.00    -0.031 A 
ATOM      3  C3  DEN d   1       4.507  -3.971   5.968  0.00  0.00     0.027 A 
ATOM      4  C4  DEN d   1       4.262  -5.598   3.982  0.00  0.00     0.027 A 
ATOM      5  C5  DEN d   1       4.511  -5.775   2.639  0.00  0.00    -0.003 A 
ATOM      6  C6  DEN d   1       5.108  -4.809   1.873  0.00  0.00     0.001 A 
ATOM      7  C7  DEN d   1       5.518  -3.639   2.455  0.00  0.00     0.017 A 
ATOM      8  C8  DEN d   1       5.264  -3.450   3.807  0.00  0.00    -0.094 A 
ATOM      9  C9  DEN d   1       4.670  -4.443   4.567  0.00  0.00    -0.072 A 
ENDROOT
TORSDOF 0
ENDMDL
