MODEL 1
REMARK minimizedAffinity -0.983298779
REMARK minimizedRMSD -1
REMARK  0 active torsions:
REMARK  status: ('A' for Active; 'I' for Inactive)
ROOT
ATOM      1  C1  DEN d   1      -0.477  -0.580   1.837  0.00  0.00     0.130 A 
ATOM      2  C2  DEN d   1      -1.862  -0.343   2.234  0.00  0.00    -0.031 A 
ATOM      3  C3  DEN d   1      -2.651  -0.095   1.011  0.00  0.00     0.027 A 
ATOM      4  C4  DEN d   1      -1.868  -0.059  -1.446  0.00  0.00     0.027 A 
ATOM      5  C5  DEN d   1      -0.780  -0.193  -2.280  0.00  0.00    -0.003 A 
ATOM      6  C6  DEN d   1       0.481  -0.430  -1.801  0.00  0.00     0.001 A 
ATOM      7  C7  DEN d   1       0.678  -0.585  -0.454  0.00  0.00     0.017 A 
ATOM      8  C8  DEN d   1      -0.413  -0.444   0.393  0.00  0.00    -0.094 A 
ATOM      9  C9  DEN d   1      -1.682  -0.217  -0.111  0.00  0.00    -0.072 A 
ENDROOT
TORSDOF 0
ENDMDL
