MODEL 1
REMARK minimizedAffinity -0.624577224
REMARK minimizedRMSD -1
REMARK  0 active torsions:
REMARK  status: ('A' for Active; 'I' for Inactive)
ROOT
ATOM      1  C1  DEN d   1       2.290  -3.130   0.435  0.00  0.00     0.130 A 
ATOM      2  C2  DEN d   1       2.637  -4.281   1.263  0.00  0.00    -0.031 A 
ATOM      3  C3  DEN d   1       1.784  -4.250   2.469  0.00  0.00     0.027 A 
ATOM      4  C4  DEN d   1      -0.032  -2.541   3.128  0.00  0.00     0.027 A 
ATOM      5  C5  DEN d   1      -0.675  -1.384   2.748  0.00  0.00    -0.003 A 
ATOM      6  C6  DEN d   1      -0.354  -0.714   1.597  0.00  0.00     0.001 A 
ATOM      7  C7  DEN d   1       0.606  -1.221   0.762  0.00  0.00     0.017 A 
ATOM      8  C8  DEN d   1       1.264  -2.384   1.142  0.00  0.00    -0.094 A 
ATOM      9  C9  DEN d   1       0.916  -3.053   2.303  0.00  0.00    -0.072 A 
ENDROOT
TORSDOF 0
ENDMDL
