MODEL 1
REMARK minimizedAffinity -0.241213307
REMARK minimizedRMSD -1
REMARK  1 active torsions:
REMARK  status: ('A' for Active; 'I' for Inactive)
REMARK    1  A    between atoms: N_2  and  C1_3 
ROOT
ATOM      1  C1  UNL d   1       3.278  -4.758  -2.403  0.00  0.00     0.143 A 
ATOM      2  C2  UNL d   1       4.218  -4.943  -1.384  0.00  0.00    -0.057 A 
ATOM      3  C3  UNL d   1       4.223  -4.130  -0.245  0.00  0.00     0.033 A 
ATOM      4  C4  UNL d   1       3.302  -3.095  -0.117  0.00  0.00    -0.042 A 
ATOM      5  C5  UNL d   1       2.374  -2.877  -1.129  0.00  0.00     0.033 A 
ATOM      6  C6  UNL d   1       2.370  -3.696  -2.262  0.00  0.00    -0.057 A 
ENDROOT
BRANCH   1   7
ATOM      7  N   UNL d   1       3.283  -5.470  -3.606  0.00  0.00    -0.732 N 
ATOM      8  C   UNL d   1       2.452  -5.051  -4.714  0.00  0.00     0.284 C 
ATOM      9  H3  UNL d   1       4.217  -5.768  -3.876  0.00  0.00     0.395 HD
ENDBRANCH   1   7
TORSDOF 1
ENDMDL
