MODEL 1
REMARK minimizedAffinity 1.59410143
REMARK minimizedRMSD -1
REMARK  1 active torsions:
REMARK  status: ('A' for Active; 'I' for Inactive)
REMARK    1  A    between atoms: N_2  and  C1_3 
ROOT
ATOM      1  C1  UNL d   1       2.058  -3.217  -1.230  0.00  0.00     0.143 A 
ATOM      2  C2  UNL d   1       1.449  -2.609  -2.334  0.00  0.00    -0.057 A 
ATOM      3  C3  UNL d   1       1.751  -3.010  -3.641  0.00  0.00     0.033 A 
ATOM      4  C4  UNL d   1       2.692  -4.008  -3.869  0.00  0.00    -0.042 A 
ATOM      5  C5  UNL d   1       3.328  -4.609  -2.788  0.00  0.00     0.033 A 
ATOM      6  C6  UNL d   1       3.017  -4.209  -1.485  0.00  0.00    -0.057 A 
ENDROOT
BRANCH   1   7
ATOM      7  N   UNL d   1       1.873  -2.796   0.089  0.00  0.00    -0.732 N 
ATOM      8  C   UNL d   1       1.444  -1.444   0.379  0.00  0.00     0.284 C 
ATOM      9  H3  UNL d   1       1.426  -3.506   0.664  0.00  0.00     0.395 HD
ENDBRANCH   1   7
TORSDOF 1
ENDMDL
