MODEL 1
REMARK minimizedAffinity 1.11741805
REMARK minimizedRMSD -1
REMARK  1 active torsions:
REMARK  status: ('A' for Active; 'I' for Inactive)
REMARK    1  A    between atoms: N_2  and  C1_3 
ROOT
ATOM      1  C1  UNL d   1      -4.688  -2.440   3.360  0.00  0.00     0.143 A 
ATOM      2  C2  UNL d   1      -3.876  -3.345   4.053  0.00  0.00    -0.057 A 
ATOM      3  C3  UNL d   1      -4.098  -4.725   3.978  0.00  0.00     0.033 A 
ATOM      4  C4  UNL d   1      -5.158  -5.225   3.229  0.00  0.00    -0.042 A 
ATOM      5  C5  UNL d   1      -5.993  -4.344   2.552  0.00  0.00     0.033 A 
ATOM      6  C6  UNL d   1      -5.762  -2.967   2.625  0.00  0.00    -0.057 A 
ENDROOT
BRANCH   1   7
ATOM      7  N   UNL d   1      -4.578  -1.052   3.473  0.00  0.00    -0.732 N 
ATOM      8  C   UNL d   1      -3.620  -0.321   2.673  0.00  0.00     0.284 C 
ATOM      9  H3  UNL d   1      -5.484  -0.597   3.555  0.00  0.00     0.395 HD
ENDBRANCH   1   7
TORSDOF 1
ENDMDL
