MODEL 1
REMARK minimizedAffinity -1.16869009
REMARK minimizedRMSD -1
REMARK  1 active torsions:
REMARK  status: ('A' for Active; 'I' for Inactive)
REMARK    1  A    between atoms: N_2  and  C1_3 
ROOT
ATOM      1  C1  UNL d   1       2.947  -3.820  -1.580  0.00  0.00     0.143 A 
ATOM      2  C2  UNL d   1       1.933  -2.934  -1.957  0.00  0.00    -0.057 A 
ATOM      3  C3  UNL d   1       1.755  -2.561  -3.295  0.00  0.00     0.033 A 
ATOM      4  C4  UNL d   1       2.610  -3.047  -4.279  0.00  0.00    -0.042 A 
ATOM      5  C5  UNL d   1       3.640  -3.909  -3.923  0.00  0.00     0.033 A 
ATOM      6  C6  UNL d   1       3.809  -4.283  -2.587  0.00  0.00    -0.057 A 
ENDROOT
BRANCH   1   7
ATOM      7  N   UNL d   1       3.237  -4.152  -0.254  0.00  0.00    -0.732 N 
ATOM      8  C   UNL d   1       4.596  -4.094   0.240  0.00  0.00     0.284 C 
ATOM      9  H3  UNL d   1       2.542  -3.793   0.397  0.00  0.00     0.395 HD
ENDBRANCH   1   7
TORSDOF 1
ENDMDL
