MODEL 1
REMARK minimizedAffinity 1.17219913
REMARK minimizedRMSD -1
REMARK  1 active torsions:
REMARK  status: ('A' for Active; 'I' for Inactive)
REMARK    1  A    between atoms: N_2  and  C1_3 
ROOT
ATOM      1  C1  UNL d   1       2.857  -4.003  -1.701  0.00  0.00     0.143 A 
ATOM      2  C2  UNL d   1       2.590  -2.982  -2.619  0.00  0.00    -0.057 A 
ATOM      3  C3  UNL d   1       2.523  -3.240  -3.994  0.00  0.00     0.033 A 
ATOM      4  C4  UNL d   1       2.751  -4.524  -4.478  0.00  0.00    -0.042 A 
ATOM      5  C5  UNL d   1       3.043  -5.550  -3.586  0.00  0.00     0.033 A 
ATOM      6  C6  UNL d   1       3.102  -5.287  -2.214  0.00  0.00    -0.057 A 
ENDROOT
BRANCH   1   7
ATOM      7  N   UNL d   1       3.034  -3.791  -0.332  0.00  0.00    -0.732 N 
ATOM      8  C   UNL d   1       4.302  -4.083   0.302  0.00  0.00     0.284 C 
ATOM      9  H3  UNL d   1       2.598  -2.928  -0.013  0.00  0.00     0.395 HD
ENDBRANCH   1   7
TORSDOF 1
ENDMDL
