MODEL 1
REMARK minimizedAffinity 5.69591808
REMARK minimizedRMSD -1
REMARK  1 active torsions:
REMARK  status: ('A' for Active; 'I' for Inactive)
REMARK    1  A    between atoms: N_2  and  C1_3 
ROOT
ATOM      1  C1  UNL d   1      -1.232   1.501   4.741  0.00  0.00     0.143 A 
ATOM      2  C2  UNL d   1      -2.025   1.490   3.589  0.00  0.00    -0.057 A 
ATOM      3  C3  UNL d   1      -3.373   1.868   3.631  0.00  0.00     0.033 A 
ATOM      4  C4  UNL d   1      -3.961   2.237   4.837  0.00  0.00    -0.042 A 
ATOM      5  C5  UNL d   1      -3.198   2.230   5.999  0.00  0.00     0.033 A 
ATOM      6  C6  UNL d   1      -1.851   1.858   5.949  0.00  0.00    -0.057 A 
ENDROOT
BRANCH   1   7
ATOM      7  N   UNL d   1       0.087   1.042   4.782  0.00  0.00    -0.732 N 
ATOM      8  C   UNL d   1       0.862   1.136   6.000  0.00  0.00     0.284 C 
ATOM      9  H3  UNL d   1       0.209   0.167   4.278  0.00  0.00     0.395 HD
ENDBRANCH   1   7
TORSDOF 1
ENDMDL
