MODEL 1
REMARK minimizedAffinity 7.01888418
REMARK minimizedRMSD -1
REMARK  1 active torsions:
REMARK  status: ('A' for Active; 'I' for Inactive)
REMARK    1  A    between atoms: N_2  and  C1_3 
ROOT
ATOM      1  C1  UNL d   1       3.934  -4.857  -2.036  0.00  0.00     0.143 A 
ATOM      2  C2  UNL d   1       2.796  -4.105  -1.725  0.00  0.00    -0.057 A 
ATOM      3  C3  UNL d   1       1.978  -3.576  -2.732  0.00  0.00     0.033 A 
ATOM      4  C4  UNL d   1       2.302  -3.766  -4.071  0.00  0.00    -0.042 A 
ATOM      5  C5  UNL d   1       3.443  -4.489  -4.403  0.00  0.00     0.033 A 
ATOM      6  C6  UNL d   1       4.251  -5.021  -3.393  0.00  0.00    -0.057 A 
ENDROOT
BRANCH   1   7
ATOM      7  N   UNL d   1       4.840  -5.327  -1.082  0.00  0.00    -0.732 N 
ATOM      8  C   UNL d   1       5.192  -4.514   0.063  0.00  0.00     0.284 C 
ATOM      9  H3  UNL d   1       4.702  -6.311  -0.866  0.00  0.00     0.395 HD
ENDBRANCH   1   7
TORSDOF 1
ENDMDL
