MODEL 1
REMARK minimizedAffinity 10.7157717
REMARK minimizedRMSD -1
REMARK  1 active torsions:
REMARK  status: ('A' for Active; 'I' for Inactive)
REMARK    1  A    between atoms: N_2  and  C1_3 
ROOT
ATOM      1  C1  UNL d   1       3.467  -4.052  -1.264  0.00  0.00     0.143 A 
ATOM      2  C2  UNL d   1       2.307  -3.467  -1.783  0.00  0.00    -0.057 A 
ATOM      3  C3  UNL d   1       2.096  -3.374  -3.164  0.00  0.00     0.033 A 
ATOM      4  C4  UNL d   1       3.059  -3.839  -4.054  0.00  0.00    -0.042 A 
ATOM      5  C5  UNL d   1       4.231  -4.401  -3.560  0.00  0.00     0.033 A 
ATOM      6  C6  UNL d   1       4.433  -4.498  -2.180  0.00  0.00    -0.057 A 
ENDROOT
BRANCH   1   7
ATOM      7  N   UNL d   1       3.779  -4.085   0.097  0.00  0.00    -0.732 N 
ATOM      8  C   UNL d   1       5.111  -3.755   0.556  0.00  0.00     0.284 C 
ATOM      9  H3  UNL d   1       3.034  -3.704   0.676  0.00  0.00     0.395 HD
ENDBRANCH   1   7
TORSDOF 1
ENDMDL
