MODEL 1
REMARK minimizedAffinity 11.7522039
REMARK minimizedRMSD -1
REMARK  1 active torsions:
REMARK  status: ('A' for Active; 'I' for Inactive)
REMARK    1  A    between atoms: N_2  and  C1_3 
ROOT
ATOM      1  C1  UNL d   1      -5.024  -1.988   2.875  0.00  0.00     0.143 A 
ATOM      2  C2  UNL d   1      -4.473  -0.720   2.658  0.00  0.00    -0.057 A 
ATOM      3  C3  UNL d   1      -3.574  -0.154   3.570  0.00  0.00     0.033 A 
ATOM      4  C4  UNL d   1      -3.232  -0.836   4.733  0.00  0.00    -0.042 A 
ATOM      5  C5  UNL d   1      -3.787  -2.086   4.982  0.00  0.00     0.033 A 
ATOM      6  C6  UNL d   1      -4.679  -2.649   4.064  0.00  0.00    -0.057 A 
ENDROOT
BRANCH   1   7
ATOM      7  N   UNL d   1      -5.999  -2.562   2.055  0.00  0.00    -0.732 N 
ATOM      8  C   UNL d   1      -5.997  -3.986   1.795  0.00  0.00     0.284 C 
ATOM      9  H3  UNL d   1      -6.923  -2.170   2.217  0.00  0.00     0.395 HD
ENDBRANCH   1   7
TORSDOF 1
ENDMDL
