MODEL 1
REMARK minimizedAffinity 12.1342278
REMARK minimizedRMSD -1
REMARK  1 active torsions:
REMARK  status: ('A' for Active; 'I' for Inactive)
REMARK    1  A    between atoms: N_2  and  C1_3 
ROOT
ATOM      1  C1  UNL d   1      -3.685   3.826  -5.462  0.00  0.00     0.143 A 
ATOM      2  C2  UNL d   1      -3.500   2.544  -5.989  0.00  0.00    -0.057 A 
ATOM      3  C3  UNL d   1      -2.521   1.683  -5.478  0.00  0.00     0.033 A 
ATOM      4  C4  UNL d   1      -1.688   2.102  -4.447  0.00  0.00    -0.042 A 
ATOM      5  C5  UNL d   1      -1.836   3.382  -3.924  0.00  0.00     0.033 A 
ATOM      6  C6  UNL d   1      -2.820   4.234  -4.434  0.00  0.00    -0.057 A 
ENDROOT
BRANCH   1   7
ATOM      7  N   UNL d   1      -4.574   4.764  -5.992  0.00  0.00    -0.732 N 
ATOM      8  C   UNL d   1      -5.999   4.514  -5.987  0.00  0.00     0.284 C 
ATOM      9  H3  UNL d   1      -4.319   5.720  -5.753  0.00  0.00     0.395 HD
ENDBRANCH   1   7
TORSDOF 1
ENDMDL
