MODEL 1
REMARK minimizedAffinity 14.2193069
REMARK minimizedRMSD -1
REMARK  1 active torsions:
REMARK  status: ('A' for Active; 'I' for Inactive)
REMARK    1  A    between atoms: N_2  and  C1_3 
ROOT
ATOM      1  C1  UNL d   1      -1.111   1.837   3.154  0.00  0.00     0.143 A 
ATOM      2  C2  UNL d   1      -0.617   2.172   4.419  0.00  0.00    -0.057 A 
ATOM      3  C3  UNL d   1       0.735   1.998   4.740  0.00  0.00     0.033 A 
ATOM      4  C4  UNL d   1       1.613   1.457   3.807  0.00  0.00    -0.042 A 
ATOM      5  C5  UNL d   1       1.139   1.093   2.551  0.00  0.00     0.033 A 
ATOM      6  C6  UNL d   1      -0.211   1.275   2.235  0.00  0.00    -0.057 A 
ENDROOT
BRANCH   1   7
ATOM      7  N   UNL d   1      -2.463   1.894   2.807  0.00  0.00    -0.732 N 
ATOM      8  C   UNL d   1      -3.455   1.184   3.587  0.00  0.00     0.284 C 
ATOM      9  H3  UNL d   1      -2.751   2.826   2.518  0.00  0.00     0.395 HD
ENDBRANCH   1   7
TORSDOF 1
ENDMDL
