MODEL 1
REMARK minimizedAffinity 12.0263329
REMARK minimizedRMSD -1
REMARK  1 active torsions:
REMARK  status: ('A' for Active; 'I' for Inactive)
REMARK    1  A    between atoms: N_2  and  C1_3 
ROOT
ATOM      1  C1  UNL d   1      -3.777   1.615   3.918  0.00  0.00     0.143 A 
ATOM      2  C2  UNL d   1      -3.373   2.112   5.161  0.00  0.00    -0.057 A 
ATOM      3  C3  UNL d   1      -4.269   2.788   5.999  0.00  0.00     0.033 A 
ATOM      4  C4  UNL d   1      -5.582   3.003   5.594  0.00  0.00    -0.042 A 
ATOM      5  C5  UNL d   1      -5.999   2.540   4.351  0.00  0.00     0.033 A 
ATOM      6  C6  UNL d   1      -5.101   1.860   3.522  0.00  0.00    -0.057 A 
ENDROOT
BRANCH   1   7
ATOM      7  N   UNL d   1      -2.909   1.022   2.998  0.00  0.00    -0.732 N 
ATOM      8  C   UNL d   1      -1.518   1.417   2.937  0.00  0.00     0.284 C 
ATOM      9  H3  UNL d   1      -3.061   0.020   2.911  0.00  0.00     0.395 HD
ENDBRANCH   1   7
TORSDOF 1
ENDMDL
