MODEL 1
REMARK minimizedAffinity 14.7353334
REMARK minimizedRMSD -1
REMARK  1 active torsions:
REMARK  status: ('A' for Active; 'I' for Inactive)
REMARK    1  A    between atoms: N_2  and  C1_3 
ROOT
ATOM      1  C1  UNL d   1      -4.686   0.948   4.339  0.00  0.00     0.143 A 
ATOM      2  C2  UNL d   1      -5.733   1.828   4.046  0.00  0.00    -0.057 A 
ATOM      3  C3  UNL d   1      -5.839   3.069   4.686  0.00  0.00     0.033 A 
ATOM      4  C4  UNL d   1      -4.912   3.440   5.654  0.00  0.00    -0.042 A 
ATOM      5  C5  UNL d   1      -3.877   2.570   5.979  0.00  0.00     0.033 A 
ATOM      6  C6  UNL d   1      -3.773   1.335   5.332  0.00  0.00    -0.057 A 
ENDROOT
BRANCH   1   7
ATOM      7  N   UNL d   1      -4.582  -0.341   3.809  0.00  0.00    -0.732 N 
ATOM      8  C   UNL d   1      -4.722  -1.502   4.661  0.00  0.00     0.284 C 
ATOM      9  H3  UNL d   1      -5.046  -0.429   2.907  0.00  0.00     0.395 HD
ENDBRANCH   1   7
TORSDOF 1
ENDMDL
