MODEL 1
REMARK minimizedAffinity 9.95739937
REMARK minimizedRMSD -1
REMARK  1 active torsions:
REMARK  status: ('A' for Active; 'I' for Inactive)
REMARK    1  A    between atoms: N_2  and  C1_3 
ROOT
ATOM      1  C1  UNL d   1      -0.707  -3.876  -3.255  0.00  0.00     0.143 A 
ATOM      2  C2  UNL d   1      -1.918  -3.184  -3.144  0.00  0.00    -0.057 A 
ATOM      3  C3  UNL d   1      -2.820  -3.124  -4.213  0.00  0.00     0.033 A 
ATOM      4  C4  UNL d   1      -2.513  -3.733  -5.425  0.00  0.00    -0.042 A 
ATOM      5  C5  UNL d   1      -1.305  -4.406  -5.566  0.00  0.00     0.033 A 
ATOM      6  C6  UNL d   1      -0.411  -4.468  -4.493  0.00  0.00    -0.057 A 
ENDROOT
BRANCH   1   7
ATOM      7  N   UNL d   1       0.275  -3.889  -2.262  0.00  0.00    -0.732 N 
ATOM      8  C   UNL d   1       1.048  -2.700  -1.973  0.00  0.00     0.284 C 
ATOM      9  H3  UNL d   1      -0.015  -4.407  -1.435  0.00  0.00     0.395 HD
ENDBRANCH   1   7
TORSDOF 1
ENDMDL
