MODEL 1
REMARK minimizedAffinity 6.11399078
REMARK minimizedRMSD -1
REMARK  1 active torsions:
REMARK  status: ('A' for Active; 'I' for Inactive)
REMARK    1  A    between atoms: N_2  and  C1_3 
ROOT
ATOM      1  C1  UNL d   1      -0.035  -0.386   2.108  0.00  0.00     0.143 A 
ATOM      2  C2  UNL d   1       0.095  -0.283   0.719  0.00  0.00    -0.057 A 
ATOM      3  C3  UNL d   1      -0.987   0.093  -0.087  0.00  0.00     0.033 A 
ATOM      4  C4  UNL d   1      -2.230   0.345   0.483  0.00  0.00    -0.042 A 
ATOM      5  C5  UNL d   1      -2.390   0.225   1.859  0.00  0.00     0.033 A 
ATOM      6  C6  UNL d   1      -1.304  -0.144   2.658  0.00  0.00    -0.057 A 
ENDROOT
BRANCH   1   7
ATOM      7  N   UNL d   1       0.976  -0.850   2.952  0.00  0.00    -0.732 N 
ATOM      8  C   UNL d   1       0.664  -1.334   4.280  0.00  0.00     0.284 C 
ATOM      9  H3  UNL d   1       1.669  -1.409   2.458  0.00  0.00     0.395 HD
ENDBRANCH   1   7
TORSDOF 1
ENDMDL
