MODEL 1
REMARK minimizedAffinity 2.50917983
REMARK minimizedRMSD -1
REMARK  1 active torsions:
REMARK  status: ('A' for Active; 'I' for Inactive)
REMARK    1  A    between atoms: N_2  and  C1_3 
ROOT
ATOM      1  C1  UNL d   1       4.126   3.766   2.570  0.00  0.00     0.143 A 
ATOM      2  C2  UNL d   1       5.226   4.153   3.344  0.00  0.00    -0.057 A 
ATOM      3  C3  UNL d   1       6.000   5.267   2.999  0.00  0.00     0.033 A 
ATOM      4  C4  UNL d   1       5.705   6.000   1.854  0.00  0.00    -0.042 A 
ATOM      5  C5  UNL d   1       4.632   5.618   1.056  0.00  0.00     0.033 A 
ATOM      6  C6  UNL d   1       3.858   4.508   1.409  0.00  0.00    -0.057 A 
ENDROOT
BRANCH   1   7
ATOM      7  N   UNL d   1       3.378   2.610   2.805  0.00  0.00    -0.732 N 
ATOM      8  C   UNL d   1       2.286   2.248   1.927  0.00  0.00     0.284 C 
ATOM      9  H3  UNL d   1       3.956   1.825   3.095  0.00  0.00     0.395 HD
ENDBRANCH   1   7
TORSDOF 1
ENDMDL
