MODEL 1
REMARK minimizedAffinity -0.632598996
REMARK minimizedRMSD -1
REMARK  1 active torsions:
REMARK  status: ('A' for Active; 'I' for Inactive)
REMARK    1  A    between atoms: N_2  and  C1_3 
ROOT
ATOM      1  C1  UNL d   1      -1.668  -0.393   1.646  0.00  0.00     0.143 A 
ATOM      2  C2  UNL d   1      -2.201  -0.622   0.373  0.00  0.00    -0.057 A 
ATOM      3  C3  UNL d   1      -1.373  -0.742  -0.750  0.00  0.00     0.033 A 
ATOM      4  C4  UNL d   1       0.005  -0.604  -0.623  0.00  0.00    -0.042 A 
ATOM      5  C5  UNL d   1       0.555  -0.351   0.629  0.00  0.00     0.033 A 
ATOM      6  C6  UNL d   1      -0.277  -0.239   1.747  0.00  0.00    -0.057 A 
ENDROOT
BRANCH   1   7
ATOM      7  N   UNL d   1      -2.445  -0.167   2.785  0.00  0.00    -0.732 N 
ATOM      8  C   UNL d   1      -2.212  -0.921   3.998  0.00  0.00     0.284 C 
ATOM      9  H3  UNL d   1      -2.630   0.822   2.939  0.00  0.00     0.395 HD
ENDBRANCH   1   7
TORSDOF 1
ENDMDL
