MODEL 1
REMARK minimizedAffinity -0.53810674
REMARK minimizedRMSD -1
REMARK  1 active torsions:
REMARK  status: ('A' for Active; 'I' for Inactive)
REMARK    1  A    between atoms: N_2  and  C1_3 
ROOT
ATOM      1  C1  UNL d   1      -0.282  -0.292   2.248  0.00  0.00     0.143 A 
ATOM      2  C2  UNL d   1      -1.567  -0.250   2.801  0.00  0.00    -0.057 A 
ATOM      3  C3  UNL d   1      -1.826  -0.765   4.077  0.00  0.00     0.033 A 
ATOM      4  C4  UNL d   1      -0.807  -1.360   4.813  0.00  0.00    -0.042 A 
ATOM      5  C5  UNL d   1       0.472  -1.436   4.273  0.00  0.00     0.033 A 
ATOM      6  C6  UNL d   1       0.726  -0.914   3.002  0.00  0.00    -0.057 A 
ENDROOT
BRANCH   1   7
ATOM      7  N   UNL d   1       0.018   0.114   0.946  0.00  0.00    -0.732 N 
ATOM      8  C   UNL d   1       0.027  -0.842  -0.141  0.00  0.00     0.284 C 
ATOM      9  H3  UNL d   1      -0.407   1.008   0.710  0.00  0.00     0.395 HD
ENDBRANCH   1   7
TORSDOF 1
ENDMDL
