MODEL 1
REMARK minimizedAffinity -0.329064965
REMARK minimizedRMSD -1
REMARK  1 active torsions:
REMARK  status: ('A' for Active; 'I' for Inactive)
REMARK    1  A    between atoms: N_2  and  C1_3 
ROOT
ATOM      1  C1  UNL d   1      -2.190  -0.191   1.654  0.00  0.00     0.143 A 
ATOM      2  C2  UNL d   1      -0.826   0.056   1.466  0.00  0.00    -0.057 A 
ATOM      3  C3  UNL d   1      -0.223  -0.115   0.214  0.00  0.00     0.033 A 
ATOM      4  C4  UNL d   1      -0.970  -0.565  -0.869  0.00  0.00    -0.042 A 
ATOM      5  C5  UNL d   1      -2.323  -0.840  -0.700  0.00  0.00     0.033 A 
ATOM      6  C6  UNL d   1      -2.921  -0.661   0.551  0.00  0.00    -0.057 A 
ENDROOT
BRANCH   1   7
ATOM      7  N   UNL d   1      -2.827  -0.134   2.896  0.00  0.00    -0.732 N 
ATOM      8  C   UNL d   1      -3.143  -1.348   3.618  0.00  0.00     0.284 C 
ATOM      9  H3  UNL d   1      -2.470   0.617   3.482  0.00  0.00     0.395 HD
ENDBRANCH   1   7
TORSDOF 1
ENDMDL
