MODEL 1
REMARK minimizedAffinity 2.01775599
REMARK minimizedRMSD -1
REMARK  1 active torsions:
REMARK  status: ('A' for Active; 'I' for Inactive)
REMARK    1  A    between atoms: N_2  and  C1_3 
ROOT
ATOM      1  C1  UNL d   1      -0.440  -1.052   2.839  0.00  0.00     0.143 A 
ATOM      2  C2  UNL d   1      -1.797  -0.713   2.825  0.00  0.00    -0.057 A 
ATOM      3  C3  UNL d   1      -2.457  -0.405   1.629  0.00  0.00     0.033 A 
ATOM      4  C4  UNL d   1      -1.760  -0.402   0.425  0.00  0.00    -0.042 A 
ATOM      5  C5  UNL d   1      -0.405  -0.712   0.418  0.00  0.00     0.033 A 
ATOM      6  C6  UNL d   1       0.246  -1.025   1.615  0.00  0.00    -0.057 A 
ENDROOT
BRANCH   1   7
ATOM      7  N   UNL d   1       0.295  -1.272   4.007  0.00  0.00    -0.732 N 
ATOM      8  C   UNL d   1       0.237  -2.549   4.684  0.00  0.00     0.284 C 
ATOM      9  H3  UNL d   1       1.227  -0.867   3.961  0.00  0.00     0.395 HD
ENDBRANCH   1   7
TORSDOF 1
ENDMDL
