MODEL 1
REMARK minimizedAffinity -1.0180949
REMARK minimizedRMSD -1
REMARK  1 active torsions:
REMARK  status: ('A' for Active; 'I' for Inactive)
REMARK    1  A    between atoms: N_2  and  C1_3 
ROOT
ATOM      1  C1  UNL d   1      -0.106  -0.769   1.387  0.00  0.00     0.143 A 
ATOM      2  C2  UNL d   1      -0.944  -0.367   2.432  0.00  0.00    -0.057 A 
ATOM      3  C3  UNL d   1      -2.271   0.011   2.195  0.00  0.00     0.033 A 
ATOM      4  C4  UNL d   1      -2.776   0.022   0.899  0.00  0.00    -0.042 A 
ATOM      5  C5  UNL d   1      -1.954  -0.350  -0.159  0.00  0.00     0.033 A 
ATOM      6  C6  UNL d   1      -0.632  -0.734   0.086  0.00  0.00    -0.057 A 
ENDROOT
BRANCH   1   7
ATOM      7  N   UNL d   1       1.250  -1.062   1.546  0.00  0.00    -0.732 N 
ATOM      8  C   UNL d   1       2.261  -0.083   1.207  0.00  0.00     0.284 C 
ATOM      9  H3  UNL d   1       1.439  -1.574   2.405  0.00  0.00     0.395 HD
ENDBRANCH   1   7
TORSDOF 1
ENDMDL
