MODEL 1
REMARK minimizedAffinity -1.60988116
REMARK minimizedRMSD -1
REMARK  1 active torsions:
REMARK  status: ('A' for Active; 'I' for Inactive)
REMARK    1  A    between atoms: N_2  and  C1_3 
ROOT
ATOM      1  C1  UNL d   1       3.363   5.296   2.634  0.00  0.00     0.143 A 
ATOM      2  C2  UNL d   1       3.308   3.908   2.804  0.00  0.00    -0.057 A 
ATOM      3  C3  UNL d   1       4.153   3.253   3.708  0.00  0.00     0.033 A 
ATOM      4  C4  UNL d   1       5.091   3.973   4.440  0.00  0.00    -0.042 A 
ATOM      5  C5  UNL d   1       5.180   5.350   4.270  0.00  0.00     0.033 A 
ATOM      6  C6  UNL d   1       4.329   6.000   3.370  0.00  0.00    -0.057 A 
ENDROOT
BRANCH   1   7
ATOM      7  N   UNL d   1       2.619   5.993   1.680  0.00  0.00    -0.732 N 
ATOM      8  C   UNL d   1       3.023   6.000   0.290  0.00  0.00     0.284 C 
ATOM      9  H3  UNL d   1       1.616   5.893   1.820  0.00  0.00     0.395 HD
ENDBRANCH   1   7
TORSDOF 1
ENDMDL
