MODEL 1
REMARK minimizedAffinity 2.69777322
REMARK minimizedRMSD -1
REMARK  0 active torsions:
REMARK  status: ('A' for Active; 'I' for Inactive)
ROOT
ATOM      1  C1  BNZ d   1       3.163  -1.869   5.010  0.00  0.00     0.000 A 
ATOM      2  C2  BNZ d   1       4.114  -1.905   5.996  0.00  0.00     0.000 A 
ATOM      3  C3  BNZ d   1       5.083  -2.869   5.998  0.00  0.00     0.000 A 
ATOM      4  C4  BNZ d   1       5.078  -3.817   5.039  0.00  0.00     0.000 A 
ATOM      5  C5  BNZ d   1       4.121  -3.800   4.044  0.00  0.00     0.000 A 
ATOM      6  C6  BNZ d   1       3.170  -2.806   4.023  0.00  0.00     0.000 A 
ENDROOT
TORSDOF 0
ENDMDL
