MODEL 1
REMARK minimizedAffinity 7.75675344
REMARK minimizedRMSD -1
REMARK  0 active torsions:
REMARK  status: ('A' for Active; 'I' for Inactive)
ROOT
ATOM      1  C1  BNZ d   1      -0.756  -3.596  -2.762  0.00  0.00     0.000 A 
ATOM      2  C2  BNZ d   1      -0.268  -4.834  -2.438  0.00  0.00     0.000 A 
ATOM      3  C3  BNZ d   1       0.586  -4.995  -1.384  0.00  0.00     0.000 A 
ATOM      4  C4  BNZ d   1       0.983  -3.915  -0.681  0.00  0.00     0.000 A 
ATOM      5  C5  BNZ d   1       0.508  -2.659  -1.001  0.00  0.00     0.000 A 
ATOM      6  C6  BNZ d   1      -0.382  -2.506  -2.039  0.00  0.00     0.000 A 
ENDROOT
TORSDOF 0
ENDMDL
