MODEL 1
REMARK minimizedAffinity 2.97275209
REMARK minimizedRMSD -1
REMARK  0 active torsions:
REMARK  status: ('A' for Active; 'I' for Inactive)
ROOT
ATOM      1  C1  BNZ d   1      -0.814   5.110  -0.120  0.00  0.00     0.000 A 
ATOM      2  C2  BNZ d   1      -1.557   5.998  -0.852  0.00  0.00     0.000 A 
ATOM      3  C3  BNZ d   1      -1.500   6.000  -2.217  0.00  0.00     0.000 A 
ATOM      4  C4  BNZ d   1      -0.672   5.142  -2.848  0.00  0.00     0.000 A 
ATOM      5  C5  BNZ d   1       0.091   4.247  -2.124  0.00  0.00     0.000 A 
ATOM      6  C6  BNZ d   1       0.002   4.222  -0.751  0.00  0.00     0.000 A 
ENDROOT
TORSDOF 0
ENDMDL
