MODEL 1
REMARK minimizedAffinity 3.89128971
REMARK minimizedRMSD -1
REMARK  0 active torsions:
REMARK  status: ('A' for Active; 'I' for Inactive)
ROOT
ATOM      1  C1  BNZ d   1      -1.105   4.870  -2.262  0.00  0.00     0.000 A 
ATOM      2  C2  BNZ d   1      -0.346   3.858  -1.739  0.00  0.00     0.000 A 
ATOM      3  C3  BNZ d   1       0.072   3.896  -0.438  0.00  0.00     0.000 A 
ATOM      4  C4  BNZ d   1      -0.235   4.965   0.326  0.00  0.00     0.000 A 
ATOM      5  C5  BNZ d   1      -0.992   5.998  -0.190  0.00  0.00     0.000 A 
ATOM      6  C6  BNZ d   1      -1.444   5.938  -1.488  0.00  0.00     0.000 A 
ENDROOT
TORSDOF 0
ENDMDL
