MODEL 1
REMARK minimizedAffinity -1.81125033
REMARK minimizedRMSD -1
REMARK  0 active torsions:
REMARK  status: ('A' for Active; 'I' for Inactive)
ROOT
ATOM      1  C1  BNZ d   1      -1.247   5.064  -2.742  0.00  0.00     0.000 A 
ATOM      2  C2  BNZ d   1      -0.369   4.111  -2.300  0.00  0.00     0.000 A 
ATOM      3  C3  BNZ d   1       0.027   4.076  -0.992  0.00  0.00     0.000 A 
ATOM      4  C4  BNZ d   1      -0.424   5.016  -0.138  0.00  0.00     0.000 A 
ATOM      5  C5  BNZ d   1      -1.303   5.990  -0.570  0.00  0.00     0.000 A 
ATOM      6  C6  BNZ d   1      -1.729   5.999  -1.878  0.00  0.00     0.000 A 
ENDROOT
TORSDOF 0
ENDMDL
