MODEL 1
REMARK minimizedAffinity 5.97590542
REMARK minimizedRMSD -1
REMARK  0 active torsions:
REMARK  status: ('A' for Active; 'I' for Inactive)
ROOT
ATOM      1  C1  BNZ d   1      -5.293   2.968  -3.333  0.00  0.00     0.000 A 
ATOM      2  C2  BNZ d   1      -5.634   2.125  -2.309  0.00  0.00     0.000 A 
ATOM      3  C3  BNZ d   1      -5.999   2.619  -1.088  0.00  0.00     0.000 A 
ATOM      4  C4  BNZ d   1      -5.985   3.952  -0.881  0.00  0.00     0.000 A 
ATOM      5  C5  BNZ d   1      -5.635   4.814  -1.900  0.00  0.00     0.000 A 
ATOM      6  C6  BNZ d   1      -5.305   4.315  -3.140  0.00  0.00     0.000 A 
ENDROOT
TORSDOF 0
ENDMDL
