MODEL 1
REMARK minimizedAffinity 2.34234571
REMARK minimizedRMSD -1
REMARK  0 active torsions:
REMARK  status: ('A' for Active; 'I' for Inactive)
ROOT
ATOM      1  C1  BNZ d   1      -4.320   3.081  -3.364  0.00  0.00     0.000 A 
ATOM      2  C2  BNZ d   1      -4.328   3.774  -2.183  0.00  0.00     0.000 A 
ATOM      3  C3  BNZ d   1      -5.183   4.824  -1.993  0.00  0.00     0.000 A 
ATOM      4  C4  BNZ d   1      -6.000   5.203  -2.997  0.00  0.00     0.000 A 
ATOM      5  C5  BNZ d   1      -5.998   4.519  -4.196  0.00  0.00     0.000 A 
ATOM      6  C6  BNZ d   1      -5.163   3.439  -4.370  0.00  0.00     0.000 A 
ENDROOT
TORSDOF 0
ENDMDL
