MODEL 1
REMARK minimizedAffinity 6.3280201
REMARK minimizedRMSD -1
REMARK  0 active torsions:
REMARK  status: ('A' for Active; 'I' for Inactive)
ROOT
ATOM      1  C1  BNZ d   1      -5.493   1.502   5.063  0.00  0.00     0.000 A 
ATOM      2  C2  BNZ d   1      -4.321   1.682   4.379  0.00  0.00     0.000 A 
ATOM      3  C3  BNZ d   1      -3.650   0.617   3.846  0.00  0.00     0.000 A 
ATOM      4  C4  BNZ d   1      -4.130  -0.629   4.034  0.00  0.00     0.000 A 
ATOM      5  C5  BNZ d   1      -5.305  -0.829   4.730  0.00  0.00     0.000 A 
ATOM      6  C6  BNZ d   1      -5.998   0.249   5.230  0.00  0.00     0.000 A 
ENDROOT
TORSDOF 0
ENDMDL
