MODEL 1
REMARK minimizedAffinity 4.05209827
REMARK minimizedRMSD -1
REMARK  0 active torsions:
REMARK  status: ('A' for Active; 'I' for Inactive)
ROOT
ATOM      1  C1  BNZ d   1      -1.382   5.999  -1.875  0.00  0.00     0.000 A 
ATOM      2  C2  BNZ d   1      -0.752   5.996  -0.659  0.00  0.00     0.000 A 
ATOM      3  C3  BNZ d   1      -0.114   4.876  -0.204  0.00  0.00     0.000 A 
ATOM      4  C4  BNZ d   1      -0.141   3.750  -0.946  0.00  0.00     0.000 A 
ATOM      5  C5  BNZ d   1      -0.781   3.734  -2.169  0.00  0.00     0.000 A 
ATOM      6  C6  BNZ d   1      -1.388   4.875  -2.642  0.00  0.00     0.000 A 
ENDROOT
TORSDOF 0
ENDMDL
