MODEL 1
REMARK minimizedAffinity 9.41934967
REMARK minimizedRMSD -1
REMARK  0 active torsions:
REMARK  status: ('A' for Active; 'I' for Inactive)
ROOT
ATOM      1  C1  DEN d   1       4.023   2.052   2.942  0.00  0.00     0.130 A 
ATOM      2  C2  DEN d   1       3.349   3.313   3.240  0.00  0.00    -0.031 A 
ATOM      3  C3  DEN d   1       2.527   3.679   2.070  0.00  0.00     0.027 A 
ATOM      4  C4  DEN d   1       2.229   2.422  -0.162  0.00  0.00     0.027 A 
ATOM      5  C5  DEN d   1       2.608   1.311  -0.884  0.00  0.00    -0.003 A 
ATOM      6  C6  DEN d   1       3.503   0.395  -0.399  0.00  0.00     0.001 A 
ATOM      7  C7  DEN d   1       4.016   0.549   0.862  0.00  0.00     0.017 A 
ATOM      8  C8  DEN d   1       3.645   1.670   1.593  0.00  0.00    -0.094 A 
ATOM      9  C9  DEN d   1       2.729   2.578   1.090  0.00  0.00    -0.072 A 
ENDROOT
TORSDOF 0
ENDMDL
