MODEL 1
REMARK minimizedAffinity 0.450695544
REMARK minimizedRMSD -1
REMARK  0 active torsions:
REMARK  status: ('A' for Active; 'I' for Inactive)
ROOT
ATOM      1  C1  DEN d   1      -0.709  -1.470   4.223  0.00  0.00     0.130 A 
ATOM      2  C2  DEN d   1       0.411  -0.539   4.329  0.00  0.00    -0.031 A 
ATOM      3  C3  DEN d   1       1.528  -1.243   4.990  0.00  0.00     0.027 A 
ATOM      4  C4  DEN d   1       1.633  -3.671   5.852  0.00  0.00     0.027 A 
ATOM      5  C5  DEN d   1       0.924  -4.843   5.996  0.00  0.00    -0.003 A 
ATOM      6  C6  DEN d   1      -0.380  -4.961   5.593  0.00  0.00     0.001 A 
ATOM      7  C7  DEN d   1      -1.002  -3.902   4.985  0.00  0.00     0.017 A 
ATOM      8  C8  DEN d   1      -0.295  -2.715   4.844  0.00  0.00    -0.094 A 
ATOM      9  C9  DEN d   1       1.026  -2.620   5.246  0.00  0.00    -0.072 A 
ENDROOT
TORSDOF 0
ENDMDL
