MODEL 1
REMARK minimizedAffinity -1.41019976
REMARK minimizedRMSD -1
REMARK  0 active torsions:
REMARK  status: ('A' for Active; 'I' for Inactive)
ROOT
ATOM      1  C1  DEN d   1      -2.344   5.808   2.840  0.00  0.00     0.130 A 
ATOM      2  C2  DEN d   1      -2.779   5.598   1.462  0.00  0.00    -0.031 A 
ATOM      3  C3  DEN d   1      -4.253   5.521   1.455  0.00  0.00     0.027 A 
ATOM      4  C4  DEN d   1      -5.897   5.708   3.434  0.00  0.00     0.027 A 
ATOM      5  C5  DEN d   1      -5.997   5.877   4.798  0.00  0.00    -0.003 A 
ATOM      6  C6  DEN d   1      -4.895   5.999   5.602  0.00  0.00     0.001 A 
ATOM      7  C7  DEN d   1      -3.644   6.000   5.043  0.00  0.00     0.017 A 
ATOM      8  C8  DEN d   1      -3.534   5.823   3.670  0.00  0.00    -0.094 A 
ATOM      9  C9  DEN d   1      -4.661   5.714   2.873  0.00  0.00    -0.072 A 
ENDROOT
TORSDOF 0
ENDMDL
