MODEL 1
REMARK minimizedAffinity 7.27166939
REMARK minimizedRMSD -1
REMARK  0 active torsions:
REMARK  status: ('A' for Active; 'I' for Inactive)
ROOT
ATOM      1  C1  DEN d   1       0.035  -4.942   0.056  0.00  0.00     0.130 A 
ATOM      2  C2  DEN d   1      -1.097  -5.030  -0.863  0.00  0.00    -0.031 A 
ATOM      3  C3  DEN d   1      -1.008  -3.898  -1.807  0.00  0.00     0.027 A 
ATOM      4  C4  DEN d   1       0.766  -2.031  -1.939  0.00  0.00     0.027 A 
ATOM      5  C5  DEN d   1       1.913  -1.529  -1.363  0.00  0.00    -0.003 A 
ATOM      6  C6  DEN d   1       2.490  -2.106  -0.263  0.00  0.00     0.001 A 
ATOM      7  C7  DEN d   1       1.947  -3.245   0.270  0.00  0.00     0.017 A 
ATOM      8  C8  DEN d   1       0.787  -3.752  -0.300  0.00  0.00    -0.094 A 
ATOM      9  C9  DEN d   1       0.225  -3.162  -1.420  0.00  0.00    -0.072 A 
ENDROOT
TORSDOF 0
ENDMDL
