MODEL 1
REMARK minimizedAffinity 43.4068184
REMARK minimizedRMSD -1
REMARK  0 active torsions:
REMARK  status: ('A' for Active; 'I' for Inactive)
ROOT
ATOM      1  C1  DEN d   1       1.071  -6.000   4.973  0.00  0.00     0.130 A 
ATOM      2  C2  DEN d   1       0.038  -5.891   6.000  0.00  0.00    -0.031 A 
ATOM      3  C3  DEN d   1      -0.482  -4.509   5.979  0.00  0.00     0.027 A 
ATOM      4  C4  DEN d   1       0.204  -2.540   4.461  0.00  0.00     0.027 A 
ATOM      5  C5  DEN d   1       1.046  -2.147   3.444  0.00  0.00    -0.003 A 
ATOM      6  C6  DEN d   1       1.971  -2.993   2.894  0.00  0.00     0.001 A 
ATOM      7  C7  DEN d   1       2.046  -4.291   3.326  0.00  0.00     0.017 A 
ATOM      8  C8  DEN d   1       1.205  -4.693   4.356  0.00  0.00    -0.094 A 
ATOM      9  C9  DEN d   1       0.268  -3.825   4.891  0.00  0.00    -0.072 A 
ENDROOT
TORSDOF 0
ENDMDL
