MODEL 1
REMARK minimizedAffinity 1.3302722
REMARK minimizedRMSD -1
REMARK  0 active torsions:
REMARK  status: ('A' for Active; 'I' for Inactive)
ROOT
ATOM      1  C1  DEN d   1      -3.029   6.000   1.818  0.00  0.00     0.130 A 
ATOM      2  C2  DEN d   1      -4.017   5.963   0.744  0.00  0.00    -0.031 A 
ATOM      3  C3  DEN d   1      -5.359   5.947   1.360  0.00  0.00     0.027 A 
ATOM      4  C4  DEN d   1      -6.000   5.980   3.858  0.00  0.00     0.027 A 
ATOM      5  C5  DEN d   1      -5.505   6.000   5.143  0.00  0.00    -0.003 A 
ATOM      6  C6  DEN d   1      -4.161   5.987   5.409  0.00  0.00     0.001 A 
ATOM      7  C7  DEN d   1      -3.265   5.999   4.373  0.00  0.00     0.017 A 
ATOM      8  C8  DEN d   1      -3.756   5.971   3.075  0.00  0.00    -0.094 A 
ATOM      9  C9  DEN d   1      -5.118   5.997   2.827  0.00  0.00    -0.072 A 
ENDROOT
TORSDOF 0
ENDMDL
