MODEL 1
REMARK minimizedAffinity 4.36076927
REMARK minimizedRMSD -1
REMARK  0 active torsions:
REMARK  status: ('A' for Active; 'I' for Inactive)
ROOT
ATOM      1  C1  DEN d   1       0.530  -2.996   3.752  0.00  0.00     0.130 A 
ATOM      2  C2  DEN d   1       1.473  -2.806   4.851  0.00  0.00    -0.031 A 
ATOM      3  C3  DEN d   1       1.114  -3.750   5.928  0.00  0.00     0.027 A 
ATOM      4  C4  DEN d   1      -0.798  -5.480   6.000  0.00  0.00     0.027 A 
ATOM      5  C5  DEN d   1      -1.867  -6.000   5.305  0.00  0.00    -0.003 A 
ATOM      6  C6  DEN d   1      -2.231  -5.536   4.069  0.00  0.00     0.001 A 
ATOM      7  C7  DEN d   1      -1.490  -4.552   3.469  0.00  0.00     0.017 A 
ATOM      8  C8  DEN d   1      -0.415  -4.017   4.166  0.00  0.00    -0.094 A 
ATOM      9  C9  DEN d   1      -0.056  -4.508   5.410  0.00  0.00    -0.072 A 
ENDROOT
TORSDOF 0
ENDMDL
