MODEL 1
REMARK minimizedAffinity 4.42283058
REMARK minimizedRMSD -1
REMARK  0 active torsions:
REMARK  status: ('A' for Active; 'I' for Inactive)
ROOT
ATOM      1  C1  DEN d   1       3.598   0.634  -1.300  0.00  0.00     0.130 A 
ATOM      2  C2  DEN d   1       2.455  -0.236  -1.041  0.00  0.00    -0.031 A 
ATOM      3  C3  DEN d   1       1.860   0.164   0.250  0.00  0.00     0.027 A 
ATOM      4  C4  DEN d   1       2.591   2.040   1.862  0.00  0.00     0.027 A 
ATOM      5  C5  DEN d   1       3.515   3.038   2.077  0.00  0.00    -0.003 A 
ATOM      6  C6  DEN d   1       4.543   3.282   1.205  0.00  0.00     0.001 A 
ATOM      7  C7  DEN d   1       4.646   2.546   0.054  0.00  0.00     0.017 A 
ATOM      8  C8  DEN d   1       3.722   1.532  -0.166  0.00  0.00    -0.094 A 
ATOM      9  C9  DEN d   1       2.683   1.310   0.722  0.00  0.00    -0.072 A 
ENDROOT
TORSDOF 0
ENDMDL
