MODEL 1
REMARK minimizedAffinity 7.11162233
REMARK minimizedRMSD -1
REMARK  0 active torsions:
REMARK  status: ('A' for Active; 'I' for Inactive)
ROOT
ATOM      1  C1  DEN d   1       2.454   2.161  -1.511  0.00  0.00     0.130 A 
ATOM      2  C2  DEN d   1       1.328   1.668  -2.300  0.00  0.00    -0.031 A 
ATOM      3  C3  DEN d   1       0.552   0.738  -1.456  0.00  0.00     0.027 A 
ATOM      4  C4  DEN d   1       0.977   0.021   0.984  0.00  0.00     0.027 A 
ATOM      5  C5  DEN d   1       1.816   0.165   2.067  0.00  0.00    -0.003 A 
ATOM      6  C6  DEN d   1       2.937   0.952   2.022  0.00  0.00     0.001 A 
ATOM      7  C7  DEN d   1       3.224   1.661   0.885  0.00  0.00     0.017 A 
ATOM      8  C8  DEN d   1       2.386   1.515  -0.213  0.00  0.00    -0.094 A 
ATOM      9  C9  DEN d   1       1.251   0.724  -0.143  0.00  0.00    -0.072 A 
ENDROOT
TORSDOF 0
ENDMDL
