MODEL 1
REMARK minimizedAffinity 4.12306786
REMARK minimizedRMSD -1
REMARK  0 active torsions:
REMARK  status: ('A' for Active; 'I' for Inactive)
ROOT
ATOM      1  C1  DEN d   1      -0.649   3.632   1.207  0.00  0.00     0.130 A 
ATOM      2  C2  DEN d   1      -0.174   4.933   0.741  0.00  0.00    -0.031 A 
ATOM      3  C3  DEN d   1       0.951   4.702  -0.187  0.00  0.00     0.027 A 
ATOM      4  C4  DEN d   1       1.995   2.470  -0.948  0.00  0.00     0.027 A 
ATOM      5  C5  DEN d   1       1.938   1.100  -0.814  0.00  0.00    -0.003 A 
ATOM      6  C6  DEN d   1       1.045   0.485   0.023  0.00  0.00     0.001 A 
ATOM      7  C7  DEN d   1       0.141   1.240   0.723  0.00  0.00     0.017 A 
ATOM      8  C8  DEN d   1       0.197   2.622   0.599  0.00  0.00    -0.094 A 
ATOM      9  C9  DEN d   1       1.100   3.224  -0.262  0.00  0.00    -0.072 A 
ENDROOT
TORSDOF 0
ENDMDL
