MODEL 1
REMARK minimizedAffinity -4.76586914
REMARK minimizedRMSD -1
REMARK  0 active torsions:
REMARK  status: ('A' for Active; 'I' for Inactive)
ROOT
ATOM      1  C1  DEN d   1      -1.171  -0.927   0.630  0.00  0.00     0.130 A 
ATOM      2  C2  DEN d   1      -0.615  -2.139   1.224  0.00  0.00    -0.031 A 
ATOM      3  C3  DEN d   1       0.836  -1.932   1.411  0.00  0.00     0.027 A 
ATOM      4  C4  DEN d   1       2.264   0.139   0.844  0.00  0.00     0.027 A 
ATOM      5  C5  DEN d   1       2.238   1.410   0.312  0.00  0.00    -0.003 A 
ATOM      6  C6  DEN d   1       1.090   1.973  -0.178  0.00  0.00     0.001 A 
ATOM      7  C7  DEN d   1      -0.090   1.280  -0.105  0.00  0.00     0.017 A 
ATOM      8  C8  DEN d   1      -0.070  -0.004   0.423  0.00  0.00    -0.094 A 
ATOM      9  C9  DEN d   1       1.099  -0.551   0.924  0.00  0.00    -0.072 A 
ENDROOT
TORSDOF 0
ENDMDL
