MODEL 1
REMARK minimizedAffinity 9.63615513
REMARK minimizedRMSD -1
REMARK  0 active torsions:
REMARK  status: ('A' for Active; 'I' for Inactive)
ROOT
ATOM      1  C1  DEN d   1       0.884   3.043  -0.342  0.00  0.00     0.130 A 
ATOM      2  C2  DEN d   1       1.498   2.332  -1.460  0.00  0.00    -0.031 A 
ATOM      3  C3  DEN d   1       1.948   1.014  -0.971  0.00  0.00     0.027 A 
ATOM      4  C4  DEN d   1       1.751   0.007   1.395  0.00  0.00     0.027 A 
ATOM      5  C5  DEN d   1       1.316   0.239   2.681  0.00  0.00    -0.003 A 
ATOM      6  C6  DEN d   1       0.741   1.425   3.055  0.00  0.00     0.001 A 
ATOM      7  C7  DEN d   1       0.546   2.408   2.121  0.00  0.00     0.017 A 
ATOM      8  C8  DEN d   1       0.989   2.184   0.824  0.00  0.00    -0.094 A 
ATOM      9  C9  DEN d   1       1.556   0.974   0.463  0.00  0.00    -0.072 A 
ENDROOT
TORSDOF 0
ENDMDL
