MODEL 1
REMARK minimizedAffinity -3.70657754
REMARK minimizedRMSD -1
REMARK  0 active torsions:
REMARK  status: ('A' for Active; 'I' for Inactive)
ROOT
ATOM      1  C1  DEN d   1      -0.625   1.210   0.461  0.00  0.00     0.130 A 
ATOM      2  C2  DEN d   1      -0.158   2.568   0.194  0.00  0.00    -0.031 A 
ATOM      3  C3  DEN d   1       1.318   2.539   0.134  0.00  0.00     0.027 A 
ATOM      4  C4  DEN d   1       2.915   0.534   0.423  0.00  0.00     0.027 A 
ATOM      5  C5  DEN d   1       2.984  -0.818   0.676  0.00  0.00    -0.003 A 
ATOM      6  C6  DEN d   1       1.867  -1.576   0.907  0.00  0.00     0.001 A 
ATOM      7  C7  DEN d   1       0.628  -0.995   0.845  0.00  0.00     0.017 A 
ATOM      8  C8  DEN d   1       0.550   0.369   0.597  0.00  0.00    -0.094 A 
ATOM      9  C9  DEN d   1       1.690   1.116   0.354  0.00  0.00    -0.072 A 
ENDROOT
TORSDOF 0
ENDMDL
