MODEL 1
REMARK minimizedAffinity -5.18031645
REMARK minimizedRMSD -1
REMARK  0 active torsions:
REMARK  status: ('A' for Active; 'I' for Inactive)
ROOT
ATOM      1  C1  DEN d   1      -0.600  -0.535   0.285  0.00  0.00     0.130 A 
ATOM      2  C2  DEN d   1      -0.530   0.722  -0.454  0.00  0.00    -0.031 A 
ATOM      3  C3  DEN d   1       0.852   1.232  -0.358  0.00  0.00     0.027 A 
ATOM      4  C4  DEN d   1       2.882   0.200   0.853  0.00  0.00     0.027 A 
ATOM      5  C5  DEN d   1       3.309  -0.855   1.628  0.00  0.00    -0.003 A 
ATOM      6  C6  DEN d   1       2.463  -1.852   2.035  0.00  0.00     0.001 A 
ATOM      7  C7  DEN d   1       1.154  -1.838   1.631  0.00  0.00     0.017 A 
ATOM      8  C8  DEN d   1       0.714  -0.774   0.855  0.00  0.00    -0.094 A 
ATOM      9  C9  DEN d   1       1.588   0.218   0.444  0.00  0.00    -0.072 A 
ENDROOT
TORSDOF 0
ENDMDL
