MODEL 1
REMARK minimizedAffinity -0.751120806
REMARK minimizedRMSD -1
REMARK  0 active torsions:
REMARK  status: ('A' for Active; 'I' for Inactive)
ROOT
ATOM      1  C1  DEN d   1      -0.030  -0.489  -0.260  0.00  0.00     0.130 A 
ATOM      2  C2  DEN d   1      -0.015   0.436   0.870  0.00  0.00    -0.031 A 
ATOM      3  C3  DEN d   1      -1.139   1.379   0.702  0.00  0.00     0.027 A 
ATOM      4  C4  DEN d   1      -2.893   1.495  -1.185  0.00  0.00     0.027 A 
ATOM      5  C5  DEN d   1      -3.306   0.926  -2.370  0.00  0.00    -0.003 A 
ATOM      6  C6  DEN d   1      -2.641  -0.123  -2.947  0.00  0.00     0.001 A 
ATOM      7  C7  DEN d   1      -1.553  -0.666  -2.317  0.00  0.00     0.017 A 
ATOM      8  C8  DEN d   1      -1.126  -0.094  -1.126  0.00  0.00    -0.094 A 
ATOM      9  C9  DEN d   1      -1.819   0.958  -0.552  0.00  0.00    -0.072 A 
ENDROOT
TORSDOF 0
ENDMDL
