MODEL 1
REMARK minimizedAffinity -5.10991287
REMARK minimizedRMSD -1
REMARK  0 active torsions:
REMARK  status: ('A' for Active; 'I' for Inactive)
ROOT
ATOM      1  C1  DEN d   1      -0.560   0.414   0.253  0.00  0.00     0.130 A 
ATOM      2  C2  DEN d   1       0.798   0.502  -0.278  0.00  0.00    -0.031 A 
ATOM      3  C3  DEN d   1       0.730   0.308  -1.740  0.00  0.00     0.027 A 
ATOM      4  C4  DEN d   1      -1.335  -0.114  -3.226  0.00  0.00     0.027 A 
ATOM      5  C5  DEN d   1      -2.702  -0.283  -3.227  0.00  0.00    -0.003 A 
ATOM      6  C6  DEN d   1      -3.440  -0.264  -2.074  0.00  0.00     0.001 A 
ATOM      7  C7  DEN d   1      -2.821  -0.029  -0.875  0.00  0.00     0.017 A 
ATOM      8  C8  DEN d   1      -1.442   0.135  -0.865  0.00  0.00    -0.094 A 
ATOM      9  C9  DEN d   1      -0.715   0.125  -2.043  0.00  0.00    -0.072 A 
ENDROOT
TORSDOF 0
ENDMDL
