MODEL 1
REMARK minimizedAffinity 10.9628468
REMARK minimizedRMSD -1
REMARK  3 active torsions:
REMARK  status: ('A' for Active; 'I' for Inactive)
REMARK    1  A    between atoms: C3'_2  and  C2'_3 
REMARK    2  A    between atoms: C2'_3  and  C1'_4 
REMARK    3  A    between atoms: C1'_4  and  C1_5 
ROOT
ATOM      1  C1  N4B d   1       2.975  -2.207   2.406  0.00  0.00    -0.075 A 
ATOM      2  C2  N4B d   1       3.004  -2.971   1.218  0.00  0.00     0.002 A 
ATOM      3  C3  N4B d   1       1.927  -2.958   0.367  0.00  0.00     0.002 A 
ATOM      4  C4  N4B d   1       0.806  -2.207   0.690  0.00  0.00    -0.004 A 
ATOM      5  C5  N4B d   1       0.796  -1.452   1.826  0.00  0.00     0.002 A 
ATOM      6  C6  N4B d   1       1.873  -1.453   2.689  0.00  0.00     0.002 A 
ENDROOT
BRANCH   1   7
ATOM      7  C1' N4B d   1       4.094  -2.256   3.410  0.00  0.00     0.057 C 
BRANCH   7   8
ATOM      8  C2' N4B d   1       3.505  -2.245   4.817  0.00  0.00     0.009 C 
BRANCH   8   9
ATOM      9  C3' N4B d   1       4.421  -2.923   5.822  0.00  0.00     0.004 C 
ATOM     10  C4' N4B d   1       4.111  -4.379   6.000  0.00  0.00     0.003 C 
ENDBRANCH   8   9
ENDBRANCH   7   8
ENDBRANCH   1   7
TORSDOF 3
ENDMDL
