MODEL 1
REMARK minimizedAffinity 14.6163197
REMARK minimizedRMSD -1
REMARK  3 active torsions:
REMARK  status: ('A' for Active; 'I' for Inactive)
REMARK    1  A    between atoms: C3'_2  and  C2'_3 
REMARK    2  A    between atoms: C2'_3  and  C1'_4 
REMARK    3  A    between atoms: C1'_4  and  C1_5 
ROOT
ATOM      1  C1  N4B d   1      -0.313  -0.771   2.646  0.00  0.00    -0.075 A 
ATOM      2  C2  N4B d   1       0.619   0.109   3.238  0.00  0.00     0.002 A 
ATOM      3  C3  N4B d   1       0.264   0.844   4.341  0.00  0.00     0.002 A 
ATOM      4  C4  N4B d   1      -1.018   0.732   4.858  0.00  0.00    -0.004 A 
ATOM      5  C5  N4B d   1      -1.905  -0.140   4.296  0.00  0.00     0.002 A 
ATOM      6  C6  N4B d   1      -1.560  -0.889   3.189  0.00  0.00     0.002 A 
ENDROOT
BRANCH   1   7
ATOM      7  C1' N4B d   1       0.001  -1.532   1.387  0.00  0.00     0.057 C 
BRANCH   7   8
ATOM      8  C2' N4B d   1       1.510  -1.525   1.161  0.00  0.00     0.009 C 
BRANCH   8   9
ATOM      9  C3' N4B d   1       1.980  -2.770   0.428  0.00  0.00     0.004 C 
ATOM     10  C4' N4B d   1       3.319  -3.252   0.902  0.00  0.00     0.003 C 
ENDBRANCH   8   9
ENDBRANCH   7   8
ENDBRANCH   1   7
TORSDOF 3
ENDMDL
