MODEL 1
REMARK minimizedAffinity 8.15808487
REMARK minimizedRMSD -1
REMARK  3 active torsions:
REMARK  status: ('A' for Active; 'I' for Inactive)
REMARK    1  A    between atoms: C3'_2  and  C2'_3 
REMARK    2  A    between atoms: C2'_3  and  C1'_4 
REMARK    3  A    between atoms: C1'_4  and  C1_5 
ROOT
ATOM      1  C1  N4B d   1      -4.098   2.512   5.159  0.00  0.00    -0.075 A 
ATOM      2  C2  N4B d   1      -4.864   1.665   5.990  0.00  0.00     0.002 A 
ATOM      3  C3  N4B d   1      -5.800   0.825   5.437  0.00  0.00     0.002 A 
ATOM      4  C4  N4B d   1      -6.000   0.829   4.065  0.00  0.00    -0.004 A 
ATOM      5  C5  N4B d   1      -5.238   1.632   3.267  0.00  0.00     0.002 A 
ATOM      6  C6  N4B d   1      -4.291   2.478   3.809  0.00  0.00     0.002 A 
ENDROOT
BRANCH   1   7
ATOM      7  C1' N4B d   1      -3.124   3.509   5.725  0.00  0.00     0.057 C 
BRANCH   7   8
ATOM      8  C2' N4B d   1      -3.809   4.867   5.845  0.00  0.00     0.009 C 
BRANCH   8   9
ATOM      9  C3' N4B d   1      -2.807   5.998   5.995  0.00  0.00     0.004 C 
ATOM     10  C4' N4B d   1      -1.391   5.551   5.785  0.00  0.00     0.003 C 
ENDBRANCH   8   9
ENDBRANCH   7   8
ENDBRANCH   1   7
TORSDOF 3
ENDMDL
