MODEL 1
REMARK minimizedAffinity 9.618083
REMARK minimizedRMSD -1
REMARK  3 active torsions:
REMARK  status: ('A' for Active; 'I' for Inactive)
REMARK    1  A    between atoms: C3'_2  and  C2'_3 
REMARK    2  A    between atoms: C2'_3  and  C1'_4 
REMARK    3  A    between atoms: C1'_4  and  C1_5 
ROOT
ATOM      1  C1  N4B d   1       0.816  -1.788  -0.002  0.00  0.00    -0.075 A 
ATOM      2  C2  N4B d   1       1.414  -0.943   0.959  0.00  0.00     0.002 A 
ATOM      3  C3  N4B d   1       2.632  -1.272   1.501  0.00  0.00     0.002 A 
ATOM      4  C4  N4B d   1       3.260  -2.446   1.113  0.00  0.00    -0.004 A 
ATOM      5  C5  N4B d   1       2.688  -3.245   0.166  0.00  0.00     0.002 A 
ATOM      6  C6  N4B d   1       1.466  -2.924  -0.390  0.00  0.00     0.002 A 
ENDROOT
BRANCH   1   7
ATOM      7  C1' N4B d   1      -0.554  -1.514  -0.559  0.00  0.00     0.057 C 
BRANCH   7   8
ATOM      8  C2' N4B d   1      -0.415  -0.781  -1.890  0.00  0.00     0.009 C 
BRANCH   8   9
ATOM      9  C3' N4B d   1      -1.457   0.314  -2.047  0.00  0.00     0.004 C 
ATOM     10  C4' N4B d   1      -0.955   1.483  -2.842  0.00  0.00     0.003 C 
ENDBRANCH   8   9
ENDBRANCH   7   8
ENDBRANCH   1   7
TORSDOF 3
ENDMDL
