MODEL 1
REMARK minimizedAffinity -3.49606967
REMARK minimizedRMSD -1
REMARK  0 active torsions:
REMARK  status: ('A' for Active; 'I' for Inactive)
ROOT
ATOM      1  C1  BNZ d   1       0.250  -2.507  -0.912  0.00  0.00     0.000 A 
ATOM      2  C2  BNZ d   1      -0.738  -2.676   0.022  0.00  0.00     0.000 A 
ATOM      3  C3  BNZ d   1      -1.971  -3.142  -0.340  0.00  0.00     0.000 A 
ATOM      4  C4  BNZ d   1      -2.227  -3.400  -1.639  0.00  0.00     0.000 A 
ATOM      5  C5  BNZ d   1      -1.244  -3.227  -2.593  0.00  0.00     0.000 A 
ATOM      6  C6  BNZ d   1       0.008  -2.795  -2.220  0.00  0.00     0.000 A 
ENDROOT
TORSDOF 0
ENDMDL
