MODEL 1
REMARK minimizedAffinity -2.64196634
REMARK minimizedRMSD -1
REMARK  0 active torsions:
REMARK  status: ('A' for Active; 'I' for Inactive)
ROOT
ATOM      1  C1  BNZ d   1       0.115  -2.539  -0.671  0.00  0.00     0.000 A 
ATOM      2  C2  BNZ d   1       0.579  -1.603   0.214  0.00  0.00     0.000 A 
ATOM      3  C3  BNZ d   1       0.016  -0.359   0.277  0.00  0.00     0.000 A 
ATOM      4  C4  BNZ d   1      -0.983  -0.040  -0.572  0.00  0.00     0.000 A 
ATOM      5  C5  BNZ d   1      -1.455  -0.970  -1.476  0.00  0.00     0.000 A 
ATOM      6  C6  BNZ d   1      -0.912  -2.234  -1.509  0.00  0.00     0.000 A 
ENDROOT
TORSDOF 0
ENDMDL
