MODEL 1
REMARK minimizedAffinity -3.8560667
REMARK minimizedRMSD -1
REMARK  0 active torsions:
REMARK  status: ('A' for Active; 'I' for Inactive)
ROOT
ATOM      1  C1  BNZ d   1      -0.273   1.735   0.870  0.00  0.00     0.000 A 
ATOM      2  C2  BNZ d   1       0.428   0.563   0.766  0.00  0.00     0.000 A 
ATOM      3  C3  BNZ d   1      -0.184  -0.584   0.345  0.00  0.00     0.000 A 
ATOM      4  C4  BNZ d   1      -1.504  -0.567   0.068  0.00  0.00     0.000 A 
ATOM      5  C5  BNZ d   1      -2.227   0.604   0.177  0.00  0.00     0.000 A 
ATOM      6  C6  BNZ d   1      -1.598   1.766   0.563  0.00  0.00     0.000 A 
ENDROOT
TORSDOF 0
ENDMDL
