MODEL 1
REMARK minimizedAffinity -2.29388571
REMARK minimizedRMSD -1
REMARK  0 active torsions:
REMARK  status: ('A' for Active; 'I' for Inactive)
ROOT
ATOM      1  C1  BNZ d   1      -2.075  -3.302  -1.868  0.00  0.00     0.000 A 
ATOM      2  C2  BNZ d   1      -1.527  -2.877  -0.687  0.00  0.00     0.000 A 
ATOM      3  C3  BNZ d   1      -0.247  -2.400  -0.641  0.00  0.00     0.000 A 
ATOM      4  C4  BNZ d   1       0.497  -2.386  -1.766  0.00  0.00     0.000 A 
ATOM      5  C5  BNZ d   1      -0.038  -2.820  -2.962  0.00  0.00     0.000 A 
ATOM      6  C6  BNZ d   1      -1.340  -3.263  -3.013  0.00  0.00     0.000 A 
ENDROOT
TORSDOF 0
ENDMDL
