MODEL 1
REMARK minimizedAffinity -2.10476232
REMARK minimizedRMSD -1
REMARK  0 active torsions:
REMARK  status: ('A' for Active; 'I' for Inactive)
ROOT
ATOM      1  C1  BNZ d   1      -0.455   1.041  -0.012  0.00  0.00     0.000 A 
ATOM      2  C2  BNZ d   1      -0.410   2.327   0.455  0.00  0.00     0.000 A 
ATOM      3  C3  BNZ d   1       0.779   2.906   0.799  0.00  0.00     0.000 A 
ATOM      4  C4  BNZ d   1       1.916   2.186   0.713  0.00  0.00     0.000 A 
ATOM      5  C5  BNZ d   1       1.887   0.885   0.253  0.00  0.00     0.000 A 
ATOM      6  C6  BNZ d   1       0.692   0.318  -0.129  0.00  0.00     0.000 A 
ENDROOT
TORSDOF 0
ENDMDL
