MODEL 1
REMARK minimizedAffinity -5.02844763
REMARK minimizedRMSD -1
REMARK  0 active torsions:
REMARK  status: ('A' for Active; 'I' for Inactive)
ROOT
ATOM      1  C1  BNZ d   1       0.065  -0.205   0.377  0.00  0.00     0.000 A 
ATOM      2  C2  BNZ d   1      -0.981   0.664   0.540  0.00  0.00     0.000 A 
ATOM      3  C3  BNZ d   1      -0.776   2.015   0.531  0.00  0.00     0.000 A 
ATOM      4  C4  BNZ d   1       0.477   2.495   0.398  0.00  0.00     0.000 A 
ATOM      5  C5  BNZ d   1       1.543   1.632   0.242  0.00  0.00     0.000 A 
ATOM      6  C6  BNZ d   1       1.329   0.273   0.213  0.00  0.00     0.000 A 
ENDROOT
TORSDOF 0
ENDMDL
