MODEL 1
REMARK minimizedAffinity -2.7564106
REMARK minimizedRMSD -1
REMARK  0 active torsions:
REMARK  status: ('A' for Active; 'I' for Inactive)
ROOT
ATOM      1  C1  BNZ d   1      -1.108   1.722   0.330  0.00  0.00     0.000 A 
ATOM      2  C2  BNZ d   1      -1.185   0.381   0.066  0.00  0.00     0.000 A 
ATOM      3  C3  BNZ d   1      -0.061  -0.397   0.058  0.00  0.00     0.000 A 
ATOM      4  C4  BNZ d   1       1.142   0.174   0.274  0.00  0.00     0.000 A 
ATOM      5  C5  BNZ d   1       1.237   1.527   0.533  0.00  0.00     0.000 A 
ATOM      6  C6  BNZ d   1       0.099   2.300   0.579  0.00  0.00     0.000 A 
ENDROOT
TORSDOF 0
ENDMDL
