MODEL 1
REMARK minimizedAffinity -4.08892918
REMARK minimizedRMSD -1
REMARK  0 active torsions:
REMARK  status: ('A' for Active; 'I' for Inactive)
ROOT
ATOM      1  C1  BNZ d   1      -1.441   1.405   1.091  0.00  0.00     0.000 A 
ATOM      2  C2  BNZ d   1      -1.320   0.041   1.113  0.00  0.00     0.000 A 
ATOM      3  C3  BNZ d   1      -0.137  -0.563   0.788  0.00  0.00     0.000 A 
ATOM      4  C4  BNZ d   1       0.910   0.195   0.403  0.00  0.00     0.000 A 
ATOM      5  C5  BNZ d   1       0.801   1.571   0.366  0.00  0.00     0.000 A 
ATOM      6  C6  BNZ d   1      -0.379   2.177   0.731  0.00  0.00     0.000 A 
ENDROOT
TORSDOF 0
ENDMDL
