MODEL 1
REMARK minimizedAffinity -3.6551981
REMARK minimizedRMSD -1
REMARK  0 active torsions:
REMARK  status: ('A' for Active; 'I' for Inactive)
ROOT
ATOM      1  C1  BNZ d   1       0.403  -2.469  -0.893  0.00  0.00     0.000 A 
ATOM      2  C2  BNZ d   1      -0.473  -1.997   0.048  0.00  0.00     0.000 A 
ATOM      3  C3  BNZ d   1      -0.436  -0.689   0.445  0.00  0.00     0.000 A 
ATOM      4  C4  BNZ d   1       0.501   0.133  -0.070  0.00  0.00     0.000 A 
ATOM      5  C5  BNZ d   1       1.397  -0.330  -1.012  0.00  0.00     0.000 A 
ATOM      6  C6  BNZ d   1       1.332  -1.637  -1.438  0.00  0.00     0.000 A 
ENDROOT
TORSDOF 0
ENDMDL
