MODEL 1
REMARK minimizedAffinity -0.249586642
REMARK minimizedRMSD -1
REMARK  0 active torsions:
REMARK  status: ('A' for Active; 'I' for Inactive)
ROOT
ATOM      1  C1  BNZ d   1      -1.150   1.621   0.435  0.00  0.00     0.000 A 
ATOM      2  C2  BNZ d   1      -1.331   0.313   0.072  0.00  0.00     0.000 A 
ATOM      3  C3  BNZ d   1      -0.290  -0.572   0.102  0.00  0.00     0.000 A 
ATOM      4  C4  BNZ d   1       0.938  -0.140   0.454  0.00  0.00     0.000 A 
ATOM      5  C5  BNZ d   1       1.139   1.178   0.814  0.00  0.00     0.000 A 
ATOM      6  C6  BNZ d   1       0.080   2.057   0.820  0.00  0.00     0.000 A 
ENDROOT
TORSDOF 0
ENDMDL
