MODEL 1
REMARK minimizedAffinity -2.08707738
REMARK minimizedRMSD -1
REMARK  0 active torsions:
REMARK  status: ('A' for Active; 'I' for Inactive)
ROOT
ATOM      1  C1  BNZ d   1      -0.135  -2.535  -2.652  0.00  0.00     0.000 A 
ATOM      2  C2  BNZ d   1       0.057  -1.336  -2.019  0.00  0.00     0.000 A 
ATOM      3  C3  BNZ d   1      -0.065  -1.234  -0.661  0.00  0.00     0.000 A 
ATOM      4  C4  BNZ d   1      -0.419  -2.320   0.056  0.00  0.00     0.000 A 
ATOM      5  C5  BNZ d   1      -0.626  -3.534  -0.569  0.00  0.00     0.000 A 
ATOM      6  C6  BNZ d   1      -0.464  -3.642  -1.931  0.00  0.00     0.000 A 
ENDROOT
TORSDOF 0
ENDMDL
