MODEL 1
REMARK minimizedAffinity -2.62872219
REMARK minimizedRMSD -1
REMARK  0 active torsions:
REMARK  status: ('A' for Active; 'I' for Inactive)
ROOT
ATOM      1  C1  BNZ d   1      -0.118  -0.413   0.420  0.00  0.00     0.000 A 
ATOM      2  C2  BNZ d   1      -1.179   0.440   0.563  0.00  0.00     0.000 A 
ATOM      3  C3  BNZ d   1      -0.980   1.768   0.817  0.00  0.00     0.000 A 
ATOM      4  C4  BNZ d   1       0.277   2.233   0.968  0.00  0.00     0.000 A 
ATOM      5  C5  BNZ d   1       1.357   1.383   0.837  0.00  0.00     0.000 A 
ATOM      6  C6  BNZ d   1       1.154   0.055   0.542  0.00  0.00     0.000 A 
ENDROOT
TORSDOF 0
ENDMDL
