MODEL 1
REMARK minimizedAffinity -3.79034305
REMARK minimizedRMSD -1
REMARK  0 active torsions:
REMARK  status: ('A' for Active; 'I' for Inactive)
ROOT
ATOM      1  C1  BNZ d   1       1.064   0.369   0.399  0.00  0.00     0.000 A 
ATOM      2  C2  BNZ d   1       0.315   1.514   0.444  0.00  0.00     0.000 A 
ATOM      3  C3  BNZ d   1      -1.037   1.474   0.243  0.00  0.00     0.000 A 
ATOM      4  C4  BNZ d   1      -1.630   0.297  -0.042  0.00  0.00     0.000 A 
ATOM      5  C5  BNZ d   1      -0.887  -0.865  -0.100  0.00  0.00     0.000 A 
ATOM      6  C6  BNZ d   1       0.467  -0.827   0.142  0.00  0.00     0.000 A 
ENDROOT
TORSDOF 0
ENDMDL
