MODEL 1
REMARK minimizedAffinity -1.72839153
REMARK minimizedRMSD -1
REMARK  0 active torsions:
REMARK  status: ('A' for Active; 'I' for Inactive)
ROOT
ATOM      1  C1  BNZ d   1      -0.516   1.701   0.341  0.00  0.00     0.000 A 
ATOM      2  C2  BNZ d   1      -0.544   2.966   0.865  0.00  0.00     0.000 A 
ATOM      3  C3  BNZ d   1       0.594   3.549   1.347  0.00  0.00     0.000 A 
ATOM      4  C4  BNZ d   1       1.749   2.854   1.340  0.00  0.00     0.000 A 
ATOM      5  C5  BNZ d   1       1.792   1.574   0.823  0.00  0.00     0.000 A 
ATOM      6  C6  BNZ d   1       0.652   1.005   0.304  0.00  0.00     0.000 A 
ENDROOT
TORSDOF 0
ENDMDL
