MODEL 1
REMARK minimizedAffinity -3.70089173
REMARK minimizedRMSD -1
REMARK  0 active torsions:
REMARK  status: ('A' for Active; 'I' for Inactive)
ROOT
ATOM      1  C1  BNZ d   1       0.845  -1.225  -2.250  0.00  0.00     0.000 A 
ATOM      2  C2  BNZ d   1       0.330  -2.191  -3.074  0.00  0.00     0.000 A 
ATOM      3  C3  BNZ d   1      -0.768  -2.915  -2.703  0.00  0.00     0.000 A 
ATOM      4  C4  BNZ d   1      -1.325  -2.702  -1.493  0.00  0.00     0.000 A 
ATOM      5  C5  BNZ d   1      -0.813  -1.738  -0.648  0.00  0.00     0.000 A 
ATOM      6  C6  BNZ d   1       0.269  -0.984  -1.041  0.00  0.00     0.000 A 
ENDROOT
TORSDOF 0
ENDMDL
