MODEL 1
REMARK minimizedAffinity -3.98929429
REMARK minimizedRMSD -1
REMARK  0 active torsions:
REMARK  status: ('A' for Active; 'I' for Inactive)
ROOT
ATOM      1  C1  BNZ d   1      -0.876  -3.018  -0.968  0.00  0.00     0.000 A 
ATOM      2  C2  BNZ d   1      -0.442  -1.819  -0.471  0.00  0.00     0.000 A 
ATOM      3  C3  BNZ d   1      -0.129  -0.786  -1.310  0.00  0.00     0.000 A 
ATOM      4  C4  BNZ d   1      -0.212  -0.966  -2.643  0.00  0.00     0.000 A 
ATOM      5  C5  BNZ d   1      -0.640  -2.173  -3.160  0.00  0.00     0.000 A 
ATOM      6  C6  BNZ d   1      -0.991  -3.198  -2.312  0.00  0.00     0.000 A 
ENDROOT
TORSDOF 0
ENDMDL
