MODEL 1
REMARK minimizedAffinity 3.52821732
REMARK minimizedRMSD -1
REMARK  1 active torsions:
REMARK  status: ('A' for Active; 'I' for Inactive)
REMARK    1  A    between atoms: N_2  and  C1_3 
ROOT
ATOM      1  C1  UNL d   1       2.280  -2.043   3.236  0.00  0.00     0.143 A 
ATOM      2  C2  UNL d   1       3.499  -1.982   3.921  0.00  0.00    -0.057 A 
ATOM      3  C3  UNL d   1       3.992  -3.087   4.625  0.00  0.00     0.033 A 
ATOM      4  C4  UNL d   1       3.259  -4.268   4.681  0.00  0.00    -0.042 A 
ATOM      5  C5  UNL d   1       2.033  -4.343   4.028  0.00  0.00     0.033 A 
ATOM      6  C6  UNL d   1       1.549  -3.238   3.321  0.00  0.00    -0.057 A 
ENDROOT
BRANCH   1   7
ATOM      7  N   UNL d   1       1.690  -0.948   2.600  0.00  0.00    -0.732 N 
ATOM      8  C   UNL d   1       2.481   0.207   2.233  0.00  0.00     0.284 C 
ATOM      9  H3  UNL d   1       1.011  -1.227   1.896  0.00  0.00     0.395 HD
ENDBRANCH   1   7
TORSDOF 1
ENDMDL
