MODEL 1
REMARK minimizedAffinity 3.52761197
REMARK minimizedRMSD -1
REMARK  1 active torsions:
REMARK  status: ('A' for Active; 'I' for Inactive)
REMARK    1  A    between atoms: N_2  and  C1_3 
ROOT
ATOM      1  C1  UNL d   1       3.590  -2.259   2.749  0.00  0.00     0.143 A 
ATOM      2  C2  UNL d   1       2.445  -2.777   3.364  0.00  0.00    -0.057 A 
ATOM      3  C3  UNL d   1       1.180  -2.226   3.126  0.00  0.00     0.033 A 
ATOM      4  C4  UNL d   1       1.042  -1.124   2.288  0.00  0.00    -0.042 A 
ATOM      5  C5  UNL d   1       2.169  -0.577   1.686  0.00  0.00     0.033 A 
ATOM      6  C6  UNL d   1       3.429  -1.136   1.922  0.00  0.00    -0.057 A 
ENDROOT
BRANCH   1   7
ATOM      7  N   UNL d   1       4.887  -2.701   3.022  0.00  0.00    -0.732 N 
ATOM      8  C   UNL d   1       6.000  -2.269   2.205  0.00  0.00     0.284 C 
ATOM      9  H3  UNL d   1       5.087  -2.725   4.019  0.00  0.00     0.395 HD
ENDBRANCH   1   7
TORSDOF 1
ENDMDL
