MODEL 1
REMARK minimizedAffinity -3.39972782
REMARK minimizedRMSD -1
REMARK  1 active torsions:
REMARK  status: ('A' for Active; 'I' for Inactive)
REMARK    1  A    between atoms: N_2  and  C1_3 
ROOT
ATOM      1  C1  UNL d   1       2.251  -2.899   3.911  0.00  0.00     0.143 A 
ATOM      2  C2  UNL d   1       3.114  -2.927   5.012  0.00  0.00    -0.057 A 
ATOM      3  C3  UNL d   1       3.000  -3.912   5.999  0.00  0.00     0.033 A 
ATOM      4  C4  UNL d   1       1.999  -4.875   5.918  0.00  0.00    -0.042 A 
ATOM      5  C5  UNL d   1       1.114  -4.852   4.846  0.00  0.00     0.033 A 
ATOM      6  C6  UNL d   1       1.237  -3.869   3.859  0.00  0.00    -0.057 A 
ENDROOT
BRANCH   1   7
ATOM      7  N   UNL d   1       2.250  -1.887   2.948  0.00  0.00    -0.732 N 
ATOM      8  C   UNL d   1       1.500  -0.668   3.160  0.00  0.00     0.284 C 
ATOM      9  H3  UNL d   1       3.169  -1.744   2.535  0.00  0.00     0.395 HD
ENDBRANCH   1   7
TORSDOF 1
ENDMDL
