MODEL 1
REMARK minimizedAffinity 4.13179588
REMARK minimizedRMSD -1
REMARK  1 active torsions:
REMARK  status: ('A' for Active; 'I' for Inactive)
REMARK    1  A    between atoms: N_2  and  C1_3 
ROOT
ATOM      1  C1  UNL d   1       3.582  -3.109   4.119  0.00  0.00     0.143 A 
ATOM      2  C2  UNL d   1       2.518  -3.737   4.776  0.00  0.00    -0.057 A 
ATOM      3  C3  UNL d   1       1.202  -3.603   4.317  0.00  0.00     0.033 A 
ATOM      4  C4  UNL d   1       0.922  -2.812   3.208  0.00  0.00    -0.042 A 
ATOM      5  C5  UNL d   1       1.961  -2.158   2.555  0.00  0.00     0.033 A 
ATOM      6  C6  UNL d   1       3.274  -2.301   3.013  0.00  0.00    -0.057 A 
ENDROOT
BRANCH   1   7
ATOM      7  N   UNL d   1       4.899  -3.123   4.584  0.00  0.00    -0.732 N 
ATOM      8  C   UNL d   1       5.998  -2.819   3.693  0.00  0.00     0.284 C 
ATOM      9  H3  UNL d   1       4.989  -2.712   5.510  0.00  0.00     0.395 HD
ENDBRANCH   1   7
TORSDOF 1
ENDMDL
