MODEL 1
REMARK minimizedAffinity 0.579315841
REMARK minimizedRMSD -1
REMARK  1 active torsions:
REMARK  status: ('A' for Active; 'I' for Inactive)
REMARK    1  A    between atoms: N_2  and  C1_3 
ROOT
ATOM      1  C1  UNL d   1       2.840  -5.997  -3.449  0.00  0.00     0.143 A 
ATOM      2  C2  UNL d   1       4.237  -5.964  -3.497  0.00  0.00    -0.057 A 
ATOM      3  C3  UNL d   1       5.005  -5.976  -2.326  0.00  0.00     0.033 A 
ATOM      4  C4  UNL d   1       4.385  -5.991  -1.081  0.00  0.00    -0.042 A 
ATOM      5  C5  UNL d   1       2.997  -5.998  -1.008  0.00  0.00     0.033 A 
ATOM      6  C6  UNL d   1       2.236  -5.994  -2.181  0.00  0.00    -0.057 A 
ENDROOT
BRANCH   1   7
ATOM      7  N   UNL d   1       2.019  -5.888  -4.574  0.00  0.00    -0.732 N 
ATOM      8  C   UNL d   1       2.581  -5.968  -5.906  0.00  0.00     0.284 C 
ATOM      9  H3  UNL d   1       1.140  -6.387  -4.464  0.00  0.00     0.395 HD
ENDBRANCH   1   7
TORSDOF 1
ENDMDL
