MODEL 1
REMARK minimizedAffinity -0.235645801
REMARK minimizedRMSD -1
REMARK  1 active torsions:
REMARK  status: ('A' for Active; 'I' for Inactive)
REMARK    1  A    between atoms: N_2  and  C1_3 
ROOT
ATOM      1  C1  UNL d   1       2.528  -1.941   2.834  0.00  0.00     0.143 A 
ATOM      2  C2  UNL d   1       1.378  -1.805   3.619  0.00  0.00    -0.057 A 
ATOM      3  C3  UNL d   1       0.861  -2.886   4.344  0.00  0.00     0.033 A 
ATOM      4  C4  UNL d   1       1.471  -4.134   4.273  0.00  0.00    -0.042 A 
ATOM      5  C5  UNL d   1       2.601  -4.299   3.480  0.00  0.00     0.033 A 
ATOM      6  C6  UNL d   1       3.116  -3.214   2.764  0.00  0.00    -0.057 A 
ENDROOT
BRANCH   1   7
ATOM      7  N   UNL d   1       3.033  -0.931   2.013  0.00  0.00    -0.732 N 
ATOM      8  C   UNL d   1       2.141  -0.086   1.249  0.00  0.00     0.284 C 
ATOM      9  H3  UNL d   1       3.810  -0.433   2.443  0.00  0.00     0.395 HD
ENDBRANCH   1   7
TORSDOF 1
ENDMDL
