MODEL 1
REMARK minimizedAffinity 8.03615189
REMARK minimizedRMSD -1
REMARK  1 active torsions:
REMARK  status: ('A' for Active; 'I' for Inactive)
REMARK    1  A    between atoms: N_2  and  C1_3 
ROOT
ATOM      1  C1  UNL d   1      -2.627   0.763  -2.717  0.00  0.00     0.143 A 
ATOM      2  C2  UNL d   1      -3.072   2.079  -2.880  0.00  0.00    -0.057 A 
ATOM      3  C3  UNL d   1      -2.983   3.010  -1.837  0.00  0.00     0.033 A 
ATOM      4  C4  UNL d   1      -2.473   2.631  -0.600  0.00  0.00    -0.042 A 
ATOM      5  C5  UNL d   1      -2.047   1.321  -0.408  0.00  0.00     0.033 A 
ATOM      6  C6  UNL d   1      -2.132   0.398  -1.455  0.00  0.00    -0.057 A 
ENDROOT
BRANCH   1   7
ATOM      7  N   UNL d   1      -2.778  -0.234  -3.683  0.00  0.00    -0.732 N 
ATOM      8  C   UNL d   1      -3.392  -1.501  -3.345  0.00  0.00     0.284 C 
ATOM      9  H3  UNL d   1      -3.065   0.139  -4.585  0.00  0.00     0.395 HD
ENDBRANCH   1   7
TORSDOF 1
ENDMDL
