MODEL 1
REMARK minimizedAffinity 0.573750198
REMARK minimizedRMSD -1
REMARK  1 active torsions:
REMARK  status: ('A' for Active; 'I' for Inactive)
REMARK    1  A    between atoms: N_2  and  C1_3 
ROOT
ATOM      1  C1  UNL d   1       3.183  -5.837  -4.140  0.00  0.00     0.143 A 
ATOM      2  C2  UNL d   1       4.479  -5.633  -3.654  0.00  0.00    -0.057 A 
ATOM      3  C3  UNL d   1       4.748  -5.638  -2.280  0.00  0.00     0.033 A 
ATOM      4  C4  UNL d   1       3.717  -5.820  -1.364  0.00  0.00    -0.042 A 
ATOM      5  C5  UNL d   1       2.417  -5.999  -1.824  0.00  0.00     0.033 A 
ATOM      6  C6  UNL d   1       2.156  -5.999  -3.197  0.00  0.00    -0.057 A 
ENDROOT
BRANCH   1   7
ATOM      7  N   UNL d   1       2.835  -5.744  -5.490  0.00  0.00    -0.732 N 
ATOM      8  C   UNL d   1       1.475  -5.990  -5.920  0.00  0.00     0.284 C 
ATOM      9  H3  UNL d   1       3.281  -4.956  -5.953  0.00  0.00     0.395 HD
ENDBRANCH   1   7
TORSDOF 1
ENDMDL
