MODEL 1
REMARK minimizedAffinity -0.00314315129
REMARK minimizedRMSD -1
REMARK  1 active torsions:
REMARK  status: ('A' for Active; 'I' for Inactive)
REMARK    1  A    between atoms: N_2  and  C1_3 
ROOT
ATOM      1  C1  UNL d   1       3.399  -5.924  -4.067  0.00  0.00     0.143 A 
ATOM      2  C2  UNL d   1       2.537  -5.978  -2.966  0.00  0.00    -0.057 A 
ATOM      3  C3  UNL d   1       3.032  -5.999  -1.657  0.00  0.00     0.033 A 
ATOM      4  C4  UNL d   1       4.404  -5.996  -1.426  0.00  0.00    -0.042 A 
ATOM      5  C5  UNL d   1       5.280  -5.968  -2.505  0.00  0.00     0.033 A 
ATOM      6  C6  UNL d   1       4.779  -5.940  -3.810  0.00  0.00    -0.057 A 
ENDROOT
BRANCH   1   7
ATOM      7  N   UNL d   1       2.971  -6.000  -5.395  0.00  0.00    -0.732 N 
ATOM      8  C   UNL d   1       1.560  -5.990  -5.716  0.00  0.00     0.284 C 
ATOM      9  H3  UNL d   1       3.543  -5.438  -6.020  0.00  0.00     0.395 HD
ENDBRANCH   1   7
TORSDOF 1
ENDMDL
