MODEL 1
REMARK minimizedAffinity 2.22382307
REMARK minimizedRMSD -1
REMARK  1 active torsions:
REMARK  status: ('A' for Active; 'I' for Inactive)
REMARK    1  A    between atoms: N_2  and  C1_3 
ROOT
ATOM      1  C1  UNL d   1      -3.604   2.786  -1.206  0.00  0.00     0.143 A 
ATOM      2  C2  UNL d   1      -4.843   3.362  -0.903  0.00  0.00    -0.057 A 
ATOM      3  C3  UNL d   1      -5.236   3.584   0.422  0.00  0.00     0.033 A 
ATOM      4  C4  UNL d   1      -4.406   3.205   1.473  0.00  0.00    -0.042 A 
ATOM      5  C5  UNL d   1      -3.181   2.608   1.196  0.00  0.00     0.033 A 
ATOM      6  C6  UNL d   1      -2.792   2.396  -0.130  0.00  0.00    -0.057 A 
ENDROOT
BRANCH   1   7
ATOM      7  N   UNL d   1      -3.198   2.451  -2.500  0.00  0.00    -0.732 N 
ATOM      8  C   UNL d   1      -3.085   1.065  -2.900  0.00  0.00     0.284 C 
ATOM      9  H3  UNL d   1      -3.612   3.055  -3.206  0.00  0.00     0.395 HD
ENDBRANCH   1   7
TORSDOF 1
ENDMDL
