MODEL 1
REMARK minimizedAffinity 7.56521463
REMARK minimizedRMSD -1
REMARK  1 active torsions:
REMARK  status: ('A' for Active; 'I' for Inactive)
REMARK    1  A    between atoms: N_2  and  C1_3 
ROOT
ATOM      1  C1  UNL d   1      -4.098   2.275  -3.061  0.00  0.00     0.143 A 
ATOM      2  C2  UNL d   1      -4.999   2.849  -2.158  0.00  0.00    -0.057 A 
ATOM      3  C3  UNL d   1      -5.950   3.788  -2.576  0.00  0.00     0.033 A 
ATOM      4  C4  UNL d   1      -5.996   4.193  -3.906  0.00  0.00    -0.042 A 
ATOM      5  C5  UNL d   1      -5.094   3.656  -4.817  0.00  0.00     0.033 A 
ATOM      6  C6  UNL d   1      -4.152   2.713  -4.394  0.00  0.00    -0.057 A 
ENDROOT
BRANCH   1   7
ATOM      7  N   UNL d   1      -3.067   1.411  -2.688  0.00  0.00    -0.732 N 
ATOM      8  C   UNL d   1      -3.092   0.019  -3.084  0.00  0.00     0.284 C 
ATOM      9  H3  UNL d   1      -2.150   1.846  -2.759  0.00  0.00     0.395 HD
ENDBRANCH   1   7
TORSDOF 1
ENDMDL
