MODEL 1
REMARK minimizedAffinity 1.69609034
REMARK minimizedRMSD -1
REMARK  0 active torsions:
REMARK  status: ('A' for Active; 'I' for Inactive)
ROOT
ATOM      1  C1  BNZ d   1      -1.127  -5.749  -6.000  0.00  0.00     0.000 A 
ATOM      2  C2  BNZ d   1      -0.466  -5.948  -4.817  0.00  0.00     0.000 A 
ATOM      3  C3  BNZ d   1      -1.052  -5.624  -3.625  0.00  0.00     0.000 A 
ATOM      4  C4  BNZ d   1      -2.279  -5.066  -3.620  0.00  0.00     0.000 A 
ATOM      5  C5  BNZ d   1      -2.955  -4.850  -4.804  0.00  0.00     0.000 A 
ATOM      6  C6  BNZ d   1      -2.378  -5.214  -6.000  0.00  0.00     0.000 A 
ENDROOT
TORSDOF 0
ENDMDL
