MODEL 1
REMARK minimizedAffinity -3.27980924
REMARK minimizedRMSD -1
REMARK  0 active torsions:
REMARK  status: ('A' for Active; 'I' for Inactive)
ROOT
ATOM      1  C1  BNZ d   1      -2.656  -5.283  -3.367  0.00  0.00     0.000 A 
ATOM      2  C2  BNZ d   1      -3.479  -4.889  -4.388  0.00  0.00     0.000 A 
ATOM      3  C3  BNZ d   1      -3.107  -5.056  -5.693  0.00  0.00     0.000 A 
ATOM      4  C4  BNZ d   1      -1.896  -5.581  -5.974  0.00  0.00     0.000 A 
ATOM      5  C5  BNZ d   1      -1.051  -5.975  -4.956  0.00  0.00     0.000 A 
ATOM      6  C6  BNZ d   1      -1.446  -5.840  -3.645  0.00  0.00     0.000 A 
ENDROOT
TORSDOF 0
ENDMDL
