MODEL 1
REMARK minimizedAffinity -1.2681036
REMARK minimizedRMSD -1
REMARK  0 active torsions:
REMARK  status: ('A' for Active; 'I' for Inactive)
ROOT
ATOM      1  C1  BNZ d   1      -3.886  -5.340  -5.999  0.00  0.00     0.000 A 
ATOM      2  C2  BNZ d   1      -2.686  -6.000  -6.000  0.00  0.00     0.000 A 
ATOM      3  C3  BNZ d   1      -1.871  -5.974  -4.902  0.00  0.00     0.000 A 
ATOM      4  C4  BNZ d   1      -2.239  -5.256  -3.821  0.00  0.00     0.000 A 
ATOM      5  C5  BNZ d   1      -3.441  -4.577  -3.808  0.00  0.00     0.000 A 
ATOM      6  C6  BNZ d   1      -4.276  -4.638  -4.900  0.00  0.00     0.000 A 
ENDROOT
TORSDOF 0
ENDMDL
