MODEL 1
REMARK minimizedAffinity -1.58716345
REMARK minimizedRMSD -1
REMARK  0 active torsions:
REMARK  status: ('A' for Active; 'I' for Inactive)
ROOT
ATOM      1  C1  BNZ d   1      -5.134  -3.660  -5.592  0.00  0.00     0.000 A 
ATOM      2  C2  BNZ d   1      -3.809  -3.692  -5.248  0.00  0.00     0.000 A 
ATOM      3  C3  BNZ d   1      -3.101  -4.860  -5.300  0.00  0.00     0.000 A 
ATOM      4  C4  BNZ d   1      -3.726  -6.000  -5.657  0.00  0.00     0.000 A 
ATOM      5  C5  BNZ d   1      -5.064  -5.986  -5.999  0.00  0.00     0.000 A 
ATOM      6  C6  BNZ d   1      -5.765  -4.801  -5.983  0.00  0.00     0.000 A 
ENDROOT
TORSDOF 0
ENDMDL
