MODEL 1
REMARK minimizedAffinity -2.63360572
REMARK minimizedRMSD -1
REMARK  0 active torsions:
REMARK  status: ('A' for Active; 'I' for Inactive)
ROOT
ATOM      1  C1  BNZ d   1      -0.986  -3.196   0.305  0.00  0.00     0.000 A 
ATOM      2  C2  BNZ d   1      -0.509  -2.311   1.236  0.00  0.00     0.000 A 
ATOM      3  C3  BNZ d   1      -1.233  -1.206   1.586  0.00  0.00     0.000 A 
ATOM      4  C4  BNZ d   1      -2.412  -0.966   0.978  0.00  0.00     0.000 A 
ATOM      5  C5  BNZ d   1      -2.902  -1.843   0.031  0.00  0.00     0.000 A 
ATOM      6  C6  BNZ d   1      -2.189  -2.975  -0.291  0.00  0.00     0.000 A 
ENDROOT
TORSDOF 0
ENDMDL
