MODEL 1
REMARK minimizedAffinity -1.90396941
REMARK minimizedRMSD -1
REMARK  0 active torsions:
REMARK  status: ('A' for Active; 'I' for Inactive)
ROOT
ATOM      1  C1  BNZ d   1      -1.693  -0.362  -0.866  0.00  0.00     0.000 A 
ATOM      2  C2  BNZ d   1      -2.394  -1.434  -0.381  0.00  0.00     0.000 A 
ATOM      3  C3  BNZ d   1      -2.075  -1.991   0.826  0.00  0.00     0.000 A 
ATOM      4  C4  BNZ d   1      -1.032  -1.502   1.527  0.00  0.00     0.000 A 
ATOM      5  C5  BNZ d   1      -0.309  -0.427   1.047  0.00  0.00     0.000 A 
ATOM      6  C6  BNZ d   1      -0.658   0.155  -0.150  0.00  0.00     0.000 A 
ENDROOT
TORSDOF 0
ENDMDL
