MODEL 1
REMARK minimizedAffinity -0.471057504
REMARK minimizedRMSD -1
REMARK  0 active torsions:
REMARK  status: ('A' for Active; 'I' for Inactive)
ROOT
ATOM      1  C1  BNZ d   1      -1.218  -2.392   1.174  0.00  0.00     0.000 A 
ATOM      2  C2  BNZ d   1      -2.097  -1.962   2.132  0.00  0.00     0.000 A 
ATOM      3  C3  BNZ d   1      -2.412  -0.637   2.249  0.00  0.00     0.000 A 
ATOM      4  C4  BNZ d   1      -1.818   0.260   1.436  0.00  0.00     0.000 A 
ATOM      5  C5  BNZ d   1      -0.923  -0.157   0.471  0.00  0.00     0.000 A 
ATOM      6  C6  BNZ d   1      -0.637  -1.496   0.331  0.00  0.00     0.000 A 
ENDROOT
TORSDOF 0
ENDMDL
