MODEL 1
REMARK minimizedAffinity -1.97148943
REMARK minimizedRMSD -1
REMARK  0 active torsions:
REMARK  status: ('A' for Active; 'I' for Inactive)
ROOT
ATOM      1  C1  BNZ d   1      -3.631  -4.502  -3.848  0.00  0.00     0.000 A 
ATOM      2  C2  BNZ d   1      -2.417  -5.137  -3.861  0.00  0.00     0.000 A 
ATOM      3  C3  BNZ d   1      -2.021  -5.867  -4.947  0.00  0.00     0.000 A 
ATOM      4  C4  BNZ d   1      -2.854  -5.995  -6.000  0.00  0.00     0.000 A 
ATOM      5  C5  BNZ d   1      -4.084  -5.368  -5.998  0.00  0.00     0.000 A 
ATOM      6  C6  BNZ d   1      -4.464  -4.602  -4.920  0.00  0.00     0.000 A 
ENDROOT
TORSDOF 0
ENDMDL
