MODEL 1
REMARK minimizedAffinity -2.05906463
REMARK minimizedRMSD -1
REMARK  0 active torsions:
REMARK  status: ('A' for Active; 'I' for Inactive)
ROOT
ATOM      1  C1  BNZ d   1      -4.473  -4.432  -4.910  0.00  0.00     0.000 A 
ATOM      2  C2  BNZ d   1      -4.162  -5.204  -5.998  0.00  0.00     0.000 A 
ATOM      3  C3  BNZ d   1      -3.048  -5.996  -6.000  0.00  0.00     0.000 A 
ATOM      4  C4  BNZ d   1      -2.225  -5.984  -4.931  0.00  0.00     0.000 A 
ATOM      5  C5  BNZ d   1      -2.519  -5.204  -3.831  0.00  0.00     0.000 A 
ATOM      6  C6  BNZ d   1      -3.662  -4.439  -3.817  0.00  0.00     0.000 A 
ENDROOT
TORSDOF 0
ENDMDL
