MODEL 1
REMARK minimizedAffinity -0.271556556
REMARK minimizedRMSD -1
REMARK  0 active torsions:
REMARK  status: ('A' for Active; 'I' for Inactive)
ROOT
ATOM      1  C1  BNZ d   1      -5.946  -2.922  -3.622  0.00  0.00     0.000 A 
ATOM      2  C2  BNZ d   1      -5.940  -3.550  -4.839  0.00  0.00     0.000 A 
ATOM      3  C3  BNZ d   1      -5.938  -2.828  -6.000  0.00  0.00     0.000 A 
ATOM      4  C4  BNZ d   1      -5.983  -1.481  -5.943  0.00  0.00     0.000 A 
ATOM      5  C5  BNZ d   1      -6.000  -0.833  -4.723  0.00  0.00     0.000 A 
ATOM      6  C6  BNZ d   1      -5.962  -1.563  -3.557  0.00  0.00     0.000 A 
ENDROOT
TORSDOF 0
ENDMDL
