MODEL 1
REMARK minimizedAffinity -2.36315227
REMARK minimizedRMSD -1
REMARK  0 active torsions:
REMARK  status: ('A' for Active; 'I' for Inactive)
ROOT
ATOM      1  C1  BNZ d   1      -5.735  -3.610  -5.273  0.00  0.00     0.000 A 
ATOM      2  C2  BNZ d   1      -6.000  -4.740  -5.999  0.00  0.00     0.000 A 
ATOM      3  C3  BNZ d   1      -5.127  -5.792  -5.998  0.00  0.00     0.000 A 
ATOM      4  C4  BNZ d   1      -3.974  -5.697  -5.306  0.00  0.00     0.000 A 
ATOM      5  C5  BNZ d   1      -3.688  -4.560  -4.576  0.00  0.00     0.000 A 
ATOM      6  C6  BNZ d   1      -4.587  -3.519  -4.548  0.00  0.00     0.000 A 
ENDROOT
TORSDOF 0
ENDMDL
