MODEL 1
REMARK minimizedAffinity -2.68090749
REMARK minimizedRMSD -1
REMARK  0 active torsions:
REMARK  status: ('A' for Active; 'I' for Inactive)
ROOT
ATOM      1  C1  BNZ d   1      -5.180  -3.939  -4.853  0.00  0.00     0.000 A 
ATOM      2  C2  BNZ d   1      -3.866  -3.973  -4.471  0.00  0.00     0.000 A 
ATOM      3  C3  BNZ d   1      -3.048  -4.993  -4.868  0.00  0.00     0.000 A 
ATOM      4  C4  BNZ d   1      -3.554  -5.998  -5.612  0.00  0.00     0.000 A 
ATOM      5  C5  BNZ d   1      -4.880  -5.983  -5.997  0.00  0.00     0.000 A 
ATOM      6  C6  BNZ d   1      -5.691  -4.934  -5.629  0.00  0.00     0.000 A 
ENDROOT
TORSDOF 0
ENDMDL
