MODEL 1
REMARK minimizedAffinity -2.93396401
REMARK minimizedRMSD -1
REMARK  0 active torsions:
REMARK  status: ('A' for Active; 'I' for Inactive)
ROOT
ATOM      1  C1  BNZ d   1      -4.108  -5.192  -5.999  0.00  0.00     0.000 A 
ATOM      2  C2  BNZ d   1      -4.906  -4.079  -6.000  0.00  0.00     0.000 A 
ATOM      3  C3  BNZ d   1      -4.570  -2.977  -5.265  0.00  0.00     0.000 A 
ATOM      4  C4  BNZ d   1      -3.460  -3.003  -4.500  0.00  0.00     0.000 A 
ATOM      5  C5  BNZ d   1      -2.650  -4.121  -4.481  0.00  0.00     0.000 A 
ATOM      6  C6  BNZ d   1      -2.971  -5.215  -5.252  0.00  0.00     0.000 A 
ENDROOT
TORSDOF 0
ENDMDL
