MODEL 1
REMARK minimizedAffinity -1.97926116
REMARK minimizedRMSD -1
REMARK  0 active torsions:
REMARK  status: ('A' for Active; 'I' for Inactive)
ROOT
ATOM      1  C1  BNZ d   1      -2.149  -4.870  -5.526  0.00  0.00     0.000 A 
ATOM      2  C2  BNZ d   1      -2.868  -3.762  -5.164  0.00  0.00     0.000 A 
ATOM      3  C3  BNZ d   1      -4.234  -3.774  -5.193  0.00  0.00     0.000 A 
ATOM      4  C4  BNZ d   1      -4.879  -4.878  -5.622  0.00  0.00     0.000 A 
ATOM      5  C5  BNZ d   1      -4.168  -6.000  -5.999  0.00  0.00     0.000 A 
ATOM      6  C6  BNZ d   1      -2.794  -5.998  -5.932  0.00  0.00     0.000 A 
ENDROOT
TORSDOF 0
ENDMDL
