MODEL 1
REMARK minimizedAffinity -3.17105031
REMARK minimizedRMSD -1
REMARK  0 active torsions:
REMARK  status: ('A' for Active; 'I' for Inactive)
ROOT
ATOM      1  C   UNL d   1       2.267  -1.832  -0.014  0.00  0.00     0.172 C 
ATOM      2  N   UNL d   1       1.128  -1.259   0.663  0.00  0.00    -0.070 N 
ATOM      3  C1  UNL d   1       0.134  -0.525   0.073  0.00  0.00    -0.004 A 
ATOM      4  C2  UNL d   1      -0.763  -0.163   1.055  0.00  0.00    -0.047 A 
ATOM      5  C3  UNL d   1      -0.291  -0.697   2.278  0.00  0.00    -0.047 A 
ATOM      6  C4  UNL d   1       0.881  -1.370   2.006  0.00  0.00    -0.004 A 
ENDROOT
TORSDOF 0
ENDMDL
