MODEL 1
REMARK minimizedAffinity -3.67417026
REMARK minimizedRMSD -1
REMARK  0 active torsions:
REMARK  status: ('A' for Active; 'I' for Inactive)
ROOT
ATOM      1  C   UNL d   1       2.924  -1.911   0.311  0.00  0.00     0.172 C 
ATOM      2  N   UNL d   1       1.904  -1.356   1.170  0.00  0.00    -0.070 N 
ATOM      3  C1  UNL d   1       1.732  -1.647   2.497  0.00  0.00    -0.004 A 
ATOM      4  C2  UNL d   1       0.657  -0.916   2.954  0.00  0.00    -0.047 A 
ATOM      5  C3  UNL d   1       0.165  -0.160   1.863  0.00  0.00    -0.047 A 
ATOM      6  C4  UNL d   1       0.955  -0.451   0.771  0.00  0.00    -0.004 A 
ENDROOT
TORSDOF 0
ENDMDL
