MODEL 1
REMARK minimizedAffinity -0.936770678
REMARK minimizedRMSD -1
REMARK  0 active torsions:
REMARK  status: ('A' for Active; 'I' for Inactive)
ROOT
ATOM      1  C   UNL d   1      -0.160   0.586  -0.764  0.00  0.00     0.172 C 
ATOM      2  N   UNL d   1      -0.363   1.599  -1.773  0.00  0.00    -0.070 N 
ATOM      3  C1  UNL d   1      -1.460   1.707  -2.585  0.00  0.00    -0.004 A 
ATOM      4  C2  UNL d   1      -1.272   2.799  -3.405  0.00  0.00    -0.047 A 
ATOM      5  C3  UNL d   1      -0.018   3.366  -3.075  0.00  0.00    -0.047 A 
ATOM      6  C4  UNL d   1       0.523   2.603  -2.061  0.00  0.00    -0.004 A 
ENDROOT
TORSDOF 0
ENDMDL
