MODEL 1
REMARK minimizedAffinity -3.41035962
REMARK minimizedRMSD -1
REMARK  0 active torsions:
REMARK  status: ('A' for Active; 'I' for Inactive)
ROOT
ATOM      1  C   UNL d   1      -0.213  -0.728   2.373  0.00  0.00     0.172 C 
ATOM      2  N   UNL d   1      -0.554  -0.327   1.028  0.00  0.00    -0.070 N 
ATOM      3  C1  UNL d   1      -1.816  -0.049   0.574  0.00  0.00    -0.004 A 
ATOM      4  C2  UNL d   1      -1.719   0.294  -0.758  0.00  0.00    -0.047 A 
ATOM      5  C3  UNL d   1      -0.352   0.218  -1.116  0.00  0.00    -0.047 A 
ATOM      6  C4  UNL d   1       0.346  -0.168   0.008  0.00  0.00    -0.004 A 
ENDROOT
TORSDOF 0
ENDMDL
