MODEL 1
REMARK minimizedAffinity -4.077425
REMARK minimizedRMSD -1
REMARK  2 active torsions:
REMARK  status: ('A' for Active; 'I' for Inactive)
REMARK    1  A    between atoms: C1_2  and  C2_3 
REMARK    2  A    between atoms: C2_3  and  C3_4 
ROOT
ATOM      1  C3  UNL d   1       0.600  -0.447  -0.536  0.00  0.00    -0.075 A 
ATOM      2  C4  UNL d   1       1.727  -0.766   0.236  0.00  0.00     0.002 A 
ATOM      3  C5  UNL d   1       1.922  -0.173   1.484  0.00  0.00     0.002 A 
ATOM      4  C6  UNL d   1       1.000   0.751   1.970  0.00  0.00    -0.004 A 
ATOM      5  C7  UNL d   1      -0.114   1.087   1.205  0.00  0.00     0.002 A 
ATOM      6  C8  UNL d   1      -0.314   0.493  -0.042  0.00  0.00     0.002 A 
ENDROOT
BRANCH   1   7
ATOM      7  C2  UNL d   1       0.369  -1.107  -1.874  0.00  0.00     0.056 C 
BRANCH   7   8
ATOM      8  C1  UNL d   1       0.551  -0.169  -3.072  0.00  0.00     0.007 C 
ATOM      9  C   UNL d   1       2.011   0.061  -3.437  0.00  0.00     0.009 C 
ENDBRANCH   7   8
ENDBRANCH   1   7
TORSDOF 2
ENDMDL
