MODEL 1
REMARK minimizedAffinity -4.02143908
REMARK minimizedRMSD -1
REMARK  2 active torsions:
REMARK  status: ('A' for Active; 'I' for Inactive)
REMARK    1  A    between atoms: C1_2  and  C2_3 
REMARK    2  A    between atoms: C2_3  and  C3_4 
ROOT
ATOM      1  C3  UNL d   1      -0.605  -0.090   0.110  0.00  0.00    -0.075 A 
ATOM      2  C4  UNL d   1      -1.925  -0.388   0.481  0.00  0.00     0.002 A 
ATOM      3  C5  UNL d   1      -2.427   0.035   1.712  0.00  0.00     0.002 A 
ATOM      4  C6  UNL d   1      -1.616   0.751   2.590  0.00  0.00    -0.004 A 
ATOM      5  C7  UNL d   1      -0.299   1.038   2.239  0.00  0.00     0.002 A 
ATOM      6  C8  UNL d   1       0.205   0.619   1.006  0.00  0.00     0.002 A 
ENDROOT
BRANCH   1   7
ATOM      7  C2  UNL d   1      -0.065  -0.520  -1.233  0.00  0.00     0.056 C 
BRANCH   7   8
ATOM      8  C1  UNL d   1       0.665   0.591  -1.996  0.00  0.00     0.007 C 
ATOM      9  C   UNL d   1       0.348   0.604  -3.485  0.00  0.00     0.009 C 
ENDBRANCH   7   8
ENDBRANCH   1   7
TORSDOF 2
ENDMDL
