MODEL 1
REMARK minimizedAffinity 7.32943726
REMARK minimizedRMSD -1
REMARK  1 active torsions:
REMARK  status: ('A' for Active; 'I' for Inactive)
REMARK    1  A    between atoms: C1_2  and  C2_3 
ROOT
ATOM      1  C2  UNL d   1      -1.809  -2.542  -1.057  0.00  0.00    -0.073 A 
ATOM      2  C3  UNL d   1      -3.046  -3.194  -0.995  0.00  0.00    -0.002 A 
ATOM      3  C4  UNL d   1      -3.730  -3.518  -2.167  0.00  0.00     0.004 A 
ATOM      4  C5  UNL d   1      -3.184  -3.201  -3.410  0.00  0.00    -0.004 A 
ATOM      5  C6  UNL d   1      -1.943  -2.560  -3.493  0.00  0.00    -0.075 A 
ATOM      6  C7  UNL d   1      -1.343  -2.210  -4.822  0.00  0.00     0.076 C 
ATOM      7  C8  UNL d   1      -1.263  -2.235  -2.311  0.00  0.00     0.001 A 
ENDROOT
BRANCH   1   8
ATOM      8  C1  UNL d   1      -1.062  -2.195   0.206  0.00  0.00     0.053 C 
ATOM      9  C   UNL d   1      -0.747  -3.428   1.038  0.00  0.00     0.018 C 
ENDBRANCH   1   8
TORSDOF 1
ENDMDL
