MODEL 1
REMARK minimizedAffinity 0.674328983
REMARK minimizedRMSD -1
REMARK  1 active torsions:
REMARK  status: ('A' for Active; 'I' for Inactive)
REMARK    1  A    between atoms: C1_2  and  C2_3 
ROOT
ATOM      1  C2  UNL d   1       4.773   2.127   1.013  0.00  0.00    -0.073 A 
ATOM      2  C3  UNL d   1       5.568   0.977   0.953  0.00  0.00    -0.002 A 
ATOM      3  C4  UNL d   1       5.002  -0.283   1.156  0.00  0.00     0.004 A 
ATOM      4  C5  UNL d   1       3.637  -0.405   1.413  0.00  0.00    -0.004 A 
ATOM      5  C6  UNL d   1       2.824   0.731   1.466  0.00  0.00    -0.075 A 
ATOM      6  C7  UNL d   1       1.354   0.617   1.744  0.00  0.00     0.076 C 
ATOM      7  C8  UNL d   1       3.400   1.993   1.264  0.00  0.00     0.001 A 
ENDROOT
BRANCH   1   8
ATOM      8  C1  UNL d   1       5.379   3.488   0.788  0.00  0.00     0.053 C 
ATOM      9  C   UNL d   1       4.642   4.574   1.557  0.00  0.00     0.018 C 
ENDBRANCH   1   8
TORSDOF 1
ENDMDL
