MODEL 1
REMARK minimizedAffinity 12.2224808
REMARK minimizedRMSD -1
REMARK  1 active torsions:
REMARK  status: ('A' for Active; 'I' for Inactive)
REMARK    1  A    between atoms: C1_2  and  C2_3 
ROOT
ATOM      1  C2  UNL d   1       2.397   1.956   0.657  0.00  0.00    -0.073 A 
ATOM      2  C3  UNL d   1       2.265   0.578   0.456  0.00  0.00    -0.002 A 
ATOM      3  C4  UNL d   1       3.340  -0.277   0.705  0.00  0.00     0.004 A 
ATOM      4  C5  UNL d   1       4.553   0.236   1.164  0.00  0.00    -0.004 A 
ATOM      5  C6  UNL d   1       4.700   1.610   1.383  0.00  0.00    -0.075 A 
ATOM      6  C7  UNL d   1       5.999   2.178   1.875  0.00  0.00     0.076 C 
ATOM      7  C8  UNL d   1       3.617   2.462   1.128  0.00  0.00     0.001 A 
ENDROOT
BRANCH   1   8
ATOM      8  C1  UNL d   1       1.237   2.882   0.395  0.00  0.00     0.053 C 
ATOM      9  C   UNL d   1       1.354   4.179   1.181  0.00  0.00     0.018 C 
ENDBRANCH   1   8
TORSDOF 1
ENDMDL
