MODEL 1
REMARK minimizedAffinity 3.66403508
REMARK minimizedRMSD -1
REMARK  1 active torsions:
REMARK  status: ('A' for Active; 'I' for Inactive)
REMARK    1  A    between atoms: C1_2  and  C2_3 
ROOT
ATOM      1  C2  UNL d   1       2.353   0.752   2.593  0.00  0.00    -0.073 A 
ATOM      2  C3  UNL d   1       1.702   1.643   1.732  0.00  0.00    -0.002 A 
ATOM      3  C4  UNL d   1       2.140   1.800   0.417  0.00  0.00     0.004 A 
ATOM      4  C5  UNL d   1       3.228   1.064  -0.054  0.00  0.00    -0.004 A 
ATOM      5  C6  UNL d   1       3.884   0.160   0.787  0.00  0.00    -0.075 A 
ATOM      6  C7  UNL d   1       5.056  -0.638   0.298  0.00  0.00     0.076 C 
ATOM      7  C8  UNL d   1       3.439   0.010   2.108  0.00  0.00     0.001 A 
ENDROOT
BRANCH   1   8
ATOM      8  C1  UNL d   1       1.879   0.575   4.012  0.00  0.00     0.053 C 
ATOM      9  C   UNL d   1       0.621   1.378   4.298  0.00  0.00     0.018 C 
ENDBRANCH   1   8
TORSDOF 1
ENDMDL
