MODEL 1
REMARK minimizedAffinity 7.53683281
REMARK minimizedRMSD -1
REMARK  1 active torsions:
REMARK  status: ('A' for Active; 'I' for Inactive)
REMARK    1  A    between atoms: C1_2  and  C2_3 
ROOT
ATOM      1  C2  UNL d   1       2.344   1.042   1.150  0.00  0.00    -0.073 A 
ATOM      2  C3  UNL d   1       3.457   0.346   1.636  0.00  0.00    -0.002 A 
ATOM      3  C4  UNL d   1       4.407  -0.168   0.753  0.00  0.00     0.004 A 
ATOM      4  C5  UNL d   1       4.259   0.014  -0.622  0.00  0.00    -0.004 A 
ATOM      5  C6  UNL d   1       3.161   0.717  -1.126  0.00  0.00    -0.075 A 
ATOM      6  C7  UNL d   1       2.986   0.919  -2.603  0.00  0.00     0.076 C 
ATOM      7  C8  UNL d   1       2.209   1.228  -0.233  0.00  0.00     0.001 A 
ENDROOT
BRANCH   1   8
ATOM      8  C1  UNL d   1       1.318   1.605   2.099  0.00  0.00     0.053 C 
ATOM      9  C   UNL d   1       1.241   0.809   3.392  0.00  0.00     0.018 C 
ENDBRANCH   1   8
TORSDOF 1
ENDMDL
