MODEL 1
REMARK minimizedAffinity 1.82020926
REMARK minimizedRMSD -1
REMARK  1 active torsions:
REMARK  status: ('A' for Active; 'I' for Inactive)
REMARK    1  A    between atoms: C1_2  and  C2_3 
ROOT
ATOM      1  C2  UNL d   1       2.713   1.303  -0.861  0.00  0.00    -0.073 A 
ATOM      2  C3  UNL d   1       3.844   0.485  -0.965  0.00  0.00    -0.002 A 
ATOM      3  C4  UNL d   1       4.200  -0.363   0.084  0.00  0.00     0.004 A 
ATOM      4  C5  UNL d   1       3.427  -0.408   1.244  0.00  0.00    -0.004 A 
ATOM      5  C6  UNL d   1       2.286   0.392   1.362  0.00  0.00    -0.075 A 
ATOM      6  C7  UNL d   1       1.445   0.357   2.604  0.00  0.00     0.076 C 
ATOM      7  C8  UNL d   1       1.936   1.243   0.306  0.00  0.00     0.001 A 
ENDROOT
BRANCH   1   8
ATOM      8  C1  UNL d   1       2.320   2.215  -1.994  0.00  0.00     0.053 C 
ATOM      9  C   UNL d   1       0.814   2.253  -2.200  0.00  0.00     0.018 C 
ENDBRANCH   1   8
TORSDOF 1
ENDMDL
