MODEL 1
REMARK minimizedAffinity 1.48844826
REMARK minimizedRMSD -1
REMARK  1 active torsions:
REMARK  status: ('A' for Active; 'I' for Inactive)
REMARK    1  A    between atoms: C1_2  and  C2_3 
ROOT
ATOM      1  C2  UNL d   1      -3.402  -3.811  -2.670  0.00  0.00    -0.073 A 
ATOM      2  C3  UNL d   1      -2.951  -3.309  -1.444  0.00  0.00    -0.002 A 
ATOM      3  C4  UNL d   1      -1.798  -2.526  -1.384  0.00  0.00     0.004 A 
ATOM      4  C5  UNL d   1      -1.088  -2.231  -2.548  0.00  0.00    -0.004 A 
ATOM      5  C6  UNL d   1      -1.530  -2.713  -3.784  0.00  0.00    -0.075 A 
ATOM      6  C7  UNL d   1      -0.776  -2.406  -5.045  0.00  0.00     0.076 C 
ATOM      7  C8  UNL d   1      -2.687  -3.501  -3.836  0.00  0.00     0.001 A 
ENDROOT
BRANCH   1   8
ATOM      8  C1  UNL d   1      -4.650  -4.652  -2.741  0.00  0.00     0.053 C 
ATOM      9  C   UNL d   1      -5.598  -4.175  -3.830  0.00  0.00     0.018 C 
ENDBRANCH   1   8
TORSDOF 1
ENDMDL
