MODEL 1
REMARK minimizedAffinity 12.0444822
REMARK minimizedRMSD -1
REMARK  1 active torsions:
REMARK  status: ('A' for Active; 'I' for Inactive)
REMARK    1  A    between atoms: C1_2  and  C2_3 
ROOT
ATOM      1  C2  UNL d   1      -0.335  -2.445  -0.463  0.00  0.00    -0.073 A 
ATOM      2  C3  UNL d   1       0.418  -3.383  -1.177  0.00  0.00    -0.002 A 
ATOM      3  C4  UNL d   1      -0.163  -4.111  -2.216  0.00  0.00     0.004 A 
ATOM      4  C5  UNL d   1      -1.500  -3.903  -2.556  0.00  0.00    -0.004 A 
ATOM      5  C6  UNL d   1      -2.266  -2.961  -1.862  0.00  0.00    -0.075 A 
ATOM      6  C7  UNL d   1      -3.706  -2.727  -2.214  0.00  0.00     0.076 C 
ATOM      7  C8  UNL d   1      -1.675  -2.236  -0.818  0.00  0.00     0.001 A 
ENDROOT
BRANCH   1   8
ATOM      8  C1  UNL d   1       0.290  -1.652   0.656  0.00  0.00     0.053 C 
ATOM      9  C   UNL d   1       1.480  -0.834   0.179  0.00  0.00     0.018 C 
ENDBRANCH   1   8
TORSDOF 1
ENDMDL
