MODEL 1
REMARK minimizedAffinity 0.924479604
REMARK minimizedRMSD -1
REMARK  1 active torsions:
REMARK  status: ('A' for Active; 'I' for Inactive)
REMARK    1  A    between atoms: C1_2  and  C2_3 
ROOT
ATOM      1  C2  UNL d   1       5.156   3.407   2.081  0.00  0.00    -0.073 A 
ATOM      2  C3  UNL d   1       4.435   4.328   1.312  0.00  0.00    -0.002 A 
ATOM      3  C4  UNL d   1       4.197   5.616   1.794  0.00  0.00     0.004 A 
ATOM      4  C5  UNL d   1       4.682   5.998   3.045  0.00  0.00    -0.004 A 
ATOM      5  C6  UNL d   1       5.414   5.096   3.823  0.00  0.00    -0.075 A 
ATOM      6  C7  UNL d   1       5.941   5.491   5.172  0.00  0.00     0.076 C 
ATOM      7  C8  UNL d   1       5.647   3.804   3.334  0.00  0.00     0.001 A 
ENDROOT
BRANCH   1   8
ATOM      8  C1  UNL d   1       5.421   2.018   1.562  0.00  0.00     0.053 C 
ATOM      9  C   UNL d   1       4.150   1.188   1.479  0.00  0.00     0.018 C 
ENDBRANCH   1   8
TORSDOF 1
ENDMDL
