MODEL 1
REMARK minimizedAffinity 9.58951378
REMARK minimizedRMSD -1
REMARK  1 active torsions:
REMARK  status: ('A' for Active; 'I' for Inactive)
REMARK    1  A    between atoms: C1_2  and  C2_3 
ROOT
ATOM      1  C2  UNL d   1      -3.873  -4.336  -2.060  0.00  0.00    -0.073 A 
ATOM      2  C3  UNL d   1      -3.765  -3.775  -3.337  0.00  0.00    -0.002 A 
ATOM      3  C4  UNL d   1      -2.959  -2.656  -3.549  0.00  0.00     0.004 A 
ATOM      4  C5  UNL d   1      -2.248  -2.092  -2.490  0.00  0.00    -0.004 A 
ATOM      5  C6  UNL d   1      -2.334  -2.646  -1.209  0.00  0.00    -0.075 A 
ATOM      6  C7  UNL d   1      -1.577  -2.050  -0.058  0.00  0.00     0.076 C 
ATOM      7  C8  UNL d   1      -3.148  -3.768  -1.003  0.00  0.00     0.001 A 
ENDROOT
BRANCH   1   8
ATOM      8  C1  UNL d   1      -4.738  -5.548  -1.828  0.00  0.00     0.053 C 
ATOM      9  C   UNL d   1      -5.999  -5.520  -2.676  0.00  0.00     0.018 C 
ENDBRANCH   1   8
TORSDOF 1
ENDMDL
