MODEL 1
REMARK minimizedAffinity 6.56195688
REMARK minimizedRMSD -1
REMARK  1 active torsions:
REMARK  status: ('A' for Active; 'I' for Inactive)
REMARK    1  A    between atoms: C1_2  and  C2_3 
ROOT
ATOM      1  C2  UNL d   1       3.689   0.239   1.775  0.00  0.00    -0.073 A 
ATOM      2  C3  UNL d   1       3.243   1.134   0.796  0.00  0.00    -0.002 A 
ATOM      3  C4  UNL d   1       2.085   1.885   1.003  0.00  0.00     0.004 A 
ATOM      4  C5  UNL d   1       1.368   1.755   2.192  0.00  0.00    -0.004 A 
ATOM      5  C6  UNL d   1       1.804   0.875   3.187  0.00  0.00    -0.075 A 
ATOM      6  C7  UNL d   1       1.042   0.722   4.471  0.00  0.00     0.076 C 
ATOM      7  C8  UNL d   1       2.966   0.122   2.971  0.00  0.00     0.001 A 
ENDROOT
BRANCH   1   8
ATOM      8  C1  UNL d   1       4.942  -0.570   1.559  0.00  0.00     0.053 C 
ATOM      9  C   UNL d   1       5.175  -0.877   0.088  0.00  0.00     0.018 C 
ENDBRANCH   1   8
TORSDOF 1
ENDMDL
