MODEL 1
REMARK minimizedAffinity 4.66110468
REMARK minimizedRMSD -1
REMARK  1 active torsions:
REMARK  status: ('A' for Active; 'I' for Inactive)
REMARK    1  A    between atoms: C1_2  and  C2_3 
ROOT
ATOM      1  C2  UNL d   1      -2.116  -3.562   0.024  0.00  0.00    -0.073 A 
ATOM      2  C3  UNL d   1      -3.297  -4.311  -0.036  0.00  0.00    -0.002 A 
ATOM      3  C4  UNL d   1      -4.138  -4.213  -1.146  0.00  0.00     0.004 A 
ATOM      4  C5  UNL d   1      -3.805  -3.372  -2.207  0.00  0.00    -0.004 A 
ATOM      5  C6  UNL d   1      -2.623  -2.625  -2.171  0.00  0.00    -0.075 A 
ATOM      6  C7  UNL d   1      -2.251  -1.714  -3.304  0.00  0.00     0.076 C 
ATOM      7  C8  UNL d   1      -1.785  -2.727  -1.053  0.00  0.00     0.001 A 
ENDROOT
BRANCH   1   8
ATOM      8  C1  UNL d   1      -1.202  -3.670   1.216  0.00  0.00     0.053 C 
ATOM      9  C   UNL d   1      -1.262  -5.046   1.859  0.00  0.00     0.018 C 
ENDBRANCH   1   8
TORSDOF 1
ENDMDL
