MODEL 1
REMARK minimizedAffinity 6.01583004
REMARK minimizedRMSD -1
REMARK  1 active torsions:
REMARK  status: ('A' for Active; 'I' for Inactive)
REMARK    1  A    between atoms: C1_2  and  C2_3 
ROOT
ATOM      1  C2  UNL d   1      -2.139  -2.755  -1.690  0.00  0.00    -0.073 A 
ATOM      2  C3  UNL d   1      -2.109  -1.745  -2.658  0.00  0.00    -0.002 A 
ATOM      3  C4  UNL d   1      -1.687  -2.026  -3.958  0.00  0.00     0.004 A 
ATOM      4  C5  UNL d   1      -1.298  -3.320  -4.305  0.00  0.00    -0.004 A 
ATOM      5  C6  UNL d   1      -1.333  -4.346  -3.355  0.00  0.00    -0.075 A 
ATOM      6  C7  UNL d   1      -0.915  -5.742  -3.712  0.00  0.00     0.076 C 
ATOM      7  C8  UNL d   1      -1.755  -4.055  -2.051  0.00  0.00     0.001 A 
ENDROOT
BRANCH   1   8
ATOM      8  C1  UNL d   1      -2.599  -2.457  -0.286  0.00  0.00     0.053 C 
ATOM      9  C   UNL d   1      -1.639  -3.005   0.757  0.00  0.00     0.018 C 
ENDBRANCH   1   8
TORSDOF 1
ENDMDL
