MODEL 1
REMARK minimizedAffinity -0.773800731
REMARK minimizedRMSD -1
REMARK  1 active torsions:
REMARK  status: ('A' for Active; 'I' for Inactive)
REMARK    1  A    between atoms: C1_2  and  C2_3 
ROOT
ATOM      1  C2  UNL d   1      -1.878  -2.283  -3.394  0.00  0.00    -0.073 A 
ATOM      2  C3  UNL d   1      -3.014  -3.000  -3.000  0.00  0.00    -0.002 A 
ATOM      3  C4  UNL d   1      -3.015  -3.719  -1.804  0.00  0.00     0.004 A 
ATOM      4  C5  UNL d   1      -1.885  -3.723  -0.987  0.00  0.00    -0.004 A 
ATOM      5  C6  UNL d   1      -0.744  -3.004  -1.357  0.00  0.00    -0.075 A 
ATOM      6  C7  UNL d   1       0.481  -3.000  -0.490  0.00  0.00     0.076 C 
ATOM      7  C8  UNL d   1      -0.750  -2.286  -2.561  0.00  0.00     0.001 A 
ENDROOT
BRANCH   1   8
ATOM      8  C1  UNL d   1      -1.875  -1.500  -4.681  0.00  0.00     0.053 C 
ATOM      9  C   UNL d   1      -1.180  -2.253  -5.805  0.00  0.00     0.018 C 
ENDBRANCH   1   8
TORSDOF 1
ENDMDL
