MODEL 1
REMARK minimizedAffinity 7.7850728
REMARK minimizedRMSD -1
REMARK  1 active torsions:
REMARK  status: ('A' for Active; 'I' for Inactive)
REMARK    1  A    between atoms: C1_2  and  C2_3 
ROOT
ATOM      1  C2  UNL d   1      -1.516  -2.892  -0.647  0.00  0.00    -0.073 A 
ATOM      2  C3  UNL d   1      -2.652  -2.361  -1.267  0.00  0.00    -0.002 A 
ATOM      3  C4  UNL d   1      -2.965  -2.710  -2.582  0.00  0.00     0.004 A 
ATOM      4  C5  UNL d   1      -2.150  -3.596  -3.287  0.00  0.00    -0.004 A 
ATOM      5  C6  UNL d   1      -1.017  -4.146  -2.680  0.00  0.00    -0.075 A 
ATOM      6  C7  UNL d   1      -0.128  -5.098  -3.425  0.00  0.00     0.076 C 
ATOM      7  C8  UNL d   1      -0.708  -3.789  -1.360  0.00  0.00     0.001 A 
ENDROOT
BRANCH   1   8
ATOM      8  C1  UNL d   1      -1.177  -2.524   0.774  0.00  0.00     0.053 C 
ATOM      9  C   UNL d   1      -1.532  -3.634   1.751  0.00  0.00     0.018 C 
ENDBRANCH   1   8
TORSDOF 1
ENDMDL
