MODEL 1
REMARK minimizedAffinity -4.48449421
REMARK minimizedRMSD -1
REMARK  0 active torsions:
REMARK  status: ('A' for Active; 'I' for Inactive)
ROOT
ATOM      1  C   UNL d   1      -0.042  -2.254  -0.342  0.00  0.00     0.078 C 
ATOM      2  C1  UNL d   1      -0.454  -0.815  -0.262  0.00  0.00    -0.077 A 
ATOM      3  C2  UNL d   1       0.038   0.021   0.748  0.00  0.00    -0.001 A 
ATOM      4  C3  UNL d   1      -0.362   1.357   0.816  0.00  0.00     0.003 A 
ATOM      5  C4  UNL d   1      -1.255   1.868  -0.123  0.00  0.00    -0.005 A 
ATOM      6  C5  UNL d   1      -1.751   1.044  -1.131  0.00  0.00     0.003 A 
ATOM      7  C6  UNL d   1      -1.353  -0.292  -1.200  0.00  0.00    -0.001 A 
ENDROOT
TORSDOF 0
ENDMDL
