MODEL 1
REMARK minimizedAffinity 1.13254297
REMARK minimizedRMSD -1
REMARK  0 active torsions:
REMARK  status: ('A' for Active; 'I' for Inactive)
ROOT
ATOM      1  C   UNL d   1      -1.745  -1.717  -0.046  0.00  0.00     0.078 C 
ATOM      2  C1  UNL d   1      -1.375  -0.311   0.321  0.00  0.00    -0.077 A 
ATOM      3  C2  UNL d   1      -2.069   0.781  -0.214  0.00  0.00    -0.001 A 
ATOM      4  C3  UNL d   1      -1.707   2.085   0.130  0.00  0.00     0.003 A 
ATOM      5  C4  UNL d   1      -0.648   2.309   1.008  0.00  0.00    -0.005 A 
ATOM      6  C5  UNL d   1       0.050   1.228   1.543  0.00  0.00     0.003 A 
ATOM      7  C6  UNL d   1      -0.311  -0.076   1.201  0.00  0.00    -0.001 A 
ENDROOT
TORSDOF 0
ENDMDL
