MODEL 1
REMARK minimizedAffinity -1.94368541
REMARK minimizedRMSD -1
REMARK  0 active torsions:
REMARK  status: ('A' for Active; 'I' for Inactive)
ROOT
ATOM      1  C   UNL d   1      -0.014  -0.233  -0.550  0.00  0.00     0.078 C 
ATOM      2  C1  UNL d   1       0.508   1.047   0.031  0.00  0.00    -0.077 A 
ATOM      3  C2  UNL d   1      -0.348   2.127   0.281  0.00  0.00    -0.001 A 
ATOM      4  C3  UNL d   1       0.154   3.316   0.813  0.00  0.00     0.003 A 
ATOM      5  C4  UNL d   1       1.512   3.437   1.099  0.00  0.00    -0.005 A 
ATOM      6  C5  UNL d   1       2.371   2.369   0.852  0.00  0.00     0.003 A 
ATOM      7  C6  UNL d   1       1.872   1.179   0.320  0.00  0.00    -0.001 A 
ENDROOT
TORSDOF 0
ENDMDL
