MODEL 1
REMARK minimizedAffinity -4.23458147
REMARK minimizedRMSD -1
REMARK  0 active torsions:
REMARK  status: ('A' for Active; 'I' for Inactive)
ROOT
ATOM      1  C   UNL d   1      -0.270  -1.302  -0.059  0.00  0.00     0.078 C 
ATOM      2  C1  UNL d   1      -0.134   0.191  -0.006  0.00  0.00    -0.077 A 
ATOM      3  C2  UNL d   1       1.119   0.806  -0.111  0.00  0.00    -0.001 A 
ATOM      4  C3  UNL d   1       1.231   2.196  -0.050  0.00  0.00     0.003 A 
ATOM      5  C4  UNL d   1       0.093   2.983   0.117  0.00  0.00    -0.005 A 
ATOM      6  C5  UNL d   1      -1.158   2.380   0.225  0.00  0.00     0.003 A 
ATOM      7  C6  UNL d   1      -1.272   0.990   0.164  0.00  0.00    -0.001 A 
ENDROOT
TORSDOF 0
ENDMDL
