MODEL 1
REMARK minimizedAffinity -4.2250576
REMARK minimizedRMSD -1
REMARK  0 active torsions:
REMARK  status: ('A' for Active; 'I' for Inactive)
ROOT
ATOM      1  C   UNL d   1      -0.824   0.214  -0.043  0.00  0.00     0.078 C 
ATOM      2  C1  UNL d   1       0.011   1.436   0.197  0.00  0.00    -0.077 A 
ATOM      3  C2  UNL d   1       1.343   1.495  -0.232  0.00  0.00    -0.001 A 
ATOM      4  C3  UNL d   1       2.112   2.635   0.007  0.00  0.00     0.003 A 
ATOM      5  C4  UNL d   1       1.558   3.724   0.676  0.00  0.00    -0.005 A 
ATOM      6  C5  UNL d   1       0.234   3.674   1.109  0.00  0.00     0.003 A 
ATOM      7  C6  UNL d   1      -0.536   2.535   0.871  0.00  0.00    -0.001 A 
ENDROOT
TORSDOF 0
ENDMDL
