MODEL 1
REMARK minimizedAffinity -5.07792711
REMARK minimizedRMSD -1
REMARK  0 active torsions:
REMARK  status: ('A' for Active; 'I' for Inactive)
ROOT
ATOM      1  C   UNL d   1       0.402  -0.839   0.002  0.00  0.00     0.078 C 
ATOM      2  C1  UNL d   1       0.539   0.652   0.080  0.00  0.00    -0.077 A 
ATOM      3  C2  UNL d   1       1.778   1.249   0.342  0.00  0.00    -0.001 A 
ATOM      4  C3  UNL d   1       1.890   2.638   0.422  0.00  0.00     0.003 A 
ATOM      5  C4  UNL d   1       0.766   3.442   0.241  0.00  0.00    -0.005 A 
ATOM      6  C5  UNL d   1      -0.471   2.857  -0.019  0.00  0.00     0.003 A 
ATOM      7  C6  UNL d   1      -0.585   1.468  -0.099  0.00  0.00    -0.001 A 
ENDROOT
TORSDOF 0
ENDMDL
