MODEL 1
REMARK minimizedAffinity -0.700290978
REMARK minimizedRMSD -1
REMARK  0 active torsions:
REMARK  status: ('A' for Active; 'I' for Inactive)
ROOT
ATOM      1  C   UNL d   1      -1.059   2.216   1.364  0.00  0.00     0.078 C 
ATOM      2  C1  UNL d   1      -0.241   1.084   0.819  0.00  0.00    -0.077 A 
ATOM      3  C2  UNL d   1       1.129   0.986   1.094  0.00  0.00    -0.001 A 
ATOM      4  C3  UNL d   1       1.880  -0.068   0.571  0.00  0.00     0.003 A 
ATOM      5  C4  UNL d   1       1.271  -1.031  -0.230  0.00  0.00    -0.005 A 
ATOM      6  C5  UNL d   1      -0.091  -0.941  -0.511  0.00  0.00     0.003 A 
ATOM      7  C6  UNL d   1      -0.844   0.112   0.010  0.00  0.00    -0.001 A 
ENDROOT
TORSDOF 0
ENDMDL
