MODEL 1
REMARK minimizedAffinity -5.13204765
REMARK minimizedRMSD -1
REMARK  0 active torsions:
REMARK  status: ('A' for Active; 'I' for Inactive)
ROOT
ATOM      1  C   UNL d   1       0.735   3.746   0.014  0.00  0.00     0.078 C 
ATOM      2  C1  UNL d   1       0.452   2.281   0.159  0.00  0.00    -0.077 A 
ATOM      3  C2  UNL d   1       1.458   1.329  -0.041  0.00  0.00    -0.001 A 
ATOM      4  C3  UNL d   1       1.178  -0.033   0.088  0.00  0.00     0.003 A 
ATOM      5  C4  UNL d   1      -0.109  -0.454   0.415  0.00  0.00    -0.005 A 
ATOM      6  C5  UNL d   1      -1.118   0.486   0.614  0.00  0.00     0.003 A 
ATOM      7  C6  UNL d   1      -0.840   1.848   0.486  0.00  0.00    -0.001 A 
ENDROOT
TORSDOF 0
ENDMDL
