MODEL 1
REMARK minimizedAffinity -3.49309826
REMARK minimizedRMSD -1
REMARK  0 active torsions:
REMARK  status: ('A' for Active; 'I' for Inactive)
ROOT
ATOM      1  C   UNL d   1      -0.678  -2.118  -2.795  0.00  0.00     0.078 C 
ATOM      2  C1  UNL d   1      -0.656  -1.244  -1.576  0.00  0.00    -0.077 A 
ATOM      3  C2  UNL d   1      -0.042  -1.672  -0.393  0.00  0.00    -0.001 A 
ATOM      4  C3  UNL d   1      -0.038  -0.853   0.737  0.00  0.00     0.003 A 
ATOM      5  C4  UNL d   1      -0.647   0.400   0.694  0.00  0.00    -0.005 A 
ATOM      6  C5  UNL d   1      -1.262   0.834  -0.478  0.00  0.00     0.003 A 
ATOM      7  C6  UNL d   1      -1.267   0.016  -1.609  0.00  0.00    -0.001 A 
ENDROOT
TORSDOF 0
ENDMDL
