MODEL 1
REMARK minimizedAffinity -0.370333403
REMARK minimizedRMSD -1
REMARK  0 active torsions:
REMARK  status: ('A' for Active; 'I' for Inactive)
ROOT
ATOM      1  C   UNL d   1      -1.928  -4.006  -0.721  0.00  0.00     0.078 C 
ATOM      2  C1  UNL d   1      -0.898  -2.939  -0.944  0.00  0.00    -0.077 A 
ATOM      3  C2  UNL d   1      -0.074  -2.959  -2.076  0.00  0.00    -0.001 A 
ATOM      4  C3  UNL d   1       0.887  -1.965  -2.267  0.00  0.00     0.003 A 
ATOM      5  C4  UNL d   1       1.034  -0.944  -1.329  0.00  0.00    -0.005 A 
ATOM      6  C5  UNL d   1       0.220  -0.918  -0.199  0.00  0.00     0.003 A 
ATOM      7  C6  UNL d   1      -0.742  -1.911  -0.006  0.00  0.00    -0.001 A 
ENDROOT
TORSDOF 0
ENDMDL
