MODEL 1
REMARK minimizedAffinity -6.04165459
REMARK minimizedRMSD -1
REMARK  0 active torsions:
REMARK  status: ('A' for Active; 'I' for Inactive)
ROOT
ATOM      1  C   UNL d   1      -0.035  -1.153   0.067  0.00  0.00     0.078 C 
ATOM      2  C1  UNL d   1       0.333   0.297   0.171  0.00  0.00    -0.077 A 
ATOM      3  C2  UNL d   1       1.672   0.696   0.272  0.00  0.00    -0.001 A 
ATOM      4  C3  UNL d   1       1.999   2.049   0.377  0.00  0.00     0.003 A 
ATOM      5  C4  UNL d   1       0.993   3.014   0.385  0.00  0.00    -0.005 A 
ATOM      6  C5  UNL d   1      -0.342   2.626   0.287  0.00  0.00     0.003 A 
ATOM      7  C6  UNL d   1      -0.671   1.274   0.181  0.00  0.00    -0.001 A 
ENDROOT
TORSDOF 0
ENDMDL
