MODEL 1
REMARK minimizedAffinity -3.3641901
REMARK minimizedRMSD -1
REMARK  0 active torsions:
REMARK  status: ('A' for Active; 'I' for Inactive)
ROOT
ATOM      1  C   UNL d   1      -0.542  -0.598  -0.399  0.00  0.00     0.078 C 
ATOM      2  C1  UNL d   1      -0.742  -1.878  -1.155  0.00  0.00    -0.077 A 
ATOM      3  C2  UNL d   1       0.349  -2.665  -1.542  0.00  0.00    -0.001 A 
ATOM      4  C3  UNL d   1       0.147  -3.849  -2.254  0.00  0.00     0.003 A 
ATOM      5  C4  UNL d   1      -1.144  -4.256  -2.585  0.00  0.00    -0.005 A 
ATOM      6  C5  UNL d   1      -2.236  -3.477  -2.205  0.00  0.00     0.003 A 
ATOM      7  C6  UNL d   1      -2.036  -2.293  -1.494  0.00  0.00    -0.001 A 
ENDROOT
TORSDOF 0
ENDMDL
