MODEL 1
REMARK minimizedAffinity -4.09346533
REMARK minimizedRMSD -1
REMARK  0 active torsions:
REMARK  status: ('A' for Active; 'I' for Inactive)
ROOT
ATOM      1  C   UNL d   1       4.244   1.110   0.368  0.00  0.00     0.078 C 
ATOM      2  C1  UNL d   1       2.918   1.794   0.221  0.00  0.00    -0.077 A 
ATOM      3  C2  UNL d   1       2.728   3.105   0.675  0.00  0.00    -0.001 A 
ATOM      4  C3  UNL d   1       1.485   3.725   0.540  0.00  0.00     0.003 A 
ATOM      5  C4  UNL d   1       0.422   3.043  -0.048  0.00  0.00    -0.005 A 
ATOM      6  C5  UNL d   1       0.601   1.737  -0.501  0.00  0.00     0.003 A 
ATOM      7  C6  UNL d   1       1.843   1.115  -0.367  0.00  0.00    -0.001 A 
ENDROOT
TORSDOF 0
ENDMDL
