MODEL 1
REMARK minimizedAffinity -5.6639595
REMARK minimizedRMSD -1
REMARK  0 active torsions:
REMARK  status: ('A' for Active; 'I' for Inactive)
ROOT
ATOM      1  C   UNL d   1       1.742   3.971   0.176  0.00  0.00     0.078 C 
ATOM      2  C1  UNL d   1       0.874   2.749   0.127  0.00  0.00    -0.077 A 
ATOM      3  C2  UNL d   1      -0.428   2.768   0.642  0.00  0.00    -0.001 A 
ATOM      4  C3  UNL d   1      -1.222   1.621   0.599  0.00  0.00     0.003 A 
ATOM      5  C4  UNL d   1      -0.722   0.445   0.043  0.00  0.00    -0.005 A 
ATOM      6  C5  UNL d   1       0.574   0.415  -0.470  0.00  0.00     0.003 A 
ATOM      7  C6  UNL d   1       1.368   1.562  -0.428  0.00  0.00    -0.001 A 
ENDROOT
TORSDOF 0
ENDMDL
