MODEL 1
REMARK minimizedAffinity -5.70612955
REMARK minimizedRMSD -1
REMARK  0 active torsions:
REMARK  status: ('A' for Active; 'I' for Inactive)
ROOT
ATOM      1  C   UNL d   1      -0.476   3.222   0.576  0.00  0.00     0.078 C 
ATOM      2  C1  UNL d   1       0.616   2.212   0.380  0.00  0.00    -0.077 A 
ATOM      3  C2  UNL d   1       0.347   0.961  -0.187  0.00  0.00    -0.001 A 
ATOM      4  C3  UNL d   1       1.371   0.027  -0.355  0.00  0.00     0.003 A 
ATOM      5  C4  UNL d   1       2.670   0.335   0.044  0.00  0.00    -0.005 A 
ATOM      6  C5  UNL d   1       2.947   1.577   0.612  0.00  0.00     0.003 A 
ATOM      7  C6  UNL d   1       1.924   2.512   0.780  0.00  0.00    -0.001 A 
ENDROOT
TORSDOF 0
ENDMDL
