MODEL 1
REMARK minimizedAffinity -3.56131411
REMARK minimizedRMSD -1
REMARK  0 active torsions:
REMARK  status: ('A' for Active; 'I' for Inactive)
ROOT
ATOM      1  C   UNL d   1      -0.222  -1.614  -0.309  0.00  0.00     0.078 C 
ATOM      2  C1  UNL d   1      -0.198  -0.147   0.004  0.00  0.00    -0.077 A 
ATOM      3  C2  UNL d   1      -1.224   0.448   0.748  0.00  0.00    -0.001 A 
ATOM      4  C3  UNL d   1      -1.194   1.816   1.024  0.00  0.00     0.003 A 
ATOM      5  C4  UNL d   1      -0.141   2.601   0.558  0.00  0.00    -0.005 A 
ATOM      6  C5  UNL d   1       0.883   2.018  -0.186  0.00  0.00     0.003 A 
ATOM      7  C6  UNL d   1       0.855   0.650  -0.462  0.00  0.00    -0.001 A 
ENDROOT
TORSDOF 0
ENDMDL
