MODEL 1
REMARK minimizedAffinity -5.94393063
REMARK minimizedRMSD -1
REMARK  0 active torsions:
REMARK  status: ('A' for Active; 'I' for Inactive)
ROOT
ATOM      1  C   UNL d   1      -0.029  -0.784   0.317  0.00  0.00     0.078 C 
ATOM      2  C1  UNL d   1       0.431   0.643   0.342  0.00  0.00    -0.077 A 
ATOM      3  C2  UNL d   1       1.791   0.960   0.440  0.00  0.00    -0.001 A 
ATOM      4  C3  UNL d   1       2.204   2.293   0.472  0.00  0.00     0.003 A 
ATOM      5  C4  UNL d   1       1.263   3.319   0.407  0.00  0.00    -0.005 A 
ATOM      6  C5  UNL d   1      -0.093   3.013   0.312  0.00  0.00     0.003 A 
ATOM      7  C6  UNL d   1      -0.508   1.680   0.280  0.00  0.00    -0.001 A 
ENDROOT
TORSDOF 0
ENDMDL
