MODEL 1
REMARK minimizedAffinity 0.342115462
REMARK minimizedRMSD -1
REMARK  0 active torsions:
REMARK  status: ('A' for Active; 'I' for Inactive)
ROOT
ATOM      1  C   UNL d   1      -1.270  -2.756  -1.019  0.00  0.00     0.078 C 
ATOM      2  C1  UNL d   1      -1.098  -1.436  -0.329  0.00  0.00    -0.077 A 
ATOM      3  C2  UNL d   1      -2.199  -0.612  -0.063  0.00  0.00    -0.001 A 
ATOM      4  C3  UNL d   1      -2.023   0.619   0.571  0.00  0.00     0.003 A 
ATOM      5  C4  UNL d   1      -0.747   1.038   0.943  0.00  0.00    -0.005 A 
ATOM      6  C5  UNL d   1       0.355   0.226   0.680  0.00  0.00     0.003 A 
ATOM      7  C6  UNL d   1       0.181  -1.005   0.046  0.00  0.00    -0.001 A 
ENDROOT
TORSDOF 0
ENDMDL
