MODEL 1
REMARK minimizedAffinity -3.81223178
REMARK minimizedRMSD -1
REMARK  0 active torsions:
REMARK  status: ('A' for Active; 'I' for Inactive)
ROOT
ATOM      1  C   UNL d   1       1.329   2.079   1.802  0.00  0.00    -0.002 A 
ATOM      2  C1  UNL d   1       2.291   1.990   0.807  0.00  0.00     0.010 A 
ATOM      3  C2  UNL d   1       2.045   1.257  -0.356  0.00  0.00     0.041 A 
ATOM      4  C3  UNL d   1       0.802   0.611  -0.504  0.00  0.00    -0.075 A 
ATOM      5  S   UNL d   1       0.279  -0.341  -1.842  0.00  0.00     0.015 SA
ATOM      6  C4  UNL d   1      -1.236  -0.651  -1.125  0.00  0.00     0.022 A 
ATOM      7  C5  UNL d   1      -1.356  -0.051   0.106  0.00  0.00     0.026 A 
ATOM      8  C6  UNL d   1      -0.184   0.687   0.484  0.00  0.00    -0.082 A 
ATOM      9  C7  UNL d   1       0.097   1.437   1.652  0.00  0.00     0.045 A 
ENDROOT
TORSDOF 0
ENDMDL
