MODEL 1
REMARK minimizedAffinity -4.08244038
REMARK minimizedRMSD -1
REMARK  0 active torsions:
REMARK  status: ('A' for Active; 'I' for Inactive)
ROOT
ATOM      1  C   UNL d   1       0.600   2.498   1.490  0.00  0.00    -0.002 A 
ATOM      2  C1  UNL d   1       1.685   2.432   0.627  0.00  0.00     0.010 A 
ATOM      3  C2  UNL d   1       1.908   1.291  -0.147  0.00  0.00     0.041 A 
ATOM      4  C3  UNL d   1       1.013   0.208  -0.038  0.00  0.00    -0.075 A 
ATOM      5  S   UNL d   1       1.087  -1.290  -0.889  0.00  0.00     0.015 SA
ATOM      6  C4  UNL d   1      -0.320  -1.877  -0.127  0.00  0.00     0.022 A 
ATOM      7  C5  UNL d   1      -0.845  -0.966   0.758  0.00  0.00     0.026 A 
ATOM      8  C6  UNL d   1      -0.086   0.251   0.823  0.00  0.00    -0.082 A 
ATOM      9  C7  UNL d   1      -0.285   1.421   1.595  0.00  0.00     0.045 A 
ENDROOT
TORSDOF 0
ENDMDL
