MODEL 1
REMARK minimizedAffinity 6.48714828
REMARK minimizedRMSD -1
REMARK  0 active torsions:
REMARK  status: ('A' for Active; 'I' for Inactive)
ROOT
ATOM      1  C   UNL d   1      -5.700  -3.809  -0.825  0.00  0.00    -0.002 A 
ATOM      2  C1  UNL d   1      -4.734  -3.846   0.170  0.00  0.00     0.010 A 
ATOM      3  C2  UNL d   1      -3.472  -3.286  -0.043  0.00  0.00     0.041 A 
ATOM      4  C3  UNL d   1      -3.197  -2.680  -1.285  0.00  0.00    -0.075 A 
ATOM      5  S   UNL d   1      -1.723  -1.929  -1.771  0.00  0.00     0.015 SA
ATOM      6  C4  UNL d   1      -2.342  -1.539  -3.310  0.00  0.00     0.022 A 
ATOM      7  C5  UNL d   1      -3.640  -1.965  -3.467  0.00  0.00     0.026 A 
ATOM      8  C6  UNL d   1      -4.154  -2.629  -2.302  0.00  0.00    -0.082 A 
ATOM      9  C7  UNL d   1      -5.423  -3.207  -2.056  0.00  0.00     0.045 A 
ENDROOT
TORSDOF 0
ENDMDL
