MODEL 1
REMARK minimizedAffinity -3.01541543
REMARK minimizedRMSD -1
REMARK  0 active torsions:
REMARK  status: ('A' for Active; 'I' for Inactive)
ROOT
ATOM      1  C   UNL d   1       0.588  -1.420  -0.226  0.00  0.00    -0.002 A 
ATOM      2  C1  UNL d   1      -0.329  -0.730   0.555  0.00  0.00     0.010 A 
ATOM      3  C2  UNL d   1      -0.014   0.527   1.075  0.00  0.00     0.041 A 
ATOM      4  C3  UNL d   1       1.249   1.085   0.794  0.00  0.00    -0.075 A 
ATOM      5  S   UNL d   1       1.853   2.610   1.324  0.00  0.00     0.015 SA
ATOM      6  C4  UNL d   1       3.341   2.382   0.526  0.00  0.00     0.022 A 
ATOM      7  C5  UNL d   1       3.393   1.177  -0.133  0.00  0.00     0.026 A 
ATOM      8  C6  UNL d   1       2.188   0.409   0.010  0.00  0.00    -0.082 A 
ATOM      9  C7  UNL d   1       1.840  -0.863  -0.503  0.00  0.00     0.045 A 
ENDROOT
TORSDOF 0
ENDMDL
