MODEL 1
REMARK minimizedAffinity -1.97808301
REMARK minimizedRMSD -1
REMARK  0 active torsions:
REMARK  status: ('A' for Active; 'I' for Inactive)
ROOT
ATOM      1  C   UNL d   1      -0.973   1.478   1.880  0.00  0.00    -0.002 A 
ATOM      2  C1  UNL d   1      -1.214   0.592   0.840  0.00  0.00     0.010 A 
ATOM      3  C2  UNL d   1      -0.162   0.113   0.057  0.00  0.00     0.041 A 
ATOM      4  C3  UNL d   1       1.150   0.541   0.341  0.00  0.00    -0.075 A 
ATOM      5  S   UNL d   1       2.594   0.085  -0.483  0.00  0.00     0.015 SA
ATOM      6  C4  UNL d   1       3.565   1.056   0.527  0.00  0.00     0.022 A 
ATOM      7  C5  UNL d   1       2.822   1.718   1.475  0.00  0.00     0.026 A 
ATOM      8  C6  UNL d   1       1.418   1.432   1.384  0.00  0.00    -0.082 A 
ATOM      9  C7  UNL d   1       0.330   1.901   2.159  0.00  0.00     0.045 A 
ENDROOT
TORSDOF 0
ENDMDL
