MODEL 1
REMARK minimizedAffinity 0.408258319
REMARK minimizedRMSD -1
REMARK  0 active torsions:
REMARK  status: ('A' for Active; 'I' for Inactive)
ROOT
ATOM      1  C   UNL d   1      -5.082  -3.884  -2.636  0.00  0.00    -0.002 A 
ATOM      2  C1  UNL d   1      -4.585  -3.348  -1.457  0.00  0.00     0.010 A 
ATOM      3  C2  UNL d   1      -3.538  -2.424  -1.481  0.00  0.00     0.041 A 
ATOM      4  C3  UNL d   1      -2.996  -2.042  -2.724  0.00  0.00    -0.075 A 
ATOM      5  S   UNL d   1      -1.711  -0.925  -2.998  0.00  0.00     0.015 SA
ATOM      6  C4  UNL d   1      -1.793  -1.132  -4.688  0.00  0.00     0.022 A 
ATOM      7  C5  UNL d   1      -2.770  -2.028  -5.052  0.00  0.00     0.026 A 
ATOM      8  C6  UNL d   1      -3.480  -2.567  -3.926  0.00  0.00    -0.082 A 
ATOM      9  C7  UNL d   1      -4.541  -3.502  -3.867  0.00  0.00     0.045 A 
ENDROOT
TORSDOF 0
ENDMDL
