MODEL 1
REMARK minimizedAffinity -2.35628343
REMARK minimizedRMSD -1
REMARK  0 active torsions:
REMARK  status: ('A' for Active; 'I' for Inactive)
ROOT
ATOM      1  C   UNL d   1      -0.799  -1.225  -2.017  0.00  0.00    -0.002 A 
ATOM      2  C1  UNL d   1      -1.539  -1.078  -3.182  0.00  0.00     0.010 A 
ATOM      3  C2  UNL d   1      -2.827  -1.609  -3.277  0.00  0.00     0.041 A 
ATOM      4  C3  UNL d   1      -3.365  -2.294  -2.170  0.00  0.00    -0.075 A 
ATOM      5  S   UNL d   1      -4.922  -3.026  -2.057  0.00  0.00     0.015 SA
ATOM      6  C4  UNL d   1      -4.642  -3.550  -0.460  0.00  0.00     0.022 A 
ATOM      7  C5  UNL d   1      -3.397  -3.185  -0.008  0.00  0.00     0.026 A 
ATOM      8  C6  UNL d   1      -2.640  -2.454  -0.986  0.00  0.00    -0.082 A 
ATOM      9  C7  UNL d   1      -1.336  -1.906  -0.921  0.00  0.00     0.045 A 
ENDROOT
TORSDOF 0
ENDMDL
