MODEL 1
REMARK minimizedAffinity -0.192479655
REMARK minimizedRMSD -1
REMARK  0 active torsions:
REMARK  status: ('A' for Active; 'I' for Inactive)
ROOT
ATOM      1  C   UNL d   1       0.114   1.935   1.943  0.00  0.00    -0.002 A 
ATOM      2  C1  UNL d   1       1.057   2.276   0.983  0.00  0.00     0.010 A 
ATOM      3  C2  UNL d   1       1.137   1.568  -0.217  0.00  0.00     0.041 A 
ATOM      4  C3  UNL d   1       0.244   0.501  -0.440  0.00  0.00    -0.075 A 
ATOM      5  S   UNL d   1       0.157  -0.508  -1.835  0.00  0.00     0.015 SA
ATOM      6  C4  UNL d   1      -1.134  -1.415  -1.191  0.00  0.00     0.022 A 
ATOM      7  C5  UNL d   1      -1.502  -0.973   0.058  0.00  0.00     0.026 A 
ATOM      8  C6  UNL d   1      -0.714   0.139   0.511  0.00  0.00    -0.082 A 
ATOM      9  C7  UNL d   1      -0.770   0.876   1.719  0.00  0.00     0.045 A 
ENDROOT
TORSDOF 0
ENDMDL
