MODEL 1
REMARK minimizedAffinity -4.17539024
REMARK minimizedRMSD -1
REMARK  0 active torsions:
REMARK  status: ('A' for Active; 'I' for Inactive)
ROOT
ATOM      1  C   UNL d   1       3.325   2.464   0.926  0.00  0.00    -0.002 A 
ATOM      2  C1  UNL d   1       3.597   1.330   0.172  0.00  0.00     0.010 A 
ATOM      3  C2  UNL d   1       2.574   0.446  -0.174  0.00  0.00     0.041 A 
ATOM      4  C3  UNL d   1       1.260   0.723   0.251  0.00  0.00    -0.075 A 
ATOM      5  S   UNL d   1      -0.152  -0.217  -0.056  0.00  0.00     0.015 SA
ATOM      6  C4  UNL d   1      -1.150   0.864   0.805  0.00  0.00     0.022 A 
ATOM      7  C5  UNL d   1      -0.439   1.922   1.321  0.00  0.00     0.026 A 
ATOM      8  C6  UNL d   1       0.961   1.858   1.010  0.00  0.00    -0.082 A 
ATOM      9  C7  UNL d   1       2.020   2.735   1.346  0.00  0.00     0.045 A 
ENDROOT
TORSDOF 0
ENDMDL
