MODEL 1
REMARK minimizedAffinity -2.6157136
REMARK minimizedRMSD -1
REMARK  0 active torsions:
REMARK  status: ('A' for Active; 'I' for Inactive)
ROOT
ATOM      1  C   UNL d   1       2.569   1.253   1.821  0.00  0.00    -0.002 A 
ATOM      2  C1  UNL d   1       3.148   0.495   0.813  0.00  0.00     0.010 A 
ATOM      3  C2  UNL d   1       2.353  -0.251  -0.060  0.00  0.00     0.041 A 
ATOM      4  C3  UNL d   1       0.953  -0.220   0.098  0.00  0.00    -0.075 A 
ATOM      5  S   UNL d   1      -0.219  -1.053  -0.853  0.00  0.00     0.015 SA
ATOM      6  C4  UNL d   1      -1.515  -0.421   0.056  0.00  0.00     0.022 A 
ATOM      7  C5  UNL d   1      -1.082   0.407   1.065  0.00  0.00     0.026 A 
ATOM      8  C6  UNL d   1       0.347   0.537   1.106  0.00  0.00    -0.082 A 
ATOM      9  C7  UNL d   1       1.180   1.281   1.975  0.00  0.00     0.045 A 
ENDROOT
TORSDOF 0
ENDMDL
