MODEL 1
REMARK minimizedAffinity -2.90673709
REMARK minimizedRMSD -1
REMARK  0 active torsions:
REMARK  status: ('A' for Active; 'I' for Inactive)
ROOT
ATOM      1  C   UNL d   1      -0.061   1.630   1.928  0.00  0.00    -0.002 A 
ATOM      2  C1  UNL d   1      -0.993   0.633   1.674  0.00  0.00     0.010 A 
ATOM      3  C2  UNL d   1      -0.656  -0.470   0.887  0.00  0.00     0.041 A 
ATOM      4  C3  UNL d   1       0.646  -0.557   0.356  0.00  0.00    -0.075 A 
ATOM      5  S   UNL d   1       1.284  -1.816  -0.634  0.00  0.00     0.015 SA
ATOM      6  C4  UNL d   1       2.808  -1.061  -0.742  0.00  0.00     0.022 A 
ATOM      7  C5  UNL d   1       2.847   0.124  -0.046  0.00  0.00     0.026 A 
ATOM      8  C6  UNL d   1       1.602   0.434   0.599  0.00  0.00    -0.082 A 
ATOM      9  C7  UNL d   1       1.229   1.540   1.400  0.00  0.00     0.045 A 
ENDROOT
TORSDOF 0
ENDMDL
