MODEL 1
REMARK minimizedAffinity -3.88763571
REMARK minimizedRMSD -1
REMARK  0 active torsions:
REMARK  status: ('A' for Active; 'I' for Inactive)
ROOT
ATOM      1  C   UNL d   1       0.928   2.308   1.690  0.00  0.00    -0.002 A 
ATOM      2  C1  UNL d   1      -0.027   1.463   2.237  0.00  0.00     0.010 A 
ATOM      3  C2  UNL d   1      -0.468   0.340   1.535  0.00  0.00     0.041 A 
ATOM      4  C3  UNL d   1       0.075   0.076   0.262  0.00  0.00    -0.075 A 
ATOM      5  S   UNL d   1      -0.313  -1.242  -0.780  0.00  0.00     0.015 SA
ATOM      6  C4  UNL d   1       0.781  -0.715  -1.976  0.00  0.00     0.022 A 
ATOM      7  C5  UNL d   1       1.435   0.437  -1.606  0.00  0.00     0.026 A 
ATOM      8  C6  UNL d   1       1.039   0.911  -0.310  0.00  0.00    -0.082 A 
ATOM      9  C7  UNL d   1       1.464   2.043   0.427  0.00  0.00     0.045 A 
ENDROOT
TORSDOF 0
ENDMDL
