MODEL 1
REMARK minimizedAffinity -6.09753132
REMARK minimizedRMSD -1
REMARK  1 active torsions:
REMARK  status: ('A' for Active; 'I' for Inactive)
REMARK    1  A    between atoms: C1_2  and  C2_3 
ROOT
ATOM      1  C2  UNL d   1      -0.771   0.708   0.880  0.00  0.00    -0.073 A 
ATOM      2  C3  UNL d   1      -1.541   1.856   0.662  0.00  0.00    -0.002 A 
ATOM      3  C4  UNL d   1      -1.834   2.273  -0.637  0.00  0.00     0.004 A 
ATOM      4  C5  UNL d   1      -1.367   1.544  -1.730  0.00  0.00    -0.004 A 
ATOM      5  C6  UNL d   1      -0.606   0.387  -1.533  0.00  0.00    -0.075 A 
ATOM      6  C7  UNL d   1      -0.094  -0.407  -2.699  0.00  0.00     0.076 C 
ATOM      7  C8  UNL d   1      -0.314  -0.024  -0.226  0.00  0.00     0.001 A 
ENDROOT
BRANCH   1   8
ATOM      8  C1  UNL d   1      -0.458   0.250   2.281  0.00  0.00     0.053 C 
ATOM      9  C   UNL d   1      -0.382  -1.265   2.381  0.00  0.00     0.018 C 
ENDBRANCH   1   8
TORSDOF 1
ENDMDL
