MODEL 1
REMARK minimizedAffinity -4.97176218
REMARK minimizedRMSD -1
REMARK  1 active torsions:
REMARK  status: ('A' for Active; 'I' for Inactive)
REMARK    1  A    between atoms: C1_2  and  C2_3 
ROOT
ATOM      1  C2  UNL d   1       1.109  -2.416  -0.994  0.00  0.00    -0.073 A 
ATOM      2  C3  UNL d   1      -0.064  -3.053  -1.413  0.00  0.00    -0.002 A 
ATOM      3  C4  UNL d   1      -0.195  -4.438  -1.295  0.00  0.00     0.004 A 
ATOM      4  C5  UNL d   1       0.841  -5.197  -0.752  0.00  0.00    -0.004 A 
ATOM      5  C6  UNL d   1       2.016  -4.577  -0.316  0.00  0.00    -0.075 A 
ATOM      6  C7  UNL d   1       3.141  -5.380   0.270  0.00  0.00     0.076 C 
ATOM      7  C8  UNL d   1       2.141  -3.187  -0.440  0.00  0.00     0.001 A 
ENDROOT
BRANCH   1   8
ATOM      8  C1  UNL d   1       1.253  -0.921  -1.113  0.00  0.00     0.053 C 
ATOM      9  C   UNL d   1       0.644  -0.193   0.075  0.00  0.00     0.018 C 
ENDBRANCH   1   8
TORSDOF 1
ENDMDL
