MODEL 1
REMARK minimizedAffinity -1.07763803
REMARK minimizedRMSD -1
REMARK  1 active torsions:
REMARK  status: ('A' for Active; 'I' for Inactive)
REMARK    1  A    between atoms: C1_2  and  C2_3 
ROOT
ATOM      1  C2  UNL d   1       0.460  -0.532  -0.315  0.00  0.00    -0.073 A 
ATOM      2  C3  UNL d   1       0.872   0.311  -1.353  0.00  0.00    -0.002 A 
ATOM      3  C4  UNL d   1       0.490   1.654  -1.365  0.00  0.00     0.004 A 
ATOM      4  C5  UNL d   1      -0.299   2.168  -0.336  0.00  0.00    -0.004 A 
ATOM      5  C6  UNL d   1      -0.710   1.344   0.717  0.00  0.00    -0.075 A 
ATOM      6  C7  UNL d   1      -1.561   1.881   1.830  0.00  0.00     0.076 C 
ATOM      7  C8  UNL d   1      -0.325  -0.003   0.720  0.00  0.00     0.001 A 
ENDROOT
BRANCH   1   8
ATOM      8  C1  UNL d   1       0.875  -1.980  -0.295  0.00  0.00     0.053 C 
ATOM      9  C   UNL d   1       0.127  -2.802  -1.333  0.00  0.00     0.018 C 
ENDBRANCH   1   8
TORSDOF 1
ENDMDL
