MODEL 1
REMARK minimizedAffinity -4.40516233
REMARK minimizedRMSD -1
REMARK  1 active torsions:
REMARK  status: ('A' for Active; 'I' for Inactive)
REMARK    1  A    between atoms: C1_2  and  C2_3 
ROOT
ATOM      1  C2  UNL d   1       0.612  -0.386  -0.698  0.00  0.00    -0.073 A 
ATOM      2  C3  UNL d   1       0.952   0.766  -1.416  0.00  0.00    -0.002 A 
ATOM      3  C4  UNL d   1       0.341   1.986  -1.122  0.00  0.00     0.004 A 
ATOM      4  C5  UNL d   1      -0.609   2.068  -0.105  0.00  0.00    -0.004 A 
ATOM      5  C6  UNL d   1      -0.954   0.931   0.632  0.00  0.00    -0.075 A 
ATOM      6  C7  UNL d   1      -1.976   1.002   1.728  0.00  0.00     0.076 C 
ATOM      7  C8  UNL d   1      -0.338  -0.291   0.330  0.00  0.00     0.001 A 
ENDROOT
BRANCH   1   8
ATOM      8  C1  UNL d   1       1.273  -1.704  -1.007  0.00  0.00     0.053 C 
ATOM      9  C   UNL d   1       0.450  -2.543  -1.971  0.00  0.00     0.018 C 
ENDBRANCH   1   8
TORSDOF 1
ENDMDL
