MODEL 1
REMARK minimizedAffinity 0.212553009
REMARK minimizedRMSD -1
REMARK  1 active torsions:
REMARK  status: ('A' for Active; 'I' for Inactive)
REMARK    1  A    between atoms: C1_2  and  C2_3 
ROOT
ATOM      1  C2  UNL d   1       0.178  -0.004   1.204  0.00  0.00    -0.073 A 
ATOM      2  C3  UNL d   1      -0.733  -0.826   0.531  0.00  0.00    -0.002 A 
ATOM      3  C4  UNL d   1      -1.095  -0.546  -0.787  0.00  0.00     0.004 A 
ATOM      4  C5  UNL d   1      -0.546   0.553  -1.447  0.00  0.00    -0.004 A 
ATOM      5  C6  UNL d   1       0.375   1.380  -0.796  0.00  0.00    -0.075 A 
ATOM      6  C7  UNL d   1       0.973   2.567  -1.491  0.00  0.00     0.076 C 
ATOM      7  C8  UNL d   1       0.731   1.093   0.529  0.00  0.00     0.001 A 
ENDROOT
BRANCH   1   8
ATOM      8  C1  UNL d   1       0.577  -0.307   2.625  0.00  0.00     0.053 C 
ATOM      9  C   UNL d   1      -0.488  -1.107   3.358  0.00  0.00     0.018 C 
ENDBRANCH   1   8
TORSDOF 1
ENDMDL
