MODEL 1
REMARK minimizedAffinity -6.34482813
REMARK minimizedRMSD -1
REMARK  1 active torsions:
REMARK  status: ('A' for Active; 'I' for Inactive)
REMARK    1  A    between atoms: C1_2  and  C2_3 
ROOT
ATOM      1  C2  UNL d   1       0.172   0.664  -0.959  0.00  0.00    -0.073 A 
ATOM      2  C3  UNL d   1       0.772   1.907  -1.190  0.00  0.00    -0.002 A 
ATOM      3  C4  UNL d   1       0.220   3.068  -0.646  0.00  0.00     0.004 A 
ATOM      4  C5  UNL d   1      -0.930   2.997   0.140  0.00  0.00    -0.004 A 
ATOM      5  C6  UNL d   1      -1.537   1.762   0.393  0.00  0.00    -0.075 A 
ATOM      6  C7  UNL d   1      -2.776   1.669   1.234  0.00  0.00     0.076 C 
ATOM      7  C8  UNL d   1      -0.979   0.601  -0.160  0.00  0.00     0.001 A 
ENDROOT
BRANCH   1   8
ATOM      8  C1  UNL d   1       0.767  -0.593  -1.540  0.00  0.00     0.053 C 
ATOM      9  C   UNL d   1      -0.247  -1.380  -2.354  0.00  0.00     0.018 C 
ENDBRANCH   1   8
TORSDOF 1
ENDMDL
