MODEL 1
REMARK minimizedAffinity -3.45554852
REMARK minimizedRMSD -1
REMARK  1 active torsions:
REMARK  status: ('A' for Active; 'I' for Inactive)
REMARK    1  A    between atoms: C1_2  and  C2_3 
ROOT
ATOM      1  C2  UNL d   1       0.251  -0.856   0.099  0.00  0.00    -0.073 A 
ATOM      2  C3  UNL d   1      -0.502  -1.260   1.208  0.00  0.00    -0.002 A 
ATOM      3  C4  UNL d   1      -1.158  -0.314   1.997  0.00  0.00     0.004 A 
ATOM      4  C5  UNL d   1      -1.074   1.043   1.682  0.00  0.00    -0.004 A 
ATOM      5  C6  UNL d   1      -0.337   1.465   0.571  0.00  0.00    -0.075 A 
ATOM      6  C7  UNL d   1      -0.235   2.920   0.220  0.00  0.00     0.076 C 
ATOM      7  C8  UNL d   1       0.321   0.509  -0.215  0.00  0.00     0.001 A 
ENDROOT
BRANCH   1   8
ATOM      8  C1  UNL d   1       0.955  -1.874  -0.760  0.00  0.00     0.053 C 
ATOM      9  C   UNL d   1       0.110  -2.299  -1.950  0.00  0.00     0.018 C 
ENDBRANCH   1   8
TORSDOF 1
ENDMDL
