MODEL 1
REMARK minimizedAffinity -5.27278757
REMARK minimizedRMSD -1
REMARK  1 active torsions:
REMARK  status: ('A' for Active; 'I' for Inactive)
REMARK    1  A    between atoms: C1_2  and  C2_3 
ROOT
ATOM      1  C2  UNL d   1       0.422  -0.136  -0.166  0.00  0.00    -0.073 A 
ATOM      2  C3  UNL d   1      -0.236  -0.232   1.065  0.00  0.00    -0.002 A 
ATOM      3  C4  UNL d   1      -0.732   0.913   1.691  0.00  0.00     0.004 A 
ATOM      4  C5  UNL d   1      -0.580   2.162   1.090  0.00  0.00    -0.004 A 
ATOM      5  C6  UNL d   1       0.064   2.277  -0.146  0.00  0.00    -0.075 A 
ATOM      6  C7  UNL d   1       0.237   3.614  -0.805  0.00  0.00     0.076 C 
ATOM      7  C8  UNL d   1       0.561   1.123  -0.767  0.00  0.00     0.001 A 
ENDROOT
BRANCH   1   8
ATOM      8  C1  UNL d   1       0.953  -1.370  -0.848  0.00  0.00     0.053 C 
ATOM      9  C   UNL d   1       0.304  -1.595  -2.205  0.00  0.00     0.018 C 
ENDBRANCH   1   8
TORSDOF 1
ENDMDL
