MODEL 1
REMARK minimizedAffinity -3.63591528
REMARK minimizedRMSD -1
REMARK  1 active torsions:
REMARK  status: ('A' for Active; 'I' for Inactive)
REMARK    1  A    between atoms: C1_2  and  C2_3 
ROOT
ATOM      1  C2  UNL d   1       0.035  -1.462  -1.468  0.00  0.00    -0.073 A 
ATOM      2  C3  UNL d   1       0.253  -0.131  -1.843  0.00  0.00    -0.002 A 
ATOM      3  C4  UNL d   1       0.451   0.852  -0.873  0.00  0.00     0.004 A 
ATOM      4  C5  UNL d   1       0.441   0.514   0.480  0.00  0.00    -0.004 A 
ATOM      5  C6  UNL d   1       0.237  -0.812   0.875  0.00  0.00    -0.075 A 
ATOM      6  C7  UNL d   1       0.222  -1.191   2.327  0.00  0.00     0.076 C 
ATOM      7  C8  UNL d   1       0.036  -1.793  -0.105  0.00  0.00     0.001 A 
ENDROOT
BRANCH   1   8
ATOM      8  C1  UNL d   1      -0.174  -2.528  -2.512  0.00  0.00     0.053 C 
ATOM      9  C   UNL d   1      -0.285  -3.914  -1.898  0.00  0.00     0.018 C 
ENDBRANCH   1   8
TORSDOF 1
ENDMDL
