MODEL 1
REMARK minimizedAffinity 1.97301805
REMARK minimizedRMSD -1
REMARK  1 active torsions:
REMARK  status: ('A' for Active; 'I' for Inactive)
REMARK    1  A    between atoms: C1_2  and  C2_3 
ROOT
ATOM      1  C2  UNL d   1      -0.820   0.254   0.564  0.00  0.00    -0.073 A 
ATOM      2  C3  UNL d   1      -2.194   0.444   0.377  0.00  0.00    -0.002 A 
ATOM      3  C4  UNL d   1      -2.701   0.716  -0.895  0.00  0.00     0.004 A 
ATOM      4  C5  UNL d   1      -1.842   0.793  -1.991  0.00  0.00    -0.004 A 
ATOM      5  C6  UNL d   1      -0.468   0.594  -1.826  0.00  0.00    -0.075 A 
ATOM      6  C7  UNL d   1       0.469   0.676  -2.995  0.00  0.00     0.076 C 
ATOM      7  C8  UNL d   1       0.034   0.324  -0.546  0.00  0.00     0.001 A 
ENDROOT
BRANCH   1   8
ATOM      8  C1  UNL d   1      -0.269  -0.046   1.934  0.00  0.00     0.053 C 
ATOM      9  C   UNL d   1       1.023  -0.845   1.866  0.00  0.00     0.018 C 
ENDBRANCH   1   8
TORSDOF 1
ENDMDL
