MODEL 1
REMARK minimizedAffinity -0.683652043
REMARK minimizedRMSD -1
REMARK  0 active torsions:
REMARK  status: ('A' for Active; 'I' for Inactive)
ROOT
ATOM      1  C1  DEN d   1       0.772   5.451  -5.999  0.00  0.00     0.130 A 
ATOM      2  C2  DEN d   1       1.589   4.241  -5.971  0.00  0.00    -0.031 A 
ATOM      3  C3  DEN d   1       0.681   3.077  -5.956  0.00  0.00     0.027 A 
ATOM      4  C4  DEN d   1      -1.898   3.030  -5.982  0.00  0.00     0.027 A 
ATOM      5  C5  DEN d   1      -3.034   3.808  -5.994  0.00  0.00    -0.003 A 
ATOM      6  C6  DEN d   1      -2.983   5.176  -5.975  0.00  0.00     0.001 A 
ATOM      7  C7  DEN d   1      -1.769   5.810  -5.988  0.00  0.00     0.017 A 
ATOM      8  C8  DEN d   1      -0.618   5.033  -5.968  0.00  0.00    -0.094 A 
ATOM      9  C9  DEN d   1      -0.691   3.650  -6.000  0.00  0.00    -0.072 A 
ENDROOT
TORSDOF 0
ENDMDL
