MODEL 1
REMARK minimizedAffinity 7.35698843
REMARK minimizedRMSD -1
REMARK  0 active torsions:
REMARK  status: ('A' for Active; 'I' for Inactive)
ROOT
ATOM      1  C1  DEN d   1       0.053   1.071   1.635  0.00  0.00     0.130 A 
ATOM      2  C2  DEN d   1      -0.378  -0.258   1.210  0.00  0.00    -0.031 A 
ATOM      3  C3  DEN d   1      -0.136  -0.373  -0.242  0.00  0.00     0.027 A 
ATOM      4  C4  DEN d   1       0.861   1.367  -1.864  0.00  0.00     0.027 A 
ATOM      5  C5  DEN d   1       1.364   2.645  -1.969  0.00  0.00    -0.003 A 
ATOM      6  C6  DEN d   1       1.433   3.493  -0.896  0.00  0.00     0.001 A 
ATOM      7  C7  DEN d   1       1.033   3.057   0.340  0.00  0.00     0.017 A 
ATOM      8  C8  DEN d   1       0.518   1.772   0.452  0.00  0.00    -0.094 A 
ATOM      9  C9  DEN d   1       0.468   0.926  -0.642  0.00  0.00    -0.072 A 
ENDROOT
TORSDOF 0
ENDMDL
