MODEL 1
REMARK minimizedAffinity 12.0153141
REMARK minimizedRMSD -1
REMARK  0 active torsions:
REMARK  status: ('A' for Active; 'I' for Inactive)
ROOT
ATOM      1  C1  DEN d   1      -0.031   1.507  -5.963  0.00  0.00     0.130 A 
ATOM      2  C2  DEN d   1       1.231   2.242  -5.954  0.00  0.00    -0.031 A 
ATOM      3  C3  DEN d   1       0.918   3.685  -5.916  0.00  0.00     0.027 A 
ATOM      4  C4  DEN d   1      -1.384   4.846  -5.865  0.00  0.00     0.027 A 
ATOM      5  C5  DEN d   1      -2.746   4.639  -5.871  0.00  0.00    -0.003 A 
ATOM      6  C6  DEN d   1      -3.294   3.386  -5.942  0.00  0.00     0.001 A 
ATOM      7  C7  DEN d   1      -2.476   2.288  -5.964  0.00  0.00     0.017 A 
ATOM      8  C8  DEN d   1      -1.101   2.488  -5.966  0.00  0.00    -0.094 A 
ATOM      9  C9  DEN d   1      -0.567   3.763  -5.882  0.00  0.00    -0.072 A 
ENDROOT
TORSDOF 0
ENDMDL
