MODEL 1
REMARK minimizedAffinity 7.57399988
REMARK minimizedRMSD -1
REMARK  0 active torsions:
REMARK  status: ('A' for Active; 'I' for Inactive)
ROOT
ATOM      1  C1  DEN d   1       1.212   4.156  -5.965  0.00  0.00     0.130 A 
ATOM      2  C2  DEN d   1       0.780   2.762  -5.988  0.00  0.00    -0.031 A 
ATOM      3  C3  DEN d   1       1.986   1.910  -5.999  0.00  0.00     0.027 A 
ATOM      4  C4  DEN d   1       4.468   2.611  -5.979  0.00  0.00     0.027 A 
ATOM      5  C5  DEN d   1       5.331   3.684  -5.972  0.00  0.00    -0.003 A 
ATOM      6  C6  DEN d   1       4.886   4.979  -5.996  0.00  0.00     0.001 A 
ATOM      7  C7  DEN d   1       3.540   5.235  -5.983  0.00  0.00     0.017 A 
ATOM      8  C8  DEN d   1       2.664   4.158  -5.998  0.00  0.00    -0.094 A 
ATOM      9  C9  DEN d   1       3.133   2.856  -5.961  0.00  0.00    -0.072 A 
ENDROOT
TORSDOF 0
ENDMDL
