MODEL 1
REMARK minimizedAffinity 7.26439619
REMARK minimizedRMSD -1
REMARK  0 active torsions:
REMARK  status: ('A' for Active; 'I' for Inactive)
ROOT
ATOM      1  C1  DEN d   1      -2.982  -2.700  -1.498  0.00  0.00     0.130 A 
ATOM      2  C2  DEN d   1      -1.769  -3.201  -2.138  0.00  0.00    -0.031 A 
ATOM      3  C3  DEN d   1      -1.550  -4.587  -1.678  0.00  0.00     0.027 A 
ATOM      4  C4  DEN d   1      -2.967  -6.000  -0.051  0.00  0.00     0.027 A 
ATOM      5  C5  DEN d   1      -4.083  -6.000   0.757  0.00  0.00    -0.003 A 
ATOM      6  C6  DEN d   1      -4.884  -4.898   0.895  0.00  0.00     0.001 A 
ATOM      7  C7  DEN d   1      -4.607  -3.763   0.179  0.00  0.00     0.017 A 
ATOM      8  C8  DEN d   1      -3.479  -3.753  -0.631  0.00  0.00    -0.094 A 
ATOM      9  C9  DEN d   1      -2.688  -4.881  -0.767  0.00  0.00    -0.072 A 
ENDROOT
TORSDOF 0
ENDMDL
