MODEL 1
REMARK minimizedAffinity 6.11269379
REMARK minimizedRMSD -1
REMARK  0 active torsions:
REMARK  status: ('A' for Active; 'I' for Inactive)
ROOT
ATOM      1  C1  DEN d   1      -2.112   5.206  -5.934  0.00  0.00     0.130 A 
ATOM      2  C2  DEN d   1      -3.434   4.587  -5.964  0.00  0.00    -0.031 A 
ATOM      3  C3  DEN d   1      -3.252   3.122  -5.997  0.00  0.00     0.027 A 
ATOM      4  C4  DEN d   1      -1.062   1.759  -5.999  0.00  0.00     0.027 A 
ATOM      5  C5  DEN d   1       0.313   1.844  -5.992  0.00  0.00    -0.003 A 
ATOM      6  C6  DEN d   1       0.971   3.045  -6.000  0.00  0.00     0.001 A 
ATOM      7  C7  DEN d   1       0.253   4.212  -5.969  0.00  0.00     0.017 A 
ATOM      8  C8  DEN d   1      -1.133   4.135  -5.983  0.00  0.00    -0.094 A 
ATOM      9  C9  DEN d   1      -1.779   2.910  -5.963  0.00  0.00    -0.072 A 
ENDROOT
TORSDOF 0
ENDMDL
