MODEL 1
REMARK minimizedAffinity 1.96665096
REMARK minimizedRMSD -1
REMARK  0 active torsions:
REMARK  status: ('A' for Active; 'I' for Inactive)
ROOT
ATOM      1  C1  DEN d   1       2.937   3.196   2.572  0.00  0.00     0.130 A 
ATOM      2  C2  DEN d   1       4.007   4.006   1.997  0.00  0.00    -0.031 A 
ATOM      3  C3  DEN d   1       3.743   4.152   0.552  0.00  0.00     0.027 A 
ATOM      4  C4  DEN d   1       1.789   3.209  -0.844  0.00  0.00     0.027 A 
ATOM      5  C5  DEN d   1       0.640   2.450  -0.798  0.00  0.00    -0.003 A 
ATOM      6  C6  DEN d   1       0.199   1.863   0.358  0.00  0.00     0.001 A 
ATOM      7  C7  DEN d   1       0.886   2.062   1.526  0.00  0.00     0.017 A 
ATOM      8  C8  DEN d   1       2.049   2.821   1.487  0.00  0.00    -0.094 A 
ATOM      9  C9  DEN d   1       2.472   3.416   0.310  0.00  0.00    -0.072 A 
ENDROOT
TORSDOF 0
ENDMDL
