MODEL 1
REMARK minimizedAffinity -0.000393263588
REMARK minimizedRMSD -1
REMARK  0 active torsions:
REMARK  status: ('A' for Active; 'I' for Inactive)
ROOT
ATOM      1  C1  DEN d   1      -0.685   4.486  -5.999  0.00  0.00     0.130 A 
ATOM      2  C2  DEN d   1      -0.268   3.087  -5.966  0.00  0.00    -0.031 A 
ATOM      3  C3  DEN d   1      -1.483   2.248  -5.952  0.00  0.00     0.027 A 
ATOM      4  C4  DEN d   1      -3.957   2.976  -5.983  0.00  0.00     0.027 A 
ATOM      5  C5  DEN d   1      -4.809   4.058  -6.000  0.00  0.00    -0.003 A 
ATOM      6  C6  DEN d   1      -4.350   5.349  -5.983  0.00  0.00     0.001 A 
ATOM      7  C7  DEN d   1      -3.001   5.590  -5.995  0.00  0.00     0.017 A 
ATOM      8  C8  DEN d   1      -2.137   4.504  -5.970  0.00  0.00    -0.094 A 
ATOM      9  C9  DEN d   1      -2.620   3.207  -5.999  0.00  0.00    -0.072 A 
ENDROOT
TORSDOF 0
ENDMDL
