MODEL 1
REMARK minimizedAffinity 5.92217398
REMARK minimizedRMSD -1
REMARK  0 active torsions:
REMARK  status: ('A' for Active; 'I' for Inactive)
ROOT
ATOM      1  C1  DEN d   1       0.607   1.357  -5.901  0.00  0.00     0.130 A 
ATOM      2  C2  DEN d   1       1.795   2.206  -5.936  0.00  0.00    -0.031 A 
ATOM      3  C3  DEN d   1       1.349   3.613  -5.983  0.00  0.00     0.027 A 
ATOM      4  C4  DEN d   1      -1.053   4.555  -6.000  0.00  0.00     0.027 A 
ATOM      5  C5  DEN d   1      -2.389   4.221  -5.993  0.00  0.00    -0.003 A 
ATOM      6  C6  DEN d   1      -2.817   2.920  -5.989  0.00  0.00     0.001 A 
ATOM      7  C7  DEN d   1      -1.900   1.904  -5.946  0.00  0.00     0.017 A 
ATOM      8  C8  DEN d   1      -0.550   2.232  -5.961  0.00  0.00    -0.094 A 
ATOM      9  C9  DEN d   1      -0.138   3.554  -5.952  0.00  0.00    -0.072 A 
ENDROOT
TORSDOF 0
ENDMDL
