MODEL 1
REMARK minimizedAffinity 4.40707636
REMARK minimizedRMSD -1
REMARK  1 active torsions:
REMARK  status: ('A' for Active; 'I' for Inactive)
REMARK    1  A    between atoms: C3_4  and  O_7 
ROOT
ATOM      1  C   UNL d   1       5.927  -5.986  -3.772  0.00  0.00    -0.033 A 
ATOM      2  C1  UNL d   1       4.767  -5.985  -4.549  0.00  0.00     0.039 A 
ATOM      3  C2  UNL d   1       3.513  -5.988  -3.934  0.00  0.00    -0.080 A 
ATOM      4  C3  UNL d   1       3.433  -5.991  -2.545  0.00  0.00     0.150 A 
ATOM      5  C4  UNL d   1       4.585  -5.989  -1.764  0.00  0.00    -0.007 A 
ATOM      6  C5  UNL d   1       5.836  -5.987  -2.380  0.00  0.00     0.039 A 
ENDROOT
BRANCH   4   7
ATOM      7  O   UNL d   1       2.232  -5.999  -1.900  0.00  0.00    -0.526 OA
ATOM      8  H5  UNL d   1       1.525  -6.029  -2.566  0.00  0.00     0.418 HD
ENDBRANCH   4   7
TORSDOF 1
ENDMDL
