MODEL 1
REMARK minimizedAffinity -1.54454315
REMARK minimizedRMSD -1
REMARK  1 active torsions:
REMARK  status: ('A' for Active; 'I' for Inactive)
REMARK    1  A    between atoms: C3_4  and  O_7 
ROOT
ATOM      1  C   UNL d   1       1.695  -4.033   3.055  0.00  0.00    -0.033 A 
ATOM      2  C1  UNL d   1       0.997  -3.028   3.727  0.00  0.00     0.039 A 
ATOM      3  C2  UNL d   1       1.310  -1.687   3.500  0.00  0.00    -0.080 A 
ATOM      4  C3  UNL d   1       2.321  -1.364   2.598  0.00  0.00     0.150 A 
ATOM      5  C4  UNL d   1       3.017  -2.360   1.922  0.00  0.00    -0.007 A 
ATOM      6  C5  UNL d   1       2.704  -3.699   2.151  0.00  0.00     0.039 A 
ENDROOT
BRANCH   4   7
ATOM      7  O   UNL d   1       2.665  -0.069   2.347  0.00  0.00    -0.526 OA
ATOM      8  H5  UNL d   1       2.120   0.508   2.907  0.00  0.00     0.418 HD
ENDBRANCH   4   7
TORSDOF 1
ENDMDL
