MODEL 1
REMARK minimizedAffinity 4.16056538
REMARK minimizedRMSD -1
REMARK  1 active torsions:
REMARK  status: ('A' for Active; 'I' for Inactive)
REMARK    1  A    between atoms: C3_4  and  O_7 
ROOT
ATOM      1  C   UNL d   1       2.835  -2.339   1.616  0.00  0.00    -0.033 A 
ATOM      2  C1  UNL d   1       2.665  -3.703   1.861  0.00  0.00     0.039 A 
ATOM      3  C2  UNL d   1       1.718  -4.135   2.791  0.00  0.00    -0.080 A 
ATOM      4  C3  UNL d   1       0.947  -3.194   3.468  0.00  0.00     0.150 A 
ATOM      5  C4  UNL d   1       1.108  -1.833   3.226  0.00  0.00    -0.007 A 
ATOM      6  C5  UNL d   1       2.055  -1.404   2.298  0.00  0.00     0.039 A 
ENDROOT
BRANCH   4   7
ATOM      7  O   UNL d   1       0.013  -3.566   4.389  0.00  0.00    -0.526 OA
ATOM      8  H5  UNL d   1       0.033  -4.534   4.472  0.00  0.00     0.418 HD
ENDBRANCH   4   7
TORSDOF 1
ENDMDL
