MODEL 1
REMARK minimizedAffinity -0.394013345
REMARK minimizedRMSD -1
REMARK  1 active torsions:
REMARK  status: ('A' for Active; 'I' for Inactive)
REMARK    1  A    between atoms: C3_4  and  O_7 
ROOT
ATOM      1  C   UNL d   1       2.391  -3.493   2.618  0.00  0.00    -0.033 A 
ATOM      2  C1  UNL d   1       2.317  -2.192   2.115  0.00  0.00     0.039 A 
ATOM      3  C2  UNL d   1       2.031  -1.127   2.971  0.00  0.00    -0.080 A 
ATOM      4  C3  UNL d   1       1.822  -1.375   4.325  0.00  0.00     0.150 A 
ATOM      5  C4  UNL d   1       1.898  -2.668   4.833  0.00  0.00    -0.007 A 
ATOM      6  C5  UNL d   1       2.183  -3.730   3.977  0.00  0.00     0.039 A 
ENDROOT
BRANCH   4   7
ATOM      7  O   UNL d   1       1.536  -0.368   5.198  0.00  0.00    -0.526 OA
ATOM      8  H5  UNL d   1       1.487   0.466   4.701  0.00  0.00     0.418 HD
ENDBRANCH   4   7
TORSDOF 1
ENDMDL
