MODEL 1
REMARK minimizedAffinity 1.65372658
REMARK minimizedRMSD -1
REMARK  1 active torsions:
REMARK  status: ('A' for Active; 'I' for Inactive)
REMARK    1  A    between atoms: C3_4  and  O_7 
ROOT
ATOM      1  C   UNL d   1       2.678  -4.332   4.660  0.00  0.00    -0.033 A 
ATOM      2  C1  UNL d   1       2.012  -4.519   3.447  0.00  0.00     0.039 A 
ATOM      3  C2  UNL d   1       1.684  -3.419   2.652  0.00  0.00    -0.080 A 
ATOM      4  C3  UNL d   1       2.028  -2.140   3.079  0.00  0.00     0.150 A 
ATOM      5  C4  UNL d   1       2.695  -1.946   4.285  0.00  0.00    -0.007 A 
ATOM      6  C5  UNL d   1       3.021  -3.046   5.078  0.00  0.00     0.039 A 
ENDROOT
BRANCH   4   7
ATOM      7  O   UNL d   1       1.725  -1.035   2.340  0.00  0.00    -0.526 OA
ATOM      8  H5  UNL d   1       1.240  -1.320   1.547  0.00  0.00     0.418 HD
ENDBRANCH   4   7
TORSDOF 1
ENDMDL
