MODEL 1
REMARK minimizedAffinity 7.91386795
REMARK minimizedRMSD -1
REMARK  1 active torsions:
REMARK  status: ('A' for Active; 'I' for Inactive)
REMARK    1  A    between atoms: C3_4  and  O_7 
ROOT
ATOM      1  C   UNL d   1       1.819  -1.045   2.744  0.00  0.00    -0.033 A 
ATOM      2  C1  UNL d   1       0.697  -1.701   3.253  0.00  0.00     0.039 A 
ATOM      3  C2  UNL d   1       0.677  -3.095   3.330  0.00  0.00    -0.080 A 
ATOM      4  C3  UNL d   1       1.784  -3.820   2.897  0.00  0.00     0.150 A 
ATOM      5  C4  UNL d   1       2.907  -3.172   2.393  0.00  0.00    -0.007 A 
ATOM      6  C5  UNL d   1       2.925  -1.780   2.316  0.00  0.00     0.039 A 
ENDROOT
BRANCH   4   7
ATOM      7  O   UNL d   1       1.809  -5.182   2.948  0.00  0.00    -0.526 OA
ATOM      8  H5  UNL d   1       0.955  -5.492   3.291  0.00  0.00     0.418 HD
ENDBRANCH   4   7
TORSDOF 1
ENDMDL
