MODEL 1
REMARK minimizedAffinity 2.11810875
REMARK minimizedRMSD -1
REMARK  1 active torsions:
REMARK  status: ('A' for Active; 'I' for Inactive)
REMARK    1  A    between atoms: C3_4  and  O_7 
ROOT
ATOM      1  C   UNL d   1       1.166  -0.729   2.968  0.00  0.00    -0.033 A 
ATOM      2  C1  UNL d   1       2.134  -0.767   1.962  0.00  0.00     0.039 A 
ATOM      3  C2  UNL d   1       2.760  -1.972   1.639  0.00  0.00    -0.080 A 
ATOM      4  C3  UNL d   1       2.410  -3.130   2.328  0.00  0.00     0.150 A 
ATOM      5  C4  UNL d   1       1.444  -3.100   3.329  0.00  0.00    -0.007 A 
ATOM      6  C5  UNL d   1       0.820  -1.896   3.650  0.00  0.00     0.039 A 
ENDROOT
BRANCH   4   7
ATOM      7  O   UNL d   1       2.998  -4.329   2.052  0.00  0.00    -0.526 OA
ATOM      8  H5  UNL d   1       3.665  -4.192   1.359  0.00  0.00     0.418 HD
ENDBRANCH   4   7
TORSDOF 1
ENDMDL
