MODEL 1
REMARK minimizedAffinity 4.53001118
REMARK minimizedRMSD -1
REMARK  1 active torsions:
REMARK  status: ('A' for Active; 'I' for Inactive)
REMARK    1  A    between atoms: C3_4  and  O_7 
ROOT
ATOM      1  C   UNL d   1      -2.178   1.953  -0.120  0.00  0.00    -0.033 A 
ATOM      2  C1  UNL d   1      -1.557   0.709  -0.245  0.00  0.00     0.039 A 
ATOM      3  C2  UNL d   1      -1.712  -0.036  -1.416  0.00  0.00    -0.080 A 
ATOM      4  C3  UNL d   1      -2.488   0.475  -2.453  0.00  0.00     0.150 A 
ATOM      5  C4  UNL d   1      -3.106   1.715  -2.337  0.00  0.00    -0.007 A 
ATOM      6  C5  UNL d   1      -2.951   2.457  -1.166  0.00  0.00     0.039 A 
ENDROOT
BRANCH   4   7
ATOM      7  O   UNL d   1      -2.672  -0.218  -3.613  0.00  0.00    -0.526 OA
ATOM      8  H5  UNL d   1      -2.210  -1.069  -3.540  0.00  0.00     0.418 HD
ENDBRANCH   4   7
TORSDOF 1
ENDMDL
