MODEL 1
REMARK minimizedAffinity 0.967352986
REMARK minimizedRMSD -1
REMARK  1 active torsions:
REMARK  status: ('A' for Active; 'I' for Inactive)
REMARK    1  A    between atoms: C1_2  and  C2_3 
ROOT
ATOM      1  C2  UNL d   1       3.907  -1.135  -4.145  0.00  0.00    -0.077 A 
ATOM      2  C3  UNL d   1       5.057  -1.739  -4.672  0.00  0.00     0.002 A 
ATOM      3  C4  UNL d   1       5.852  -1.058  -5.596  0.00  0.00     0.002 A 
ATOM      4  C5  UNL d   1       5.508   0.231  -5.997  0.00  0.00    -0.004 A 
ATOM      5  C6  UNL d   1       4.365   0.839  -5.481  0.00  0.00     0.002 A 
ATOM      6  C7  UNL d   1       3.568   0.160  -4.558  0.00  0.00     0.002 A 
ENDROOT
BRANCH   1   7
ATOM      7  C1  UNL d   1       3.075  -1.849  -3.112  0.00  0.00     0.055 C 
ATOM      8  C   UNL d   1       2.317  -3.019  -3.723  0.00  0.00     0.019 C 
ENDBRANCH   1   7
TORSDOF 1
ENDMDL
