MODEL 1
REMARK minimizedAffinity -1.34809351
REMARK minimizedRMSD -1
REMARK  1 active torsions:
REMARK  status: ('A' for Active; 'I' for Inactive)
REMARK    1  A    between atoms: C1_2  and  C2_3 
ROOT
ATOM      1  C2  UNL d   1       4.081  -0.733  -3.998  0.00  0.00    -0.077 A 
ATOM      2  C3  UNL d   1       5.203  -1.399  -4.511  0.00  0.00     0.002 A 
ATOM      3  C4  UNL d   1       5.980  -0.808  -5.509  0.00  0.00     0.002 A 
ATOM      4  C5  UNL d   1       5.646   0.453  -6.000  0.00  0.00    -0.004 A 
ATOM      5  C6  UNL d   1       4.531   1.122  -5.497  0.00  0.00     0.002 A 
ATOM      6  C7  UNL d   1       3.752   0.533  -4.500  0.00  0.00     0.002 A 
ENDROOT
BRANCH   1   7
ATOM      7  C1  UNL d   1       3.270  -1.347  -2.887  0.00  0.00     0.055 C 
ATOM      8  C   UNL d   1       2.625  -2.652  -3.328  0.00  0.00     0.019 C 
ENDBRANCH   1   7
TORSDOF 1
ENDMDL
