MODEL 1
REMARK minimizedAffinity 12.3601027
REMARK minimizedRMSD -1
REMARK  1 active torsions:
REMARK  status: ('A' for Active; 'I' for Inactive)
REMARK    1  A    between atoms: C1_2  and  C2_3 
ROOT
ATOM      1  C2  UNL d   1       3.579  -5.271   4.879  0.00  0.00    -0.077 A 
ATOM      2  C3  UNL d   1       3.682  -4.241   5.825  0.00  0.00     0.002 A 
ATOM      3  C4  UNL d   1       4.888  -3.560   5.999  0.00  0.00     0.002 A 
ATOM      4  C5  UNL d   1       5.999  -3.900   5.230  0.00  0.00    -0.004 A 
ATOM      5  C6  UNL d   1       5.908  -4.924   4.289  0.00  0.00     0.002 A 
ATOM      6  C7  UNL d   1       4.703  -5.606   4.114  0.00  0.00     0.002 A 
ENDROOT
BRANCH   1   7
ATOM      7  C1  UNL d   1       2.265  -5.973   4.655  0.00  0.00     0.055 C 
ATOM      8  C   UNL d   1       1.244  -5.587   5.714  0.00  0.00     0.019 C 
ENDBRANCH   1   7
TORSDOF 1
ENDMDL
