MODEL 1
REMARK minimizedAffinity 13.8254309
REMARK minimizedRMSD -1
REMARK  1 active torsions:
REMARK  status: ('A' for Active; 'I' for Inactive)
REMARK    1  A    between atoms: N_2  and  C1_3 
ROOT
ATOM      1  C1  UNL d   1      -5.325   0.672  -1.307  0.00  0.00     0.143 A 
ATOM      2  C2  UNL d   1      -5.999   1.373  -2.313  0.00  0.00    -0.057 A 
ATOM      3  C3  UNL d   1      -5.558   1.339  -3.641  0.00  0.00     0.033 A 
ATOM      4  C4  UNL d   1      -4.416   0.623  -3.983  0.00  0.00    -0.042 A 
ATOM      5  C5  UNL d   1      -3.716  -0.062  -2.995  0.00  0.00     0.033 A 
ATOM      6  C6  UNL d   1      -4.165  -0.029  -1.672  0.00  0.00    -0.057 A 
ENDROOT
BRANCH   1   7
ATOM      7  N   UNL d   1      -5.656   0.747   0.049  0.00  0.00    -0.732 N 
ATOM      8  C   UNL d   1      -5.243   1.881   0.847  0.00  0.00     0.284 C 
ATOM      9  H3  UNL d   1      -6.605   0.431   0.235  0.00  0.00     0.395 HD
ENDBRANCH   1   7
TORSDOF 1
ENDMDL
