MODEL 1
REMARK minimizedAffinity -2.8124311
REMARK minimizedRMSD -1
REMARK  1 active torsions:
REMARK  status: ('A' for Active; 'I' for Inactive)
REMARK    1  A    between atoms: N_2  and  C1_3 
ROOT
ATOM      1  C1  UNL d   1      -4.836   5.538   2.957  0.00  0.00     0.143 A 
ATOM      2  C2  UNL d   1      -3.657   5.822   3.656  0.00  0.00    -0.057 A 
ATOM      3  C3  UNL d   1      -3.628   5.834   5.056  0.00  0.00     0.033 A 
ATOM      4  C4  UNL d   1      -4.787   5.590   5.784  0.00  0.00    -0.042 A 
ATOM      5  C5  UNL d   1      -5.976   5.330   5.111  0.00  0.00     0.033 A 
ATOM      6  C6  UNL d   1      -5.997   5.313   3.713  0.00  0.00    -0.057 A 
ENDROOT
BRANCH   1   7
ATOM      7  N   UNL d   1      -4.952   5.607   1.567  0.00  0.00    -0.732 N 
ATOM      8  C   UNL d   1      -3.821   5.994   0.751  0.00  0.00     0.284 C 
ATOM      9  H3  UNL d   1      -5.497   4.839   1.184  0.00  0.00     0.395 HD
ENDBRANCH   1   7
TORSDOF 1
ENDMDL
