MODEL 1
REMARK minimizedAffinity 1.80219293
REMARK minimizedRMSD -1
REMARK  1 active torsions:
REMARK  status: ('A' for Active; 'I' for Inactive)
REMARK    1  A    between atoms: N_2  and  C1_3 
ROOT
ATOM      1  C1  UNL d   1       0.763  -3.001   4.516  0.00  0.00     0.143 A 
ATOM      2  C2  UNL d   1       1.207  -3.800   5.575  0.00  0.00    -0.057 A 
ATOM      3  C3  UNL d   1       0.480  -4.920   5.995  0.00  0.00     0.033 A 
ATOM      4  C4  UNL d   1      -0.724  -5.246   5.378  0.00  0.00    -0.042 A 
ATOM      5  C5  UNL d   1      -1.197  -4.452   4.340  0.00  0.00     0.033 A 
ATOM      6  C6  UNL d   1      -0.463  -3.338   3.921  0.00  0.00    -0.057 A 
ENDROOT
BRANCH   1   7
ATOM      7  N   UNL d   1       1.391  -1.819   4.117  0.00  0.00    -0.732 N 
ATOM      8  C   UNL d   1       0.613  -0.639   3.806  0.00  0.00     0.284 C 
ATOM      9  H3  UNL d   1       2.238  -1.630   4.649  0.00  0.00     0.395 HD
ENDBRANCH   1   7
TORSDOF 1
ENDMDL
