MODEL 1
REMARK minimizedAffinity 4.02455807
REMARK minimizedRMSD -1
REMARK  1 active torsions:
REMARK  status: ('A' for Active; 'I' for Inactive)
REMARK    1  A    between atoms: N_2  and  C1_3 
ROOT
ATOM      1  C1  UNL d   1       0.986  -1.834   5.260  0.00  0.00     0.143 A 
ATOM      2  C2  UNL d   1      -0.329  -2.311   5.246  0.00  0.00    -0.057 A 
ATOM      3  C3  UNL d   1      -0.628  -3.626   5.621  0.00  0.00     0.033 A 
ATOM      4  C4  UNL d   1       0.389  -4.499   5.992  0.00  0.00    -0.042 A 
ATOM      5  C5  UNL d   1       1.706  -4.054   5.990  0.00  0.00     0.033 A 
ATOM      6  C6  UNL d   1       1.998  -2.737   5.620  0.00  0.00    -0.057 A 
ENDROOT
BRANCH   1   7
ATOM      7  N   UNL d   1       1.359  -0.567   4.804  0.00  0.00    -0.732 N 
ATOM      8  C   UNL d   1       0.374   0.483   4.656  0.00  0.00     0.284 C 
ATOM      9  H3  UNL d   1       2.242  -0.256   5.201  0.00  0.00     0.395 HD
ENDBRANCH   1   7
TORSDOF 1
ENDMDL
