MODEL 1
REMARK minimizedAffinity 4.25513601
REMARK minimizedRMSD -1
REMARK  1 active torsions:
REMARK  status: ('A' for Active; 'I' for Inactive)
REMARK    1  A    between atoms: N_2  and  C1_3 
ROOT
ATOM      1  C1  UNL d   1      -0.329  -4.079   5.071  0.00  0.00     0.143 A 
ATOM      2  C2  UNL d   1       0.721  -4.229   5.984  0.00  0.00    -0.057 A 
ATOM      3  C3  UNL d   1       1.804  -3.341   5.998  0.00  0.00     0.033 A 
ATOM      4  C4  UNL d   1       1.870  -2.302   5.076  0.00  0.00    -0.042 A 
ATOM      5  C5  UNL d   1       0.851  -2.148   4.143  0.00  0.00     0.033 A 
ATOM      6  C6  UNL d   1      -0.231  -3.034   4.138  0.00  0.00    -0.057 A 
ENDROOT
BRANCH   1   7
ATOM      7  N   UNL d   1      -1.383  -4.985   4.942  0.00  0.00    -0.732 N 
ATOM      8  C   UNL d   1      -1.677  -5.930   5.999  0.00  0.00     0.284 C 
ATOM      9  H3  UNL d   1      -2.208  -4.565   4.520  0.00  0.00     0.395 HD
ENDBRANCH   1   7
TORSDOF 1
ENDMDL
