MODEL 1
REMARK minimizedAffinity 5.79966927
REMARK minimizedRMSD -1
REMARK  1 active torsions:
REMARK  status: ('A' for Active; 'I' for Inactive)
REMARK    1  A    between atoms: N_2  and  C1_3 
ROOT
ATOM      1  C1  UNL d   1      -3.562   5.916   3.084  0.00  0.00     0.143 A 
ATOM      2  C2  UNL d   1      -3.559   5.880   1.685  0.00  0.00    -0.057 A 
ATOM      3  C3  UNL d   1      -4.743   5.695   0.961  0.00  0.00     0.033 A 
ATOM      4  C4  UNL d   1      -5.951   5.514   1.626  0.00  0.00    -0.042 A 
ATOM      5  C5  UNL d   1      -5.974   5.521   3.016  0.00  0.00     0.033 A 
ATOM      6  C6  UNL d   1      -4.790   5.712   3.734  0.00  0.00    -0.057 A 
ENDROOT
BRANCH   1   7
ATOM      7  N   UNL d   1      -2.405   5.998   3.862  0.00  0.00    -0.732 N 
ATOM      8  C   UNL d   1      -1.098   5.990   3.242  0.00  0.00     0.284 C 
ATOM      9  H3  UNL d   1      -2.498   6.661   4.628  0.00  0.00     0.395 HD
ENDBRANCH   1   7
TORSDOF 1
ENDMDL
