MODEL 1
REMARK minimizedAffinity 12.2273684
REMARK minimizedRMSD -1
REMARK  1 active torsions:
REMARK  status: ('A' for Active; 'I' for Inactive)
REMARK    1  A    between atoms: C3_4  and  O_7 
ROOT
ATOM      1  C   UNL d   1       0.832  -1.502  -2.421  0.00  0.00    -0.033 A 
ATOM      2  C1  UNL d   1       2.008  -0.750  -2.400  0.00  0.00     0.039 A 
ATOM      3  C2  UNL d   1       2.634  -0.397  -3.597  0.00  0.00    -0.080 A 
ATOM      4  C3  UNL d   1       2.075  -0.802  -4.806  0.00  0.00     0.150 A 
ATOM      5  C4  UNL d   1       0.902  -1.548  -4.835  0.00  0.00    -0.007 A 
ATOM      6  C5  UNL d   1       0.278  -1.900  -3.638  0.00  0.00     0.039 A 
ENDROOT
BRANCH   4   7
ATOM      7  O   UNL d   1       2.653  -0.485  -6.000  0.00  0.00    -0.526 OA
ATOM      8  H5  UNL d   1       3.472   0.008  -5.824  0.00  0.00     0.418 HD
ENDBRANCH   4   7
TORSDOF 1
ENDMDL
