MODEL 1
REMARK minimizedAffinity 9.98900032
REMARK minimizedRMSD -1
REMARK  1 active torsions:
REMARK  status: ('A' for Active; 'I' for Inactive)
REMARK    1  A    between atoms: C3_4  and  O_7 
ROOT
ATOM      1  C   UNL d   1       0.860  -1.227  -2.410  0.00  0.00    -0.033 A 
ATOM      2  C1  UNL d   1       1.621  -0.557  -1.451  0.00  0.00     0.039 A 
ATOM      3  C2  UNL d   1       2.331  -1.280  -0.491  0.00  0.00    -0.080 A 
ATOM      4  C3  UNL d   1       2.273  -2.671  -0.502  0.00  0.00     0.150 A 
ATOM      5  C4  UNL d   1       1.520  -3.345  -1.458  0.00  0.00    -0.007 A 
ATOM      6  C5  UNL d   1       0.810  -2.621  -2.415  0.00  0.00     0.039 A 
ENDROOT
BRANCH   4   7
ATOM      7  O   UNL d   1       2.945  -3.420   0.417  0.00  0.00    -0.526 OA
ATOM      8  H5  UNL d   1       3.399  -2.819   1.031  0.00  0.00     0.418 HD
ENDBRANCH   4   7
TORSDOF 1
ENDMDL
