MODEL 1
REMARK minimizedAffinity 9.74666977
REMARK minimizedRMSD -1
REMARK  1 active torsions:
REMARK  status: ('A' for Active; 'I' for Inactive)
REMARK    1  A    between atoms: C3_4  and  O_7 
ROOT
ATOM      1  C   UNL d   1      -0.770  -4.130  -2.189  0.00  0.00    -0.033 A 
ATOM      2  C1  UNL d   1      -0.985  -2.973  -2.940  0.00  0.00     0.039 A 
ATOM      3  C2  UNL d   1      -2.199  -2.784  -3.603  0.00  0.00    -0.080 A 
ATOM      4  C3  UNL d   1      -3.188  -3.758  -3.507  0.00  0.00     0.150 A 
ATOM      5  C4  UNL d   1      -2.983  -4.912  -2.758  0.00  0.00    -0.007 A 
ATOM      6  C5  UNL d   1      -1.769  -5.099  -2.098  0.00  0.00     0.039 A 
ENDROOT
BRANCH   4   7
ATOM      7  O   UNL d   1      -4.387  -3.620  -4.141  0.00  0.00    -0.526 OA
ATOM      8  H5  UNL d   1      -4.376  -2.788  -4.643  0.00  0.00     0.418 HD
ENDBRANCH   4   7
TORSDOF 1
ENDMDL
