MODEL 1
REMARK minimizedAffinity 12.1193523
REMARK minimizedRMSD -1
REMARK  1 active torsions:
REMARK  status: ('A' for Active; 'I' for Inactive)
REMARK    1  A    between atoms: C3_4  and  O_7 
ROOT
ATOM      1  C   UNL d   1       4.702   3.088   0.330  0.00  0.00    -0.033 A 
ATOM      2  C1  UNL d   1       3.673   2.724   1.201  0.00  0.00     0.039 A 
ATOM      3  C2  UNL d   1       2.940   1.558   0.969  0.00  0.00    -0.080 A 
ATOM      4  C3  UNL d   1       3.245   0.767  -0.135  0.00  0.00     0.150 A 
ATOM      5  C4  UNL d   1       4.270   1.123  -1.005  0.00  0.00    -0.007 A 
ATOM      6  C5  UNL d   1       5.001   2.287  -0.773  0.00  0.00     0.039 A 
ENDROOT
BRANCH   4   7
ATOM      7  O   UNL d   1       2.554  -0.376  -0.405  0.00  0.00    -0.526 OA
ATOM      8  H5  UNL d   1       1.857  -0.480   0.264  0.00  0.00     0.418 HD
ENDBRANCH   4   7
TORSDOF 1
ENDMDL
