MODEL 1
REMARK minimizedAffinity 0.373369396
REMARK minimizedRMSD -1
REMARK  1 active torsions:
REMARK  status: ('A' for Active; 'I' for Inactive)
REMARK    1  A    between atoms: C3_4  and  O_7 
ROOT
ATOM      1  C   UNL d   1       0.042  -3.558   0.151  0.00  0.00    -0.033 A 
ATOM      2  C1  UNL d   1       0.281  -2.350  -0.509  0.00  0.00     0.039 A 
ATOM      3  C2  UNL d   1      -0.714  -1.372  -0.559  0.00  0.00    -0.080 A 
ATOM      4  C3  UNL d   1      -1.940  -1.612   0.053  0.00  0.00     0.150 A 
ATOM      5  C4  UNL d   1      -2.184  -2.811   0.715  0.00  0.00    -0.007 A 
ATOM      6  C5  UNL d   1      -1.190  -3.787   0.764  0.00  0.00     0.039 A 
ENDROOT
BRANCH   4   7
ATOM      7  O   UNL d   1      -2.943  -0.689   0.026  0.00  0.00    -0.526 OA
ATOM      8  H5  UNL d   1      -2.642   0.077  -0.490  0.00  0.00     0.418 HD
ENDBRANCH   4   7
TORSDOF 1
ENDMDL
