MODEL 1
REMARK minimizedAffinity 12.7960825
REMARK minimizedRMSD -1
REMARK  1 active torsions:
REMARK  status: ('A' for Active; 'I' for Inactive)
REMARK    1  A    between atoms: C3_4  and  O_7 
ROOT
ATOM      1  C   UNL d   1       1.381   0.386  -2.334  0.00  0.00    -0.033 A 
ATOM      2  C1  UNL d   1       1.395  -0.878  -1.743  0.00  0.00     0.039 A 
ATOM      3  C2  UNL d   1       2.340  -1.181  -0.760  0.00  0.00    -0.080 A 
ATOM      4  C3  UNL d   1       3.263  -0.211  -0.378  0.00  0.00     0.150 A 
ATOM      5  C4  UNL d   1       3.252   1.052  -0.961  0.00  0.00    -0.007 A 
ATOM      6  C5  UNL d   1       2.308   1.352  -1.942  0.00  0.00     0.039 A 
ENDROOT
BRANCH   4   7
ATOM      7  O   UNL d   1       4.207  -0.461   0.573  0.00  0.00    -0.526 OA
ATOM      8  H5  UNL d   1       4.113  -1.383   0.865  0.00  0.00     0.418 HD
ENDBRANCH   4   7
TORSDOF 1
ENDMDL
