MODEL 1
REMARK minimizedAffinity 5.26299286
REMARK minimizedRMSD -1
REMARK  1 active torsions:
REMARK  status: ('A' for Active; 'I' for Inactive)
REMARK    1  A    between atoms: C3_4  and  O_7 
ROOT
ATOM      1  C   UNL d   1      -2.889   0.991   5.488  0.00  0.00    -0.033 A 
ATOM      2  C1  UNL d   1      -3.751   0.497   4.506  0.00  0.00     0.039 A 
ATOM      3  C2  UNL d   1      -4.803   1.285   4.037  0.00  0.00    -0.080 A 
ATOM      4  C3  UNL d   1      -4.983   2.564   4.557  0.00  0.00     0.150 A 
ATOM      5  C4  UNL d   1      -4.126   3.064   5.532  0.00  0.00    -0.007 A 
ATOM      6  C5  UNL d   1      -3.076   2.275   6.000  0.00  0.00     0.039 A 
ENDROOT
BRANCH   4   7
ATOM      7  O   UNL d   1      -5.999   3.369   4.134  0.00  0.00    -0.526 OA
ATOM      8  H5  UNL d   1      -6.526   2.881   3.480  0.00  0.00     0.418 HD
ENDBRANCH   4   7
TORSDOF 1
ENDMDL
