MODEL 1
REMARK minimizedAffinity 8.84851933
REMARK minimizedRMSD -1
REMARK  1 active torsions:
REMARK  status: ('A' for Active; 'I' for Inactive)
REMARK    1  A    between atoms: C3_4  and  O_7 
ROOT
ATOM      1  C   UNL d   1      -1.129  -5.290  -3.461  0.00  0.00    -0.033 A 
ATOM      2  C1  UNL d   1      -1.516  -5.225  -4.801  0.00  0.00     0.039 A 
ATOM      3  C2  UNL d   1      -2.660  -4.513  -5.165  0.00  0.00    -0.080 A 
ATOM      4  C3  UNL d   1      -3.407  -3.869  -4.181  0.00  0.00     0.150 A 
ATOM      5  C4  UNL d   1      -3.024  -3.926  -2.845  0.00  0.00    -0.007 A 
ATOM      6  C5  UNL d   1      -1.882  -4.639  -2.483  0.00  0.00     0.039 A 
ENDROOT
BRANCH   4   7
ATOM      7  O   UNL d   1      -4.533  -3.166  -4.487  0.00  0.00    -0.526 OA
ATOM      8  H5  UNL d   1      -4.691  -3.238  -5.444  0.00  0.00     0.418 HD
ENDBRANCH   4   7
TORSDOF 1
ENDMDL
