MODEL 1
REMARK minimizedAffinity -2.91107249
REMARK minimizedRMSD -1
REMARK  1 active torsions:
REMARK  status: ('A' for Active; 'I' for Inactive)
REMARK    1  A    between atoms: C3_4  and  O_7 
ROOT
ATOM      1  C   UNL d   1      -3.001  -5.558  -5.207  0.00  0.00    -0.033 A 
ATOM      2  C1  UNL d   1      -4.198  -5.871  -5.854  0.00  0.00     0.039 A 
ATOM      3  C2  UNL d   1      -5.192  -4.901  -5.995  0.00  0.00    -0.080 A 
ATOM      4  C3  UNL d   1      -4.977  -3.624  -5.486  0.00  0.00     0.150 A 
ATOM      5  C4  UNL d   1      -3.785  -3.304  -4.843  0.00  0.00    -0.007 A 
ATOM      6  C5  UNL d   1      -2.794  -4.274  -4.703  0.00  0.00     0.039 A 
ENDROOT
BRANCH   4   7
ATOM      7  O   UNL d   1      -5.920  -2.645  -5.594  0.00  0.00    -0.526 OA
ATOM      8  H5  UNL d   1      -6.701  -3.018  -6.035  0.00  0.00     0.418 HD
ENDBRANCH   4   7
TORSDOF 1
ENDMDL
