MODEL 1
REMARK minimizedAffinity 5.1114459
REMARK minimizedRMSD -1
REMARK  1 active torsions:
REMARK  status: ('A' for Active; 'I' for Inactive)
REMARK    1  A    between atoms: C3_4  and  O_7 
ROOT
ATOM      1  C   UNL d   1      -0.604  -5.452  -3.091  0.00  0.00    -0.033 A 
ATOM      2  C1  UNL d   1      -0.836  -5.671  -4.450  0.00  0.00     0.039 A 
ATOM      3  C2  UNL d   1      -1.740  -4.867  -5.145  0.00  0.00    -0.080 A 
ATOM      4  C3  UNL d   1      -2.405  -3.846  -4.471  0.00  0.00     0.150 A 
ATOM      5  C4  UNL d   1      -2.176  -3.619  -3.118  0.00  0.00    -0.007 A 
ATOM      6  C5  UNL d   1      -1.273  -4.425  -2.425  0.00  0.00     0.039 A 
ENDROOT
BRANCH   4   7
ATOM      7  O   UNL d   1      -3.301  -3.038  -5.105  0.00  0.00    -0.526 OA
ATOM      8  H5  UNL d   1      -3.378  -3.330  -6.029  0.00  0.00     0.418 HD
ENDBRANCH   4   7
TORSDOF 1
ENDMDL
