MODEL 1
REMARK minimizedAffinity 1.11259031
REMARK minimizedRMSD -1
REMARK  1 active torsions:
REMARK  status: ('A' for Active; 'I' for Inactive)
REMARK    1  A    between atoms: C3_4  and  O_7 
ROOT
ATOM      1  C   UNL d   1      -1.261  -5.507  -3.740  0.00  0.00    -0.033 A 
ATOM      2  C1  UNL d   1      -1.214  -4.160  -3.376  0.00  0.00     0.039 A 
ATOM      3  C2  UNL d   1      -2.254  -3.301  -3.736  0.00  0.00    -0.080 A 
ATOM      4  C3  UNL d   1      -3.334  -3.801  -4.457  0.00  0.00     0.150 A 
ATOM      5  C4  UNL d   1      -3.390  -5.142  -4.820  0.00  0.00    -0.007 A 
ATOM      6  C5  UNL d   1      -2.350  -5.999  -4.461  0.00  0.00     0.039 A 
ENDROOT
BRANCH   4   7
ATOM      7  O   UNL d   1      -4.371  -3.000  -4.835  0.00  0.00    -0.526 OA
ATOM      8  H5  UNL d   1      -4.182  -2.093  -4.540  0.00  0.00     0.418 HD
ENDBRANCH   4   7
TORSDOF 1
ENDMDL
