MODEL 1
REMARK minimizedAffinity -3.2043128
REMARK minimizedRMSD -1
REMARK  1 active torsions:
REMARK  status: ('A' for Active; 'I' for Inactive)
REMARK    1  A    between atoms: C3_4  and  O_7 
ROOT
ATOM      1  C   UNL d   1      -1.561  -5.816  -4.478  0.00  0.00    -0.033 A 
ATOM      2  C1  UNL d   1      -1.120  -4.548  -4.093  0.00  0.00     0.039 A 
ATOM      3  C2  UNL d   1      -1.995  -3.461  -4.131  0.00  0.00    -0.080 A 
ATOM      4  C3  UNL d   1      -3.308  -3.655  -4.554  0.00  0.00     0.150 A 
ATOM      5  C4  UNL d   1      -3.755  -4.916  -4.935  0.00  0.00    -0.007 A 
ATOM      6  C5  UNL d   1      -2.879  -6.000  -4.898  0.00  0.00     0.039 A 
ENDROOT
BRANCH   4   7
ATOM      7  O   UNL d   1      -4.197  -2.624  -4.612  0.00  0.00    -0.526 OA
ATOM      8  H5  UNL d   1      -3.740  -1.808  -4.347  0.00  0.00     0.418 HD
ENDBRANCH   4   7
TORSDOF 1
ENDMDL
