MODEL 1
REMARK minimizedAffinity 6.3210783
REMARK minimizedRMSD -1
REMARK  1 active torsions:
REMARK  status: ('A' for Active; 'I' for Inactive)
REMARK    1  A    between atoms: C3_4  and  O_7 
ROOT
ATOM      1  C   UNL d   1       0.590  -2.898  -1.737  0.00  0.00    -0.033 A 
ATOM      2  C1  UNL d   1       0.616  -1.828  -2.634  0.00  0.00     0.039 A 
ATOM      3  C2  UNL d   1       1.379  -0.694  -2.349  0.00  0.00    -0.080 A 
ATOM      4  C3  UNL d   1       2.112  -0.643  -1.167  0.00  0.00     0.150 A 
ATOM      5  C4  UNL d   1       2.094  -1.707  -0.271  0.00  0.00    -0.007 A 
ATOM      6  C5  UNL d   1       1.330  -2.838  -0.556  0.00  0.00     0.039 A 
ENDROOT
BRANCH   4   7
ATOM      7  O   UNL d   1       2.868   0.444  -0.843  0.00  0.00    -0.526 OA
ATOM      8  H5  UNL d   1       2.761   1.112  -1.541  0.00  0.00     0.418 HD
ENDBRANCH   4   7
TORSDOF 1
ENDMDL
