MODEL 1
REMARK minimizedAffinity 7.7500205
REMARK minimizedRMSD -1
REMARK  1 active torsions:
REMARK  status: ('A' for Active; 'I' for Inactive)
REMARK    1  A    between atoms: C3_4  and  O_7 
ROOT
ATOM      1  C   UNL d   1       1.867  -1.516  -1.146  0.00  0.00    -0.033 A 
ATOM      2  C1  UNL d   1       2.299  -2.711  -1.725  0.00  0.00     0.039 A 
ATOM      3  C2  UNL d   1       2.631  -2.752  -3.080  0.00  0.00    -0.080 A 
ATOM      4  C3  UNL d   1       2.528  -1.593  -3.845  0.00  0.00     0.150 A 
ATOM      5  C4  UNL d   1       2.102  -0.398  -3.274  0.00  0.00    -0.007 A 
ATOM      6  C5  UNL d   1       1.770  -0.359  -1.921  0.00  0.00     0.039 A 
ENDROOT
BRANCH   4   7
ATOM      7  O   UNL d   1       2.836  -1.586  -5.173  0.00  0.00    -0.526 OA
ATOM      8  H5  UNL d   1       3.087  -2.487  -5.435  0.00  0.00     0.418 HD
ENDBRANCH   4   7
TORSDOF 1
ENDMDL
