MODEL 1
REMARK minimizedAffinity 11.3521118
REMARK minimizedRMSD -1
REMARK  1 active torsions:
REMARK  status: ('A' for Active; 'I' for Inactive)
REMARK    1  A    between atoms: C3_4  and  O_7 
ROOT
ATOM      1  C   UNL d   1      -3.111  -0.241   4.607  0.00  0.00    -0.033 A 
ATOM      2  C1  UNL d   1      -3.514  -0.031   3.287  0.00  0.00     0.039 A 
ATOM      3  C2  UNL d   1      -4.241   1.112   2.951  0.00  0.00    -0.080 A 
ATOM      4  C3  UNL d   1      -4.557   2.037   3.942  0.00  0.00     0.150 A 
ATOM      5  C4  UNL d   1      -4.155   1.836   5.259  0.00  0.00    -0.007 A 
ATOM      6  C5  UNL d   1      -3.430   0.693   5.593  0.00  0.00     0.039 A 
ENDROOT
BRANCH   4   7
ATOM      7  O   UNL d   1      -5.269   3.166   3.663  0.00  0.00    -0.526 OA
ATOM      8  H5  UNL d   1      -5.503   3.157   2.720  0.00  0.00     0.418 HD
ENDBRANCH   4   7
TORSDOF 1
ENDMDL
