MODEL 1
REMARK minimizedAffinity 1.92277539
REMARK minimizedRMSD -1
REMARK  1 active torsions:
REMARK  status: ('A' for Active; 'I' for Inactive)
REMARK    1  A    between atoms: C1_2  and  C2_3 
ROOT
ATOM      1  C2  UNL d   1       2.413   3.764   3.734  0.00  0.00    -0.073 A 
ATOM      2  C3  UNL d   1       1.150   4.351   3.869  0.00  0.00    -0.002 A 
ATOM      3  C4  UNL d   1       0.973   5.461   4.696  0.00  0.00     0.004 A 
ATOM      4  C5  UNL d   1       2.057   5.999   5.390  0.00  0.00    -0.004 A 
ATOM      5  C6  UNL d   1       3.330   5.434   5.258  0.00  0.00    -0.075 A 
ATOM      6  C7  UNL d   1       4.505   6.000   6.000  0.00  0.00     0.076 C 
ATOM      7  C8  UNL d   1       3.498   4.318   4.428  0.00  0.00     0.001 A 
ENDROOT
BRANCH   1   8
ATOM      8  C1  UNL d   1       2.610   2.569   2.838  0.00  0.00     0.053 C 
ATOM      9  C   UNL d   1       3.058   2.972   1.441  0.00  0.00     0.018 C 
ENDBRANCH   1   8
TORSDOF 1
ENDMDL
