MODEL 1
REMARK minimizedAffinity 5.42964077
REMARK minimizedRMSD -1
REMARK  1 active torsions:
REMARK  status: ('A' for Active; 'I' for Inactive)
REMARK    1  A    between atoms: C1_2  and  C2_3 
ROOT
ATOM      1  C2  UNL d   1       2.225   4.759   3.302  0.00  0.00    -0.073 A 
ATOM      2  C3  UNL d   1       1.039   5.242   3.867  0.00  0.00    -0.002 A 
ATOM      3  C4  UNL d   1       1.054   5.855   5.120  0.00  0.00     0.004 A 
ATOM      4  C5  UNL d   1       2.254   6.000   5.817  0.00  0.00    -0.004 A 
ATOM      5  C6  UNL d   1       3.451   5.535   5.263  0.00  0.00    -0.075 A 
ATOM      6  C7  UNL d   1       4.750   5.681   6.000  0.00  0.00     0.076 C 
ATOM      7  C8  UNL d   1       3.427   4.917   4.005  0.00  0.00     0.001 A 
ENDROOT
BRANCH   1   8
ATOM      8  C1  UNL d   1       2.214   4.102   1.946  0.00  0.00     0.053 C 
ATOM      9  C   UNL d   1       3.527   3.396   1.644  0.00  0.00     0.018 C 
ENDBRANCH   1   8
TORSDOF 1
ENDMDL
