MODEL 1
REMARK minimizedAffinity -1.47480631
REMARK minimizedRMSD -1
REMARK  1 active torsions:
REMARK  status: ('A' for Active; 'I' for Inactive)
REMARK    1  A    between atoms: C1_2  and  C2_3 
ROOT
ATOM      1  C2  UNL d   1       3.024   4.425   3.290  0.00  0.00    -0.073 A 
ATOM      2  C3  UNL d   1       1.749   4.843   3.690  0.00  0.00    -0.002 A 
ATOM      3  C4  UNL d   1       1.591   5.624   4.836  0.00  0.00     0.004 A 
ATOM      4  C5  UNL d   1       2.704   6.000   5.589  0.00  0.00    -0.004 A 
ATOM      5  C6  UNL d   1       3.986   5.601   5.199  0.00  0.00    -0.075 A 
ATOM      6  C7  UNL d   1       5.193   5.995   5.999  0.00  0.00     0.076 C 
ATOM      7  C8  UNL d   1       4.137   4.815   4.049  0.00  0.00     0.001 A 
ENDROOT
BRANCH   1   8
ATOM      8  C1  UNL d   1       3.200   3.587   2.050  0.00  0.00     0.053 C 
ATOM      9  C   UNL d   1       4.601   3.003   1.951  0.00  0.00     0.018 C 
ENDBRANCH   1   8
TORSDOF 1
ENDMDL
