MODEL 1
REMARK minimizedAffinity -2.45734382
REMARK minimizedRMSD -1
REMARK  1 active torsions:
REMARK  status: ('A' for Active; 'I' for Inactive)
REMARK    1  A    between atoms: C1_2  and  C2_3 
ROOT
ATOM      1  C2  UNL d   1       5.080   3.602  -5.892  0.00  0.00    -0.073 A 
ATOM      2  C3  UNL d   1       5.610   4.887  -5.729  0.00  0.00    -0.002 A 
ATOM      3  C4  UNL d   1       4.764   5.995  -5.661  0.00  0.00     0.004 A 
ATOM      4  C5  UNL d   1       3.382   5.829  -5.748  0.00  0.00    -0.004 A 
ATOM      5  C6  UNL d   1       2.833   4.552  -5.899  0.00  0.00    -0.075 A 
ATOM      6  C7  UNL d   1       1.348   4.357  -5.996  0.00  0.00     0.076 C 
ATOM      7  C8  UNL d   1       3.689   3.444  -5.969  0.00  0.00     0.001 A 
ENDROOT
BRANCH   1   8
ATOM      8  C1  UNL d   1       5.989   2.402  -5.960  0.00  0.00     0.053 C 
ATOM      9  C   UNL d   1       5.990   1.614  -4.659  0.00  0.00     0.018 C 
ENDBRANCH   1   8
TORSDOF 1
ENDMDL
