MODEL 1
REMARK minimizedAffinity 0.0963237733
REMARK minimizedRMSD -1
REMARK  1 active torsions:
REMARK  status: ('A' for Active; 'I' for Inactive)
REMARK    1  A    between atoms: C1_2  and  C2_3 
ROOT
ATOM      1  C2  UNL d   1       1.872   3.757   3.362  0.00  0.00    -0.073 A 
ATOM      2  C3  UNL d   1       2.894   4.390   4.077  0.00  0.00    -0.002 A 
ATOM      3  C4  UNL d   1       2.616   5.508   4.864  0.00  0.00     0.004 A 
ATOM      4  C5  UNL d   1       1.314   6.000   4.950  0.00  0.00    -0.004 A 
ATOM      5  C6  UNL d   1       0.276   5.374   4.252  0.00  0.00    -0.075 A 
ATOM      6  C7  UNL d   1      -1.130   5.891   4.332  0.00  0.00     0.076 C 
ATOM      7  C8  UNL d   1       0.564   4.253   3.462  0.00  0.00     0.001 A 
ENDROOT
BRANCH   1   8
ATOM      8  C1  UNL d   1       2.166   2.545   2.516  0.00  0.00     0.053 C 
ATOM      9  C   UNL d   1       3.473   2.687   1.752  0.00  0.00     0.018 C 
ENDBRANCH   1   8
TORSDOF 1
ENDMDL
