MODEL 1
REMARK minimizedAffinity 2.09304214
REMARK minimizedRMSD -1
REMARK  1 active torsions:
REMARK  status: ('A' for Active; 'I' for Inactive)
REMARK    1  A    between atoms: C1_2  and  C2_3 
ROOT
ATOM      1  C2  UNL d   1       2.180   3.946   3.470  0.00  0.00    -0.073 A 
ATOM      2  C3  UNL d   1       0.919   4.487   3.750  0.00  0.00    -0.002 A 
ATOM      3  C4  UNL d   1       0.784   5.506   4.693  0.00  0.00     0.004 A 
ATOM      4  C5  UNL d   1       1.905   6.000   5.359  0.00  0.00    -0.004 A 
ATOM      5  C6  UNL d   1       3.174   5.481   5.085  0.00  0.00    -0.075 A 
ATOM      6  C7  UNL d   1       4.390   6.000   5.794  0.00  0.00     0.076 C 
ATOM      7  C8  UNL d   1       3.302   4.456   4.138  0.00  0.00     0.001 A 
ENDROOT
BRANCH   1   8
ATOM      8  C1  UNL d   1       2.332   2.850   2.447  0.00  0.00     0.053 C 
ATOM      9  C   UNL d   1       3.757   2.751   1.926  0.00  0.00     0.018 C 
ENDBRANCH   1   8
TORSDOF 1
ENDMDL
