MODEL 1
REMARK minimizedAffinity 12.85812
REMARK minimizedRMSD -1
REMARK  1 active torsions:
REMARK  status: ('A' for Active; 'I' for Inactive)
REMARK    1  A    between atoms: C1_2  and  C2_3 
ROOT
ATOM      1  C2  UNL d   1       3.454   3.621   3.691  0.00  0.00    -0.073 A 
ATOM      2  C3  UNL d   1       2.183   3.623   4.277  0.00  0.00    -0.002 A 
ATOM      3  C4  UNL d   1       1.936   4.384   5.420  0.00  0.00     0.004 A 
ATOM      4  C5  UNL d   1       2.952   5.156   5.983  0.00  0.00    -0.004 A 
ATOM      5  C6  UNL d   1       4.225   5.176   5.405  0.00  0.00    -0.075 A 
ATOM      6  C7  UNL d   1       5.330   6.000   6.000  0.00  0.00     0.076 C 
ATOM      7  C8  UNL d   1       4.467   4.407   4.259  0.00  0.00     0.001 A 
ENDROOT
BRANCH   1   8
ATOM      8  C1  UNL d   1       3.724   2.805   2.453  0.00  0.00     0.053 C 
ATOM      9  C   UNL d   1       2.513   2.740   1.537  0.00  0.00     0.018 C 
ENDBRANCH   1   8
TORSDOF 1
ENDMDL
