MODEL 1
REMARK minimizedAffinity 1.95343959
REMARK minimizedRMSD -1
REMARK  0 active torsions:
REMARK  status: ('A' for Active; 'I' for Inactive)
ROOT
ATOM      1  C1  BNZ d   1      -0.314  -0.893   1.768  0.00  0.00     0.000 A 
ATOM      2  C2  BNZ d   1      -1.533  -0.946   1.145  0.00  0.00     0.000 A 
ATOM      3  C3  BNZ d   1      -2.619  -0.308   1.676  0.00  0.00     0.000 A 
ATOM      4  C4  BNZ d   1      -2.494   0.349   2.848  0.00  0.00     0.000 A 
ATOM      5  C5  BNZ d   1      -1.275   0.404   3.492  0.00  0.00     0.000 A 
ATOM      6  C6  BNZ d   1      -0.175  -0.207   2.935  0.00  0.00     0.000 A 
ENDROOT
TORSDOF 0
ENDMDL
