MODEL 1
REMARK minimizedAffinity -1.5990833
REMARK minimizedRMSD -1
REMARK  0 active torsions:
REMARK  status: ('A' for Active; 'I' for Inactive)
ROOT
ATOM      1  C1  BNZ d   1      -2.927   0.571   2.893  0.00  0.00     0.000 A 
ATOM      2  C2  BNZ d   1      -1.761  -0.146   2.911  0.00  0.00     0.000 A 
ATOM      3  C3  BNZ d   1      -1.317  -0.788   1.789  0.00  0.00     0.000 A 
ATOM      4  C4  BNZ d   1      -2.059  -0.745   0.663  0.00  0.00     0.000 A 
ATOM      5  C5  BNZ d   1      -3.242  -0.034   0.632  0.00  0.00     0.000 A 
ATOM      6  C6  BNZ d   1      -3.666   0.643   1.753  0.00  0.00     0.000 A 
ENDROOT
TORSDOF 0
ENDMDL
