MODEL 1
REMARK minimizedAffinity -1.6086086
REMARK minimizedRMSD -1
REMARK  0 active torsions:
REMARK  status: ('A' for Active; 'I' for Inactive)
ROOT
ATOM      1  C1  BNZ d   1       2.119  -0.002  -5.254  0.00  0.00     0.000 A 
ATOM      2  C2  BNZ d   1       1.685  -1.084  -4.536  0.00  0.00     0.000 A 
ATOM      3  C3  BNZ d   1       0.371  -1.461  -4.565  0.00  0.00     0.000 A 
ATOM      4  C4  BNZ d   1      -0.512  -0.734  -5.278  0.00  0.00     0.000 A 
ATOM      5  C5  BNZ d   1      -0.091   0.365  -6.000  0.00  0.00     0.000 A 
ATOM      6  C6  BNZ d   1       1.239   0.719  -6.000  0.00  0.00     0.000 A 
ENDROOT
TORSDOF 0
ENDMDL
