MODEL 1
REMARK minimizedAffinity 0.144274265
REMARK minimizedRMSD -1
REMARK  0 active torsions:
REMARK  status: ('A' for Active; 'I' for Inactive)
ROOT
ATOM      1  C1  BNZ d   1      -1.969  -0.907   0.751  0.00  0.00     0.000 A 
ATOM      2  C2  BNZ d   1      -3.130  -0.204   0.572  0.00  0.00     0.000 A 
ATOM      3  C3  BNZ d   1      -3.586   0.652   1.536  0.00  0.00     0.000 A 
ATOM      4  C4  BNZ d   1      -2.902   0.773   2.692  0.00  0.00     0.000 A 
ATOM      5  C5  BNZ d   1      -1.734   0.064   2.891  0.00  0.00     0.000 A 
ATOM      6  C6  BNZ d   1      -1.258  -0.767   1.903  0.00  0.00     0.000 A 
ENDROOT
TORSDOF 0
ENDMDL
