MODEL 1
REMARK minimizedAffinity -2.64241362
REMARK minimizedRMSD -1
REMARK  0 active torsions:
REMARK  status: ('A' for Active; 'I' for Inactive)
ROOT
ATOM      1  C1  BNZ d   1       0.054  -1.101  -3.796  0.00  0.00     0.000 A 
ATOM      2  C2  BNZ d   1      -1.092  -0.350  -3.816  0.00  0.00     0.000 A 
ATOM      3  C3  BNZ d   1      -1.439   0.367  -4.927  0.00  0.00     0.000 A 
ATOM      4  C4  BNZ d   1      -0.621   0.365  -5.999  0.00  0.00     0.000 A 
ATOM      5  C5  BNZ d   1       0.542  -0.379  -5.991  0.00  0.00     0.000 A 
ATOM      6  C6  BNZ d   1       0.868  -1.131  -4.885  0.00  0.00     0.000 A 
ENDROOT
TORSDOF 0
ENDMDL
