MODEL 1
REMARK minimizedAffinity 2.04893899
REMARK minimizedRMSD -1
REMARK  0 active torsions:
REMARK  status: ('A' for Active; 'I' for Inactive)
ROOT
ATOM      1  C1  BNZ d   1      -1.245   0.346  -4.819  0.00  0.00     0.000 A 
ATOM      2  C2  BNZ d   1      -1.010  -0.121  -3.554  0.00  0.00     0.000 A 
ATOM      3  C3  BNZ d   1      -0.292  -1.267  -3.352  0.00  0.00     0.000 A 
ATOM      4  C4  BNZ d   1       0.153  -1.965  -4.417  0.00  0.00     0.000 A 
ATOM      5  C5  BNZ d   1      -0.084  -1.513  -5.699  0.00  0.00     0.000 A 
ATOM      6  C6  BNZ d   1      -0.773  -0.338  -5.897  0.00  0.00     0.000 A 
ENDROOT
TORSDOF 0
ENDMDL
