MODEL 1
REMARK minimizedAffinity -3.15734982
REMARK minimizedRMSD -1
REMARK  0 active torsions:
REMARK  status: ('A' for Active; 'I' for Inactive)
ROOT
ATOM      1  C1  BNZ d   1      -1.308   0.928  -4.723  0.00  0.00     0.000 A 
ATOM      2  C2  BNZ d   1      -0.869   0.374  -5.896  0.00  0.00     0.000 A 
ATOM      3  C3  BNZ d   1       0.394  -0.139  -5.999  0.00  0.00     0.000 A 
ATOM      4  C4  BNZ d   1       1.229  -0.061  -4.943  0.00  0.00     0.000 A 
ATOM      5  C5  BNZ d   1       0.805   0.504  -3.756  0.00  0.00     0.000 A 
ATOM      6  C6  BNZ d   1      -0.480   0.983  -3.644  0.00  0.00     0.000 A 
ENDROOT
TORSDOF 0
ENDMDL
