MODEL 1
REMARK minimizedAffinity -0.44047913
REMARK minimizedRMSD -1
REMARK  0 active torsions:
REMARK  status: ('A' for Active; 'I' for Inactive)
ROOT
ATOM      1  C1  BNZ d   1      -0.752  -1.069  -4.218  0.00  0.00     0.000 A 
ATOM      2  C2  BNZ d   1      -1.112   0.253  -4.222  0.00  0.00     0.000 A 
ATOM      3  C3  BNZ d   1      -0.569   1.123  -5.126  0.00  0.00     0.000 A 
ATOM      4  C4  BNZ d   1       0.360   0.679  -5.998  0.00  0.00     0.000 A 
ATOM      5  C5  BNZ d   1       0.739  -0.648  -6.000  0.00  0.00     0.000 A 
ATOM      6  C6  BNZ d   1       0.162  -1.529  -5.114  0.00  0.00     0.000 A 
ENDROOT
TORSDOF 0
ENDMDL
