MODEL 1
REMARK minimizedAffinity -3.90584421
REMARK minimizedRMSD -1
REMARK  0 active torsions:
REMARK  status: ('A' for Active; 'I' for Inactive)
ROOT
ATOM      1  C   UNL d   1       2.253  -1.077   0.708  0.00  0.00    -0.002 A 
ATOM      2  C1  UNL d   1       1.099  -1.553   1.315  0.00  0.00     0.010 A 
ATOM      3  C2  UNL d   1      -0.107  -0.861   1.190  0.00  0.00     0.041 A 
ATOM      4  C3  UNL d   1      -0.135   0.328   0.435  0.00  0.00    -0.075 A 
ATOM      5  S   UNL d   1      -1.499   1.342   0.144  0.00  0.00     0.015 SA
ATOM      6  C4  UNL d   1      -0.583   2.431  -0.794  0.00  0.00     0.022 A 
ATOM      7  C5  UNL d   1       0.733   2.046  -0.893  0.00  0.00     0.026 A 
ATOM      8  C6  UNL d   1       1.013   0.827  -0.186  0.00  0.00    -0.082 A 
ATOM      9  C7  UNL d   1       2.221   0.104  -0.039  0.00  0.00     0.045 A 
ENDROOT
TORSDOF 0
ENDMDL
