MODEL 1
REMARK minimizedAffinity -3.6016295
REMARK minimizedRMSD -1
REMARK  0 active torsions:
REMARK  status: ('A' for Active; 'I' for Inactive)
ROOT
ATOM      1  C   UNL d   1       3.373  -0.334   0.177  0.00  0.00    -0.002 A 
ATOM      2  C1  UNL d   1       2.805  -1.312   0.981  0.00  0.00     0.010 A 
ATOM      3  C2  UNL d   1       1.438  -1.294   1.264  0.00  0.00     0.041 A 
ATOM      4  C3  UNL d   1       0.643  -0.267   0.719  0.00  0.00    -0.075 A 
ATOM      5  S   UNL d   1      -1.054  -0.043   0.929  0.00  0.00     0.015 SA
ATOM      6  C4  UNL d   1      -1.065   1.356  -0.044  0.00  0.00     0.022 A 
ATOM      7  C5  UNL d   1       0.186   1.660  -0.525  0.00  0.00     0.026 A 
ATOM      8  C6  UNL d   1       1.191   0.729  -0.094  0.00  0.00    -0.082 A 
ATOM      9  C7  UNL d   1       2.581   0.684  -0.361  0.00  0.00     0.045 A 
ENDROOT
TORSDOF 0
ENDMDL
