MODEL 1
REMARK minimizedAffinity 0.985616982
REMARK minimizedRMSD -1
REMARK  0 active torsions:
REMARK  status: ('A' for Active; 'I' for Inactive)
ROOT
ATOM      1  C   UNL d   1       2.891  -0.733   0.183  0.00  0.00    -0.002 A 
ATOM      2  C1  UNL d   1       1.977  -1.559   0.821  0.00  0.00     0.010 A 
ATOM      3  C2  UNL d   1       0.607  -1.304   0.733  0.00  0.00     0.041 A 
ATOM      4  C3  UNL d   1       0.167  -0.196  -0.017  0.00  0.00    -0.075 A 
ATOM      5  S   UNL d   1      -1.462   0.310  -0.267  0.00  0.00     0.015 SA
ATOM      6  C4  UNL d   1      -0.983   1.634  -1.227  0.00  0.00     0.022 A 
ATOM      7  C5  UNL d   1       0.383   1.703  -1.365  0.00  0.00     0.026 A 
ATOM      8  C6  UNL d   1       1.069   0.650  -0.670  0.00  0.00    -0.082 A 
ATOM      9  C7  UNL d   1       2.451   0.365  -0.561  0.00  0.00     0.045 A 
ENDROOT
TORSDOF 0
ENDMDL
