MODEL 1
REMARK minimizedAffinity 0.326633215
REMARK minimizedRMSD -1
REMARK  0 active torsions:
REMARK  status: ('A' for Active; 'I' for Inactive)
ROOT
ATOM      1  C   UNL d   1      -1.301   0.684  -0.185  0.00  0.00    -0.002 A 
ATOM      2  C1  UNL d   1      -0.145   1.411  -0.433  0.00  0.00     0.010 A 
ATOM      3  C2  UNL d   1       1.109   0.875  -0.133  0.00  0.00     0.041 A 
ATOM      4  C3  UNL d   1       1.183  -0.417   0.423  0.00  0.00    -0.075 A 
ATOM      5  S   UNL d   1       2.609  -1.276   0.870  0.00  0.00     0.015 SA
ATOM      6  C4  UNL d   1       1.718  -2.629   1.399  0.00  0.00     0.022 A 
ATOM      7  C5  UNL d   1       0.364  -2.447   1.246  0.00  0.00     0.026 A 
ATOM      8  C6  UNL d   1       0.033  -1.169   0.681  0.00  0.00    -0.082 A 
ATOM      9  C7  UNL d   1      -1.224  -0.597   0.367  0.00  0.00     0.045 A 
ENDROOT
TORSDOF 0
ENDMDL
