MODEL 1
REMARK minimizedAffinity -0.410218537
REMARK minimizedRMSD -1
REMARK  0 active torsions:
REMARK  status: ('A' for Active; 'I' for Inactive)
ROOT
ATOM      1  C   UNL d   1       2.848  -0.976   0.248  0.00  0.00    -0.002 A 
ATOM      2  C1  UNL d   1       1.995  -1.633   1.124  0.00  0.00     0.010 A 
ATOM      3  C2  UNL d   1       0.641  -1.299   1.181  0.00  0.00     0.041 A 
ATOM      4  C3  UNL d   1       0.153  -0.285   0.333  0.00  0.00    -0.075 A 
ATOM      5  S   UNL d   1      -1.469   0.292   0.229  0.00  0.00     0.015 SA
ATOM      6  C4  UNL d   1      -1.068   1.423  -0.982  0.00  0.00     0.022 A 
ATOM      7  C5  UNL d   1       0.266   1.375  -1.310  0.00  0.00     0.026 A 
ATOM      8  C6  UNL d   1       0.992   0.390  -0.558  0.00  0.00    -0.082 A 
ATOM      9  C7  UNL d   1       2.360   0.029  -0.592  0.00  0.00     0.045 A 
ENDROOT
TORSDOF 0
ENDMDL
