MODEL 1
REMARK minimizedAffinity -3.07978249
REMARK minimizedRMSD -1
REMARK  0 active torsions:
REMARK  status: ('A' for Active; 'I' for Inactive)
ROOT
ATOM      1  C   UNL d   1       2.234  -2.581   0.547  0.00  0.00    -0.002 A 
ATOM      2  C1  UNL d   1       0.945  -3.084   0.435  0.00  0.00     0.010 A 
ATOM      3  C2  UNL d   1      -0.121  -2.241   0.118  0.00  0.00     0.041 A 
ATOM      4  C3  UNL d   1       0.132  -0.870  -0.089  0.00  0.00    -0.075 A 
ATOM      5  S   UNL d   1      -1.019   0.350  -0.488  0.00  0.00     0.015 SA
ATOM      6  C4  UNL d   1       0.173   1.568  -0.521  0.00  0.00     0.022 A 
ATOM      7  C5  UNL d   1       1.424   1.073  -0.236  0.00  0.00     0.026 A 
ATOM      8  C6  UNL d   1       1.421  -0.341   0.017  0.00  0.00    -0.082 A 
ATOM      9  C7  UNL d   1       2.481  -1.221   0.341  0.00  0.00     0.045 A 
ENDROOT
TORSDOF 0
ENDMDL
