MODEL 1
REMARK minimizedAffinity 2.12304497
REMARK minimizedRMSD -1
REMARK  0 active torsions:
REMARK  status: ('A' for Active; 'I' for Inactive)
ROOT
ATOM      1  C   UNL d   1      -1.434   1.342  -2.130  0.00  0.00    -0.002 A 
ATOM      2  C1  UNL d   1      -2.391   1.424  -3.132  0.00  0.00     0.010 A 
ATOM      3  C2  UNL d   1      -2.278   2.378  -4.146  0.00  0.00     0.041 A 
ATOM      4  C3  UNL d   1      -1.175   3.254  -4.137  0.00  0.00    -0.075 A 
ATOM      5  S   UNL d   1      -0.828   4.500  -5.277  0.00  0.00     0.015 SA
ATOM      6  C4  UNL d   1       0.599   4.951  -4.462  0.00  0.00     0.022 A 
ATOM      7  C5  UNL d   1       0.821   4.181  -3.345  0.00  0.00     0.026 A 
ATOM      8  C6  UNL d   1      -0.197   3.190  -3.139  0.00  0.00    -0.082 A 
ATOM      9  C7  UNL d   1      -0.341   2.213  -2.125  0.00  0.00     0.045 A 
ENDROOT
TORSDOF 0
ENDMDL
