MODEL 1
REMARK minimizedAffinity 0.552178979
REMARK minimizedRMSD -1
REMARK  0 active torsions:
REMARK  status: ('A' for Active; 'I' for Inactive)
ROOT
ATOM      1  C   UNL d   1       0.019  -3.237   0.908  0.00  0.00    -0.002 A 
ATOM      2  C1  UNL d   1      -1.027  -2.325   0.906  0.00  0.00     0.010 A 
ATOM      3  C2  UNL d   1      -0.791  -0.974   0.642  0.00  0.00     0.041 A 
ATOM      4  C3  UNL d   1       0.527  -0.552   0.375  0.00  0.00    -0.075 A 
ATOM      5  S   UNL d   1       1.053   1.052   0.024  0.00  0.00     0.015 SA
ATOM      6  C4  UNL d   1       2.678   0.564  -0.132  0.00  0.00     0.022 A 
ATOM      7  C5  UNL d   1       2.834  -0.787   0.075  0.00  0.00     0.026 A 
ATOM      8  C6  UNL d   1       1.596  -1.452   0.371  0.00  0.00    -0.082 A 
ATOM      9  C7  UNL d   1       1.324  -2.814   0.643  0.00  0.00     0.045 A 
ENDROOT
TORSDOF 0
ENDMDL
