MODEL 1
REMARK minimizedAffinity -2.79351449
REMARK minimizedRMSD -1
REMARK  0 active torsions:
REMARK  status: ('A' for Active; 'I' for Inactive)
ROOT
ATOM      1  C   UNL d   1       2.170  -1.930   0.597  0.00  0.00    -0.002 A 
ATOM      2  C1  UNL d   1       1.070  -2.448   1.264  0.00  0.00     0.010 A 
ATOM      3  C2  UNL d   1      -0.151  -1.770   1.254  0.00  0.00     0.041 A 
ATOM      4  C3  UNL d   1      -0.248  -0.552   0.552  0.00  0.00    -0.075 A 
ATOM      5  S   UNL d   1      -1.641   0.452   0.401  0.00  0.00     0.015 SA
ATOM      6  C4  UNL d   1      -0.808   1.592  -0.555  0.00  0.00     0.022 A 
ATOM      7  C5  UNL d   1       0.502   1.231  -0.763  0.00  0.00     0.026 A 
ATOM      8  C6  UNL d   1       0.846  -0.011  -0.128  0.00  0.00    -0.082 A 
ATOM      9  C7  UNL d   1       2.070  -0.722  -0.098  0.00  0.00     0.045 A 
ENDROOT
TORSDOF 0
ENDMDL
