MODEL 1
REMARK minimizedAffinity -4.08508396
REMARK minimizedRMSD -1
REMARK  0 active torsions:
REMARK  status: ('A' for Active; 'I' for Inactive)
ROOT
ATOM      1  C   UNL d   1       2.051  -2.738   0.870  0.00  0.00    -0.002 A 
ATOM      2  C1  UNL d   1       2.953  -1.690   0.755  0.00  0.00     0.010 A 
ATOM      3  C2  UNL d   1       2.516  -0.412   0.400  0.00  0.00     0.041 A 
ATOM      4  C3  UNL d   1       1.143  -0.203   0.163  0.00  0.00    -0.075 A 
ATOM      5  S   UNL d   1       0.378   1.277  -0.282  0.00  0.00     0.015 SA
ATOM      6  C4  UNL d   1      -1.164   0.553  -0.329  0.00  0.00     0.022 A 
ATOM      7  C5  UNL d   1      -1.115  -0.785  -0.015  0.00  0.00     0.026 A 
ATOM      8  C6  UNL d   1       0.215  -1.242   0.274  0.00  0.00    -0.082 A 
ATOM      9  C7  UNL d   1       0.690  -2.527   0.634  0.00  0.00     0.045 A 
ENDROOT
TORSDOF 0
ENDMDL
