MODEL 1
REMARK minimizedAffinity 1.68635917
REMARK minimizedRMSD -1
REMARK  0 active torsions:
REMARK  status: ('A' for Active; 'I' for Inactive)
ROOT
ATOM      1  C   UNL d   1       3.399  -0.577   1.093  0.00  0.00    -0.002 A 
ATOM      2  C1  UNL d   1       3.297   0.683   0.521  0.00  0.00     0.010 A 
ATOM      3  C2  UNL d   1       2.086   1.123  -0.018  0.00  0.00     0.041 A 
ATOM      4  C3  UNL d   1       0.968   0.267   0.031  0.00  0.00    -0.075 A 
ATOM      5  S   UNL d   1      -0.617   0.592  -0.565  0.00  0.00     0.015 SA
ATOM      6  C4  UNL d   1      -1.196  -0.933  -0.073  0.00  0.00     0.022 A 
ATOM      7  C5  UNL d   1      -0.217  -1.686   0.533  0.00  0.00     0.026 A 
ATOM      8  C6  UNL d   1       1.046  -1.006   0.603  0.00  0.00    -0.082 A 
ATOM      9  C7  UNL d   1       2.288  -1.423   1.139  0.00  0.00     0.045 A 
ENDROOT
TORSDOF 0
ENDMDL
