MODEL 1
REMARK minimizedAffinity 5.90592861
REMARK minimizedRMSD -1
REMARK  0 active torsions:
REMARK  status: ('A' for Active; 'I' for Inactive)
ROOT
ATOM      1  C4' PXY d   1       0.775   3.697   3.883  0.00  0.00     0.077 C 
ATOM      2  C1' PXY d   1       0.058  -1.915   2.693  0.00  0.00     0.077 C 
ATOM      3  C1  PXY d   1       0.259  -0.445   3.008  0.00  0.00    -0.082 A 
ATOM      4  C2  PXY d   1      -0.771   0.286   3.401  0.00  0.00     0.003 A 
ATOM      5  C3  PXY d   1      -0.614   1.624   3.659  0.00  0.00     0.003 A 
ATOM      6  C4  PXY d   1       0.621   2.207   3.564  0.00  0.00    -0.082 A 
ATOM      7  C5  PXY d   1       1.679   1.465   3.173  0.00  0.00     0.003 A 
ATOM      8  C6  PXY d   1       1.491   0.118   2.877  0.00  0.00     0.003 A 
ENDROOT
TORSDOF 0
ENDMDL
