MODEL 1
REMARK minimizedAffinity 11.3982506
REMARK minimizedRMSD -1
REMARK  0 active torsions:
REMARK  status: ('A' for Active; 'I' for Inactive)
ROOT
ATOM      1  C4' PXY d   1       5.399   2.983  -5.336  0.00  0.00     0.077 C 
ATOM      2  C1' PXY d   1       0.493   5.999  -5.837  0.00  0.00     0.077 C 
ATOM      3  C1  PXY d   1       1.786   5.216  -5.714  0.00  0.00    -0.082 A 
ATOM      4  C2  PXY d   1       1.751   3.953  -5.320  0.00  0.00     0.003 A 
ATOM      5  C3  PXY d   1       2.913   3.240  -5.173  0.00  0.00     0.003 A 
ATOM      6  C4  PXY d   1       4.119   3.809  -5.483  0.00  0.00    -0.082 A 
ATOM      7  C5  PXY d   1       4.162   5.094  -5.896  0.00  0.00     0.003 A 
ATOM      8  C6  PXY d   1       2.974   5.813  -5.999  0.00  0.00     0.003 A 
ENDROOT
TORSDOF 0
ENDMDL
