MODEL 1
REMARK minimizedAffinity 9.34697914
REMARK minimizedRMSD -1
REMARK  0 active torsions:
REMARK  status: ('A' for Active; 'I' for Inactive)
ROOT
ATOM      1  C4' PXY d   1      -3.606   4.383  -4.174  0.00  0.00     0.077 C 
ATOM      2  C1' PXY d   1      -2.255  -0.639  -1.650  0.00  0.00     0.077 C 
ATOM      3  C1  PXY d   1      -2.604   0.684  -2.302  0.00  0.00    -0.082 A 
ATOM      4  C2  PXY d   1      -3.598   0.742  -3.173  0.00  0.00     0.003 A 
ATOM      5  C3  PXY d   1      -3.906   1.924  -3.796  0.00  0.00     0.003 A 
ATOM      6  C4  PXY d   1      -3.224   3.070  -3.484  0.00  0.00    -0.082 A 
ATOM      7  C5  PXY d   1      -2.216   3.021  -2.588  0.00  0.00     0.003 A 
ATOM      8  C6  PXY d   1      -1.892   1.803  -1.998  0.00  0.00     0.003 A 
ENDROOT
TORSDOF 0
ENDMDL
