MODEL 1
REMARK minimizedAffinity 14.5539589
REMARK minimizedRMSD -1
REMARK  0 active torsions:
REMARK  status: ('A' for Active; 'I' for Inactive)
ROOT
ATOM      1  C4' PXY d   1       5.696   5.393  -5.881  0.00  0.00     0.077 C 
ATOM      2  C1' PXY d   1       0.119   4.450  -4.687  0.00  0.00     0.077 C 
ATOM      3  C1  PXY d   1       1.585   4.690  -4.990  0.00  0.00    -0.082 A 
ATOM      4  C2  PXY d   1       1.948   5.782  -5.642  0.00  0.00     0.003 A 
ATOM      5  C3  PXY d   1       3.266   5.999  -5.953  0.00  0.00     0.003 A 
ATOM      6  C4  PXY d   1       4.228   5.115  -5.545  0.00  0.00    -0.082 A 
ATOM      7  C5  PXY d   1       3.867   4.003  -4.871  0.00  0.00     0.003 A 
ATOM      8  C6  PXY d   1       2.520   3.781  -4.601  0.00  0.00     0.003 A 
ENDROOT
TORSDOF 0
ENDMDL
