MODEL 1
REMARK minimizedAffinity 3.97693944
REMARK minimizedRMSD -1
REMARK  0 active torsions:
REMARK  status: ('A' for Active; 'I' for Inactive)
ROOT
ATOM      1  C4' PXY d   1       0.921   5.990  -5.688  0.00  0.00     0.077 C 
ATOM      2  C1' PXY d   1       6.000   3.234  -5.850  0.00  0.00     0.077 C 
ATOM      3  C1  PXY d   1       4.674   3.968  -5.804  0.00  0.00    -0.082 A 
ATOM      4  C2  PXY d   1       3.552   3.282  -5.659  0.00  0.00     0.003 A 
ATOM      5  C3  PXY d   1       2.342   3.926  -5.647  0.00  0.00     0.003 A 
ATOM      6  C4  PXY d   1       2.283   5.292  -5.731  0.00  0.00    -0.082 A 
ATOM      7  C5  PXY d   1       3.424   6.000  -5.868  0.00  0.00     0.003 A 
ATOM      8  C6  PXY d   1       4.640   5.323  -5.919  0.00  0.00     0.003 A 
ENDROOT
TORSDOF 0
ENDMDL
