MODEL 1
REMARK minimizedAffinity 12.6242256
REMARK minimizedRMSD -1
REMARK  0 active torsions:
REMARK  status: ('A' for Active; 'I' for Inactive)
ROOT
ATOM      1  C4' PXY d   1       3.722   5.861  -5.751  0.00  0.00     0.077 C 
ATOM      2  C1' PXY d   1      -0.935   2.436  -5.792  0.00  0.00     0.077 C 
ATOM      3  C1  PXY d   1       0.280   3.343  -5.789  0.00  0.00    -0.082 A 
ATOM      4  C2  PXY d   1       1.482   2.825  -5.598  0.00  0.00     0.003 A 
ATOM      5  C3  PXY d   1       2.588   3.635  -5.559  0.00  0.00     0.003 A 
ATOM      6  C4  PXY d   1       2.468   4.982  -5.772  0.00  0.00    -0.082 A 
ATOM      7  C5  PXY d   1       1.246   5.517  -5.978  0.00  0.00     0.003 A 
ATOM      8  C6  PXY d   1       0.131   4.683  -5.972  0.00  0.00     0.003 A 
ENDROOT
TORSDOF 0
ENDMDL
