MODEL 1
REMARK minimizedAffinity 3.75058913
REMARK minimizedRMSD -1
REMARK  0 active torsions:
REMARK  status: ('A' for Active; 'I' for Inactive)
ROOT
ATOM      1  C4' PXY d   1       4.705   3.422  -5.830  0.00  0.00     0.077 C 
ATOM      2  C1' PXY d   1      -0.498   5.940  -5.814  0.00  0.00     0.077 C 
ATOM      3  C1  PXY d   1       0.861   5.269  -5.815  0.00  0.00    -0.082 A 
ATOM      4  C2  PXY d   1       1.952   5.998  -5.643  0.00  0.00     0.003 A 
ATOM      5  C3  PXY d   1       3.191   5.411  -5.673  0.00  0.00     0.003 A 
ATOM      6  C4  PXY d   1       3.312   4.056  -5.827  0.00  0.00    -0.082 A 
ATOM      7  C5  PXY d   1       2.204   3.304  -5.992  0.00  0.00     0.003 A 
ATOM      8  C6  PXY d   1       0.958   3.924  -6.000  0.00  0.00     0.003 A 
ENDROOT
TORSDOF 0
ENDMDL
