MODEL 1
REMARK minimizedAffinity 10.5045671
REMARK minimizedRMSD -1
REMARK  0 active torsions:
REMARK  status: ('A' for Active; 'I' for Inactive)
ROOT
ATOM      1  C4' PXY d   1       1.731  -1.275   0.700  0.00  0.00     0.077 C 
ATOM      2  C1' PXY d   1       4.959   3.510   1.010  0.00  0.00     0.077 C 
ATOM      3  C1  PXY d   1       4.107   2.258   0.940  0.00  0.00    -0.082 A 
ATOM      4  C2  PXY d   1       4.505   1.236   0.200  0.00  0.00     0.003 A 
ATOM      5  C3  PXY d   1       3.731   0.109   0.100  0.00  0.00     0.003 A 
ATOM      6  C4  PXY d   1       2.563   0.006   0.808  0.00  0.00    -0.082 A 
ATOM      7  C5  PXY d   1       2.156   1.040   1.573  0.00  0.00     0.003 A 
ATOM      8  C6  PXY d   1       2.935   2.191   1.629  0.00  0.00     0.003 A 
ENDROOT
TORSDOF 0
ENDMDL
