MODEL 1
REMARK minimizedAffinity 1.25033653
REMARK minimizedRMSD -1
REMARK  1 active torsions:
REMARK  status: ('A' for Active; 'I' for Inactive)
REMARK    1  A    between atoms: C1_2  and  C2_3 
ROOT
ATOM      1  C2  UNL d   1       0.428   4.495  -3.833  0.00  0.00    -0.077 A 
ATOM      2  C3  UNL d   1       0.504   4.480  -5.233  0.00  0.00     0.002 A 
ATOM      3  C4  UNL d   1      -0.410   5.208  -5.997  0.00  0.00     0.002 A 
ATOM      4  C5  UNL d   1      -1.404   5.957  -5.371  0.00  0.00    -0.004 A 
ATOM      5  C6  UNL d   1      -1.489   5.976  -3.980  0.00  0.00     0.002 A 
ATOM      6  C7  UNL d   1      -0.577   5.249  -3.214  0.00  0.00     0.002 A 
ENDROOT
BRANCH   1   7
ATOM      7  C1  UNL d   1       1.443   3.750  -3.006  0.00  0.00     0.055 C 
ATOM      8  C   UNL d   1       0.942   2.364  -2.630  0.00  0.00     0.019 C 
ENDBRANCH   1   7
TORSDOF 1
ENDMDL
