MODEL 1
REMARK minimizedAffinity 4.56940126
REMARK minimizedRMSD -1
REMARK  1 active torsions:
REMARK  status: ('A' for Active; 'I' for Inactive)
REMARK    1  A    between atoms: C1_2  and  C2_3 
ROOT
ATOM      1  C2  UNL d   1       1.212   4.631  -4.115  0.00  0.00    -0.077 A 
ATOM      2  C3  UNL d   1       1.478   5.630  -5.062  0.00  0.00     0.002 A 
ATOM      3  C4  UNL d   1       0.509   5.990  -6.000  0.00  0.00     0.002 A 
ATOM      4  C5  UNL d   1      -0.734   5.360  -5.998  0.00  0.00    -0.004 A 
ATOM      5  C6  UNL d   1      -1.008   4.364  -5.061  0.00  0.00     0.002 A 
ATOM      6  C7  UNL d   1      -0.040   4.001  -4.124  0.00  0.00     0.002 A 
ENDROOT
BRANCH   1   7
ATOM      7  C1  UNL d   1       2.238   4.275  -3.071  0.00  0.00     0.055 C 
ATOM      8  C   UNL d   1       1.830   3.031  -2.296  0.00  0.00     0.019 C 
ENDBRANCH   1   7
TORSDOF 1
ENDMDL
