MODEL 1
REMARK minimizedAffinity -1.53840101
REMARK minimizedRMSD -1
REMARK  1 active torsions:
REMARK  status: ('A' for Active; 'I' for Inactive)
REMARK    1  A    between atoms: C1_2  and  C2_3 
ROOT
ATOM      1  C2  UNL d   1       0.264   3.977  -3.841  0.00  0.00    -0.077 A 
ATOM      2  C3  UNL d   1      -1.089   4.249  -3.598  0.00  0.00     0.002 A 
ATOM      3  C4  UNL d   1      -1.855   4.929  -4.548  0.00  0.00     0.002 A 
ATOM      4  C5  UNL d   1      -1.276   5.339  -5.747  0.00  0.00    -0.004 A 
ATOM      5  C6  UNL d   1       0.070   5.075  -5.997  0.00  0.00     0.002 A 
ATOM      6  C7  UNL d   1       0.836   4.396  -5.049  0.00  0.00     0.002 A 
ENDROOT
BRANCH   1   7
ATOM      7  C1  UNL d   1       1.079   3.201  -2.839  0.00  0.00     0.055 C 
ATOM      8  C   UNL d   1       1.815   4.130  -1.886  0.00  0.00     0.019 C 
ENDBRANCH   1   7
TORSDOF 1
ENDMDL
