MODEL 1
REMARK minimizedAffinity 2.80050898
REMARK minimizedRMSD -1
REMARK  1 active torsions:
REMARK  status: ('A' for Active; 'I' for Inactive)
REMARK    1  A    between atoms: C1_2  and  C2_3 
ROOT
ATOM      1  C2  UNL d   1      -4.034   4.631  -0.654  0.00  0.00    -0.077 A 
ATOM      2  C3  UNL d   1      -4.199   4.729  -2.043  0.00  0.00     0.002 A 
ATOM      3  C4  UNL d   1      -5.135   3.928  -2.701  0.00  0.00     0.002 A 
ATOM      4  C5  UNL d   1      -5.916   3.029  -1.978  0.00  0.00    -0.004 A 
ATOM      5  C6  UNL d   1      -5.758   2.922  -0.597  0.00  0.00     0.002 A 
ATOM      6  C7  UNL d   1      -4.822   3.720   0.062  0.00  0.00     0.002 A 
ENDROOT
BRANCH   1   7
ATOM      7  C1  UNL d   1      -3.060   5.528   0.064  0.00  0.00     0.055 C 
ATOM      8  C   UNL d   1      -1.623   5.199  -0.313  0.00  0.00     0.019 C 
ENDBRANCH   1   7
TORSDOF 1
ENDMDL
