MODEL 1
REMARK minimizedAffinity 5.04000759
REMARK minimizedRMSD -1
REMARK  1 active torsions:
REMARK  status: ('A' for Active; 'I' for Inactive)
REMARK    1  A    between atoms: C1_2  and  C2_3 
ROOT
ATOM      1  C2  UNL d   1      -1.024  -4.761  -0.747  0.00  0.00    -0.077 A 
ATOM      2  C3  UNL d   1      -1.413  -4.020   0.378  0.00  0.00     0.002 A 
ATOM      3  C4  UNL d   1      -0.469  -3.638   1.333  0.00  0.00     0.002 A 
ATOM      4  C5  UNL d   1       0.870  -3.988   1.171  0.00  0.00    -0.004 A 
ATOM      5  C6  UNL d   1       1.266  -4.727   0.057  0.00  0.00     0.002 A 
ATOM      6  C7  UNL d   1       0.324  -5.111  -0.898  0.00  0.00     0.002 A 
ENDROOT
BRANCH   1   7
ATOM      7  C1  UNL d   1      -2.032  -5.132  -1.803  0.00  0.00     0.055 C 
ATOM      8  C   UNL d   1      -1.458  -4.957  -3.202  0.00  0.00     0.019 C 
ENDBRANCH   1   7
TORSDOF 1
ENDMDL
