MODEL 1
REMARK minimizedAffinity 10.5222731
REMARK minimizedRMSD -1
REMARK  1 active torsions:
REMARK  status: ('A' for Active; 'I' for Inactive)
REMARK    1  A    between atoms: C1_2  and  C2_3 
ROOT
ATOM      1  C2  UNL d   1       3.558   1.675  -1.952  0.00  0.00    -0.077 A 
ATOM      2  C3  UNL d   1       2.361   2.396  -2.071  0.00  0.00     0.002 A 
ATOM      3  C4  UNL d   1       1.355   2.259  -1.113  0.00  0.00     0.002 A 
ATOM      4  C5  UNL d   1       1.537   1.406  -0.027  0.00  0.00    -0.004 A 
ATOM      5  C6  UNL d   1       2.723   0.683   0.100  0.00  0.00     0.002 A 
ATOM      6  C7  UNL d   1       3.729   0.817  -0.857  0.00  0.00     0.002 A 
ENDROOT
BRANCH   1   7
ATOM      7  C1  UNL d   1       4.664   1.858  -2.958  0.00  0.00     0.055 C 
ATOM      8  C   UNL d   1       5.996   2.125  -2.273  0.00  0.00     0.019 C 
ENDBRANCH   1   7
TORSDOF 1
ENDMDL
