MODEL 1
REMARK minimizedAffinity 6.32409716
REMARK minimizedRMSD -1
REMARK  1 active torsions:
REMARK  status: ('A' for Active; 'I' for Inactive)
REMARK    1  A    between atoms: C1_2  and  C2_3 
ROOT
ATOM      1  C2  UNL d   1       3.471   0.916   1.578  0.00  0.00    -0.077 A 
ATOM      2  C3  UNL d   1       2.427   0.264   0.906  0.00  0.00     0.002 A 
ATOM      3  C4  UNL d   1       1.257   0.954   0.581  0.00  0.00     0.002 A 
ATOM      4  C5  UNL d   1       1.122   2.298   0.920  0.00  0.00    -0.004 A 
ATOM      5  C6  UNL d   1       2.154   2.954   1.591  0.00  0.00     0.002 A 
ATOM      6  C7  UNL d   1       3.323   2.267   1.917  0.00  0.00     0.002 A 
ENDROOT
BRANCH   1   7
ATOM      7  C1  UNL d   1       4.753   0.187   1.886  0.00  0.00     0.055 C 
ATOM      8  C   UNL d   1       5.904   1.159   2.102  0.00  0.00     0.019 C 
ENDBRANCH   1   7
TORSDOF 1
ENDMDL
