MODEL 1
REMARK minimizedAffinity 9.97906399
REMARK minimizedRMSD -1
REMARK  1 active torsions:
REMARK  status: ('A' for Active; 'I' for Inactive)
REMARK    1  A    between atoms: C1_2  and  C2_3 
ROOT
ATOM      1  C2  UNL d   1       2.780   0.884   0.639  0.00  0.00    -0.077 A 
ATOM      2  C3  UNL d   1       2.934   0.593  -0.724  0.00  0.00     0.002 A 
ATOM      3  C4  UNL d   1       2.205   1.298  -1.684  0.00  0.00     0.002 A 
ATOM      4  C5  UNL d   1       1.321   2.300  -1.292  0.00  0.00    -0.004 A 
ATOM      5  C6  UNL d   1       1.159   2.596   0.061  0.00  0.00     0.002 A 
ATOM      6  C7  UNL d   1       1.886   1.892   1.022  0.00  0.00     0.002 A 
ENDROOT
BRANCH   1   7
ATOM      7  C1  UNL d   1       3.602   0.159   1.672  0.00  0.00     0.055 C 
ATOM      8  C   UNL d   1       3.734  -1.320   1.337  0.00  0.00     0.019 C 
ENDBRANCH   1   7
TORSDOF 1
ENDMDL
