MODEL 1
REMARK minimizedAffinity 8.94041634
REMARK minimizedRMSD -1
REMARK  1 active torsions:
REMARK  status: ('A' for Active; 'I' for Inactive)
REMARK    1  A    between atoms: C1_2  and  C2_3 
ROOT
ATOM      1  C2  UNL d   1       2.486   0.458   0.244  0.00  0.00    -0.077 A 
ATOM      2  C3  UNL d   1       3.256   0.355  -0.923  0.00  0.00     0.002 A 
ATOM      3  C4  UNL d   1       3.025   1.214  -2.000  0.00  0.00     0.002 A 
ATOM      4  C5  UNL d   1       2.027   2.183  -1.918  0.00  0.00    -0.004 A 
ATOM      5  C6  UNL d   1       1.254   2.291  -0.763  0.00  0.00     0.002 A 
ATOM      6  C7  UNL d   1       1.483   1.433   0.314  0.00  0.00     0.002 A 
ENDROOT
BRANCH   1   7
ATOM      7  C1  UNL d   1       2.766  -0.435   1.424  0.00  0.00     0.055 C 
ATOM      8  C   UNL d   1       4.010  -1.281   1.195  0.00  0.00     0.019 C 
ENDBRANCH   1   7
TORSDOF 1
ENDMDL
