MODEL 1
REMARK minimizedAffinity 4.37442732
REMARK minimizedRMSD -1
REMARK  1 active torsions:
REMARK  status: ('A' for Active; 'I' for Inactive)
REMARK    1  A    between atoms: C1_2  and  C2_3 
ROOT
ATOM      1  C2  UNL d   1       1.025   3.508  -3.183  0.00  0.00    -0.077 A 
ATOM      2  C3  UNL d   1       2.167   4.189  -3.627  0.00  0.00     0.002 A 
ATOM      3  C4  UNL d   1       2.115   4.979  -4.777  0.00  0.00     0.002 A 
ATOM      4  C5  UNL d   1       0.924   5.098  -5.489  0.00  0.00    -0.004 A 
ATOM      5  C6  UNL d   1      -0.217   4.423  -5.057  0.00  0.00     0.002 A 
ATOM      6  C7  UNL d   1      -0.167   3.632  -3.908  0.00  0.00     0.002 A 
ENDROOT
BRANCH   1   7
ATOM      7  C1  UNL d   1       1.066   2.695  -1.915  0.00  0.00     0.055 C 
ATOM      8  C   UNL d   1       1.714   1.338  -2.148  0.00  0.00     0.019 C 
ENDBRANCH   1   7
TORSDOF 1
ENDMDL
