MODEL 1
REMARK minimizedAffinity 8.32646847
REMARK minimizedRMSD -1
REMARK  1 active torsions:
REMARK  status: ('A' for Active; 'I' for Inactive)
REMARK    1  A    between atoms: C1_2  and  C2_3 
ROOT
ATOM      1  C2  UNL d   1      -6.000   1.655  -3.856  0.00  0.00    -0.077 A 
ATOM      2  C3  UNL d   1      -5.985   0.451  -3.138  0.00  0.00     0.002 A 
ATOM      3  C4  UNL d   1      -5.966  -0.772  -3.811  0.00  0.00     0.002 A 
ATOM      4  C5  UNL d   1      -5.956  -0.803  -5.204  0.00  0.00    -0.004 A 
ATOM      5  C6  UNL d   1      -5.972   0.389  -5.927  0.00  0.00     0.002 A 
ATOM      6  C7  UNL d   1      -5.993   1.613  -5.256  0.00  0.00     0.002 A 
ENDROOT
BRANCH   1   7
ATOM      7  C1  UNL d   1      -5.971   2.976  -3.132  0.00  0.00     0.055 C 
ATOM      8  C   UNL d   1      -5.818   2.781  -1.631  0.00  0.00     0.019 C 
ENDBRANCH   1   7
TORSDOF 1
ENDMDL
