MODEL 1
REMARK minimizedAffinity -0.948685825
REMARK minimizedRMSD -1
REMARK  1 active torsions:
REMARK  status: ('A' for Active; 'I' for Inactive)
REMARK    1  A    between atoms: C1_2  and  C2_3 
ROOT
ATOM      1  C2  UNL d   1       1.887   3.710  -3.306  0.00  0.00    -0.077 A 
ATOM      2  C3  UNL d   1       2.795   3.938  -4.350  0.00  0.00     0.002 A 
ATOM      3  C4  UNL d   1       4.012   3.255  -4.389  0.00  0.00     0.002 A 
ATOM      4  C5  UNL d   1       4.331   2.338  -3.389  0.00  0.00    -0.004 A 
ATOM      5  C6  UNL d   1       3.436   2.107  -2.346  0.00  0.00     0.002 A 
ATOM      6  C7  UNL d   1       2.220   2.789  -2.304  0.00  0.00     0.002 A 
ENDROOT
BRANCH   1   7
ATOM      7  C1  UNL d   1       0.553   4.409  -3.289  0.00  0.00     0.055 C 
ATOM      8  C   UNL d   1       0.324   5.133  -1.970  0.00  0.00     0.019 C 
ENDBRANCH   1   7
TORSDOF 1
ENDMDL
