MODEL 1
REMARK minimizedAffinity 1.34609938
REMARK minimizedRMSD -1
REMARK  1 active torsions:
REMARK  status: ('A' for Active; 'I' for Inactive)
REMARK    1  A    between atoms: C1_2  and  C2_3 
ROOT
ATOM      1  C2  UNL d   1       3.378   2.884  -3.705  0.00  0.00    -0.077 A 
ATOM      2  C3  UNL d   1       2.512   2.399  -2.715  0.00  0.00     0.002 A 
ATOM      3  C4  UNL d   1       1.233   2.939  -2.570  0.00  0.00     0.002 A 
ATOM      4  C5  UNL d   1       0.807   3.963  -3.414  0.00  0.00    -0.004 A 
ATOM      5  C6  UNL d   1       1.662   4.453  -4.400  0.00  0.00     0.002 A 
ATOM      6  C7  UNL d   1       2.941   3.915  -4.546  0.00  0.00     0.002 A 
ENDROOT
BRANCH   1   7
ATOM      7  C1  UNL d   1       4.740   2.269  -3.895  0.00  0.00     0.055 C 
ATOM      8  C   UNL d   1       4.795   1.426  -5.161  0.00  0.00     0.019 C 
ENDBRANCH   1   7
TORSDOF 1
ENDMDL
