MODEL 1
REMARK minimizedAffinity -1.70385146
REMARK minimizedRMSD -1
REMARK  1 active torsions:
REMARK  status: ('A' for Active; 'I' for Inactive)
REMARK    1  A    between atoms: C1_2  and  C2_3 
ROOT
ATOM      1  C2  UNL d   1       2.452   2.515  -1.609  0.00  0.00    -0.077 A 
ATOM      2  C3  UNL d   1       1.571   1.425  -1.625  0.00  0.00     0.002 A 
ATOM      3  C4  UNL d   1       1.094   0.884  -0.430  0.00  0.00     0.002 A 
ATOM      4  C5  UNL d   1       1.489   1.429   0.790  0.00  0.00    -0.004 A 
ATOM      5  C6  UNL d   1       2.367   2.512   0.817  0.00  0.00     0.002 A 
ATOM      6  C7  UNL d   1       2.845   3.053  -0.377  0.00  0.00     0.002 A 
ENDROOT
BRANCH   1   7
ATOM      7  C1  UNL d   1       2.929   3.131  -2.898  0.00  0.00     0.055 C 
ATOM      8  C   UNL d   1       3.992   2.268  -3.563  0.00  0.00     0.019 C 
ENDBRANCH   1   7
TORSDOF 1
ENDMDL
