MODEL 1
REMARK minimizedAffinity 9.60688877
REMARK minimizedRMSD -1
REMARK  1 active torsions:
REMARK  status: ('A' for Active; 'I' for Inactive)
REMARK    1  A    between atoms: C1_2  and  C2_3 
ROOT
ATOM      1  C2  UNL d   1       0.580   0.162   1.308  0.00  0.00    -0.077 A 
ATOM      2  C3  UNL d   1      -0.469   1.073   1.119  0.00  0.00     0.002 A 
ATOM      3  C4  UNL d   1      -1.723   0.834   1.685  0.00  0.00     0.002 A 
ATOM      4  C5  UNL d   1      -1.938  -0.313   2.447  0.00  0.00    -0.004 A 
ATOM      5  C6  UNL d   1      -0.902  -1.226   2.639  0.00  0.00     0.002 A 
ATOM      6  C7  UNL d   1       0.351  -0.990   2.073  0.00  0.00     0.002 A 
ENDROOT
BRANCH   1   7
ATOM      7  C1  UNL d   1       1.946   0.442   0.739  0.00  0.00     0.055 C 
ATOM      8  C   UNL d   1       2.945  -0.633   1.143  0.00  0.00     0.019 C 
ENDBRANCH   1   7
TORSDOF 1
ENDMDL
