MODEL 1
REMARK minimizedAffinity -2.75302339
REMARK minimizedRMSD -1
REMARK  1 active torsions:
REMARK  status: ('A' for Active; 'I' for Inactive)
REMARK    1  A    between atoms: C1_2  and  C2_3 
ROOT
ATOM      1  C2  UNL d   1       1.131   2.425  -2.837  0.00  0.00    -0.077 A 
ATOM      2  C3  UNL d   1       0.119   3.041  -3.587  0.00  0.00     0.002 A 
ATOM      3  C4  UNL d   1       0.414   4.129  -4.412  0.00  0.00     0.002 A 
ATOM      4  C5  UNL d   1       1.720   4.607  -4.497  0.00  0.00    -0.004 A 
ATOM      5  C6  UNL d   1       2.733   4.002  -3.754  0.00  0.00     0.002 A 
ATOM      6  C7  UNL d   1       2.440   2.916  -2.928  0.00  0.00     0.002 A 
ENDROOT
BRANCH   1   7
ATOM      7  C1  UNL d   1       0.824   1.221  -1.985  0.00  0.00     0.055 C 
ATOM      8  C   UNL d   1       1.309   1.417  -0.556  0.00  0.00     0.019 C 
ENDBRANCH   1   7
TORSDOF 1
ENDMDL
