MODEL 1
REMARK minimizedAffinity -4.19604492
REMARK minimizedRMSD -1
REMARK  1 active torsions:
REMARK  status: ('A' for Active; 'I' for Inactive)
REMARK    1  A    between atoms: N_2  and  C1_3 
ROOT
ATOM      1  C1  UNL d   1      -0.157   0.245   0.033  0.00  0.00     0.143 A 
ATOM      2  C2  UNL d   1       0.420   1.508   0.207  0.00  0.00    -0.057 A 
ATOM      3  C3  UNL d   1       1.743   1.647   0.644  0.00  0.00     0.033 A 
ATOM      4  C4  UNL d   1       2.505   0.523   0.944  0.00  0.00    -0.042 A 
ATOM      5  C5  UNL d   1       1.944  -0.741   0.803  0.00  0.00     0.033 A 
ATOM      6  C6  UNL d   1       0.625  -0.874   0.360  0.00  0.00    -0.057 A 
ENDROOT
BRANCH   1   7
ATOM      7  N   UNL d   1      -1.497   0.043  -0.304  0.00  0.00    -0.732 N 
ATOM      8  C   UNL d   1      -1.901  -0.060  -1.690  0.00  0.00     0.284 C 
ATOM      9  H3  UNL d   1      -1.957  -0.623   0.313  0.00  0.00     0.395 HD
ENDBRANCH   1   7
TORSDOF 1
ENDMDL
