MODEL 1
REMARK minimizedAffinity -0.450564831
REMARK minimizedRMSD -1
REMARK  1 active torsions:
REMARK  status: ('A' for Active; 'I' for Inactive)
REMARK    1  A    between atoms: N_2  and  C1_3 
ROOT
ATOM      1  C1  UNL d   1       0.158   0.177   1.125  0.00  0.00     0.143 A 
ATOM      2  C2  UNL d   1       0.051  -0.943   1.956  0.00  0.00    -0.057 A 
ATOM      3  C3  UNL d   1       1.003  -1.202   2.950  0.00  0.00     0.033 A 
ATOM      4  C4  UNL d   1       2.097  -0.359   3.111  0.00  0.00    -0.042 A 
ATOM      5  C5  UNL d   1       2.237   0.746   2.279  0.00  0.00     0.033 A 
ATOM      6  C6  UNL d   1       1.280   1.004   1.293  0.00  0.00    -0.057 A 
ENDROOT
BRANCH   1   7
ATOM      7  N   UNL d   1      -0.701   0.436   0.054  0.00  0.00    -0.732 N 
ATOM      8  C   UNL d   1      -0.386  -0.040  -1.276  0.00  0.00     0.284 C 
ATOM      9  H3  UNL d   1      -1.681   0.336   0.310  0.00  0.00     0.395 HD
ENDBRANCH   1   7
TORSDOF 1
ENDMDL
