MODEL 1
REMARK minimizedAffinity -3.70641589
REMARK minimizedRMSD -1
REMARK  1 active torsions:
REMARK  status: ('A' for Active; 'I' for Inactive)
REMARK    1  A    between atoms: N_2  and  C1_3 
ROOT
ATOM      1  C1  UNL d   1      -1.995  -0.197  -1.318  0.00  0.00     0.143 A 
ATOM      2  C2  UNL d   1      -2.102  -1.351  -2.102  0.00  0.00    -0.057 A 
ATOM      3  C3  UNL d   1      -2.913  -1.381  -3.243  0.00  0.00     0.033 A 
ATOM      4  C4  UNL d   1      -3.655  -0.261  -3.606  0.00  0.00    -0.042 A 
ATOM      5  C5  UNL d   1      -3.583   0.888  -2.827  0.00  0.00     0.033 A 
ATOM      6  C6  UNL d   1      -2.767   0.914  -1.692  0.00  0.00    -0.057 A 
ENDROOT
BRANCH   1   7
ATOM      7  N   UNL d   1      -1.284  -0.136  -0.117  0.00  0.00    -0.732 N 
ATOM      8  C   UNL d   1      -0.156   0.759   0.027  0.00  0.00     0.284 C 
ATOM      9  H3  UNL d   1      -1.892  -0.173   0.697  0.00  0.00     0.395 HD
ENDBRANCH   1   7
TORSDOF 1
ENDMDL
