MODEL 1
REMARK minimizedAffinity -4.99670362
REMARK minimizedRMSD -1
REMARK  1 active torsions:
REMARK  status: ('A' for Active; 'I' for Inactive)
REMARK    1  A    between atoms: N_2  and  C1_3 
ROOT
ATOM      1  C1  UNL d   1       0.016   0.388   0.338  0.00  0.00     0.143 A 
ATOM      2  C2  UNL d   1       0.835   1.479   0.647  0.00  0.00    -0.057 A 
ATOM      3  C3  UNL d   1       2.180   1.302   0.992  0.00  0.00     0.033 A 
ATOM      4  C4  UNL d   1       2.724   0.024   1.062  0.00  0.00    -0.042 A 
ATOM      5  C5  UNL d   1       1.922  -1.077   0.783  0.00  0.00     0.033 A 
ATOM      6  C6  UNL d   1       0.581  -0.893   0.433  0.00  0.00    -0.057 A 
ENDROOT
BRANCH   1   7
ATOM      7  N   UNL d   1      -1.354   0.491   0.084  0.00  0.00    -0.732 N 
ATOM      8  C   UNL d   1      -2.004  -0.419  -0.834  0.00  0.00     0.284 C 
ATOM      9  H3  UNL d   1      -1.891   0.688   0.925  0.00  0.00     0.395 HD
ENDBRANCH   1   7
TORSDOF 1
ENDMDL
