MODEL 1
REMARK minimizedAffinity -4.61602592
REMARK minimizedRMSD -1
REMARK  0 active torsions:
REMARK  status: ('A' for Active; 'I' for Inactive)
ROOT
ATOM      1  C   UNL d   1      -0.346  -3.257  -0.420  0.00  0.00     0.023 A 
ATOM      2  C1  UNL d   1      -0.662  -2.581   0.759  0.00  0.00     0.003 A 
ATOM      3  C2  UNL d   1      -0.576  -1.188   0.811  0.00  0.00     0.048 A 
ATOM      4  C3  UNL d   1      -0.174  -0.478  -0.319  0.00  0.00     0.023 A 
ATOM      5  C4  UNL d   1       0.142  -1.149  -1.501  0.00  0.00     0.048 A 
ATOM      6  C5  UNL d   1       0.056  -2.542  -1.548  0.00  0.00     0.003 A 
ATOM      7  I   UNL d   1      -0.046   1.596  -0.244  0.00  0.00    -0.146 I 
ENDROOT
TORSDOF 0
ENDMDL
