MODEL 1
REMARK minimizedAffinity -3.06826925
REMARK minimizedRMSD -1
REMARK  0 active torsions:
REMARK  status: ('A' for Active; 'I' for Inactive)
ROOT
ATOM      1  C   UNL d   1      -0.142   1.383  -0.672  0.00  0.00     0.023 A 
ATOM      2  C1  UNL d   1       0.390   0.490  -1.602  0.00  0.00     0.003 A 
ATOM      3  C2  UNL d   1       0.376  -0.882  -1.342  0.00  0.00     0.048 A 
ATOM      4  C3  UNL d   1      -0.172  -1.353  -0.149  0.00  0.00     0.023 A 
ATOM      5  C4  UNL d   1      -0.707  -0.463   0.784  0.00  0.00     0.048 A 
ATOM      6  C5  UNL d   1      -0.690   0.907   0.519  0.00  0.00     0.003 A 
ATOM      7  I   UNL d   1      -0.194  -3.395   0.240  0.00  0.00    -0.146 I 
ENDROOT
TORSDOF 0
ENDMDL
