MODEL 1
REMARK minimizedAffinity -3.70635796
REMARK minimizedRMSD -1
REMARK  0 active torsions:
REMARK  status: ('A' for Active; 'I' for Inactive)
ROOT
ATOM      1  C   UNL d   1      -1.119  -2.036   0.779  0.00  0.00     0.023 A 
ATOM      2  C1  UNL d   1      -0.160  -1.821  -0.211  0.00  0.00     0.003 A 
ATOM      3  C2  UNL d   1       0.360  -0.541  -0.416  0.00  0.00     0.048 A 
ATOM      4  C3  UNL d   1      -0.083   0.519   0.374  0.00  0.00     0.023 A 
ATOM      5  C4  UNL d   1      -1.042   0.309   1.367  0.00  0.00     0.048 A 
ATOM      6  C5  UNL d   1      -1.559  -0.972   1.567  0.00  0.00     0.003 A 
ATOM      7  I   UNL d   1       0.690   2.425   0.072  0.00  0.00    -0.146 I 
ENDROOT
TORSDOF 0
ENDMDL
