MODEL 1
REMARK minimizedAffinity -1.79362214
REMARK minimizedRMSD -1
REMARK  0 active torsions:
REMARK  status: ('A' for Active; 'I' for Inactive)
ROOT
ATOM      1  C   UNL d   1      -1.113  -2.365   0.554  0.00  0.00     0.023 A 
ATOM      2  C1  UNL d   1      -1.411  -1.349   1.462  0.00  0.00     0.003 A 
ATOM      3  C2  UNL d   1      -0.929  -0.056   1.247  0.00  0.00     0.048 A 
ATOM      4  C3  UNL d   1      -0.150   0.214   0.123  0.00  0.00     0.023 A 
ATOM      5  C4  UNL d   1       0.150  -0.800  -0.789  0.00  0.00     0.048 A 
ATOM      6  C5  UNL d   1      -0.333  -2.091  -0.570  0.00  0.00     0.003 A 
ATOM      7  I   UNL d   1       0.569   2.137  -0.198  0.00  0.00    -0.146 I 
ENDROOT
TORSDOF 0
ENDMDL
