MODEL 1
REMARK minimizedAffinity -3.02528143
REMARK minimizedRMSD -1
REMARK  0 active torsions:
REMARK  status: ('A' for Active; 'I' for Inactive)
ROOT
ATOM      1  C   UNL d   1      -0.478  -3.018   0.122  0.00  0.00     0.023 A 
ATOM      2  C1  UNL d   1       0.763  -2.541  -0.301  0.00  0.00     0.003 A 
ATOM      3  C2  UNL d   1       1.030  -1.171  -0.283  0.00  0.00     0.048 A 
ATOM      4  C3  UNL d   1       0.052  -0.282   0.161  0.00  0.00     0.023 A 
ATOM      5  C4  UNL d   1      -1.191  -0.754   0.587  0.00  0.00     0.048 A 
ATOM      6  C5  UNL d   1      -1.454  -2.125   0.566  0.00  0.00     0.003 A 
ATOM      7  I   UNL d   1       0.446   1.758   0.190  0.00  0.00    -0.146 I 
ENDROOT
TORSDOF 0
ENDMDL
