MODEL 1
REMARK minimizedAffinity -2.16072941
REMARK minimizedRMSD -1
REMARK  0 active torsions:
REMARK  status: ('A' for Active; 'I' for Inactive)
ROOT
ATOM      1  C   UNL d   1      -0.330  -3.132   0.652  0.00  0.00     0.023 A 
ATOM      2  C1  UNL d   1      -1.270  -2.204   1.099  0.00  0.00     0.003 A 
ATOM      3  C2  UNL d   1      -1.133  -0.854   0.767  0.00  0.00     0.048 A 
ATOM      4  C3  UNL d   1      -0.053  -0.441  -0.012  0.00  0.00     0.023 A 
ATOM      5  C4  UNL d   1       0.890  -1.366  -0.462  0.00  0.00     0.048 A 
ATOM      6  C5  UNL d   1       0.749  -2.714  -0.127  0.00  0.00     0.003 A 
ATOM      7  I   UNL d   1       0.153   1.567  -0.508  0.00  0.00    -0.146 I 
ENDROOT
TORSDOF 0
ENDMDL
