MODEL 1
REMARK minimizedAffinity -3.71587515
REMARK minimizedRMSD -1
REMARK  0 active torsions:
REMARK  status: ('A' for Active; 'I' for Inactive)
ROOT
ATOM      1  C   UNL d   1      -0.160  -3.439   0.767  0.00  0.00     0.023 A 
ATOM      2  C1  UNL d   1       0.543  -2.980  -0.348  0.00  0.00     0.003 A 
ATOM      3  C2  UNL d   1       0.580  -1.615  -0.638  0.00  0.00     0.048 A 
ATOM      4  C3  UNL d   1      -0.087  -0.713   0.190  0.00  0.00     0.023 A 
ATOM      5  C4  UNL d   1      -0.790  -1.167   1.307  0.00  0.00     0.048 A 
ATOM      6  C5  UNL d   1      -0.826  -2.533   1.593  0.00  0.00     0.003 A 
ATOM      7  I   UNL d   1      -0.032   1.319  -0.240  0.00  0.00    -0.146 I 
ENDROOT
TORSDOF 0
ENDMDL
