MODEL 1
REMARK minimizedAffinity -3.77462053
REMARK minimizedRMSD -1
REMARK  0 active torsions:
REMARK  status: ('A' for Active; 'I' for Inactive)
ROOT
ATOM      1  C   UNL d   1      -0.485  -1.793   0.521  0.00  0.00     0.023 A 
ATOM      2  C1  UNL d   1      -1.065  -0.808   1.321  0.00  0.00     0.003 A 
ATOM      3  C2  UNL d   1      -0.687   0.528   1.169  0.00  0.00     0.048 A 
ATOM      4  C3  UNL d   1       0.270   0.871   0.215  0.00  0.00     0.023 A 
ATOM      5  C4  UNL d   1       0.852  -0.111  -0.588  0.00  0.00     0.048 A 
ATOM      6  C5  UNL d   1       0.472  -1.445  -0.432  0.00  0.00     0.003 A 
ATOM      7  I   UNL d   1       0.834   2.859  -0.013  0.00  0.00    -0.146 I 
ENDROOT
TORSDOF 0
ENDMDL
