MODEL 1
REMARK minimizedAffinity 6.67219448
REMARK minimizedRMSD -1
REMARK  1 active torsions:
REMARK  status: ('A' for Active; 'I' for Inactive)
REMARK    1  A    between atoms: C3_4  and  O_7 
ROOT
ATOM      1  C   UNL d   1      -1.483  -2.275   0.929  0.00  0.00    -0.033 A 
ATOM      2  C1  UNL d   1      -0.969  -3.218   0.036  0.00  0.00     0.039 A 
ATOM      3  C2  UNL d   1      -0.582  -4.478   0.496  0.00  0.00    -0.080 A 
ATOM      4  C3  UNL d   1      -0.713  -4.783   1.848  0.00  0.00     0.150 A 
ATOM      5  C4  UNL d   1      -1.228  -3.850   2.742  0.00  0.00    -0.007 A 
ATOM      6  C5  UNL d   1      -1.614  -2.592   2.281  0.00  0.00     0.039 A 
ENDROOT
BRANCH   4   7
ATOM      7  O   UNL d   1      -0.344  -5.998   2.344  0.00  0.00    -0.526 OA
ATOM      8  H5  UNL d   1       0.020  -6.529   1.616  0.00  0.00     0.418 HD
ENDBRANCH   4   7
TORSDOF 1
ENDMDL
