MODEL 1
REMARK minimizedAffinity 0.514638186
REMARK minimizedRMSD -1
REMARK  1 active torsions:
REMARK  status: ('A' for Active; 'I' for Inactive)
REMARK    1  A    between atoms: C3_4  and  O_7 
ROOT
ATOM      1  C   UNL d   1      -0.600  -3.258  -0.683  0.00  0.00    -0.033 A 
ATOM      2  C1  UNL d   1      -0.399  -4.343   0.172  0.00  0.00     0.039 A 
ATOM      3  C2  UNL d   1      -0.854  -4.289   1.491  0.00  0.00    -0.080 A 
ATOM      4  C3  UNL d   1      -1.510  -3.147   1.941  0.00  0.00     0.150 A 
ATOM      5  C4  UNL d   1      -1.717  -2.063   1.094  0.00  0.00    -0.007 A 
ATOM      6  C5  UNL d   1      -1.261  -2.119  -0.222  0.00  0.00     0.039 A 
ENDROOT
BRANCH   4   7
ATOM      7  O   UNL d   1      -1.968  -3.046   3.221  0.00  0.00    -0.526 OA
ATOM      8  H5  UNL d   1      -1.728  -3.857   3.699  0.00  0.00     0.418 HD
ENDBRANCH   4   7
TORSDOF 1
ENDMDL
