MODEL 1
REMARK minimizedAffinity 7.74535894
REMARK minimizedRMSD -1
REMARK  1 active torsions:
REMARK  status: ('A' for Active; 'I' for Inactive)
REMARK    1  A    between atoms: C3_4  and  O_7 
ROOT
ATOM      1  C   UNL d   1      -2.848  -1.549   0.353  0.00  0.00    -0.033 A 
ATOM      2  C1  UNL d   1      -3.063  -2.558   1.293  0.00  0.00     0.039 A 
ATOM      3  C2  UNL d   1      -2.155  -3.612   1.409  0.00  0.00    -0.080 A 
ATOM      4  C3  UNL d   1      -1.037  -3.645   0.579  0.00  0.00     0.150 A 
ATOM      5  C4  UNL d   1      -0.815  -2.641  -0.358  0.00  0.00    -0.007 A 
ATOM      6  C5  UNL d   1      -1.723  -1.590  -0.472  0.00  0.00     0.039 A 
ENDROOT
BRANCH   4   7
ATOM      7  O   UNL d   1      -0.126  -4.656   0.652  0.00  0.00    -0.526 OA
ATOM      8  H5  UNL d   1      -0.424  -5.292   1.323  0.00  0.00     0.418 HD
ENDBRANCH   4   7
TORSDOF 1
ENDMDL
