MODEL 1
REMARK minimizedAffinity 5.36810589
REMARK minimizedRMSD -1
REMARK  1 active torsions:
REMARK  status: ('A' for Active; 'I' for Inactive)
REMARK    1  A    between atoms: C3_4  and  O_7 
ROOT
ATOM      1  C   UNL d   1       2.174   1.030   0.034  0.00  0.00    -0.033 A 
ATOM      2  C1  UNL d   1       2.775   1.448   1.223  0.00  0.00     0.039 A 
ATOM      3  C2  UNL d   1       3.698   2.495   1.210  0.00  0.00    -0.080 A 
ATOM      4  C3  UNL d   1       4.010   3.117   0.004  0.00  0.00     0.150 A 
ATOM      5  C4  UNL d   1       3.411   2.708  -1.183  0.00  0.00    -0.007 A 
ATOM      6  C5  UNL d   1       2.491   1.661  -1.169  0.00  0.00     0.039 A 
ENDROOT
BRANCH   4   7
ATOM      7  O   UNL d   1       4.908   4.140  -0.059  0.00  0.00    -0.526 OA
ATOM      8  H5  UNL d   1       5.262   4.295   0.833  0.00  0.00     0.418 HD
ENDBRANCH   4   7
TORSDOF 1
ENDMDL
