MODEL 1
REMARK minimizedAffinity 2.77443027
REMARK minimizedRMSD -1
REMARK  1 active torsions:
REMARK  status: ('A' for Active; 'I' for Inactive)
REMARK    1  A    between atoms: C3_4  and  O_7 
ROOT
ATOM      1  C   UNL d   1      -5.354   6.000  -5.240  0.00  0.00    -0.033 A 
ATOM      2  C1  UNL d   1      -4.203   5.740  -4.494  0.00  0.00     0.039 A 
ATOM      3  C2  UNL d   1      -3.641   4.462  -4.497  0.00  0.00    -0.080 A 
ATOM      4  C3  UNL d   1      -4.238   3.455  -5.250  0.00  0.00     0.150 A 
ATOM      5  C4  UNL d   1      -5.383   3.707  -5.999  0.00  0.00    -0.007 A 
ATOM      6  C5  UNL d   1      -5.943   4.984  -5.994  0.00  0.00     0.039 A 
ENDROOT
BRANCH   4   7
ATOM      7  O   UNL d   1      -3.728   2.190  -5.280  0.00  0.00    -0.526 OA
ATOM      8  H5  UNL d   1      -2.955   2.156  -4.693  0.00  0.00     0.418 HD
ENDBRANCH   4   7
TORSDOF 1
ENDMDL
