MODEL 1
REMARK minimizedAffinity 3.8839922
REMARK minimizedRMSD -1
REMARK  1 active torsions:
REMARK  status: ('A' for Active; 'I' for Inactive)
REMARK    1  A    between atoms: C3_4  and  O_7 
ROOT
ATOM      1  C   UNL d   1      -5.432   5.998  -5.129  0.00  0.00    -0.033 A 
ATOM      2  C1  UNL d   1      -5.996   5.012  -5.941  0.00  0.00     0.039 A 
ATOM      3  C2  UNL d   1      -5.423   3.740  -5.999  0.00  0.00    -0.080 A 
ATOM      4  C3  UNL d   1      -4.287   3.467  -5.242  0.00  0.00     0.150 A 
ATOM      5  C4  UNL d   1      -3.722   4.443  -4.428  0.00  0.00    -0.007 A 
ATOM      6  C5  UNL d   1      -4.295   5.713  -4.371  0.00  0.00     0.039 A 
ENDROOT
BRANCH   4   7
ATOM      7  O   UNL d   1      -3.689   2.242  -5.270  0.00  0.00    -0.526 OA
ATOM      8  H5  UNL d   1      -4.172   1.679  -5.897  0.00  0.00     0.418 HD
ENDBRANCH   4   7
TORSDOF 1
ENDMDL
