MODEL 1
REMARK minimizedAffinity 8.190341
REMARK minimizedRMSD -1
REMARK  1 active torsions:
REMARK  status: ('A' for Active; 'I' for Inactive)
REMARK    1  A    between atoms: C3_4  and  O_7 
ROOT
ATOM      1  C   UNL d   1      -0.766  -1.509  -1.419  0.00  0.00    -0.033 A 
ATOM      2  C1  UNL d   1      -0.866  -2.221  -0.222  0.00  0.00     0.039 A 
ATOM      3  C2  UNL d   1      -0.770  -3.613  -0.225  0.00  0.00    -0.080 A 
ATOM      4  C3  UNL d   1      -0.573  -4.282  -1.430  0.00  0.00     0.150 A 
ATOM      5  C4  UNL d   1      -0.468  -3.579  -2.626  0.00  0.00    -0.007 A 
ATOM      6  C5  UNL d   1      -0.566  -2.188  -2.621  0.00  0.00     0.039 A 
ENDROOT
BRANCH   4   7
ATOM      7  O   UNL d   1      -0.477  -5.640  -1.485  0.00  0.00    -0.526 OA
ATOM      8  H5  UNL d   1      -0.597  -5.993  -0.587  0.00  0.00     0.418 HD
ENDBRANCH   4   7
TORSDOF 1
ENDMDL
