MODEL 1
REMARK minimizedAffinity -2.82682371
REMARK minimizedRMSD -1
REMARK  1 active torsions:
REMARK  status: ('A' for Active; 'I' for Inactive)
REMARK    1  A    between atoms: C3_4  and  O_7 
ROOT
ATOM      1  C   UNL d   1      -4.304  -1.330   5.951  0.00  0.00    -0.033 A 
ATOM      2  C1  UNL d   1      -2.931  -1.077   5.941  0.00  0.00     0.039 A 
ATOM      3  C2  UNL d   1      -2.462   0.239   5.958  0.00  0.00    -0.080 A 
ATOM      4  C3  UNL d   1      -3.375   1.289   5.985  0.00  0.00     0.150 A 
ATOM      5  C4  UNL d   1      -4.744   1.044   5.999  0.00  0.00    -0.007 A 
ATOM      6  C5  UNL d   1      -5.210  -0.270   5.982  0.00  0.00     0.039 A 
ENDROOT
BRANCH   4   7
ATOM      7  O   UNL d   1      -2.965   2.589   5.997  0.00  0.00    -0.526 OA
ATOM      8  H5  UNL d   1      -1.994   2.606   5.956  0.00  0.00     0.418 HD
ENDBRANCH   4   7
TORSDOF 1
ENDMDL
