MODEL 1
REMARK minimizedAffinity 1.54462242
REMARK minimizedRMSD -1
REMARK  1 active torsions:
REMARK  status: ('A' for Active; 'I' for Inactive)
REMARK    1  A    between atoms: C3_4  and  O_7 
ROOT
ATOM      1  C   UNL d   1      -4.443  -0.726   5.970  0.00  0.00    -0.033 A 
ATOM      2  C1  UNL d   1      -5.695  -0.110   5.991  0.00  0.00     0.039 A 
ATOM      3  C2  UNL d   1      -5.790   1.283   6.000  0.00  0.00    -0.080 A 
ATOM      4  C3  UNL d   1      -4.627   2.047   5.986  0.00  0.00     0.150 A 
ATOM      5  C4  UNL d   1      -3.375   1.440   5.962  0.00  0.00    -0.007 A 
ATOM      6  C5  UNL d   1      -3.283   0.049   5.954  0.00  0.00     0.039 A 
ENDROOT
BRANCH   4   7
ATOM      7  O   UNL d   1      -4.669   3.410   5.999  0.00  0.00    -0.526 OA
ATOM      8  H5  UNL d   1      -5.598   3.689   6.045  0.00  0.00     0.418 HD
ENDBRANCH   4   7
TORSDOF 1
ENDMDL
