MODEL 1
REMARK minimizedAffinity 3.95014358
REMARK minimizedRMSD -1
REMARK  1 active torsions:
REMARK  status: ('A' for Active; 'I' for Inactive)
REMARK    1  A    between atoms: C3_4  and  O_7 
ROOT
ATOM      1  C   UNL d   1      -5.997   4.919  -5.997  0.00  0.00    -0.033 A 
ATOM      2  C1  UNL d   1      -5.789   5.997  -5.133  0.00  0.00     0.039 A 
ATOM      3  C2  UNL d   1      -4.694   5.999  -4.268  0.00  0.00    -0.080 A 
ATOM      4  C3  UNL d   1      -3.814   4.920  -4.276  0.00  0.00     0.150 A 
ATOM      5  C4  UNL d   1      -4.012   3.845  -5.136  0.00  0.00    -0.007 A 
ATOM      6  C5  UNL d   1      -5.107   3.844  -5.999  0.00  0.00     0.039 A 
ENDROOT
BRANCH   4   7
ATOM      7  O   UNL d   1      -2.734   4.876  -3.445  0.00  0.00    -0.526 OA
ATOM      8  H5  UNL d   1      -2.741   5.672  -2.888  0.00  0.00     0.418 HD
ENDBRANCH   4   7
TORSDOF 1
ENDMDL
