MODEL 1
REMARK minimizedAffinity 8.7217474
REMARK minimizedRMSD -1
REMARK  1 active torsions:
REMARK  status: ('A' for Active; 'I' for Inactive)
REMARK    1  A    between atoms: C3_4  and  O_7 
ROOT
ATOM      1  C   UNL d   1       2.529   1.496  -0.511  0.00  0.00    -0.033 A 
ATOM      2  C1  UNL d   1       3.010   1.944   0.721  0.00  0.00     0.039 A 
ATOM      3  C2  UNL d   1       3.894   3.024   0.776  0.00  0.00    -0.080 A 
ATOM      4  C3  UNL d   1       4.286   3.647  -0.406  0.00  0.00     0.150 A 
ATOM      5  C4  UNL d   1       3.808   3.208  -1.636  0.00  0.00    -0.007 A 
ATOM      6  C5  UNL d   1       2.926   2.129  -1.689  0.00  0.00     0.039 A 
ENDROOT
BRANCH   4   7
ATOM      7  O   UNL d   1       5.150   4.701  -0.403  0.00  0.00    -0.526 OA
ATOM      8  H5  UNL d   1       5.420   4.876   0.515  0.00  0.00     0.418 HD
ENDBRANCH   4   7
TORSDOF 1
ENDMDL
