MODEL 1
REMARK minimizedAffinity 9.04558754
REMARK minimizedRMSD -1
REMARK  1 active torsions:
REMARK  status: ('A' for Active; 'I' for Inactive)
REMARK    1  A    between atoms: C3_4  and  O_7 
ROOT
ATOM      1  C   UNL d   1      -5.998   5.333  -5.594  0.00  0.00    -0.033 A 
ATOM      2  C1  UNL d   1      -5.620   4.052  -5.999  0.00  0.00     0.039 A 
ATOM      3  C2  UNL d   1      -4.505   3.436  -5.425  0.00  0.00    -0.080 A 
ATOM      4  C3  UNL d   1      -3.780   4.111  -4.448  0.00  0.00     0.150 A 
ATOM      5  C4  UNL d   1      -4.154   5.386  -4.036  0.00  0.00    -0.007 A 
ATOM      6  C5  UNL d   1      -5.266   6.000  -4.611  0.00  0.00     0.039 A 
ENDROOT
BRANCH   4   7
ATOM      7  O   UNL d   1      -2.683   3.553  -3.862  0.00  0.00    -0.526 OA
ATOM      8  H5  UNL d   1      -2.527   2.683  -4.266  0.00  0.00     0.418 HD
ENDBRANCH   4   7
TORSDOF 1
ENDMDL
