MODEL 1
REMARK minimizedAffinity 9.10177135
REMARK minimizedRMSD -1
REMARK  1 active torsions:
REMARK  status: ('A' for Active; 'I' for Inactive)
REMARK    1  A    between atoms: C3_4  and  O_7 
ROOT
ATOM      1  C   UNL d   1       5.923   3.513   5.181  0.00  0.00    -0.033 A 
ATOM      2  C1  UNL d   1       4.757   2.965   5.719  0.00  0.00     0.039 A 
ATOM      3  C2  UNL d   1       3.662   3.786   5.998  0.00  0.00    -0.080 A 
ATOM      4  C3  UNL d   1       3.746   5.150   5.735  0.00  0.00     0.150 A 
ATOM      5  C4  UNL d   1       4.904   5.702   5.195  0.00  0.00    -0.007 A 
ATOM      6  C5  UNL d   1       5.996   4.881   4.918  0.00  0.00     0.039 A 
ENDROOT
BRANCH   4   7
ATOM      7  O   UNL d   1       2.706   5.991   5.995  0.00  0.00    -0.526 OA
ATOM      8  H5  UNL d   1       1.984   5.475   6.392  0.00  0.00     0.418 HD
ENDBRANCH   4   7
TORSDOF 1
ENDMDL
