MODEL 1
REMARK minimizedAffinity 2.1744256
REMARK minimizedRMSD -1
REMARK  1 active torsions:
REMARK  status: ('A' for Active; 'I' for Inactive)
REMARK    1  A    between atoms: C3_4  and  O_7 
ROOT
ATOM      1  C   UNL d   1      -0.873  -3.210   1.730  0.00  0.00    -0.033 A 
ATOM      2  C1  UNL d   1      -1.708  -2.746   2.748  0.00  0.00     0.039 A 
ATOM      3  C2  UNL d   1      -2.814  -1.953   2.438  0.00  0.00    -0.080 A 
ATOM      4  C3  UNL d   1      -3.075  -1.632   1.109  0.00  0.00     0.150 A 
ATOM      5  C4  UNL d   1      -2.249  -2.094   0.089  0.00  0.00    -0.007 A 
ATOM      6  C5  UNL d   1      -1.144  -2.886   0.400  0.00  0.00     0.039 A 
ENDROOT
BRANCH   4   7
ATOM      7  O   UNL d   1      -4.140  -0.856   0.758  0.00  0.00    -0.526 OA
ATOM      8  H5  UNL d   1      -4.604  -0.586   1.568  0.00  0.00     0.418 HD
ENDBRANCH   4   7
TORSDOF 1
ENDMDL
