MODEL 1
REMARK minimizedAffinity -1.61516666
REMARK minimizedRMSD -1
REMARK  0 active torsions:
REMARK  status: ('A' for Active; 'I' for Inactive)
ROOT
ATOM      1  C   UNL d   1       2.691  -1.163   1.519  0.00  0.00     0.124 A 
ATOM      2  C1  UNL d   1       1.722  -1.547   2.435  0.00  0.00     0.062 A 
ATOM      3  C2  UNL d   1       0.375  -1.316   2.169  0.00  0.00     0.162 A 
ATOM      4  C3  UNL d   1      -0.010  -0.699   0.979  0.00  0.00    -0.034 A 
ATOM      5  C4  UNL d   1       0.970  -0.315   0.062  0.00  0.00     0.162 A 
ATOM      6  C5  UNL d   1       2.314  -0.548   0.333  0.00  0.00     0.062 A 
ATOM      7  F   UNL d   1       3.249  -0.177  -0.554  0.00  0.00    -0.097 F 
ATOM      8  F1  UNL d   1       0.634   0.281  -1.092  0.00  0.00    -0.096 F 
ATOM      9  I   UNL d   1      -2.023  -0.352   0.576  0.00  0.00    -0.060 I 
ATOM     10  F2  UNL d   1      -0.539  -1.697   3.072  0.00  0.00    -0.096 F 
ATOM     11  F3  UNL d   1       2.083  -2.141   3.582  0.00  0.00    -0.097 F 
ATOM     12  F4  UNL d   1       3.986  -1.386   1.778  0.00  0.00    -0.092 F 
ENDROOT
TORSDOF 0
ENDMDL
