MODEL 1
REMARK minimizedAffinity 2.21414876
REMARK minimizedRMSD -1
REMARK  0 active torsions:
REMARK  status: ('A' for Active; 'I' for Inactive)
ROOT
ATOM      1  C   UNL d   1      -0.416  -0.395   1.796  0.00  0.00     0.124 A 
ATOM      2  C1  UNL d   1      -1.286  -0.276   0.721  0.00  0.00     0.062 A 
ATOM      3  C2  UNL d   1      -0.832   0.220  -0.497  0.00  0.00     0.162 A 
ATOM      4  C3  UNL d   1       0.502   0.601  -0.648  0.00  0.00    -0.034 A 
ATOM      5  C4  UNL d   1       1.371   0.480   0.438  0.00  0.00     0.162 A 
ATOM      6  C5  UNL d   1       0.912  -0.017   1.653  0.00  0.00     0.062 A 
ATOM      7  F   UNL d   1       1.755  -0.131   2.690  0.00  0.00    -0.097 F 
ATOM      8  F1  UNL d   1       2.660   0.837   0.327  0.00  0.00    -0.096 F 
ATOM      9  I   UNL d   1       1.186   1.344  -2.468  0.00  0.00    -0.060 I 
ATOM     10  F2  UNL d   1      -1.695   0.324  -1.518  0.00  0.00    -0.096 F 
ATOM     11  F3  UNL d   1      -2.570  -0.640   0.857  0.00  0.00    -0.097 F 
ATOM     12  F4  UNL d   1      -0.856  -0.872   2.967  0.00  0.00    -0.092 F 
ENDROOT
TORSDOF 0
ENDMDL
