MODEL 1
REMARK minimizedAffinity -5.04206181
REMARK minimizedRMSD -1
REMARK  0 active torsions:
REMARK  status: ('A' for Active; 'I' for Inactive)
ROOT
ATOM      1  C   UNL d   1       1.942  -1.352   2.052  0.00  0.00     0.124 A 
ATOM      2  C1  UNL d   1       2.427  -1.571   0.770  0.00  0.00     0.062 A 
ATOM      3  C2  UNL d   1       1.668  -1.202  -0.337  0.00  0.00     0.162 A 
ATOM      4  C3  UNL d   1       0.417  -0.609  -0.167  0.00  0.00    -0.034 A 
ATOM      5  C4  UNL d   1      -0.064  -0.393   1.126  0.00  0.00     0.162 A 
ATOM      6  C5  UNL d   1       0.698  -0.764   2.229  0.00  0.00     0.062 A 
ATOM      7  F   UNL d   1       0.229  -0.552   3.467  0.00  0.00    -0.097 F 
ATOM      8  F1  UNL d   1      -1.263   0.175   1.325  0.00  0.00    -0.096 F 
ATOM      9  I   UNL d   1      -0.720  -0.055  -1.820  0.00  0.00    -0.060 I 
ATOM     10  F2  UNL d   1       2.161  -1.425  -1.565  0.00  0.00    -0.096 F 
ATOM     11  F3  UNL d   1       3.628  -2.140   0.597  0.00  0.00    -0.097 F 
ATOM     12  F4  UNL d   1       2.674  -1.709   3.116  0.00  0.00    -0.092 F 
ENDROOT
TORSDOF 0
ENDMDL
