MODEL 1
REMARK minimizedAffinity -0.50486666
REMARK minimizedRMSD -1
REMARK  0 active torsions:
REMARK  status: ('A' for Active; 'I' for Inactive)
ROOT
ATOM      1  C   UNL d   1       0.749  -1.345   1.433  0.00  0.00     0.124 A 
ATOM      2  C1  UNL d   1      -0.073  -0.303   1.841  0.00  0.00     0.062 A 
ATOM      3  C2  UNL d   1      -0.576   0.598   0.908  0.00  0.00     0.162 A 
ATOM      4  C3  UNL d   1      -0.261   0.461  -0.444  0.00  0.00    -0.034 A 
ATOM      5  C4  UNL d   1       0.567  -0.588  -0.847  0.00  0.00     0.162 A 
ATOM      6  C5  UNL d   1       1.068  -1.486   0.090  0.00  0.00     0.062 A 
ATOM      7  F   UNL d   1       1.861  -2.492  -0.306  0.00  0.00    -0.097 F 
ATOM      8  F1  UNL d   1       0.891  -0.749  -2.138  0.00  0.00    -0.096 F 
ATOM      9  I   UNL d   1      -1.011   1.807  -1.843  0.00  0.00    -0.060 I 
ATOM     10  F2  UNL d   1      -1.368   1.595   1.330  0.00  0.00    -0.096 F 
ATOM     11  F3  UNL d   1      -0.382  -0.163   3.138  0.00  0.00    -0.097 F 
ATOM     12  F4  UNL d   1       1.232  -2.210   2.334  0.00  0.00    -0.092 F 
ENDROOT
TORSDOF 0
ENDMDL
