MODEL 1
REMARK minimizedAffinity -2.34820747
REMARK minimizedRMSD -1
REMARK  0 active torsions:
REMARK  status: ('A' for Active; 'I' for Inactive)
ROOT
ATOM      1  C   UNL d   1      -1.494   2.622  -2.548  0.00  0.00     0.124 A 
ATOM      2  C1  UNL d   1      -2.071   1.425  -2.144  0.00  0.00     0.062 A 
ATOM      3  C2  UNL d   1      -1.331   0.505  -1.408  0.00  0.00     0.162 A 
ATOM      4  C3  UNL d   1      -0.005   0.778  -1.069  0.00  0.00    -0.034 A 
ATOM      5  C4  UNL d   1       0.568   1.983  -1.479  0.00  0.00     0.162 A 
ATOM      6  C5  UNL d   1      -0.176   2.899  -2.215  0.00  0.00     0.062 A 
ATOM      7  F   UNL d   1       0.383   4.055  -2.604  0.00  0.00    -0.097 F 
ATOM      8  F1  UNL d   1       1.839   2.277  -1.170  0.00  0.00    -0.096 F 
ATOM      9  I   UNL d   1       1.105  -0.596   0.032  0.00  0.00    -0.060 I 
ATOM     10  F2  UNL d   1      -1.913  -0.643  -1.032  0.00  0.00    -0.096 F 
ATOM     11  F3  UNL d   1      -3.344   1.154  -2.466  0.00  0.00    -0.097 F 
ATOM     12  F4  UNL d   1      -2.209   3.505  -3.257  0.00  0.00    -0.092 F 
ENDROOT
TORSDOF 0
ENDMDL
