MODEL 1
REMARK minimizedAffinity -2.58930135
REMARK minimizedRMSD -1
REMARK  0 active torsions:
REMARK  status: ('A' for Active; 'I' for Inactive)
ROOT
ATOM      1  C   UNL d   1       0.963  -0.575   2.195  0.00  0.00     0.124 A 
ATOM      2  C1  UNL d   1      -0.379  -0.239   2.316  0.00  0.00     0.062 A 
ATOM      3  C2  UNL d   1      -1.108   0.144   1.194  0.00  0.00     0.162 A 
ATOM      4  C3  UNL d   1      -0.498   0.192  -0.059  0.00  0.00    -0.034 A 
ATOM      5  C4  UNL d   1       0.851  -0.145  -0.173  0.00  0.00     0.162 A 
ATOM      6  C5  UNL d   1       1.576  -0.527   0.951  0.00  0.00     0.062 A 
ATOM      7  F   UNL d   1       2.872  -0.851   0.832  0.00  0.00    -0.097 F 
ATOM      8  F1  UNL d   1       1.469  -0.109  -1.363  0.00  0.00    -0.096 F 
ATOM      9  I   UNL d   1      -1.586   0.765  -1.739  0.00  0.00    -0.060 I 
ATOM     10  F2  UNL d   1      -2.403   0.462   1.341  0.00  0.00    -0.096 F 
ATOM     11  F3  UNL d   1      -0.973  -0.283   3.517  0.00  0.00    -0.097 F 
ATOM     12  F4  UNL d   1       1.663  -0.942   3.276  0.00  0.00    -0.092 F 
ENDROOT
TORSDOF 0
ENDMDL
