MODEL 1
REMARK minimizedAffinity -0.136149704
REMARK minimizedRMSD -1
REMARK  0 active torsions:
REMARK  status: ('A' for Active; 'I' for Inactive)
ROOT
ATOM      1  C   UNL d   1      -1.471  -0.080   0.581  0.00  0.00     0.124 A 
ATOM      2  C1  UNL d   1      -0.743  -0.655   1.613  0.00  0.00     0.062 A 
ATOM      3  C2  UNL d   1       0.620  -0.893   1.461  0.00  0.00     0.162 A 
ATOM      4  C3  UNL d   1       1.265  -0.555   0.271  0.00  0.00    -0.034 A 
ATOM      5  C4  UNL d   1       0.526   0.023  -0.763  0.00  0.00     0.162 A 
ATOM      6  C5  UNL d   1      -0.836   0.258  -0.606  0.00  0.00     0.062 A 
ATOM      7  F   UNL d   1      -1.537   0.814  -1.605  0.00  0.00    -0.097 F 
ATOM      8  F1  UNL d   1       1.115   0.360  -1.920  0.00  0.00    -0.096 F 
ATOM      9  I   UNL d   1       3.302  -0.909   0.040  0.00  0.00    -0.060 I 
ATOM     10  F2  UNL d   1       1.298  -1.450   2.475  0.00  0.00    -0.096 F 
ATOM     11  F3  UNL d   1      -1.354  -0.984   2.760  0.00  0.00    -0.097 F 
ATOM     12  F4  UNL d   1      -2.782   0.147   0.730  0.00  0.00    -0.092 F 
ENDROOT
TORSDOF 0
ENDMDL
