MODEL 1
REMARK minimizedAffinity 4.01605415
REMARK minimizedRMSD -1
REMARK  1 active torsions:
REMARK  status: ('A' for Active; 'I' for Inactive)
REMARK    1  A    between atoms: C1_2  and  C2_3 
ROOT
ATOM      1  C2  UNL d   1      -0.522  -0.223   1.014  0.00  0.00    -0.076 A 
ATOM      2  C3  UNL d   1      -1.512   0.222   1.906  0.00  0.00     0.004 A 
ATOM      3  C4  UNL d   1      -2.832   0.385   1.490  0.00  0.00    -0.003 A 
ATOM      4  C5  UNL d   1      -3.183   0.105   0.174  0.00  0.00     0.000 A 
ATOM      5  C6  UNL d   1      -2.217  -0.355  -0.721  0.00  0.00     0.000 A 
ATOM      6  C7  UNL d   1      -0.885  -0.540  -0.312  0.00  0.00    -0.073 A 
ATOM      7  C8  UNL d   1       0.117  -1.032  -1.320  0.00  0.00     0.078 C 
ENDROOT
BRANCH   1   8
ATOM      8  C1  UNL d   1       0.899  -0.355   1.516  0.00  0.00     0.053 C 
ATOM      9  C   UNL d   1       0.964  -0.794   2.970  0.00  0.00     0.018 C 
ENDBRANCH   1   8
TORSDOF 1
ENDMDL
