MODEL 1
REMARK minimizedAffinity -1.95956016
REMARK minimizedRMSD -1
REMARK  1 active torsions:
REMARK  status: ('A' for Active; 'I' for Inactive)
REMARK    1  A    between atoms: C1_2  and  C2_3 
ROOT
ATOM      1  C2  UNL d   1       1.072   0.392   0.099  0.00  0.00    -0.076 A 
ATOM      2  C3  UNL d   1       0.339   0.356   1.297  0.00  0.00     0.004 A 
ATOM      3  C4  UNL d   1      -1.046   0.199   1.286  0.00  0.00    -0.003 A 
ATOM      4  C5  UNL d   1      -1.720   0.075   0.076  0.00  0.00     0.000 A 
ATOM      5  C6  UNL d   1      -1.006   0.090  -1.122  0.00  0.00     0.000 A 
ATOM      6  C7  UNL d   1       0.392   0.231  -1.127  0.00  0.00    -0.073 A 
ATOM      7  C8  UNL d   1       1.111   0.246  -2.449  0.00  0.00     0.078 C 
ENDROOT
BRANCH   1   8
ATOM      8  C1  UNL d   1       2.569   0.591   0.172  0.00  0.00     0.053 C 
ATOM      9  C   UNL d   1       2.953   2.047   0.392  0.00  0.00     0.018 C 
ENDBRANCH   1   8
TORSDOF 1
ENDMDL
