MODEL 1
REMARK minimizedAffinity 0.63684994
REMARK minimizedRMSD -1
REMARK  1 active torsions:
REMARK  status: ('A' for Active; 'I' for Inactive)
REMARK    1  A    between atoms: C1_2  and  C2_3 
ROOT
ATOM      1  C2  UNL d   1       0.220   0.727   0.819  0.00  0.00    -0.076 A 
ATOM      2  C3  UNL d   1      -0.970   1.473   0.857  0.00  0.00     0.004 A 
ATOM      3  C4  UNL d   1      -2.190   0.896   0.510  0.00  0.00    -0.003 A 
ATOM      4  C5  UNL d   1      -2.240  -0.438   0.121  0.00  0.00     0.000 A 
ATOM      5  C6  UNL d   1      -1.071  -1.198   0.094  0.00  0.00     0.000 A 
ATOM      6  C7  UNL d   1       0.165  -0.636   0.456  0.00  0.00    -0.073 A 
ATOM      7  C8  UNL d   1       1.394  -1.501   0.403  0.00  0.00     0.078 C 
ENDROOT
BRANCH   1   8
ATOM      8  C1  UNL d   1       1.518   1.414   1.180  0.00  0.00     0.053 C 
ATOM      9  C   UNL d   1       1.401   2.930   1.156  0.00  0.00     0.018 C 
ENDBRANCH   1   8
TORSDOF 1
ENDMDL
