MODEL 1
REMARK minimizedAffinity -3.20086145
REMARK minimizedRMSD -1
REMARK  1 active torsions:
REMARK  status: ('A' for Active; 'I' for Inactive)
REMARK    1  A    between atoms: C1_2  and  C2_3 
ROOT
ATOM      1  C2  UNL d   1      -0.560   0.275   0.814  0.00  0.00    -0.076 A 
ATOM      2  C3  UNL d   1      -1.884   0.746   0.808  0.00  0.00     0.004 A 
ATOM      3  C4  UNL d   1      -2.725   0.534   1.900  0.00  0.00    -0.003 A 
ATOM      4  C5  UNL d   1      -2.255  -0.151   3.014  0.00  0.00     0.000 A 
ATOM      5  C6  UNL d   1      -0.938  -0.610   3.044  0.00  0.00     0.000 A 
ATOM      6  C7  UNL d   1      -0.072  -0.390   1.959  0.00  0.00    -0.073 A 
ATOM      7  C8  UNL d   1       1.336  -0.912   2.042  0.00  0.00     0.078 C 
ENDROOT
BRANCH   1   8
ATOM      8  C1  UNL d   1       0.298   0.510  -0.410  0.00  0.00     0.053 C 
ATOM      9  C   UNL d   1      -0.528   0.831  -1.646  0.00  0.00     0.018 C 
ENDBRANCH   1   8
TORSDOF 1
ENDMDL
