MODEL 1
REMARK minimizedAffinity 2.33639622
REMARK minimizedRMSD -1
REMARK  1 active torsions:
REMARK  status: ('A' for Active; 'I' for Inactive)
REMARK    1  A    between atoms: C1_2  and  C2_3 
ROOT
ATOM      1  C2  UNL d   1      -0.203  -0.443   1.204  0.00  0.00    -0.076 A 
ATOM      2  C3  UNL d   1      -0.334  -0.158  -0.166  0.00  0.00     0.004 A 
ATOM      3  C4  UNL d   1      -1.582   0.103  -0.728  0.00  0.00    -0.003 A 
ATOM      4  C5  UNL d   1      -2.720   0.086   0.071  0.00  0.00     0.000 A 
ATOM      5  C6  UNL d   1      -2.606  -0.177   1.436  0.00  0.00     0.000 A 
ATOM      6  C7  UNL d   1      -1.354  -0.427   2.022  0.00  0.00    -0.073 A 
ATOM      7  C8  UNL d   1      -1.290  -0.710   3.497  0.00  0.00     0.078 C 
ENDROOT
BRANCH   1   8
ATOM      8  C1  UNL d   1       1.173  -0.745   1.753  0.00  0.00     0.053 C 
ATOM      9  C   UNL d   1       2.277  -0.046   0.975  0.00  0.00     0.018 C 
ENDBRANCH   1   8
TORSDOF 1
ENDMDL
