MODEL 1
REMARK minimizedAffinity -0.947313488
REMARK minimizedRMSD -1
REMARK  1 active torsions:
REMARK  status: ('A' for Active; 'I' for Inactive)
REMARK    1  A    between atoms: C1_2  and  C2_3 
ROOT
ATOM      1  C2  UNL d   1       0.002  -0.462   0.861  0.00  0.00    -0.076 A 
ATOM      2  C3  UNL d   1      -0.210  -0.665  -0.514  0.00  0.00     0.004 A 
ATOM      3  C4  UNL d   1      -1.498  -0.790  -1.030  0.00  0.00    -0.003 A 
ATOM      4  C5  UNL d   1      -2.596  -0.714  -0.179  0.00  0.00     0.000 A 
ATOM      5  C6  UNL d   1      -2.405  -0.496   1.184  0.00  0.00     0.000 A 
ATOM      6  C7  UNL d   1      -1.113  -0.351   1.719  0.00  0.00    -0.073 A 
ATOM      7  C8  UNL d   1      -0.965  -0.123   3.198  0.00  0.00     0.078 C 
ENDROOT
BRANCH   1   8
ATOM      8  C1  UNL d   1       1.424  -0.360   1.367  0.00  0.00     0.053 C 
ATOM      9  C   UNL d   1       2.450  -0.647   0.282  0.00  0.00     0.018 C 
ENDBRANCH   1   8
TORSDOF 1
ENDMDL
