MODEL 1
REMARK minimizedAffinity -2.77348089
REMARK minimizedRMSD -1
REMARK  0 active torsions:
REMARK  status: ('A' for Active; 'I' for Inactive)
ROOT
ATOM      1  O1  BZF d   1       0.366  -0.024   0.012  0.00  0.00    -0.204 OA
ATOM      2  C2  BZF d   1       1.458   0.729  -0.375  0.00  0.00     0.174 A 
ATOM      3  C3  BZF d   1       1.759   0.504  -1.671  0.00  0.00    -0.012 A 
ATOM      4  C3A BZF d   1       0.739  -0.380  -2.146  0.00  0.00    -0.107 A 
ATOM      5  C4  BZF d   1       0.484  -0.953  -3.359  0.00  0.00     0.055 A 
ATOM      6  C5  BZF d   1      -0.551  -1.827  -3.472  0.00  0.00    -0.016 A 
ATOM      7  C6  BZF d   1      -1.347  -2.153  -2.394  0.00  0.00     0.022 A 
ATOM      8  C7  BZF d   1      -1.136  -1.606  -1.172  0.00  0.00     0.029 A 
ATOM      9  C7A BZF d   1      -0.111  -0.698  -1.062  0.00  0.00     0.058 A 
ENDROOT
TORSDOF 0
ENDMDL
