MODEL 1
REMARK minimizedAffinity 1.88518023
REMARK minimizedRMSD -1
REMARK  0 active torsions:
REMARK  status: ('A' for Active; 'I' for Inactive)
ROOT
ATOM      1  O1  BZF d   1       2.337   1.253  -1.265  0.00  0.00    -0.204 OA
ATOM      2  C2  BZF d   1       1.976   1.690  -0.005  0.00  0.00     0.174 A 
ATOM      3  C3  BZF d   1       0.813   1.126   0.382  0.00  0.00    -0.012 A 
ATOM      4  C3A BZF d   1       0.470   0.214  -0.666  0.00  0.00    -0.107 A 
ATOM      5  C4  BZF d   1      -0.569  -0.652  -0.854  0.00  0.00     0.055 A 
ATOM      6  C5  BZF d   1      -0.648  -1.346  -2.019  0.00  0.00    -0.016 A 
ATOM      7  C6  BZF d   1       0.290  -1.194  -3.019  0.00  0.00     0.022 A 
ATOM      8  C7  BZF d   1       1.342  -0.351  -2.877  0.00  0.00     0.029 A 
ATOM      9  C7A BZF d   1       1.442   0.327  -1.687  0.00  0.00     0.058 A 
ENDROOT
TORSDOF 0
ENDMDL
