MODEL 1
REMARK minimizedAffinity -1.00053728
REMARK minimizedRMSD -1
REMARK  0 active torsions:
REMARK  status: ('A' for Active; 'I' for Inactive)
ROOT
ATOM      1  O1  BZF d   1      -2.644   3.161  -5.952  0.00  0.00    -0.204 OA
ATOM      2  C2  BZF d   1      -3.834   3.864  -5.943  0.00  0.00     0.174 A 
ATOM      3  C3  BZF d   1      -4.887   3.023  -6.000  0.00  0.00    -0.012 A 
ATOM      4  C3A BZF d   1      -4.322   1.709  -5.954  0.00  0.00    -0.107 A 
ATOM      5  C4  BZF d   1      -4.861   0.455  -5.961  0.00  0.00     0.055 A 
ATOM      6  C5  BZF d   1      -4.031  -0.621  -5.981  0.00  0.00    -0.016 A 
ATOM      7  C6  BZF d   1      -2.659  -0.479  -5.999  0.00  0.00     0.022 A 
ATOM      8  C7  BZF d   1      -2.078   0.745  -5.988  0.00  0.00     0.029 A 
ATOM      9  C7A BZF d   1      -2.913   1.834  -5.934  0.00  0.00     0.058 A 
ENDROOT
TORSDOF 0
ENDMDL
