MODEL 1
REMARK minimizedAffinity -3.59242344
REMARK minimizedRMSD -1
REMARK  0 active torsions:
REMARK  status: ('A' for Active; 'I' for Inactive)
ROOT
ATOM      1  O1  BZF d   1      -5.890   3.376  -6.000  0.00  0.00    -0.204 OA
ATOM      2  C2  BZF d   1      -5.973   4.755  -5.996  0.00  0.00     0.174 A 
ATOM      3  C3  BZF d   1      -4.749   5.308  -5.866  0.00  0.00    -0.012 A 
ATOM      4  C3A BZF d   1      -3.836   4.206  -5.876  0.00  0.00    -0.107 A 
ATOM      5  C4  BZF d   1      -2.476   4.113  -5.796  0.00  0.00     0.055 A 
ATOM      6  C5  BZF d   1      -1.899   2.883  -5.760  0.00  0.00    -0.016 A 
ATOM      7  C6  BZF d   1      -2.651   1.727  -5.797  0.00  0.00     0.022 A 
ATOM      8  C7  BZF d   1      -4.003   1.769  -5.881  0.00  0.00     0.029 A 
ATOM      9  C7A BZF d   1      -4.587   3.010  -5.951  0.00  0.00     0.058 A 
ENDROOT
TORSDOF 0
ENDMDL
