MODEL 1
REMARK minimizedAffinity -3.86508799
REMARK minimizedRMSD -1
REMARK  0 active torsions:
REMARK  status: ('A' for Active; 'I' for Inactive)
ROOT
ATOM      1  O1  BZF d   1      -4.072   5.408  -5.951  0.00  0.00    -0.204 OA
ATOM      2  C2  BZF d   1      -2.757   5.832  -5.949  0.00  0.00     0.174 A 
ATOM      3  C3  BZF d   1      -1.914   4.780  -5.911  0.00  0.00    -0.012 A 
ATOM      4  C3A BZF d   1      -2.754   3.623  -5.981  0.00  0.00    -0.107 A 
ATOM      5  C4  BZF d   1      -2.503   2.281  -6.000  0.00  0.00     0.055 A 
ATOM      6  C5  BZF d   1      -3.549   1.413  -5.999  0.00  0.00    -0.016 A 
ATOM      7  C6  BZF d   1      -4.856   1.853  -5.974  0.00  0.00     0.022 A 
ATOM      8  C7  BZF d   1      -5.155   3.174  -5.960  0.00  0.00     0.029 A 
ATOM      9  C7A BZF d   1      -4.100   4.054  -5.994  0.00  0.00     0.058 A 
ENDROOT
TORSDOF 0
ENDMDL
