MODEL 1
REMARK minimizedAffinity -0.580769479
REMARK minimizedRMSD -1
REMARK  0 active torsions:
REMARK  status: ('A' for Active; 'I' for Inactive)
ROOT
ATOM      1  O1  BZF d   1      -2.293  -4.816  -4.951  0.00  0.00    -0.204 OA
ATOM      2  C2  BZF d   1      -2.603  -5.999  -5.595  0.00  0.00     0.174 A 
ATOM      3  C3  BZF d   1      -3.890  -5.999  -5.999  0.00  0.00    -0.012 A 
ATOM      4  C3A BZF d   1      -4.391  -4.702  -5.664  0.00  0.00    -0.107 A 
ATOM      5  C4  BZF d   1      -5.601  -4.091  -5.829  0.00  0.00     0.055 A 
ATOM      6  C5  BZF d   1      -5.785  -2.843  -5.324  0.00  0.00    -0.016 A 
ATOM      7  C6  BZF d   1      -4.784  -2.179  -4.645  0.00  0.00     0.022 A 
ATOM      8  C7  BZF d   1      -3.565  -2.742  -4.461  0.00  0.00     0.029 A 
ATOM      9  C7A BZF d   1      -3.366  -3.990  -4.999  0.00  0.00     0.058 A 
ENDROOT
TORSDOF 0
ENDMDL
