MODEL 1
REMARK minimizedAffinity -0.884907544
REMARK minimizedRMSD -1
REMARK  0 active torsions:
REMARK  status: ('A' for Active; 'I' for Inactive)
ROOT
ATOM      1  O1  BZF d   1      -2.517   2.346  -5.791  0.00  0.00    -0.204 OA
ATOM      2  C2  BZF d   1      -3.006   1.064  -5.947  0.00  0.00     0.174 A 
ATOM      3  C3  BZF d   1      -4.354   1.069  -6.000  0.00  0.00    -0.012 A 
ATOM      4  C3A BZF d   1      -4.727   2.450  -5.962  0.00  0.00    -0.107 A 
ATOM      5  C4  BZF d   1      -5.927   3.099  -5.999  0.00  0.00     0.055 A 
ATOM      6  C5  BZF d   1      -5.950   4.452  -5.869  0.00  0.00    -0.016 A 
ATOM      7  C6  BZF d   1      -4.795   5.185  -5.695  0.00  0.00     0.022 A 
ATOM      8  C7  BZF d   1      -3.580   4.585  -5.656  0.00  0.00     0.029 A 
ATOM      9  C7A BZF d   1      -3.550   3.222  -5.821  0.00  0.00     0.058 A 
ENDROOT
TORSDOF 0
ENDMDL
