MODEL 1
REMARK minimizedAffinity 1.35872698
REMARK minimizedRMSD -1
REMARK  0 active torsions:
REMARK  status: ('A' for Active; 'I' for Inactive)
ROOT
ATOM      1  O1  BZF d   1      -4.356   0.664  -5.997  0.00  0.00    -0.204 OA
ATOM      2  C2  BZF d   1      -3.029   0.281  -5.979  0.00  0.00     0.174 A 
ATOM      3  C3  BZF d   1      -2.220   1.359  -6.000  0.00  0.00    -0.012 A 
ATOM      4  C3A BZF d   1      -3.096   2.489  -5.939  0.00  0.00    -0.107 A 
ATOM      5  C4  BZF d   1      -2.887   3.838  -5.912  0.00  0.00     0.055 A 
ATOM      6  C5  BZF d   1      -3.960   4.672  -5.926  0.00  0.00    -0.016 A 
ATOM      7  C6  BZF d   1      -5.252   4.193  -5.973  0.00  0.00     0.022 A 
ATOM      8  C7  BZF d   1      -5.509   2.862  -5.997  0.00  0.00     0.029 A 
ATOM      9  C7A BZF d   1      -4.428   2.016  -5.949  0.00  0.00     0.058 A 
ENDROOT
TORSDOF 0
ENDMDL
