MODEL 1
REMARK minimizedAffinity 2.5078721
REMARK minimizedRMSD -1
REMARK  0 active torsions:
REMARK  status: ('A' for Active; 'I' for Inactive)
ROOT
ATOM      1  O1  BZF d   1      -1.823   3.480  -5.967  0.00  0.00    -0.204 OA
ATOM      2  C2  BZF d   1      -2.085   4.836  -5.954  0.00  0.00     0.174 A 
ATOM      3  C3  BZF d   1      -3.413   5.066  -6.000  0.00  0.00    -0.012 A 
ATOM      4  C3A BZF d   1      -4.022   3.772  -5.952  0.00  0.00    -0.107 A 
ATOM      5  C4  BZF d   1      -5.319   3.344  -5.949  0.00  0.00     0.055 A 
ATOM      6  C5  BZF d   1      -5.574   2.010  -5.969  0.00  0.00    -0.016 A 
ATOM      7  C6  BZF d   1      -4.558   1.077  -5.997  0.00  0.00     0.022 A 
ATOM      8  C7  BZF d   1      -3.256   1.453  -5.996  0.00  0.00     0.029 A 
ATOM      9  C7A BZF d   1      -2.995   2.801  -5.942  0.00  0.00     0.058 A 
ENDROOT
TORSDOF 0
ENDMDL
