MODEL 1
REMARK minimizedAffinity -1.94887757
REMARK minimizedRMSD -1
REMARK  0 active torsions:
REMARK  status: ('A' for Active; 'I' for Inactive)
ROOT
ATOM      1  O1  BZF d   1      -3.345   2.316  -5.949  0.00  0.00    -0.204 OA
ATOM      2  C2  BZF d   1      -4.478   1.527  -5.998  0.00  0.00     0.174 A 
ATOM      3  C3  BZF d   1      -5.592   2.288  -5.972  0.00  0.00    -0.012 A 
ATOM      4  C3A BZF d   1      -5.125   3.640  -5.994  0.00  0.00    -0.107 A 
ATOM      5  C4  BZF d   1      -5.756   4.851  -5.999  0.00  0.00     0.055 A 
ATOM      6  C5  BZF d   1      -5.009   5.985  -5.948  0.00  0.00    -0.016 A 
ATOM      7  C6  BZF d   1      -3.631   5.945  -5.887  0.00  0.00     0.022 A 
ATOM      8  C7  BZF d   1      -2.961   4.767  -5.885  0.00  0.00     0.029 A 
ATOM      9  C7A BZF d   1      -3.711   3.620  -5.969  0.00  0.00     0.058 A 
ENDROOT
TORSDOF 0
ENDMDL
