MODEL 1
REMARK minimizedAffinity 3.37473392
REMARK minimizedRMSD -1
REMARK  0 active torsions:
REMARK  status: ('A' for Active; 'I' for Inactive)
ROOT
ATOM      1  O1  BZF d   1      -4.615   2.524  -5.974  0.00  0.00    -0.204 OA
ATOM      2  C2  BZF d   1      -3.544   3.396  -5.995  0.00  0.00     0.174 A 
ATOM      3  C3  BZF d   1      -2.377   2.722  -5.953  0.00  0.00    -0.012 A 
ATOM      4  C3A BZF d   1      -2.739   1.339  -5.996  0.00  0.00    -0.107 A 
ATOM      5  C4  BZF d   1      -2.018   0.179  -5.999  0.00  0.00     0.055 A 
ATOM      6  C5  BZF d   1      -2.678  -1.009  -5.972  0.00  0.00    -0.016 A 
ATOM      7  C6  BZF d   1      -4.056  -1.074  -5.937  0.00  0.00     0.022 A 
ATOM      8  C7  BZF d   1      -4.814   0.050  -5.938  0.00  0.00     0.029 A 
ATOM      9  C7A BZF d   1      -4.150   1.251  -5.999  0.00  0.00     0.058 A 
ENDROOT
TORSDOF 0
ENDMDL
