MODEL 1
REMARK minimizedAffinity -2.47005892
REMARK minimizedRMSD -1
REMARK  0 active torsions:
REMARK  status: ('A' for Active; 'I' for Inactive)
ROOT
ATOM      1  O1  BZF d   1      -3.049   1.560  -5.956  0.00  0.00    -0.204 OA
ATOM      2  C2  BZF d   1      -4.072   0.633  -5.979  0.00  0.00     0.174 A 
ATOM      3  C3  BZF d   1      -5.273   1.245  -5.944  0.00  0.00    -0.012 A 
ATOM      4  C3A BZF d   1      -4.984   2.645  -5.989  0.00  0.00    -0.107 A 
ATOM      5  C4  BZF d   1      -5.765   3.765  -5.998  0.00  0.00     0.055 A 
ATOM      6  C5  BZF d   1      -5.168   4.986  -5.972  0.00  0.00    -0.016 A 
ATOM      7  C6  BZF d   1      -3.796   5.123  -5.931  0.00  0.00     0.022 A 
ATOM      8  C7  BZF d   1      -2.980   4.041  -5.925  0.00  0.00     0.029 A 
ATOM      9  C7A BZF d   1      -3.579   2.807  -5.985  0.00  0.00     0.058 A 
ENDROOT
TORSDOF 0
ENDMDL
