MODEL 1
REMARK minimizedAffinity 7.28061056
REMARK minimizedRMSD -1
REMARK  0 active torsions:
REMARK  status: ('A' for Active; 'I' for Inactive)
ROOT
ATOM      1  O1  BZF d   1      -4.631   1.476   0.749  0.00  0.00    -0.204 OA
ATOM      2  C2  BZF d   1      -3.389   1.783   1.269  0.00  0.00     0.174 A 
ATOM      3  C3  BZF d   1      -2.852   0.713   1.890  0.00  0.00    -0.012 A 
ATOM      4  C3A BZF d   1      -3.780  -0.354   1.670  0.00  0.00    -0.107 A 
ATOM      5  C4  BZF d   1      -3.797  -1.672   2.029  0.00  0.00     0.055 A 
ATOM      6  C5  BZF d   1      -4.885  -2.426   1.720  0.00  0.00    -0.016 A 
ATOM      7  C6  BZF d   1      -5.973  -1.894   1.059  0.00  0.00     0.022 A 
ATOM      8  C7  BZF d   1      -6.000  -0.594   0.679  0.00  0.00     0.029 A 
ATOM      9  C7A BZF d   1      -4.888   0.163   0.960  0.00  0.00     0.058 A 
ENDROOT
TORSDOF 0
ENDMDL
