MODEL 1
REMARK minimizedAffinity -0.811212122
REMARK minimizedRMSD -1
REMARK  0 active torsions:
REMARK  status: ('A' for Active; 'I' for Inactive)
ROOT
ATOM      1  O1  BZF d   1      -1.972   3.340  -5.969  0.00  0.00    -0.204 OA
ATOM      2  C2  BZF d   1      -1.754   1.976  -5.990  0.00  0.00     0.174 A 
ATOM      3  C3  BZF d   1      -2.922   1.303  -5.950  0.00  0.00    -0.012 A 
ATOM      4  C3A BZF d   1      -3.938   2.311  -5.995  0.00  0.00    -0.107 A 
ATOM      5  C4  BZF d   1      -5.303   2.268  -6.000  0.00  0.00     0.055 A 
ATOM      6  C5  BZF d   1      -6.000   3.434  -5.975  0.00  0.00    -0.016 A 
ATOM      7  C6  BZF d   1      -5.365   4.659  -5.939  0.00  0.00     0.022 A 
ATOM      8  C7  BZF d   1      -4.013   4.752  -5.937  0.00  0.00     0.029 A 
ATOM      9  C7A BZF d   1      -3.306   3.576  -5.996  0.00  0.00     0.058 A 
ENDROOT
TORSDOF 0
ENDMDL
