MODEL 1
REMARK minimizedAffinity -1.0102762
REMARK minimizedRMSD -1
REMARK  0 active torsions:
REMARK  status: ('A' for Active; 'I' for Inactive)
ROOT
ATOM      1  O1  BZF d   1       2.895   1.526  -2.113  0.00  0.00    -0.204 OA
ATOM      2  C2  BZF d   1       3.026   2.389  -1.042  0.00  0.00     0.174 A 
ATOM      3  C3  BZF d   1       2.190   2.042  -0.043  0.00  0.00    -0.012 A 
ATOM      4  C3A BZF d   1       1.558   0.835  -0.483  0.00  0.00    -0.107 A 
ATOM      5  C4  BZF d   1       0.636  -0.001   0.079  0.00  0.00     0.055 A 
ATOM      6  C5  BZF d   1       0.173  -1.054  -0.643  0.00  0.00    -0.016 A 
ATOM      7  C6  BZF d   1       0.605  -1.298  -1.930  0.00  0.00     0.022 A 
ATOM      8  C7  BZF d   1       1.522  -0.500  -2.528  0.00  0.00     0.029 A 
ATOM      9  C7A BZF d   1       2.017   0.547  -1.789  0.00  0.00     0.058 A 
ENDROOT
TORSDOF 0
ENDMDL
