MODEL 1
REMARK minimizedAffinity 0.631173491
REMARK minimizedRMSD -1
REMARK  0 active torsions:
REMARK  status: ('A' for Active; 'I' for Inactive)
ROOT
ATOM      1  O1  BZF d   1       2.370   1.690  -0.399  0.00  0.00    -0.204 OA
ATOM      2  C2  BZF d   1       1.758   2.031   0.792  0.00  0.00     0.174 A 
ATOM      3  C3  BZF d   1       0.675   1.259   1.012  0.00  0.00    -0.012 A 
ATOM      4  C3A BZF d   1       0.657   0.319  -0.067  0.00  0.00    -0.107 A 
ATOM      5  C4  BZF d   1      -0.168  -0.718  -0.395  0.00  0.00     0.055 A 
ATOM      6  C5  BZF d   1       0.049  -1.394  -1.554  0.00  0.00    -0.016 A 
ATOM      7  C6  BZF d   1       1.077  -1.057  -2.409  0.00  0.00     0.022 A 
ATOM      8  C7  BZF d   1       1.925  -0.039  -2.124  0.00  0.00     0.029 A 
ATOM      9  C7A BZF d   1       1.729   0.625  -0.937  0.00  0.00     0.058 A 
ENDROOT
TORSDOF 0
ENDMDL
