MODEL 1
REMARK minimizedAffinity 7.00383663
REMARK minimizedRMSD -1
REMARK  1 active torsions:
REMARK  status: ('A' for Active; 'I' for Inactive)
REMARK    1  A    between atoms: C3_4  and  O_7 
ROOT
ATOM      1  C   UNL d   1      -5.272  -4.435   6.000  0.00  0.00    -0.033 A 
ATOM      2  C1  UNL d   1      -5.629  -5.711   5.562  0.00  0.00     0.039 A 
ATOM      3  C2  UNL d   1      -5.681  -5.993   4.195  0.00  0.00    -0.080 A 
ATOM      4  C3  UNL d   1      -5.373  -4.991   3.279  0.00  0.00     0.150 A 
ATOM      5  C4  UNL d   1      -5.012  -3.718   3.709  0.00  0.00    -0.007 A 
ATOM      6  C5  UNL d   1      -4.962  -3.438   5.074  0.00  0.00     0.039 A 
ENDROOT
BRANCH   4   7
ATOM      7  O   UNL d   1      -5.415  -5.217   1.935  0.00  0.00    -0.526 OA
ATOM      8  H5  UNL d   1      -5.707  -6.131   1.786  0.00  0.00     0.418 HD
ENDBRANCH   4   7
TORSDOF 1
ENDMDL
