MODEL 1
REMARK minimizedAffinity 7.43303871
REMARK minimizedRMSD -1
REMARK  1 active torsions:
REMARK  status: ('A' for Active; 'I' for Inactive)
REMARK    1  A    between atoms: C3_4  and  O_7 
ROOT
ATOM      1  C   UNL d   1      -1.463   0.244   2.278  0.00  0.00    -0.033 A 
ATOM      2  C1  UNL d   1      -2.792   0.033   2.651  0.00  0.00     0.039 A 
ATOM      3  C2  UNL d   1      -3.379  -1.221   2.471  0.00  0.00    -0.080 A 
ATOM      4  C3  UNL d   1      -2.627  -2.254   1.920  0.00  0.00     0.150 A 
ATOM      5  C4  UNL d   1      -1.301  -2.052   1.550  0.00  0.00    -0.007 A 
ATOM      6  C5  UNL d   1      -0.717  -0.799   1.730  0.00  0.00     0.039 A 
ENDROOT
BRANCH   4   7
ATOM      7  O   UNL d   1      -3.157  -3.494   1.721  0.00  0.00    -0.526 OA
ATOM      8  H5  UNL d   1      -4.089  -3.478   1.996  0.00  0.00     0.418 HD
ENDBRANCH   4   7
TORSDOF 1
ENDMDL
