MODEL 1
REMARK minimizedAffinity 1.56934762
REMARK minimizedRMSD -1
REMARK  1 active torsions:
REMARK  status: ('A' for Active; 'I' for Inactive)
REMARK    1  A    between atoms: C3_4  and  O_7 
ROOT
ATOM      1  C   UNL d   1      -1.465   4.871  -4.118  0.00  0.00    -0.033 A 
ATOM      2  C1  UNL d   1      -1.401   5.521  -5.352  0.00  0.00     0.039 A 
ATOM      3  C2  UNL d   1      -2.575   5.910  -6.000  0.00  0.00    -0.080 A 
ATOM      4  C3  UNL d   1      -3.805   5.644  -5.403  0.00  0.00     0.150 A 
ATOM      5  C4  UNL d   1      -3.876   5.000  -4.172  0.00  0.00    -0.007 A 
ATOM      6  C5  UNL d   1      -2.702   4.612  -3.528  0.00  0.00     0.039 A 
ENDROOT
BRANCH   4   7
ATOM      7  O   UNL d   1      -4.978   6.000  -6.000  0.00  0.00    -0.526 OA
ATOM      8  H5  UNL d   1      -4.775   6.410  -6.857  0.00  0.00     0.418 HD
ENDBRANCH   4   7
TORSDOF 1
ENDMDL
