MODEL 1
REMARK minimizedAffinity 4.07296658
REMARK minimizedRMSD -1
REMARK  1 active torsions:
REMARK  status: ('A' for Active; 'I' for Inactive)
REMARK    1  A    between atoms: C3_4  and  O_7 
ROOT
ATOM      1  C   UNL d   1      -2.628  -0.773   1.250  0.00  0.00    -0.033 A 
ATOM      2  C1  UNL d   1      -1.426  -1.063   1.899  0.00  0.00     0.039 A 
ATOM      3  C2  UNL d   1      -1.251  -0.714   3.239  0.00  0.00    -0.080 A 
ATOM      4  C3  UNL d   1      -2.285  -0.076   3.919  0.00  0.00     0.150 A 
ATOM      5  C4  UNL d   1      -3.487   0.213   3.280  0.00  0.00    -0.007 A 
ATOM      6  C5  UNL d   1      -3.659  -0.136   1.941  0.00  0.00     0.039 A 
ENDROOT
BRANCH   4   7
ATOM      7  O   UNL d   1      -2.160   0.289   5.227  0.00  0.00    -0.526 OA
ATOM      8  H5  UNL d   1      -1.267   0.052   5.528  0.00  0.00     0.418 HD
ENDBRANCH   4   7
TORSDOF 1
ENDMDL
