MODEL 1
REMARK minimizedAffinity 1.82002747
REMARK minimizedRMSD -1
REMARK  1 active torsions:
REMARK  status: ('A' for Active; 'I' for Inactive)
REMARK    1  A    between atoms: C3_4  and  O_7 
ROOT
ATOM      1  C   UNL d   1      -2.201  -1.568   1.336  0.00  0.00    -0.033 A 
ATOM      2  C1  UNL d   1      -0.960  -1.000   1.628  0.00  0.00     0.039 A 
ATOM      3  C2  UNL d   1      -0.814  -0.173   2.744  0.00  0.00    -0.080 A 
ATOM      4  C3  UNL d   1      -1.916   0.076   3.558  0.00  0.00     0.150 A 
ATOM      5  C4  UNL d   1      -3.154  -0.490   3.275  0.00  0.00    -0.007 A 
ATOM      6  C5  UNL d   1      -3.298  -1.315   2.160  0.00  0.00     0.039 A 
ENDROOT
BRANCH   4   7
ATOM      7  O   UNL d   1      -1.823   0.880   4.656  0.00  0.00    -0.526 OA
ATOM      8  H5  UNL d   1      -0.916   1.223   4.710  0.00  0.00     0.418 HD
ENDBRANCH   4   7
TORSDOF 1
ENDMDL
