MODEL 1
REMARK minimizedAffinity 5.25502634
REMARK minimizedRMSD -1
REMARK  1 active torsions:
REMARK  status: ('A' for Active; 'I' for Inactive)
REMARK    1  A    between atoms: C3_4  and  O_7 
ROOT
ATOM      1  C   UNL d   1       3.620  -2.712  -0.137  0.00  0.00    -0.033 A 
ATOM      2  C1  UNL d   1       2.956  -2.234   0.994  0.00  0.00     0.039 A 
ATOM      3  C2  UNL d   1       3.252  -0.965   1.495  0.00  0.00    -0.080 A 
ATOM      4  C3  UNL d   1       4.213  -0.186   0.857  0.00  0.00     0.150 A 
ATOM      5  C4  UNL d   1       4.876  -0.654  -0.273  0.00  0.00    -0.007 A 
ATOM      6  C5  UNL d   1       4.579  -1.922  -0.771  0.00  0.00     0.039 A 
ENDROOT
BRANCH   4   7
ATOM      7  O   UNL d   1       4.540   1.057   1.312  0.00  0.00    -0.526 OA
ATOM      8  H5  UNL d   1       4.023   1.237   2.115  0.00  0.00     0.418 HD
ENDBRANCH   4   7
TORSDOF 1
ENDMDL
