MODEL 1
REMARK minimizedAffinity 0.283947319
REMARK minimizedRMSD -1
REMARK  1 active torsions:
REMARK  status: ('A' for Active; 'I' for Inactive)
REMARK    1  A    between atoms: C3_4  and  O_7 
ROOT
ATOM      1  C   UNL d   1      -5.625   5.439  -4.161  0.00  0.00    -0.033 A 
ATOM      2  C1  UNL d   1      -5.423   5.999  -5.423  0.00  0.00     0.039 A 
ATOM      3  C2  UNL d   1      -4.148   6.000  -5.992  0.00  0.00    -0.080 A 
ATOM      4  C3  UNL d   1      -3.086   5.437  -5.290  0.00  0.00     0.150 A 
ATOM      5  C4  UNL d   1      -3.281   4.873  -4.033  0.00  0.00    -0.007 A 
ATOM      6  C5  UNL d   1      -4.555   4.875  -3.466  0.00  0.00     0.039 A 
ENDROOT
BRANCH   4   7
ATOM      7  O   UNL d   1      -1.822   5.418  -5.802  0.00  0.00    -0.526 OA
ATOM      8  H5  UNL d   1      -1.833   5.868  -6.664  0.00  0.00     0.418 HD
ENDBRANCH   4   7
TORSDOF 1
ENDMDL
