MODEL 1
REMARK minimizedAffinity -3.80048227
REMARK minimizedRMSD -1
REMARK  1 active torsions:
REMARK  status: ('A' for Active; 'I' for Inactive)
REMARK    1  A    between atoms: C3_4  and  O_7 
ROOT
ATOM      1  C   UNL d   1      -4.500  -1.853   3.414  0.00  0.00    -0.033 A 
ATOM      2  C1  UNL d   1      -4.870  -1.384   4.676  0.00  0.00     0.039 A 
ATOM      3  C2  UNL d   1      -4.168  -0.330   5.265  0.00  0.00    -0.080 A 
ATOM      4  C3  UNL d   1      -3.100   0.245   4.582  0.00  0.00     0.150 A 
ATOM      5  C4  UNL d   1      -2.728  -0.214   3.322  0.00  0.00    -0.007 A 
ATOM      6  C5  UNL d   1      -3.430  -1.267   2.737  0.00  0.00     0.039 A 
ENDROOT
BRANCH   4   7
ATOM      7  O   UNL d   1      -2.381   1.272   5.118  0.00  0.00    -0.526 OA
ATOM      8  H5  UNL d   1      -2.733   1.465   6.003  0.00  0.00     0.418 HD
ENDBRANCH   4   7
TORSDOF 1
ENDMDL
