MODEL 1
REMARK minimizedAffinity 0.0838270485
REMARK minimizedRMSD -1
REMARK  1 active torsions:
REMARK  status: ('A' for Active; 'I' for Inactive)
REMARK    1  A    between atoms: C3_4  and  O_7 
ROOT
ATOM      1  C   UNL d   1      -4.120  -1.152   2.552  0.00  0.00    -0.033 A 
ATOM      2  C1  UNL d   1      -4.642  -0.664   3.752  0.00  0.00     0.039 A 
ATOM      3  C2  UNL d   1      -3.860   0.145   4.578  0.00  0.00    -0.080 A 
ATOM      4  C3  UNL d   1      -2.559   0.460   4.193  0.00  0.00     0.150 A 
ATOM      5  C4  UNL d   1      -2.034  -0.019   2.997  0.00  0.00    -0.007 A 
ATOM      6  C5  UNL d   1      -2.817  -0.828   2.174  0.00  0.00     0.039 A 
ENDROOT
BRANCH   4   7
ATOM      7  O   UNL d   1      -1.756   1.242   4.968  0.00  0.00    -0.526 OA
ATOM      8  H5  UNL d   1      -2.242   1.476   5.776  0.00  0.00     0.418 HD
ENDBRANCH   4   7
TORSDOF 1
ENDMDL
