MODEL 1
REMARK minimizedAffinity -0.2043861
REMARK minimizedRMSD -1
REMARK  1 active torsions:
REMARK  status: ('A' for Active; 'I' for Inactive)
REMARK    1  A    between atoms: C3_4  and  O_7 
ROOT
ATOM      1  C   UNL d   1      -5.176  -0.459   4.227  0.00  0.00    -0.033 A 
ATOM      2  C1  UNL d   1      -5.035  -0.067   5.559  0.00  0.00     0.039 A 
ATOM      3  C2  UNL d   1      -3.840   0.505   5.998  0.00  0.00    -0.080 A 
ATOM      4  C3  UNL d   1      -2.795   0.681   5.095  0.00  0.00     0.150 A 
ATOM      5  C4  UNL d   1      -2.930   0.297   3.765  0.00  0.00    -0.007 A 
ATOM      6  C5  UNL d   1      -4.124  -0.276   3.329  0.00  0.00     0.039 A 
ENDROOT
BRANCH   4   7
ATOM      7  O   UNL d   1      -1.607   1.231   5.477  0.00  0.00    -0.526 OA
ATOM      8  H5  UNL d   1      -1.649   1.422   6.429  0.00  0.00     0.418 HD
ENDBRANCH   4   7
TORSDOF 1
ENDMDL
