MODEL 1
REMARK minimizedAffinity -1.89906693
REMARK minimizedRMSD -1
REMARK  1 active torsions:
REMARK  status: ('A' for Active; 'I' for Inactive)
REMARK    1  A    between atoms: C3_4  and  O_7 
ROOT
ATOM      1  C   UNL d   1       5.987   3.626   0.676  0.00  0.00    -0.033 A 
ATOM      2  C1  UNL d   1       5.313   3.666   1.898  0.00  0.00     0.039 A 
ATOM      3  C2  UNL d   1       4.095   3.001   2.047  0.00  0.00    -0.080 A 
ATOM      4  C3  UNL d   1       3.562   2.300   0.969  0.00  0.00     0.150 A 
ATOM      5  C4  UNL d   1       4.230   2.253  -0.250  0.00  0.00    -0.007 A 
ATOM      6  C5  UNL d   1       5.446   2.919  -0.398  0.00  0.00     0.039 A 
ENDROOT
BRANCH   4   7
ATOM      7  O   UNL d   1       2.373   1.639   1.065  0.00  0.00    -0.526 OA
ATOM      8  H5  UNL d   1       2.013   1.783   1.956  0.00  0.00     0.418 HD
ENDBRANCH   4   7
TORSDOF 1
ENDMDL
