MODEL 1
REMARK minimizedAffinity 3.33155751
REMARK minimizedRMSD -1
REMARK  1 active torsions:
REMARK  status: ('A' for Active; 'I' for Inactive)
REMARK    1  A    between atoms: C3_4  and  O_7 
ROOT
ATOM      1  C   UNL d   1      -5.990   5.373  -4.891  0.00  0.00    -0.033 A 
ATOM      2  C1  UNL d   1      -5.257   4.749  -3.879  0.00  0.00     0.039 A 
ATOM      3  C2  UNL d   1      -3.862   4.742  -3.927  0.00  0.00    -0.080 A 
ATOM      4  C3  UNL d   1      -3.212   5.363  -4.990  0.00  0.00     0.150 A 
ATOM      5  C4  UNL d   1      -3.935   5.990  -5.999  0.00  0.00    -0.007 A 
ATOM      6  C5  UNL d   1      -5.329   5.994  -5.950  0.00  0.00     0.039 A 
ENDROOT
BRANCH   4   7
ATOM      7  O   UNL d   1      -1.852   5.379  -5.083  0.00  0.00    -0.526 OA
ATOM      8  H5  UNL d   1      -1.487   4.883  -4.331  0.00  0.00     0.418 HD
ENDBRANCH   4   7
TORSDOF 1
ENDMDL
