MODEL 1
REMARK minimizedAffinity 3.56797981
REMARK minimizedRMSD -1
REMARK  1 active torsions:
REMARK  status: ('A' for Active; 'I' for Inactive)
REMARK    1  A    between atoms: C3_4  and  O_7 
ROOT
ATOM      1  C   UNL d   1      -1.865  -0.920   1.277  0.00  0.00    -0.033 A 
ATOM      2  C1  UNL d   1      -2.349  -1.771   2.272  0.00  0.00     0.039 A 
ATOM      3  C2  UNL d   1      -2.453  -1.319   3.590  0.00  0.00    -0.080 A 
ATOM      4  C3  UNL d   1      -2.071  -0.017   3.897  0.00  0.00     0.150 A 
ATOM      5  C4  UNL d   1      -1.591   0.838   2.910  0.00  0.00    -0.007 A 
ATOM      6  C5  UNL d   1      -1.487   0.385   1.596  0.00  0.00     0.039 A 
ENDROOT
BRANCH   4   7
ATOM      7  O   UNL d   1      -2.150   0.467   5.169  0.00  0.00    -0.526 OA
ATOM      8  H5  UNL d   1      -2.472  -0.243   5.750  0.00  0.00     0.418 HD
ENDBRANCH   4   7
TORSDOF 1
ENDMDL
