MODEL 1
REMARK minimizedAffinity 4.54824638
REMARK minimizedRMSD -1
REMARK  1 active torsions:
REMARK  status: ('A' for Active; 'I' for Inactive)
REMARK    1  A    between atoms: C3_4  and  O_7 
ROOT
ATOM      1  C   UNL d   1      -2.362  -1.113   1.786  0.00  0.00    -0.033 A 
ATOM      2  C1  UNL d   1      -1.078  -0.707   2.158  0.00  0.00     0.039 A 
ATOM      3  C2  UNL d   1      -0.891   0.047   3.318  0.00  0.00    -0.080 A 
ATOM      4  C3  UNL d   1      -1.994   0.386   4.098  0.00  0.00     0.150 A 
ATOM      5  C4  UNL d   1      -3.275  -0.018   3.735  0.00  0.00    -0.007 A 
ATOM      6  C5  UNL d   1      -3.459  -0.770   2.576  0.00  0.00     0.039 A 
ENDROOT
BRANCH   4   7
ATOM      7  O   UNL d   1      -1.861   1.124   5.236  0.00  0.00    -0.526 OA
ATOM      8  H5  UNL d   1      -0.924   1.356   5.345  0.00  0.00     0.418 HD
ENDBRANCH   4   7
TORSDOF 1
ENDMDL
