MODEL 1
REMARK minimizedAffinity 6.41402531
REMARK minimizedRMSD -1
REMARK  1 active torsions:
REMARK  status: ('A' for Active; 'I' for Inactive)
REMARK    1  A    between atoms: C3_4  and  O_7 
ROOT
ATOM      1  C   UNL d   1       5.827   4.082  -2.893  0.00  0.00    -0.033 A 
ATOM      2  C1  UNL d   1       5.128   3.942  -1.692  0.00  0.00     0.039 A 
ATOM      3  C2  UNL d   1       3.861   3.354  -1.684  0.00  0.00    -0.080 A 
ATOM      4  C3  UNL d   1       3.306   2.910  -2.881  0.00  0.00     0.150 A 
ATOM      5  C4  UNL d   1       3.999   3.043  -4.080  0.00  0.00    -0.007 A 
ATOM      6  C5  UNL d   1       5.263   3.631  -4.086  0.00  0.00     0.039 A 
ENDROOT
BRANCH   4   7
ATOM      7  O   UNL d   1       2.071   2.335  -2.924  0.00  0.00    -0.526 OA
ATOM      8  H5  UNL d   1       1.700   2.336  -2.026  0.00  0.00     0.418 HD
ENDBRANCH   4   7
TORSDOF 1
ENDMDL
