MODEL 1
REMARK minimizedAffinity 4.90630674
REMARK minimizedRMSD -1
REMARK  1 active torsions:
REMARK  status: ('A' for Active; 'I' for Inactive)
REMARK    1  A    between atoms: C3_4  and  O_7 
ROOT
ATOM      1  C   UNL d   1      -4.816   5.628  -4.019  0.00  0.00    -0.033 A 
ATOM      2  C1  UNL d   1      -3.680   5.257  -3.297  0.00  0.00     0.039 A 
ATOM      3  C2  UNL d   1      -2.428   5.254  -3.915  0.00  0.00    -0.080 A 
ATOM      4  C3  UNL d   1      -2.326   5.624  -5.254  0.00  0.00     0.150 A 
ATOM      5  C4  UNL d   1      -3.453   5.998  -5.978  0.00  0.00    -0.007 A 
ATOM      6  C5  UNL d   1      -4.703   6.000  -5.359  0.00  0.00     0.039 A 
ENDROOT
BRANCH   4   7
ATOM      7  O   UNL d   1      -1.126   5.632  -5.901  0.00  0.00    -0.526 OA
ATOM      8  H5  UNL d   1      -0.442   5.323  -5.284  0.00  0.00     0.418 HD
ENDBRANCH   4   7
TORSDOF 1
ENDMDL
