MODEL 1
REMARK minimizedAffinity 4.52522707
REMARK minimizedRMSD -1
REMARK  1 active torsions:
REMARK  status: ('A' for Active; 'I' for Inactive)
REMARK    1  A    between atoms: C3_4  and  O_7 
ROOT
ATOM      1  C   UNL d   1      -1.811   5.670  -4.814  0.00  0.00    -0.033 A 
ATOM      2  C1  UNL d   1      -2.493   5.541  -3.603  0.00  0.00     0.039 A 
ATOM      3  C2  UNL d   1      -3.887   5.617  -3.573  0.00  0.00    -0.080 A 
ATOM      4  C3  UNL d   1      -4.586   5.820  -4.760  0.00  0.00     0.150 A 
ATOM      5  C4  UNL d   1      -3.913   5.945  -5.971  0.00  0.00    -0.007 A 
ATOM      6  C5  UNL d   1      -2.521   5.870  -5.998  0.00  0.00     0.039 A 
ENDROOT
BRANCH   4   7
ATOM      7  O   UNL d   1      -5.946   5.905  -4.780  0.00  0.00    -0.526 OA
ATOM      8  H5  UNL d   1      -6.273   5.829  -3.868  0.00  0.00     0.418 HD
ENDBRANCH   4   7
TORSDOF 1
ENDMDL
