MODEL 1
REMARK minimizedAffinity 2.70167136
REMARK minimizedRMSD -1
REMARK  1 active torsions:
REMARK  status: ('A' for Active; 'I' for Inactive)
REMARK    1  A    between atoms: C3_4  and  O_7 
ROOT
ATOM      1  C   UNL d   1      -5.259  -0.098   3.037  0.00  0.00    -0.033 A 
ATOM      2  C1  UNL d   1      -4.930   1.112   3.650  0.00  0.00     0.039 A 
ATOM      3  C2  UNL d   1      -3.652   1.305   4.178  0.00  0.00    -0.080 A 
ATOM      4  C3  UNL d   1      -2.713   0.282   4.086  0.00  0.00     0.150 A 
ATOM      5  C4  UNL d   1      -3.033  -0.926   3.473  0.00  0.00    -0.007 A 
ATOM      6  C5  UNL d   1      -4.310  -1.117   2.947  0.00  0.00     0.039 A 
ENDROOT
BRANCH   4   7
ATOM      7  O   UNL d   1      -1.455   0.422   4.591  0.00  0.00    -0.526 OA
ATOM      8  H5  UNL d   1      -1.387   1.296   5.010  0.00  0.00     0.418 HD
ENDBRANCH   4   7
TORSDOF 1
ENDMDL
