MODEL 1
REMARK minimizedAffinity -4.72189093
REMARK minimizedRMSD -1
REMARK  0 active torsions:
REMARK  status: ('A' for Active; 'I' for Inactive)
ROOT
ATOM      1  C4' PXY d   1       0.790   1.617  -0.074  0.00  0.00     0.077 C 
ATOM      2  C1' PXY d   1      -0.183  -4.047  -0.689  0.00  0.00     0.077 C 
ATOM      3  C1  PXY d   1       0.062  -2.561  -0.519  0.00  0.00    -0.082 A 
ATOM      4  C2  PXY d   1       0.676  -1.886  -1.477  0.00  0.00     0.003 A 
ATOM      5  C3  PXY d   1       0.934  -0.548  -1.326  0.00  0.00     0.003 A 
ATOM      6  C4  PXY d   1       0.513   0.117  -0.206  0.00  0.00    -0.082 A 
ATOM      7  C5  PXY d   1      -0.124  -0.563   0.771  0.00  0.00     0.003 A 
ATOM      8  C6  PXY d   1      -0.340  -1.929   0.616  0.00  0.00     0.003 A 
ENDROOT
TORSDOF 0
ENDMDL
