MODEL 1
REMARK minimizedAffinity -4.13802862
REMARK minimizedRMSD -1
REMARK  0 active torsions:
REMARK  status: ('A' for Active; 'I' for Inactive)
ROOT
ATOM      1  C4' PXY d   1       0.003   0.962  -0.733  0.00  0.00     0.077 C 
ATOM      2  C1' PXY d   1       0.224  -4.813  -0.582  0.00  0.00     0.077 C 
ATOM      3  C1  PXY d   1       0.159  -3.298  -0.611  0.00  0.00    -0.082 A 
ATOM      4  C2  PXY d   1       0.346  -2.657  -1.753  0.00  0.00     0.003 A 
ATOM      5  C3  PXY d   1       0.322  -1.287  -1.791  0.00  0.00     0.003 A 
ATOM      6  C4  PXY d   1       0.051  -0.567  -0.659  0.00  0.00    -0.082 A 
ATOM      7  C5  PXY d   1      -0.152  -1.214   0.509  0.00  0.00     0.003 A 
ATOM      8  C6  PXY d   1      -0.082  -2.604   0.534  0.00  0.00     0.003 A 
ENDROOT
TORSDOF 0
ENDMDL
