MODEL 1
REMARK minimizedAffinity -5.30388212
REMARK minimizedRMSD -1
REMARK  0 active torsions:
REMARK  status: ('A' for Active; 'I' for Inactive)
ROOT
ATOM      1  C4' PXY d   1      -0.023   1.210  -0.048  0.00  0.00     0.077 C 
ATOM      2  C1' PXY d   1       0.290  -4.458  -1.139  0.00  0.00     0.077 C 
ATOM      3  C1  PXY d   1       0.199  -2.974  -0.843  0.00  0.00    -0.082 A 
ATOM      4  C2  PXY d   1       0.476  -2.099  -1.796  0.00  0.00     0.003 A 
ATOM      5  C3  PXY d   1       0.431  -0.753  -1.537  0.00  0.00     0.003 A 
ATOM      6  C4  PXY d   1       0.046  -0.298  -0.304  0.00  0.00    -0.082 A 
ATOM      7  C5  PXY d   1      -0.248  -1.184   0.670  0.00  0.00     0.003 A 
ATOM      8  C6  PXY d   1      -0.156  -2.546   0.399  0.00  0.00     0.003 A 
ENDROOT
TORSDOF 0
ENDMDL
