MODEL 1
REMARK minimizedAffinity -4.17856026
REMARK minimizedRMSD -1
REMARK  0 active torsions:
REMARK  status: ('A' for Active; 'I' for Inactive)
ROOT
ATOM      1  C4' PXY d   1      -0.128   0.574   0.182  0.00  0.00     0.077 C 
ATOM      2  C1' PXY d   1       0.246  -5.105  -0.827  0.00  0.00     0.077 C 
ATOM      3  C1  PXY d   1       0.141  -3.618  -0.551  0.00  0.00    -0.082 A 
ATOM      4  C2  PXY d   1       0.231  -2.760  -1.554  0.00  0.00     0.003 A 
ATOM      5  C3  PXY d   1       0.170  -1.410  -1.319  0.00  0.00     0.003 A 
ATOM      6  C4  PXY d   1      -0.038  -0.937  -0.051  0.00  0.00    -0.082 A 
ATOM      7  C5  PXY d   1      -0.141  -1.807   0.976  0.00  0.00     0.003 A 
ATOM      8  C6  PXY d   1      -0.035  -3.171   0.721  0.00  0.00     0.003 A 
ENDROOT
TORSDOF 0
ENDMDL
