MODEL 1
REMARK minimizedAffinity -3.84043097
REMARK minimizedRMSD -1
REMARK  0 active torsions:
REMARK  status: ('A' for Active; 'I' for Inactive)
ROOT
ATOM      1  C4' PXY d   1      -0.346  -3.783  -0.179  0.00  0.00     0.077 C 
ATOM      2  C1' PXY d   1       0.046   1.940   0.533  0.00  0.00     0.077 C 
ATOM      3  C1  PXY d   1      -0.065   0.439   0.357  0.00  0.00    -0.082 A 
ATOM      4  C2  PXY d   1       0.895  -0.218  -0.274  0.00  0.00     0.003 A 
ATOM      5  C3  PXY d   1       0.796  -1.572  -0.470  0.00  0.00     0.003 A 
ATOM      6  C4  PXY d   1      -0.272  -2.268   0.030  0.00  0.00    -0.082 A 
ATOM      7  C5  PXY d   1      -1.250  -1.606   0.684  0.00  0.00     0.003 A 
ATOM      8  C6  PXY d   1      -1.150  -0.226   0.837  0.00  0.00     0.003 A 
ENDROOT
TORSDOF 0
ENDMDL
