MODEL 1
REMARK minimizedAffinity -3.73014426
REMARK minimizedRMSD -1
REMARK  0 active torsions:
REMARK  status: ('A' for Active; 'I' for Inactive)
ROOT
ATOM      1  C4' PXY d   1      -0.161   1.697  -0.128  0.00  0.00     0.077 C 
ATOM      2  C1' PXY d   1       0.151  -4.075  -0.136  0.00  0.00     0.077 C 
ATOM      3  C1  PXY d   1       0.058  -2.562  -0.127  0.00  0.00    -0.082 A 
ATOM      4  C2  PXY d   1       0.655  -1.865  -1.080  0.00  0.00     0.003 A 
ATOM      5  C3  PXY d   1       0.608  -0.494  -1.069  0.00  0.00     0.003 A 
ATOM      6  C4  PXY d   1      -0.102   0.167  -0.102  0.00  0.00    -0.082 A 
ATOM      7  C5  PXY d   1      -0.722  -0.538   0.867  0.00  0.00     0.003 A 
ATOM      8  C6  PXY d   1      -0.628  -1.927   0.862  0.00  0.00     0.003 A 
ENDROOT
TORSDOF 0
ENDMDL
