MODEL 1
REMARK minimizedAffinity -1.93542743
REMARK minimizedRMSD -1
REMARK  0 active torsions:
REMARK  status: ('A' for Active; 'I' for Inactive)
ROOT
ATOM      1  C4' PXY d   1      -0.693  -1.889   0.326  0.00  0.00     0.077 C 
ATOM      2  C1' PXY d   1       1.587   3.405  -0.112  0.00  0.00     0.077 C 
ATOM      3  C1  PXY d   1       1.001   2.011   0.002  0.00  0.00    -0.082 A 
ATOM      4  C2  PXY d   1      -0.268   1.808  -0.311  0.00  0.00     0.003 A 
ATOM      5  C3  PXY d   1      -0.823   0.561  -0.184  0.00  0.00     0.003 A 
ATOM      6  C4  PXY d   1      -0.057  -0.501   0.217  0.00  0.00    -0.082 A 
ATOM      7  C5  PXY d   1       1.242  -0.304   0.528  0.00  0.00     0.003 A 
ATOM      8  C6  PXY d   1       1.776   0.978   0.431  0.00  0.00     0.003 A 
ENDROOT
TORSDOF 0
ENDMDL
