MODEL 1
REMARK minimizedAffinity -3.49710965
REMARK minimizedRMSD -1
REMARK  0 active torsions:
REMARK  status: ('A' for Active; 'I' for Inactive)
ROOT
ATOM      1  C4' PXY d   1      -0.023   1.395  -0.009  0.00  0.00     0.077 C 
ATOM      2  C1' PXY d   1      -0.336  -4.134  -1.666  0.00  0.00     0.077 C 
ATOM      3  C1  PXY d   1      -0.263  -2.686  -1.222  0.00  0.00    -0.082 A 
ATOM      4  C2  PXY d   1       0.178  -1.766  -2.064  0.00  0.00     0.003 A 
ATOM      5  C3  PXY d   1       0.281  -0.457  -1.669  0.00  0.00     0.003 A 
ATOM      6  C4  PXY d   1      -0.123  -0.077  -0.417  0.00  0.00    -0.082 A 
ATOM      7  C5  PXY d   1      -0.584  -1.009   0.444  0.00  0.00     0.003 A 
ATOM      8  C6  PXY d   1      -0.642  -2.339   0.037  0.00  0.00     0.003 A 
ENDROOT
TORSDOF 0
ENDMDL
