MODEL 1
REMARK minimizedAffinity -5.41930246
REMARK minimizedRMSD -1
REMARK  0 active torsions:
REMARK  status: ('A' for Active; 'I' for Inactive)
ROOT
ATOM      1  C4' PXY d   1      -0.634   1.293   0.268  0.00  0.00     0.077 C 
ATOM      2  C1' PXY d   1       0.258  -4.307  -0.851  0.00  0.00     0.077 C 
ATOM      3  C1  PXY d   1       0.016  -2.842  -0.548  0.00  0.00    -0.082 A 
ATOM      4  C2  PXY d   1       0.270  -1.932  -1.475  0.00  0.00     0.003 A 
ATOM      5  C3  PXY d   1       0.087  -0.600  -1.207  0.00  0.00     0.003 A 
ATOM      6  C4  PXY d   1      -0.413  -0.198   0.003  0.00  0.00    -0.082 A 
ATOM      7  C5  PXY d   1      -0.684  -1.122   0.950  0.00  0.00     0.003 A 
ATOM      8  C6  PXY d   1      -0.452  -2.466   0.673  0.00  0.00     0.003 A 
ENDROOT
TORSDOF 0
ENDMDL
