MODEL 1
REMARK minimizedAffinity -3.6071403
REMARK minimizedRMSD -1
REMARK  0 active torsions:
REMARK  status: ('A' for Active; 'I' for Inactive)
ROOT
ATOM      1  C4' PXY d   1      -0.333   1.506   0.110  0.00  0.00     0.077 C 
ATOM      2  C1' PXY d   1      -0.272  -4.174  -0.964  0.00  0.00     0.077 C 
ATOM      3  C1  PXY d   1      -0.297  -2.686  -0.673  0.00  0.00    -0.082 A 
ATOM      4  C2  PXY d   1       0.069  -1.829  -1.613  0.00  0.00     0.003 A 
ATOM      5  C3  PXY d   1       0.083  -0.483  -1.356  0.00  0.00     0.003 A 
ATOM      6  C4  PXY d   1      -0.333  -0.004  -0.143  0.00  0.00    -0.082 A 
ATOM      7  C5  PXY d   1      -0.718  -0.871   0.818  0.00  0.00     0.003 A 
ATOM      8  C6  PXY d   1      -0.686  -2.237   0.551  0.00  0.00     0.003 A 
ENDROOT
TORSDOF 0
ENDMDL
