MODEL 1
REMARK minimizedAffinity -3.38260174
REMARK minimizedRMSD -1
REMARK  0 active torsions:
REMARK  status: ('A' for Active; 'I' for Inactive)
ROOT
ATOM      1  C4' PXY d   1       0.758   3.282   0.009  0.00  0.00     0.077 C 
ATOM      2  C1' PXY d   1      -1.387  -2.033   0.763  0.00  0.00     0.077 C 
ATOM      3  C1  PXY d   1      -0.819  -0.643   0.555  0.00  0.00    -0.082 A 
ATOM      4  C2  PXY d   1      -0.698   0.176   1.587  0.00  0.00     0.003 A 
ATOM      5  C3  PXY d   1      -0.216   1.448   1.411  0.00  0.00     0.003 A 
ATOM      6  C4  PXY d   1       0.197   1.867   0.174  0.00  0.00    -0.082 A 
ATOM      7  C5  PXY d   1       0.088   1.033  -0.882  0.00  0.00     0.003 A 
ATOM      8  C6  PXY d   1      -0.443  -0.239  -0.689  0.00  0.00     0.003 A 
ENDROOT
TORSDOF 0
ENDMDL
