MODEL 1
REMARK minimizedAffinity -3.82906485
REMARK minimizedRMSD -1
REMARK  0 active torsions:
REMARK  status: ('A' for Active; 'I' for Inactive)
ROOT
ATOM      1  C4' PXY d   1       0.152   1.218  -0.080  0.00  0.00     0.077 C 
ATOM      2  C1' PXY d   1      -0.037  -4.544  -0.499  0.00  0.00     0.077 C 
ATOM      3  C1  PXY d   1       0.004  -3.033  -0.379  0.00  0.00    -0.082 A 
ATOM      4  C2  PXY d   1       0.278  -2.299  -1.445  0.00  0.00     0.003 A 
ATOM      5  C3  PXY d   1       0.351  -0.934  -1.347  0.00  0.00     0.003 A 
ATOM      6  C4  PXY d   1       0.090  -0.310  -0.157  0.00  0.00    -0.082 A 
ATOM      7  C5  PXY d   1      -0.201  -1.051   0.933  0.00  0.00     0.003 A 
ATOM      8  C6  PXY d   1      -0.230  -2.438   0.822  0.00  0.00     0.003 A 
ENDROOT
TORSDOF 0
ENDMDL
