MODEL 1
REMARK minimizedAffinity -5.80853701
REMARK minimizedRMSD -1
REMARK  0 active torsions:
REMARK  status: ('A' for Active; 'I' for Inactive)
ROOT
ATOM      1  C4' PXY d   1       0.297  -5.121  -0.950  0.00  0.00     0.077 C 
ATOM      2  C1' PXY d   1      -0.383   0.441   0.471  0.00  0.00     0.077 C 
ATOM      3  C1  PXY d   1      -0.209  -1.015   0.086  0.00  0.00    -0.082 A 
ATOM      4  C2  PXY d   1      -0.241  -1.947   1.024  0.00  0.00     0.003 A 
ATOM      5  C3  PXY d   1      -0.053  -3.266   0.698  0.00  0.00     0.003 A 
ATOM      6  C4  PXY d   1       0.116  -3.639  -0.609  0.00  0.00    -0.082 A 
ATOM      7  C5  PXY d   1       0.139  -2.694  -1.573  0.00  0.00     0.003 A 
ATOM      8  C6  PXY d   1      -0.012  -1.358  -1.216  0.00  0.00     0.003 A 
ENDROOT
TORSDOF 0
ENDMDL
