MODEL 1
REMARK minimizedAffinity -4.81946421
REMARK minimizedRMSD -1
REMARK  0 active torsions:
REMARK  status: ('A' for Active; 'I' for Inactive)
ROOT
ATOM      1  C4' PXY d   1       0.116   1.609   0.397  0.00  0.00     0.077 C 
ATOM      2  C1' PXY d   1      -0.573  -3.369  -2.461  0.00  0.00     0.077 C 
ATOM      3  C1  PXY d   1      -0.397  -2.069  -1.700  0.00  0.00    -0.082 A 
ATOM      4  C2  PXY d   1      -0.395  -0.921  -2.359  0.00  0.00     0.003 A 
ATOM      5  C3  PXY d   1      -0.205   0.261  -1.691  0.00  0.00     0.003 A 
ATOM      6  C4  PXY d   1      -0.068   0.273  -0.328  0.00  0.00    -0.082 A 
ATOM      7  C5  PXY d   1      -0.080  -0.893   0.352  0.00  0.00     0.003 A 
ATOM      8  C6  PXY d   1      -0.233  -2.086  -0.350  0.00  0.00     0.003 A 
ENDROOT
TORSDOF 0
ENDMDL
