MODEL 1
REMARK minimizedAffinity -3.73736238
REMARK minimizedRMSD -1
REMARK  0 active torsions:
REMARK  status: ('A' for Active; 'I' for Inactive)
ROOT
ATOM      1  C4' PXY d   1      -0.212  -3.334   1.137  0.00  0.00     0.077 C 
ATOM      2  C1' PXY d   1       0.041   2.167  -0.619  0.00  0.00     0.077 C 
ATOM      3  C1  PXY d   1      -0.029   0.728  -0.147  0.00  0.00    -0.082 A 
ATOM      4  C2  PXY d   1       0.628  -0.210  -0.809  0.00  0.00     0.003 A 
ATOM      5  C3  PXY d   1       0.551  -1.521  -0.414  0.00  0.00     0.003 A 
ATOM      6  C4  PXY d   1      -0.163  -1.867   0.701  0.00  0.00    -0.082 A 
ATOM      7  C5  PXY d   1      -0.828  -0.914   1.388  0.00  0.00     0.003 A 
ATOM      8  C6  PXY d   1      -0.770   0.405   0.947  0.00  0.00     0.003 A 
ENDROOT
TORSDOF 0
ENDMDL
