MODEL 1
REMARK minimizedAffinity -1.65445924
REMARK minimizedRMSD -1
REMARK  0 active torsions:
REMARK  status: ('A' for Active; 'I' for Inactive)
ROOT
ATOM      1  C4' PXY d   1       0.203  -4.179   0.178  0.00  0.00     0.077 C 
ATOM      2  C1' PXY d   1      -0.828   1.488  -0.302  0.00  0.00     0.077 C 
ATOM      3  C1  PXY d   1      -0.555   0.001  -0.189  0.00  0.00    -0.082 A 
ATOM      4  C2  PXY d   1      -1.115  -0.694   0.787  0.00  0.00     0.003 A 
ATOM      5  C3  PXY d   1      -0.853  -2.033   0.924  0.00  0.00     0.003 A 
ATOM      6  C4  PXY d   1      -0.052  -2.678   0.020  0.00  0.00    -0.082 A 
ATOM      7  C5  PXY d   1       0.515  -1.977  -0.986  0.00  0.00     0.003 A 
ATOM      8  C6  PXY d   1       0.269  -0.611  -1.082  0.00  0.00     0.003 A 
ENDROOT
TORSDOF 0
ENDMDL
