MODEL 1
REMARK minimizedAffinity -3.80126643
REMARK minimizedRMSD -1
REMARK  0 active torsions:
REMARK  status: ('A' for Active; 'I' for Inactive)
ROOT
ATOM      1  C4' PXY d   1       0.162  -2.614  -2.629  0.00  0.00     0.077 C 
ATOM      2  C1' PXY d   1      -1.195   0.516   2.037  0.00  0.00     0.077 C 
ATOM      3  C1  PXY d   1      -0.833  -0.314   0.821  0.00  0.00    -0.082 A 
ATOM      4  C2  PXY d   1      -0.727   0.271  -0.361  0.00  0.00     0.003 A 
ATOM      5  C3  PXY d   1      -0.433  -0.470  -1.477  0.00  0.00     0.003 A 
ATOM      6  C4  PXY d   1      -0.192  -1.814  -1.372  0.00  0.00    -0.082 A 
ATOM      7  C5  PXY d   1      -0.288  -2.416  -0.168  0.00  0.00     0.003 A 
ATOM      8  C6  PXY d   1      -0.628  -1.653   0.946  0.00  0.00     0.003 A 
ENDROOT
TORSDOF 0
ENDMDL
