MODEL 1
REMARK minimizedAffinity -3.46582937
REMARK minimizedRMSD -1
REMARK  0 active torsions:
REMARK  status: ('A' for Active; 'I' for Inactive)
ROOT
ATOM      1  C   UNL d   1       0.122   0.651   0.255  0.00  0.00     0.172 C 
ATOM      2  N   UNL d   1      -0.103  -0.775   0.274  0.00  0.00    -0.070 N 
ATOM      3  C1  UNL d   1      -1.099  -1.416   0.961  0.00  0.00    -0.004 A 
ATOM      4  C2  UNL d   1      -0.974  -2.768   0.722  0.00  0.00    -0.047 A 
ATOM      5  C3  UNL d   1       0.136  -2.945  -0.138  0.00  0.00    -0.047 A 
ATOM      6  C4  UNL d   1       0.656  -1.695  -0.400  0.00  0.00    -0.004 A 
ENDROOT
TORSDOF 0
ENDMDL
