MODEL 1
REMARK minimizedAffinity -4.08205891
REMARK minimizedRMSD -1
REMARK  0 active torsions:
REMARK  status: ('A' for Active; 'I' for Inactive)
ROOT
ATOM      1  C   UNL d   1       0.449  -1.474  -3.119  0.00  0.00     0.172 C 
ATOM      2  N   UNL d   1       0.372  -1.886  -1.737  0.00  0.00    -0.070 N 
ATOM      3  C1  UNL d   1      -0.077  -3.101  -1.291  0.00  0.00    -0.004 A 
ATOM      4  C2  UNL d   1       0.007  -3.102   0.085  0.00  0.00    -0.047 A 
ATOM      5  C3  UNL d   1       0.524  -1.845   0.479  0.00  0.00    -0.047 A 
ATOM      6  C4  UNL d   1       0.740  -1.112  -0.669  0.00  0.00    -0.004 A 
ENDROOT
TORSDOF 0
ENDMDL
