MODEL 1
REMARK minimizedAffinity -1.11457694
REMARK minimizedRMSD -1
REMARK  0 active torsions:
REMARK  status: ('A' for Active; 'I' for Inactive)
ROOT
ATOM      1  C   UNL d   1      -1.041  -3.026  -2.044  0.00  0.00     0.172 C 
ATOM      2  N   UNL d   1      -0.924  -2.280  -0.813  0.00  0.00    -0.070 N 
ATOM      3  C1  UNL d   1      -0.446  -1.002  -0.696  0.00  0.00    -0.004 A 
ATOM      4  C2  UNL d   1      -0.497  -0.653   0.636  0.00  0.00    -0.047 A 
ATOM      5  C3  UNL d   1      -1.024  -1.759   1.344  0.00  0.00    -0.047 A 
ATOM      6  C4  UNL d   1      -1.280  -2.752   0.423  0.00  0.00    -0.004 A 
ENDROOT
TORSDOF 0
ENDMDL
