MODEL 1
REMARK minimizedAffinity -3.49504733
REMARK minimizedRMSD -1
REMARK  0 active torsions:
REMARK  status: ('A' for Active; 'I' for Inactive)
ROOT
ATOM      1  C   UNL d   1      -0.184   0.577  -0.152  0.00  0.00     0.172 C 
ATOM      2  N   UNL d   1      -0.602  -0.771   0.155  0.00  0.00    -0.070 N 
ATOM      3  C1  UNL d   1      -0.548  -1.838  -0.702  0.00  0.00    -0.004 A 
ATOM      4  C2  UNL d   1      -1.035  -2.940  -0.033  0.00  0.00    -0.047 A 
ATOM      5  C3  UNL d   1      -1.394  -2.521   1.269  0.00  0.00    -0.047 A 
ATOM      6  C4  UNL d   1      -1.116  -1.174   1.359  0.00  0.00    -0.004 A 
ENDROOT
TORSDOF 0
ENDMDL
