MODEL 1
REMARK minimizedAffinity -3.94668531
REMARK minimizedRMSD -1
REMARK  0 active torsions:
REMARK  status: ('A' for Active; 'I' for Inactive)
ROOT
ATOM      1  C   UNL d   1      -0.024   0.214  -0.577  0.00  0.00     0.172 C 
ATOM      2  N   UNL d   1      -0.448  -1.005   0.070  0.00  0.00    -0.070 N 
ATOM      3  C1  UNL d   1      -1.234  -1.083   1.189  0.00  0.00    -0.004 A 
ATOM      4  C2  UNL d   1      -1.411  -2.417   1.488  0.00  0.00    -0.047 A 
ATOM      5  C3  UNL d   1      -0.706  -3.166   0.516  0.00  0.00    -0.047 A 
ATOM      6  C4  UNL d   1      -0.120  -2.267  -0.350  0.00  0.00    -0.004 A 
ENDROOT
TORSDOF 0
ENDMDL
