MODEL 1
REMARK minimizedAffinity -3.16026235
REMARK minimizedRMSD -1
REMARK  0 active torsions:
REMARK  status: ('A' for Active; 'I' for Inactive)
ROOT
ATOM      1  C   UNL d   1       0.218   1.655  -0.472  0.00  0.00     0.172 C 
ATOM      2  N   UNL d   1      -0.294   0.376  -0.042  0.00  0.00    -0.070 N 
ATOM      3  C1  UNL d   1      -1.214   0.178   0.953  0.00  0.00    -0.004 A 
ATOM      4  C2  UNL d   1      -1.439  -1.178   1.056  0.00  0.00    -0.047 A 
ATOM      5  C3  UNL d   1      -0.625  -1.817   0.091  0.00  0.00    -0.047 A 
ATOM      6  C4  UNL d   1       0.073  -0.832  -0.575  0.00  0.00    -0.004 A 
ENDROOT
TORSDOF 0
ENDMDL
