MODEL 1
REMARK minimizedAffinity -3.29868889
REMARK minimizedRMSD -1
REMARK  0 active torsions:
REMARK  status: ('A' for Active; 'I' for Inactive)
ROOT
ATOM      1  C   UNL d   1      -0.432   0.850  -0.598  0.00  0.00     0.172 C 
ATOM      2  N   UNL d   1      -0.662  -0.522  -0.213  0.00  0.00    -0.070 N 
ATOM      3  C1  UNL d   1      -1.341  -0.936   0.902  0.00  0.00    -0.004 A 
ATOM      4  C2  UNL d   1      -1.342  -2.314   0.909  0.00  0.00    -0.047 A 
ATOM      5  C3  UNL d   1      -0.638  -2.744  -0.242  0.00  0.00    -0.047 A 
ATOM      6  C4  UNL d   1      -0.229  -1.614  -0.918  0.00  0.00    -0.004 A 
ENDROOT
TORSDOF 0
ENDMDL
