MODEL 1
REMARK minimizedAffinity -1.38052511
REMARK minimizedRMSD -1
REMARK  0 active torsions:
REMARK  status: ('A' for Active; 'I' for Inactive)
ROOT
ATOM      1  C   UNL d   1       2.417   2.725   0.872  0.00  0.00     0.172 C 
ATOM      2  N   UNL d   1       1.330   1.896   0.407  0.00  0.00    -0.070 N 
ATOM      3  C1  UNL d   1       0.221   2.336  -0.265  0.00  0.00    -0.004 A 
ATOM      4  C2  UNL d   1      -0.573   1.241  -0.531  0.00  0.00    -0.047 A 
ATOM      5  C3  UNL d   1       0.081   0.104  -0.000  0.00  0.00    -0.047 A 
ATOM      6  C4  UNL d   1       1.257   0.538   0.575  0.00  0.00    -0.004 A 
ENDROOT
TORSDOF 0
ENDMDL
