MODEL 1
REMARK minimizedAffinity -3.42621827
REMARK minimizedRMSD -1
REMARK  0 active torsions:
REMARK  status: ('A' for Active; 'I' for Inactive)
ROOT
ATOM      1  C   UNL d   1       0.071   0.899   0.083  0.00  0.00     0.172 C 
ATOM      2  N   UNL d   1      -0.181  -0.509   0.279  0.00  0.00    -0.070 N 
ATOM      3  C1  UNL d   1       0.421  -1.531  -0.406  0.00  0.00    -0.004 A 
ATOM      4  C2  UNL d   1      -0.088  -2.718   0.074  0.00  0.00    -0.047 A 
ATOM      5  C3  UNL d   1      -1.030  -2.399   1.080  0.00  0.00    -0.047 A 
ATOM      6  C4  UNL d   1      -1.068  -1.024   1.187  0.00  0.00    -0.004 A 
ENDROOT
TORSDOF 0
ENDMDL
