MODEL 1
REMARK minimizedAffinity -3.99500966
REMARK minimizedRMSD -1
REMARK  0 active torsions:
REMARK  status: ('A' for Active; 'I' for Inactive)
ROOT
ATOM      1  C   UNL d   1      -0.061   0.985  -0.170  0.00  0.00     0.172 C 
ATOM      2  N   UNL d   1      -0.174  -0.450  -0.049  0.00  0.00    -0.070 N 
ATOM      3  C1  UNL d   1       0.493  -1.371  -0.812  0.00  0.00    -0.004 A 
ATOM      4  C2  UNL d   1       0.114  -2.625  -0.387  0.00  0.00    -0.047 A 
ATOM      5  C3  UNL d   1      -0.814  -2.453   0.668  0.00  0.00    -0.047 A 
ATOM      6  C4  UNL d   1      -0.975  -1.096   0.856  0.00  0.00    -0.004 A 
ENDROOT
TORSDOF 0
ENDMDL
