MODEL 1
REMARK minimizedAffinity -2.58288288
REMARK minimizedRMSD -1
REMARK  0 active torsions:
REMARK  status: ('A' for Active; 'I' for Inactive)
ROOT
ATOM      1  C   UNL d   1       0.263   0.998   0.002  0.00  0.00     0.172 C 
ATOM      2  N   UNL d   1      -0.353  -0.222   0.467  0.00  0.00    -0.070 N 
ATOM      3  C1  UNL d   1      -0.908  -0.415   1.704  0.00  0.00    -0.004 A 
ATOM      4  C2  UNL d   1      -1.388  -1.706   1.755  0.00  0.00    -0.047 A 
ATOM      5  C3  UNL d   1      -1.110  -2.311   0.506  0.00  0.00    -0.047 A 
ATOM      6  C4  UNL d   1      -0.470  -1.370  -0.272  0.00  0.00    -0.004 A 
ENDROOT
TORSDOF 0
ENDMDL
