MODEL 1
REMARK minimizedAffinity -3.33145785
REMARK minimizedRMSD -1
REMARK  0 active torsions:
REMARK  status: ('A' for Active; 'I' for Inactive)
ROOT
ATOM      1  C   UNL d   1      -0.173   0.445   0.110  0.00  0.00     0.172 C 
ATOM      2  N   UNL d   1       0.961   1.249   0.502  0.00  0.00    -0.070 N 
ATOM      3  C1  UNL d   1       2.004   0.830   1.283  0.00  0.00    -0.004 A 
ATOM      4  C2  UNL d   1       2.877   1.887   1.425  0.00  0.00    -0.047 A 
ATOM      5  C3  UNL d   1       2.339   2.980   0.704  0.00  0.00    -0.047 A 
ATOM      6  C4  UNL d   1       1.152   2.557   0.143  0.00  0.00    -0.004 A 
ENDROOT
TORSDOF 0
ENDMDL
