MODEL 1
REMARK minimizedAffinity -3.37862492
REMARK minimizedRMSD -1
REMARK  0 active torsions:
REMARK  status: ('A' for Active; 'I' for Inactive)
ROOT
ATOM      1  C   UNL d   1      -0.159   0.792  -0.666  0.00  0.00     0.172 C 
ATOM      2  N   UNL d   1      -0.430  -0.535  -0.165  0.00  0.00    -0.070 N 
ATOM      3  C1  UNL d   1      -1.401  -0.863   0.744  0.00  0.00    -0.004 A 
ATOM      4  C2  UNL d   1      -1.336  -2.223   0.959  0.00  0.00    -0.047 A 
ATOM      5  C3  UNL d   1      -0.289  -2.730   0.153  0.00  0.00    -0.047 A 
ATOM      6  C4  UNL d   1       0.255  -1.664  -0.532  0.00  0.00    -0.004 A 
ENDROOT
TORSDOF 0
ENDMDL
