MODEL 1
REMARK minimizedAffinity -3.40081429
REMARK minimizedRMSD -1
REMARK  0 active torsions:
REMARK  status: ('A' for Active; 'I' for Inactive)
ROOT
ATOM      1  C   UNL d   1      -0.040   1.124  -0.040  0.00  0.00     0.172 C 
ATOM      2  N   UNL d   1      -0.404  -0.255   0.185  0.00  0.00    -0.070 N 
ATOM      3  C1  UNL d   1      -0.858  -0.778   1.367  0.00  0.00    -0.004 A 
ATOM      4  C2  UNL d   1      -1.094  -2.122   1.171  0.00  0.00    -0.047 A 
ATOM      5  C3  UNL d   1      -0.769  -2.417  -0.175  0.00  0.00    -0.047 A 
ATOM      6  C4  UNL d   1      -0.345  -1.244  -0.762  0.00  0.00    -0.004 A 
ENDROOT
TORSDOF 0
ENDMDL
