MODEL 1
REMARK minimizedAffinity -1.99918818
REMARK minimizedRMSD -1
REMARK  0 active torsions:
REMARK  status: ('A' for Active; 'I' for Inactive)
ROOT
ATOM      1  C   UNL d   1       2.702   2.908  -0.647  0.00  0.00     0.172 C 
ATOM      2  N   UNL d   1       1.711   3.318   0.320  0.00  0.00    -0.070 N 
ATOM      3  C1  UNL d   1       1.972   3.815   1.569  0.00  0.00    -0.004 A 
ATOM      4  C2  UNL d   1       0.764   4.086   2.176  0.00  0.00    -0.047 A 
ATOM      5  C3  UNL d   1      -0.257   3.739   1.260  0.00  0.00    -0.047 A 
ATOM      6  C4  UNL d   1       0.357   3.267   0.120  0.00  0.00    -0.004 A 
ENDROOT
TORSDOF 0
ENDMDL
