MODEL 1
REMARK minimizedAffinity -3.04569602
REMARK minimizedRMSD -1
REMARK  0 active torsions:
REMARK  status: ('A' for Active; 'I' for Inactive)
ROOT
ATOM      1  C   UNL d   1      -0.343  -2.962   0.375  0.00  0.00     0.172 C 
ATOM      2  N   UNL d   1      -0.345  -1.550   0.075  0.00  0.00    -0.070 N 
ATOM      3  C1  UNL d   1      -0.773  -0.556   0.916  0.00  0.00    -0.004 A 
ATOM      4  C2  UNL d   1      -0.613   0.647   0.263  0.00  0.00    -0.047 A 
ATOM      5  C3  UNL d   1      -0.073   0.367  -1.015  0.00  0.00    -0.047 A 
ATOM      6  C4  UNL d   1       0.083  -1.001  -1.104  0.00  0.00    -0.004 A 
ENDROOT
TORSDOF 0
ENDMDL
