MODEL 1
REMARK minimizedAffinity -1.67367208
REMARK minimizedRMSD -1
REMARK  0 active torsions:
REMARK  status: ('A' for Active; 'I' for Inactive)
ROOT
ATOM      1  C   UNL d   1      -0.457   0.596  -0.526  0.00  0.00     0.172 C 
ATOM      2  N   UNL d   1      -0.815  -0.432   0.423  0.00  0.00    -0.070 N 
ATOM      3  C1  UNL d   1      -1.177  -0.224   1.727  0.00  0.00    -0.004 A 
ATOM      4  C2  UNL d   1      -1.440  -1.452   2.293  0.00  0.00    -0.047 A 
ATOM      5  C3  UNL d   1      -1.227  -2.433   1.295  0.00  0.00    -0.047 A 
ATOM      6  C4  UNL d   1      -0.841  -1.774   0.148  0.00  0.00    -0.004 A 
ENDROOT
TORSDOF 0
ENDMDL
