MODEL 1
REMARK minimizedAffinity -1.35360312
REMARK minimizedRMSD -1
REMARK  1 active torsions:
REMARK  status: ('A' for Active; 'I' for Inactive)
REMARK    1  A    between atoms: C1_2  and  C2_3 
ROOT
ATOM      1  C2  UNL d   1       0.758   0.271  -0.131  0.00  0.00    -0.076 A 
ATOM      2  C3  UNL d   1       0.120  -0.211   1.026  0.00  0.00     0.004 A 
ATOM      3  C4  UNL d   1       0.848  -0.817   2.048  0.00  0.00    -0.003 A 
ATOM      4  C5  UNL d   1       2.227  -0.951   1.930  0.00  0.00     0.000 A 
ATOM      5  C6  UNL d   1       2.879  -0.463   0.798  0.00  0.00     0.000 A 
ATOM      6  C7  UNL d   1       2.161   0.165  -0.234  0.00  0.00    -0.073 A 
ATOM      7  C8  UNL d   1       2.915   0.667  -1.435  0.00  0.00     0.078 C 
ENDROOT
BRANCH   1   8
ATOM      8  C1  UNL d   1      -0.088   0.895  -1.218  0.00  0.00     0.053 C 
ATOM      9  C   UNL d   1      -0.888  -0.137  -1.997  0.00  0.00     0.018 C 
ENDBRANCH   1   8
TORSDOF 1
ENDMDL
