MODEL 1
REMARK minimizedAffinity -5.75392389
REMARK minimizedRMSD -1
REMARK  1 active torsions:
REMARK  status: ('A' for Active; 'I' for Inactive)
REMARK    1  A    between atoms: C1_2  and  C2_3 
ROOT
ATOM      1  C2  UNL d   1       0.317  -0.221   0.180  0.00  0.00    -0.076 A 
ATOM      2  C3  UNL d   1       1.530  -0.418  -0.502  0.00  0.00     0.004 A 
ATOM      3  C4  UNL d   1       2.325  -1.533  -0.244  0.00  0.00    -0.003 A 
ATOM      4  C5  UNL d   1       1.921  -2.469   0.701  0.00  0.00     0.000 A 
ATOM      5  C6  UNL d   1       0.712  -2.299   1.374  0.00  0.00     0.000 A 
ATOM      6  C7  UNL d   1      -0.110  -1.189   1.114  0.00  0.00    -0.073 A 
ATOM      7  C8  UNL d   1      -1.401  -1.052   1.874  0.00  0.00     0.078 C 
ENDROOT
BRANCH   1   8
ATOM      8  C1  UNL d   1      -0.491   1.021  -0.122  0.00  0.00     0.053 C 
ATOM      9  C   UNL d   1      -0.991   1.056  -1.558  0.00  0.00     0.018 C 
ENDBRANCH   1   8
TORSDOF 1
ENDMDL
