MODEL 1
REMARK minimizedAffinity -2.69369793
REMARK minimizedRMSD -1
REMARK  1 active torsions:
REMARK  status: ('A' for Active; 'I' for Inactive)
REMARK    1  A    between atoms: C1_2  and  C2_3 
ROOT
ATOM      1  C2  UNL d   1       0.588   0.185   0.607  0.00  0.00    -0.076 A 
ATOM      2  C3  UNL d   1       1.901   0.164   0.107  0.00  0.00     0.004 A 
ATOM      3  C4  UNL d   1       2.717  -0.953   0.279  0.00  0.00    -0.003 A 
ATOM      4  C5  UNL d   1       2.232  -2.067   0.954  0.00  0.00     0.000 A 
ATOM      5  C6  UNL d   1       0.926  -2.071   1.442  0.00  0.00     0.000 A 
ATOM      6  C7  UNL d   1       0.085  -0.959   1.262  0.00  0.00    -0.073 A 
ATOM      7  C8  UNL d   1      -1.314  -1.015   1.814  0.00  0.00     0.078 C 
ENDROOT
BRANCH   1   8
ATOM      8  C1  UNL d   1      -0.241   1.435   0.414  0.00  0.00     0.053 C 
ATOM      9  C   UNL d   1      -0.888   1.498  -0.961  0.00  0.00     0.018 C 
ENDBRANCH   1   8
TORSDOF 1
ENDMDL
