MODEL 1
REMARK minimizedAffinity -4.8505764
REMARK minimizedRMSD -1
REMARK  1 active torsions:
REMARK  status: ('A' for Active; 'I' for Inactive)
REMARK    1  A    between atoms: C1_2  and  C2_3 
ROOT
ATOM      1  C2  UNL d   1       0.423  -0.177  -0.034  0.00  0.00    -0.076 A 
ATOM      2  C3  UNL d   1      -0.191  -1.429   0.147  0.00  0.00     0.004 A 
ATOM      3  C4  UNL d   1       0.568  -2.572   0.391  0.00  0.00    -0.003 A 
ATOM      4  C5  UNL d   1       1.954  -2.482   0.459  0.00  0.00     0.000 A 
ATOM      5  C6  UNL d   1       2.579  -1.246   0.300  0.00  0.00     0.000 A 
ATOM      6  C7  UNL d   1       1.828  -0.081   0.069  0.00  0.00    -0.073 A 
ATOM      7  C8  UNL d   1       2.554   1.225  -0.102  0.00  0.00     0.078 C 
ENDROOT
BRANCH   1   8
ATOM      8  C1  UNL d   1      -0.450   1.023  -0.323  0.00  0.00     0.053 C 
ATOM      9  C   UNL d   1      -1.056   0.981  -1.717  0.00  0.00     0.018 C 
ENDBRANCH   1   8
TORSDOF 1
ENDMDL
