MODEL 1
REMARK minimizedAffinity -5.70897055
REMARK minimizedRMSD -1
REMARK  1 active torsions:
REMARK  status: ('A' for Active; 'I' for Inactive)
REMARK    1  A    between atoms: C1_2  and  C2_3 
ROOT
ATOM      1  C2  UNL d   1       0.421  -0.073   0.512  0.00  0.00    -0.076 A 
ATOM      2  C3  UNL d   1       1.605  -0.473  -0.132  0.00  0.00     0.004 A 
ATOM      3  C4  UNL d   1       2.256  -1.651   0.230  0.00  0.00    -0.003 A 
ATOM      4  C5  UNL d   1       1.733  -2.449   1.242  0.00  0.00     0.000 A 
ATOM      5  C6  UNL d   1       0.550  -2.077   1.879  0.00  0.00     0.000 A 
ATOM      6  C7  UNL d   1      -0.127  -0.901   1.515  0.00  0.00    -0.073 A 
ATOM      7  C8  UNL d   1      -1.396  -0.544   2.240  0.00  0.00     0.078 C 
ENDROOT
BRANCH   1   8
ATOM      8  C1  UNL d   1      -0.226   1.228   0.095  0.00  0.00     0.053 C 
ATOM      9  C   UNL d   1      -0.751   1.187  -1.332  0.00  0.00     0.018 C 
ENDBRANCH   1   8
TORSDOF 1
ENDMDL
