MODEL 1
REMARK minimizedAffinity -1.58057499
REMARK minimizedRMSD -1
REMARK  1 active torsions:
REMARK  status: ('A' for Active; 'I' for Inactive)
REMARK    1  A    between atoms: C1_2  and  C2_3 
ROOT
ATOM      1  C2  UNL d   1      -1.215   0.921  -1.457  0.00  0.00    -0.076 A 
ATOM      2  C3  UNL d   1      -2.564   1.053  -1.084  0.00  0.00     0.004 A 
ATOM      3  C4  UNL d   1      -3.559   1.231  -2.044  0.00  0.00    -0.003 A 
ATOM      4  C5  UNL d   1      -3.222   1.278  -3.392  0.00  0.00     0.000 A 
ATOM      5  C6  UNL d   1      -1.891   1.131  -3.781  0.00  0.00     0.000 A 
ATOM      6  C7  UNL d   1      -0.877   0.935  -2.827  0.00  0.00    -0.073 A 
ATOM      7  C8  UNL d   1       0.543   0.788  -3.302  0.00  0.00     0.078 C 
ENDROOT
BRANCH   1   8
ATOM      8  C1  UNL d   1      -0.176   0.758  -0.370  0.00  0.00     0.053 C 
ATOM      9  C   UNL d   1      -0.307  -0.566   0.367  0.00  0.00     0.018 C 
ENDBRANCH   1   8
TORSDOF 1
ENDMDL
