MODEL 1
REMARK minimizedAffinity -3.51618314
REMARK minimizedRMSD -1
REMARK  1 active torsions:
REMARK  status: ('A' for Active; 'I' for Inactive)
REMARK    1  A    between atoms: C1_2  and  C2_3 
ROOT
ATOM      1  C2  UNL d   1       0.551   0.015   0.261  0.00  0.00    -0.076 A 
ATOM      2  C3  UNL d   1       0.019  -1.272   0.454  0.00  0.00     0.004 A 
ATOM      3  C4  UNL d   1       0.847  -2.352   0.755  0.00  0.00    -0.003 A 
ATOM      4  C5  UNL d   1       2.220  -2.163   0.868  0.00  0.00     0.000 A 
ATOM      5  C6  UNL d   1       2.763  -0.890   0.697  0.00  0.00     0.000 A 
ATOM      6  C7  UNL d   1       1.941   0.213   0.410  0.00  0.00    -0.073 A 
ATOM      7  C8  UNL d   1       2.580   1.562   0.229  0.00  0.00     0.078 C 
ENDROOT
BRANCH   1   8
ATOM      8  C1  UNL d   1      -0.392   1.143  -0.091  0.00  0.00     0.053 C 
ATOM      9  C   UNL d   1      -0.795   1.131  -1.557  0.00  0.00     0.018 C 
ENDBRANCH   1   8
TORSDOF 1
ENDMDL
