MODEL 1
REMARK minimizedAffinity -3.49132061
REMARK minimizedRMSD -1
REMARK  1 active torsions:
REMARK  status: ('A' for Active; 'I' for Inactive)
REMARK    1  A    between atoms: C1_2  and  C2_3 
ROOT
ATOM      1  C2  UNL d   1       0.947  -0.764   0.595  0.00  0.00    -0.076 A 
ATOM      2  C3  UNL d   1       1.544   0.154  -0.286  0.00  0.00     0.004 A 
ATOM      3  C4  UNL d   1       0.847   1.275  -0.735  0.00  0.00    -0.003 A 
ATOM      4  C5  UNL d   1      -0.459   1.495  -0.310  0.00  0.00     0.000 A 
ATOM      5  C6  UNL d   1      -1.061   0.603   0.577  0.00  0.00     0.000 A 
ATOM      6  C7  UNL d   1      -0.366  -0.522   1.052  0.00  0.00    -0.073 A 
ATOM      7  C8  UNL d   1      -1.066  -1.454   2.003  0.00  0.00     0.078 C 
ENDROOT
BRANCH   1   8
ATOM      8  C1  UNL d   1       1.742  -1.976   1.026  0.00  0.00     0.053 C 
ATOM      9  C   UNL d   1       3.086  -1.604   1.634  0.00  0.00     0.018 C 
ENDBRANCH   1   8
TORSDOF 1
ENDMDL
