MODEL 1
REMARK minimizedAffinity -3.97234297
REMARK minimizedRMSD -1
REMARK  1 active torsions:
REMARK  status: ('A' for Active; 'I' for Inactive)
REMARK    1  A    between atoms: C1_2  and  C2_3 
ROOT
ATOM      1  C2  UNL d   1       0.619  -0.143  -0.186  0.00  0.00    -0.076 A 
ATOM      2  C3  UNL d   1      -0.036  -1.127   0.575  0.00  0.00     0.004 A 
ATOM      3  C4  UNL d   1       0.673  -2.180   1.150  0.00  0.00    -0.003 A 
ATOM      4  C5  UNL d   1       2.050  -2.266   0.974  0.00  0.00     0.000 A 
ATOM      5  C6  UNL d   1       2.719  -1.290   0.236  0.00  0.00     0.000 A 
ATOM      6  C7  UNL d   1       2.021  -0.212  -0.336  0.00  0.00    -0.073 A 
ATOM      7  C8  UNL d   1       2.792   0.809  -1.126  0.00  0.00     0.078 C 
ENDROOT
BRANCH   1   8
ATOM      8  C1  UNL d   1      -0.206   0.961  -0.807  0.00  0.00     0.053 C 
ATOM      9  C   UNL d   1      -1.333   0.426  -1.679  0.00  0.00     0.018 C 
ENDBRANCH   1   8
TORSDOF 1
ENDMDL
