MODEL 1
REMARK minimizedAffinity -4.94475842
REMARK minimizedRMSD -1
REMARK  1 active torsions:
REMARK  status: ('A' for Active; 'I' for Inactive)
REMARK    1  A    between atoms: C1_2  and  C2_3 
ROOT
ATOM      1  C2  UNL d   1      -0.009  -0.280   0.259  0.00  0.00    -0.076 A 
ATOM      2  C3  UNL d   1       1.258  -0.370  -0.343  0.00  0.00     0.004 A 
ATOM      3  C4  UNL d   1       2.147  -1.386   0.005  0.00  0.00    -0.003 A 
ATOM      4  C5  UNL d   1       1.784  -2.328   0.960  0.00  0.00     0.000 A 
ATOM      5  C6  UNL d   1       0.524  -2.264   1.555  0.00  0.00     0.000 A 
ATOM      6  C7  UNL d   1      -0.390  -1.257   1.204  0.00  0.00    -0.073 A 
ATOM      7  C8  UNL d   1      -1.733  -1.232   1.881  0.00  0.00     0.078 C 
ENDROOT
BRANCH   1   8
ATOM      8  C1  UNL d   1      -0.920   0.859  -0.139  0.00  0.00     0.053 C 
ATOM      9  C   UNL d   1      -1.309   0.808  -1.609  0.00  0.00     0.018 C 
ENDBRANCH   1   8
TORSDOF 1
ENDMDL
