MODEL 1
REMARK minimizedAffinity -1.30626571
REMARK minimizedRMSD -1
REMARK  1 active torsions:
REMARK  status: ('A' for Active; 'I' for Inactive)
REMARK    1  A    between atoms: C1_2  and  C2_3 
ROOT
ATOM      1  C2  UNL d   1       0.460  -0.345   0.486  0.00  0.00    -0.076 A 
ATOM      2  C3  UNL d   1       0.170  -0.924   1.734  0.00  0.00     0.004 A 
ATOM      3  C4  UNL d   1      -0.965  -0.551   2.452  0.00  0.00    -0.003 A 
ATOM      4  C5  UNL d   1      -1.829   0.408   1.933  0.00  0.00     0.000 A 
ATOM      5  C6  UNL d   1      -1.566   0.980   0.689  0.00  0.00     0.000 A 
ATOM      6  C7  UNL d   1      -0.435   0.603  -0.055  0.00  0.00    -0.073 A 
ATOM      7  C8  UNL d   1      -0.197   1.257  -1.388  0.00  0.00     0.078 C 
ENDROOT
BRANCH   1   8
ATOM      8  C1  UNL d   1       1.720  -0.770  -0.234  0.00  0.00     0.053 C 
ATOM      9  C   UNL d   1       2.417  -1.936   0.450  0.00  0.00     0.018 C 
ENDBRANCH   1   8
TORSDOF 1
ENDMDL
