MODEL 1
REMARK minimizedAffinity -3.14419937
REMARK minimizedRMSD -1
REMARK  1 active torsions:
REMARK  status: ('A' for Active; 'I' for Inactive)
REMARK    1  A    between atoms: C1_2  and  C2_3 
ROOT
ATOM      1  C2  UNL d   1       0.483  -0.069   0.284  0.00  0.00    -0.076 A 
ATOM      2  C3  UNL d   1      -0.112  -1.339   0.178  0.00  0.00     0.004 A 
ATOM      3  C4  UNL d   1       0.629  -2.499   0.399  0.00  0.00    -0.003 A 
ATOM      4  C5  UNL d   1       1.976  -2.408   0.732  0.00  0.00     0.000 A 
ATOM      5  C6  UNL d   1       2.578  -1.157   0.859  0.00  0.00     0.000 A 
ATOM      6  C7  UNL d   1       1.841   0.023   0.655  0.00  0.00    -0.073 A 
ATOM      7  C8  UNL d   1       2.543   1.346   0.800  0.00  0.00     0.078 C 
ENDROOT
BRANCH   1   8
ATOM      8  C1  UNL d   1      -0.363   1.152   0.006  0.00  0.00     0.053 C 
ATOM      9  C   UNL d   1      -0.710   1.298  -1.467  0.00  0.00     0.018 C 
ENDBRANCH   1   8
TORSDOF 1
ENDMDL
