MODEL 1
REMARK minimizedAffinity -4.92547131
REMARK minimizedRMSD -1
REMARK  1 active torsions:
REMARK  status: ('A' for Active; 'I' for Inactive)
REMARK    1  A    between atoms: C1_2  and  C2_3 
ROOT
ATOM      1  C2  UNL d   1       0.086  -0.055   0.268  0.00  0.00    -0.076 A 
ATOM      2  C3  UNL d   1       1.270  -0.078  -0.491  0.00  0.00     0.004 A 
ATOM      3  C4  UNL d   1       2.171  -1.136  -0.384  0.00  0.00    -0.003 A 
ATOM      4  C5  UNL d   1       1.903  -2.189   0.484  0.00  0.00     0.000 A 
ATOM      5  C6  UNL d   1       0.725  -2.192   1.231  0.00  0.00     0.000 A 
ATOM      6  C7  UNL d   1      -0.202  -1.141   1.122  0.00  0.00    -0.073 A 
ATOM      7  C8  UNL d   1      -1.452  -1.192   1.956  0.00  0.00     0.078 C 
ENDROOT
BRANCH   1   8
ATOM      8  C1  UNL d   1      -0.840   1.132   0.129  0.00  0.00     0.053 C 
ATOM      9  C   UNL d   1      -1.378   1.289  -1.284  0.00  0.00     0.018 C 
ENDBRANCH   1   8
TORSDOF 1
ENDMDL
