MODEL 1
REMARK minimizedAffinity 21.2302513
REMARK minimizedRMSD -1
REMARK  0 active torsions:
REMARK  status: ('A' for Active; 'I' for Inactive)
ROOT
ATOM      1  N1  IND d   1       3.515   1.196   2.196  0.00  0.00    -0.196 N 
ATOM      2  C2  IND d   1       3.329   0.983   0.858  0.00  0.00     0.054 A 
ATOM      3  C3  IND d   1       2.009   0.968   0.564  0.00  0.00    -0.031 A 
ATOM      4  C4  IND d   1      -0.014   1.373   2.103  0.00  0.00     0.051 A 
ATOM      5  C5  IND d   1      -0.349   1.572   3.413  0.00  0.00    -0.031 A 
ATOM      6  C6  IND d   1       0.608   1.661   4.404  0.00  0.00     0.015 A 
ATOM      7  C7  IND d   1       1.940   1.564   4.119  0.00  0.00    -0.016 A 
ATOM      8  C8  IND d   1       2.283   1.355   2.790  0.00  0.00    -0.047 A 
ATOM      9  C9  IND d   1       1.315   1.222   1.786  0.00  0.00    -0.096 A 
ATOM     10  HN1 IND d   1       4.275   1.226   2.598  0.00  0.00     0.298 HD
ENDROOT
TORSDOF 0
ENDMDL
