MODEL 1
REMARK minimizedAffinity 12.8625622
REMARK minimizedRMSD -1
REMARK  0 active torsions:
REMARK  status: ('A' for Active; 'I' for Inactive)
ROOT
ATOM      1  N1  IND d   1       2.318  -2.290   0.094  0.00  0.00    -0.196 N 
ATOM      2  C2  IND d   1       1.223  -2.385  -0.720  0.00  0.00     0.054 A 
ATOM      3  C3  IND d   1       1.109  -1.277  -1.486  0.00  0.00    -0.031 A 
ATOM      4  C4  IND d   1       2.663   0.770  -1.642  0.00  0.00     0.051 A 
ATOM      5  C5  IND d   1       3.771   1.327  -1.069  0.00  0.00    -0.031 A 
ATOM      6  C6  IND d   1       4.467   0.693  -0.060  0.00  0.00     0.015 A 
ATOM      7  C7  IND d   1       4.086  -0.532   0.407  0.00  0.00    -0.016 A 
ATOM      8  C8  IND d   1       2.957  -1.098  -0.168  0.00  0.00    -0.047 A 
ATOM      9  C9  IND d   1       2.222  -0.441  -1.162  0.00  0.00    -0.096 A 
ATOM     10  HN1 IND d   1       2.566  -2.877   0.672  0.00  0.00     0.298 HD
ENDROOT
TORSDOF 0
ENDMDL
