MODEL 1
REMARK minimizedAffinity 16.1065388
REMARK minimizedRMSD -1
REMARK  0 active torsions:
REMARK  status: ('A' for Active; 'I' for Inactive)
ROOT
ATOM      1  N1  IND d   1       4.534  -2.294   1.090  0.00  0.00    -0.196 N 
ATOM      2  C2  IND d   1       3.744  -3.326   0.667  0.00  0.00     0.054 A 
ATOM      3  C3  IND d   1       2.544  -2.861   0.253  0.00  0.00    -0.031 A 
ATOM      4  C4  IND d   1       1.698  -0.435   0.090  0.00  0.00     0.051 A 
ATOM      5  C5  IND d   1       2.047   0.850   0.395  0.00  0.00    -0.031 A 
ATOM      6  C6  IND d   1       3.269   1.160   0.956  0.00  0.00     0.015 A 
ATOM      7  C7  IND d   1       4.196   0.193   1.224  0.00  0.00    -0.016 A 
ATOM      8  C8  IND d   1       3.842  -1.115   0.922  0.00  0.00    -0.047 A 
ATOM      9  C9  IND d   1       2.586  -1.440   0.392  0.00  0.00    -0.096 A 
ATOM     10  HN1 IND d   1       5.329  -2.368   1.408  0.00  0.00     0.298 HD
ENDROOT
TORSDOF 0
ENDMDL
