MODEL 1
REMARK minimizedAffinity 11.4019833
REMARK minimizedRMSD -1
REMARK  0 active torsions:
REMARK  status: ('A' for Active; 'I' for Inactive)
ROOT
ATOM      1  N1  IND d   1      -3.375   1.961   3.850  0.00  0.00    -0.196 N 
ATOM      2  C2  IND d   1      -4.261   1.173   3.169  0.00  0.00     0.054 A 
ATOM      3  C3  IND d   1      -3.618   0.445   2.230  0.00  0.00    -0.031 A 
ATOM      4  C4  IND d   1      -1.101   0.312   1.703  0.00  0.00     0.051 A 
ATOM      5  C5  IND d   1       0.100   0.874   2.034  0.00  0.00    -0.031 A 
ATOM      6  C6  IND d   1       0.206   1.845   3.010  0.00  0.00     0.015 A 
ATOM      7  C7  IND d   1      -0.888   2.283   3.701  0.00  0.00    -0.016 A 
ATOM      8  C8  IND d   1      -2.110   1.720   3.362  0.00  0.00    -0.047 A 
ATOM      9  C9  IND d   1      -2.230   0.766   2.344  0.00  0.00    -0.096 A 
ATOM     10  HN1 IND d   1      -3.575   2.514   4.478  0.00  0.00     0.298 HD
ENDROOT
TORSDOF 0
ENDMDL
