MODEL 1
REMARK minimizedAffinity 13.0249434
REMARK minimizedRMSD -1
REMARK  0 active torsions:
REMARK  status: ('A' for Active; 'I' for Inactive)
ROOT
ATOM      1  N1  IND d   1       4.152  -0.154   0.339  0.00  0.00    -0.196 N 
ATOM      2  C2  IND d   1       2.909   0.284  -0.025  0.00  0.00     0.054 A 
ATOM      3  C3  IND d   1       2.060  -0.760  -0.149  0.00  0.00    -0.031 A 
ATOM      4  C4  IND d   1       2.469  -3.263   0.295  0.00  0.00     0.051 A 
ATOM      5  C5  IND d   1       3.456  -4.153   0.612  0.00  0.00    -0.031 A 
ATOM      6  C6  IND d   1       4.751  -3.748   0.861  0.00  0.00     0.015 A 
ATOM      7  C7  IND d   1       5.106  -2.429   0.814  0.00  0.00    -0.016 A 
ATOM      8  C8  IND d   1       4.108  -1.523   0.486  0.00  0.00    -0.047 A 
ATOM      9  C9  IND d   1       2.801  -1.933   0.191  0.00  0.00    -0.096 A 
ATOM     10  HN1 IND d   1       4.844   0.342   0.456  0.00  0.00     0.298 HD
ENDROOT
TORSDOF 0
ENDMDL
