MODEL 1
REMARK minimizedAffinity 18.9009304
REMARK minimizedRMSD -1
REMARK  0 active torsions:
REMARK  status: ('A' for Active; 'I' for Inactive)
ROOT
ATOM      1  N1  IND d   1      -3.436   2.313   3.587  0.00  0.00    -0.196 N 
ATOM      2  C2  IND d   1      -4.261   1.319   3.141  0.00  0.00     0.054 A 
ATOM      3  C3  IND d   1      -3.564   0.424   2.406  0.00  0.00    -0.031 A 
ATOM      4  C4  IND d   1      -1.043   0.338   1.892  0.00  0.00     0.051 A 
ATOM      5  C5  IND d   1       0.114   1.048   2.053  0.00  0.00    -0.031 A 
ATOM      6  C6  IND d   1       0.148   2.239   2.750  0.00  0.00     0.015 A 
ATOM      7  C7  IND d   1      -0.977   2.760   3.324  0.00  0.00    -0.016 A 
ATOM      8  C8  IND d   1      -2.155   2.046   3.157  0.00  0.00    -0.047 A 
ATOM      9  C9  IND d   1      -2.204   0.859   2.414  0.00  0.00    -0.096 A 
ATOM     10  HN1 IND d   1      -3.676   2.991   4.058  0.00  0.00     0.298 HD
ENDROOT
TORSDOF 0
ENDMDL
