MODEL 1
REMARK minimizedAffinity 14.4171228
REMARK minimizedRMSD -1
REMARK  0 active torsions:
REMARK  status: ('A' for Active; 'I' for Inactive)
ROOT
ATOM      1  N1  IND d   1       1.085   0.752   2.404  0.00  0.00    -0.196 N 
ATOM      2  C2  IND d   1       0.053   1.204   1.630  0.00  0.00     0.054 A 
ATOM      3  C3  IND d   1      -0.816   1.921   2.377  0.00  0.00    -0.031 A 
ATOM      4  C4  IND d   1      -0.689   2.565   4.866  0.00  0.00     0.051 A 
ATOM      5  C5  IND d   1       0.049   2.355   5.997  0.00  0.00    -0.031 A 
ATOM      6  C6  IND d   1       1.195   1.586   5.987  0.00  0.00     0.015 A 
ATOM      7  C7  IND d   1       1.654   1.006   4.838  0.00  0.00    -0.016 A 
ATOM      8  C8  IND d   1       0.903   1.212   3.690  0.00  0.00    -0.047 A 
ATOM      9  C9  IND d   1      -0.284   1.956   3.702  0.00  0.00    -0.096 A 
ATOM     10  HN1 IND d   1       1.739   0.264   2.133  0.00  0.00     0.298 HD
ENDROOT
TORSDOF 0
ENDMDL
