MODEL 1
REMARK minimizedAffinity 11.3538265
REMARK minimizedRMSD -1
REMARK  0 active torsions:
REMARK  status: ('A' for Active; 'I' for Inactive)
ROOT
ATOM      1  N1  IND d   1      -2.524   0.069   1.146  0.00  0.00    -0.196 N 
ATOM      2  C2  IND d   1      -3.410   0.568   2.060  0.00  0.00     0.054 A 
ATOM      3  C3  IND d   1      -2.769   1.351   2.956  0.00  0.00    -0.031 A 
ATOM      4  C4  IND d   1      -0.290   2.037   3.053  0.00  0.00     0.051 A 
ATOM      5  C5  IND d   1       0.916   1.805   2.453  0.00  0.00    -0.031 A 
ATOM      6  C6  IND d   1       1.039   0.968   1.363  0.00  0.00     0.015 A 
ATOM      7  C7  IND d   1      -0.046   0.337   0.823  0.00  0.00    -0.016 A 
ATOM      8  C8  IND d   1      -1.271   0.565   1.434  0.00  0.00    -0.047 A 
ATOM      9  C9  IND d   1      -1.396   1.380   2.566  0.00  0.00    -0.096 A 
ATOM     10  HN1 IND d   1      -2.717  -0.464   0.499  0.00  0.00     0.298 HD
ENDROOT
TORSDOF 0
ENDMDL
