MODEL 1
REMARK minimizedAffinity 9.15953541
REMARK minimizedRMSD -1
REMARK  0 active torsions:
REMARK  status: ('A' for Active; 'I' for Inactive)
ROOT
ATOM      1  N1  IND d   1       4.477  -1.982   0.936  0.00  0.00    -0.196 N 
ATOM      2  C2  IND d   1       3.759  -3.061   0.503  0.00  0.00     0.054 A 
ATOM      3  C3  IND d   1       2.656  -2.654  -0.165  0.00  0.00    -0.031 A 
ATOM      4  C4  IND d   1       1.888  -0.269  -0.756  0.00  0.00     0.051 A 
ATOM      5  C5  IND d   1       2.198   1.045  -0.545  0.00  0.00    -0.031 A 
ATOM      6  C6  IND d   1       3.307   1.425   0.182  0.00  0.00     0.015 A 
ATOM      7  C7  IND d   1       4.158   0.501   0.719  0.00  0.00    -0.016 A 
ATOM      8  C8  IND d   1       3.843  -0.834   0.513  0.00  0.00    -0.047 A 
ATOM      9  C9  IND d   1       2.695  -1.227  -0.188  0.00  0.00    -0.096 A 
ATOM     10  HN1 IND d   1       5.204  -2.014   1.395  0.00  0.00     0.298 HD
ENDROOT
TORSDOF 0
ENDMDL
