MODEL 1
REMARK minimizedAffinity 8.73569298
REMARK minimizedRMSD -1
REMARK  0 active torsions:
REMARK  status: ('A' for Active; 'I' for Inactive)
ROOT
ATOM      1  N1  IND d   1       4.750  -0.647   0.226  0.00  0.00    -0.196 N 
ATOM      2  C2  IND d   1       4.367  -1.924   0.527  0.00  0.00     0.054 A 
ATOM      3  C3  IND d   1       3.137  -2.177   0.025  0.00  0.00    -0.031 A 
ATOM      4  C4  IND d   1       1.616  -0.675  -1.410  0.00  0.00     0.051 A 
ATOM      5  C5  IND d   1       1.519   0.591  -1.915  0.00  0.00    -0.031 A 
ATOM      6  C6  IND d   1       2.516   1.528  -1.731  0.00  0.00     0.015 A 
ATOM      7  C7  IND d   1       3.657   1.228  -1.041  0.00  0.00    -0.016 A 
ATOM      8  C8  IND d   1       3.755  -0.055  -0.521  0.00  0.00    -0.047 A 
ATOM      9  C9  IND d   1       2.728  -0.996  -0.668  0.00  0.00    -0.096 A 
ATOM     10  HN1 IND d   1       5.489  -0.276   0.463  0.00  0.00     0.298 HD
ENDROOT
TORSDOF 0
ENDMDL
