MODEL 1
REMARK minimizedAffinity 20.1097736
REMARK minimizedRMSD -1
REMARK  0 active torsions:
REMARK  status: ('A' for Active; 'I' for Inactive)
ROOT
ATOM      1  N1  IND d   1       0.117  -2.582  -3.193  0.00  0.00    -0.196 N 
ATOM      2  C2  IND d   1       0.279  -3.933  -3.059  0.00  0.00     0.054 A 
ATOM      3  C3  IND d   1       1.093  -4.207  -2.015  0.00  0.00    -0.031 A 
ATOM      4  C4  IND d   1       2.188  -2.600  -0.329  0.00  0.00     0.051 A 
ATOM      5  C5  IND d   1       2.361  -1.271  -0.063  0.00  0.00    -0.031 A 
ATOM      6  C6  IND d   1       1.780  -0.291  -0.842  0.00  0.00     0.015 A 
ATOM      7  C7  IND d   1       0.992  -0.605  -1.913  0.00  0.00    -0.016 A 
ATOM      8  C8  IND d   1       0.821  -1.954  -2.189  0.00  0.00    -0.047 A 
ATOM      9  C9  IND d   1       1.442  -2.953  -1.428  0.00  0.00    -0.096 A 
ATOM     10  HN1 IND d   1      -0.348  -2.191  -3.802  0.00  0.00     0.298 HD
ENDROOT
TORSDOF 0
ENDMDL
