MODEL 1
REMARK minimizedAffinity 8.90723515
REMARK minimizedRMSD -1
REMARK  0 active torsions:
REMARK  status: ('A' for Active; 'I' for Inactive)
ROOT
ATOM      1  N1  IND d   1      -1.246   0.974   1.386  0.00  0.00    -0.196 N 
ATOM      2  C2  IND d   1      -1.347   1.645   2.572  0.00  0.00     0.054 A 
ATOM      3  C3  IND d   1      -0.120   1.985   3.026  0.00  0.00    -0.031 A 
ATOM      4  C4  IND d   1       2.184   1.631   1.934  0.00  0.00     0.051 A 
ATOM      5  C5  IND d   1       2.788   1.033   0.863  0.00  0.00    -0.031 A 
ATOM      6  C6  IND d   1       2.064   0.375  -0.109  0.00  0.00     0.015 A 
ATOM      7  C7  IND d   1       0.701   0.299  -0.052  0.00  0.00    -0.016 A 
ATOM      8  C8  IND d   1       0.084   0.898   1.037  0.00  0.00    -0.047 A 
ATOM      9  C9  IND d   1       0.818   1.531   2.049  0.00  0.00    -0.096 A 
ATOM     10  HN1 IND d   1      -1.903   0.653   0.933  0.00  0.00     0.298 HD
ENDROOT
TORSDOF 0
ENDMDL
