MODEL 1
REMARK minimizedAffinity 15.3489237
REMARK minimizedRMSD -1
REMARK  0 active torsions:
REMARK  status: ('A' for Active; 'I' for Inactive)
ROOT
ATOM      1  N1  IND d   1      -3.274  -2.327  -5.999  0.00  0.00    -0.196 N 
ATOM      2  C2  IND d   1      -4.598  -2.667  -6.000  0.00  0.00     0.054 A 
ATOM      3  C3  IND d   1      -4.855  -3.560  -5.018  0.00  0.00    -0.031 A 
ATOM      4  C4  IND d   1      -3.274  -4.524  -3.229  0.00  0.00     0.051 A 
ATOM      5  C5  IND d   1      -1.962  -4.538  -2.846  0.00  0.00    -0.031 A 
ATOM      6  C6  IND d   1      -1.001  -3.800  -3.507  0.00  0.00     0.015 A 
ATOM      7  C7  IND d   1      -1.320  -3.006  -4.572  0.00  0.00    -0.016 A 
ATOM      8  C8  IND d   1      -2.650  -2.994  -4.968  0.00  0.00    -0.047 A 
ATOM      9  C9  IND d   1      -3.622  -3.775  -4.328  0.00  0.00    -0.096 A 
ATOM     10  HN1 IND d   1      -2.894  -1.787  -6.550  0.00  0.00     0.298 HD
ENDROOT
TORSDOF 0
ENDMDL
