MODEL 1
REMARK minimizedAffinity 17.1735668
REMARK minimizedRMSD -1
REMARK  0 active torsions:
REMARK  status: ('A' for Active; 'I' for Inactive)
ROOT
ATOM      1  N1  IND d   1       1.488   0.303  -1.880  0.00  0.00    -0.196 N 
ATOM      2  C2  IND d   1       1.174  -0.856  -2.534  0.00  0.00     0.054 A 
ATOM      3  C3  IND d   1       1.910  -1.882  -2.051  0.00  0.00    -0.031 A 
ATOM      4  C4  IND d   1       3.613  -1.908  -0.120  0.00  0.00     0.051 A 
ATOM      5  C5  IND d   1       4.260  -1.083   0.756  0.00  0.00    -0.031 A 
ATOM      6  C6  IND d   1       4.008   0.273   0.802  0.00  0.00     0.015 A 
ATOM      7  C7  IND d   1       3.088   0.856  -0.023  0.00  0.00    -0.016 A 
ATOM      8  C8  IND d   1       2.435   0.022  -0.920  0.00  0.00    -0.047 A 
ATOM      9  C9  IND d   1       2.717  -1.348  -1.000  0.00  0.00    -0.096 A 
ATOM     10  HN1 IND d   1       1.150   1.077  -2.041  0.00  0.00     0.298 HD
ENDROOT
TORSDOF 0
ENDMDL
