MODEL 1
REMARK minimizedAffinity 9.2966013
REMARK minimizedRMSD -1
REMARK  0 active torsions:
REMARK  status: ('A' for Active; 'I' for Inactive)
ROOT
ATOM      1  N1  IND d   1      -4.712  -3.606  -4.771  0.00  0.00    -0.196 N 
ATOM      2  C2  IND d   1      -4.583  -2.841  -5.897  0.00  0.00     0.054 A 
ATOM      3  C3  IND d   1      -3.339  -2.318  -5.971  0.00  0.00    -0.031 A 
ATOM      4  C4  IND d   1      -1.322  -2.667  -4.409  0.00  0.00     0.051 A 
ATOM      5  C5  IND d   1      -0.964  -3.254  -3.228  0.00  0.00    -0.031 A 
ATOM      6  C6  IND d   1      -1.853  -4.005  -2.487  0.00  0.00     0.015 A 
ATOM      7  C7  IND d   1      -3.137  -4.208  -2.908  0.00  0.00    -0.016 A 
ATOM      8  C8  IND d   1      -3.507  -3.608  -4.103  0.00  0.00    -0.047 A 
ATOM      9  C9  IND d   1      -2.621  -2.809  -4.838  0.00  0.00    -0.096 A 
ATOM     10  HN1 IND d   1      -5.425  -4.016  -4.523  0.00  0.00     0.298 HD
ENDROOT
TORSDOF 0
ENDMDL
