MODEL 1
REMARK minimizedAffinity 13.9601851
REMARK minimizedRMSD -1
REMARK  0 active torsions:
REMARK  status: ('A' for Active; 'I' for Inactive)
ROOT
ATOM      1  N1  IND d   1      -3.530   1.923   2.825  0.00  0.00    -0.196 N 
ATOM      2  C2  IND d   1      -4.007   0.732   3.298  0.00  0.00     0.054 A 
ATOM      3  C3  IND d   1      -3.000  -0.162   3.421  0.00  0.00    -0.031 A 
ATOM      4  C4  IND d   1      -0.479   0.145   2.998  0.00  0.00     0.051 A 
ATOM      5  C5  IND d   1       0.431   1.046   2.521  0.00  0.00    -0.031 A 
ATOM      6  C6  IND d   1       0.061   2.312   2.116  0.00  0.00     0.015 A 
ATOM      7  C7  IND d   1      -1.238   2.730   2.183  0.00  0.00    -0.016 A 
ATOM      8  C8  IND d   1      -2.167   1.815   2.660  0.00  0.00    -0.047 A 
ATOM      9  C9  IND d   1      -1.803   0.514   3.032  0.00  0.00    -0.096 A 
ATOM     10  HN1 IND d   1      -4.003   2.621   2.658  0.00  0.00     0.298 HD
ENDROOT
TORSDOF 0
ENDMDL
