MODEL 1
REMARK minimizedAffinity 15.9706011
REMARK minimizedRMSD -1
REMARK  0 active torsions:
REMARK  status: ('A' for Active; 'I' for Inactive)
ROOT
ATOM      1  N1  IND d   1       4.838  -1.538   0.549  0.00  0.00    -0.196 N 
ATOM      2  C2  IND d   1       4.146  -2.711   0.427  0.00  0.00     0.054 A 
ATOM      3  C3  IND d   1       3.050  -2.533  -0.343  0.00  0.00    -0.031 A 
ATOM      4  C4  IND d   1       2.250  -0.426  -1.588  0.00  0.00     0.051 A 
ATOM      5  C5  IND d   1       2.533   0.901  -1.750  0.00  0.00    -0.031 A 
ATOM      6  C6  IND d   1       3.621   1.495  -1.144  0.00  0.00     0.015 A 
ATOM      7  C7  IND d   1       4.478   0.777  -0.359  0.00  0.00    -0.016 A 
ATOM      8  C8  IND d   1       4.191  -0.570  -0.186  0.00  0.00    -0.047 A 
ATOM      9  C9  IND d   1       3.064  -1.168  -0.764  0.00  0.00    -0.096 A 
ATOM     10  HN1 IND d   1       5.556  -1.425   1.009  0.00  0.00     0.298 HD
ENDROOT
TORSDOF 0
ENDMDL
