MODEL 1
REMARK minimizedAffinity 15.6731873
REMARK minimizedRMSD -1
REMARK  0 active torsions:
REMARK  status: ('A' for Active; 'I' for Inactive)
ROOT
ATOM      1  C   UNL d   1      -1.885  -2.185   0.558  0.00  0.00     0.020 A 
ATOM      2  C1  UNL d   1      -1.413  -3.438   0.167  0.00  0.00     0.020 A 
ATOM      3  C2  UNL d   1      -0.669  -4.213   1.059  0.00  0.00     0.034 A 
ATOM      4  C3  UNL d   1      -0.395  -3.737   2.346  0.00  0.00     0.017 A 
ATOM      5  C4  UNL d   1      -0.869  -2.479   2.738  0.00  0.00     0.017 A 
ATOM      6  C5  UNL d   1      -1.614  -1.707   1.841  0.00  0.00     0.034 A 
ATOM      7 Cl   UNL d   1      -0.571  -1.824   4.309  0.00  0.00    -0.070 Cl
ATOM      8 Cl1  UNL d   1       0.531  -4.749   3.397  0.00  0.00    -0.070 Cl
ENDROOT
TORSDOF 0
ENDMDL
