MODEL 1
REMARK minimizedAffinity 8.71463966
REMARK minimizedRMSD -1
REMARK  0 active torsions:
REMARK  status: ('A' for Active; 'I' for Inactive)
ROOT
ATOM      1  C   UNL d   1       5.376   0.429   5.999  0.00  0.00     0.020 A 
ATOM      2  C1  UNL d   1       5.724  -0.182   4.795  0.00  0.00     0.020 A 
ATOM      3  C2  UNL d   1       5.462   0.462   3.584  0.00  0.00     0.034 A 
ATOM      4  C3  UNL d   1       4.851   1.721   3.574  0.00  0.00     0.017 A 
ATOM      5  C4  UNL d   1       4.503   2.334   4.783  0.00  0.00     0.017 A 
ATOM      6  C5  UNL d   1       4.767   1.685   5.993  0.00  0.00     0.034 A 
ATOM      7 Cl   UNL d   1       3.746   3.887   4.851  0.00  0.00    -0.070 Cl
ATOM      8 Cl1  UNL d   1       4.557   2.460   2.040  0.00  0.00    -0.070 Cl
ENDROOT
TORSDOF 0
ENDMDL
