MODEL 1
REMARK minimizedAffinity 0.540890515
REMARK minimizedRMSD -1
REMARK  0 active torsions:
REMARK  status: ('A' for Active; 'I' for Inactive)
ROOT
ATOM      1  C   UNL d   1      -1.135  -2.103   2.918  0.00  0.00     0.020 A 
ATOM      2  C1  UNL d   1      -0.608  -3.394   2.944  0.00  0.00     0.020 A 
ATOM      3  C2  UNL d   1      -0.555  -4.150   1.771  0.00  0.00     0.034 A 
ATOM      4  C3  UNL d   1      -1.030  -3.616   0.567  0.00  0.00     0.017 A 
ATOM      5  C4  UNL d   1      -1.558  -2.321   0.542  0.00  0.00     0.017 A 
ATOM      6  C5  UNL d   1      -1.608  -1.567   1.719  0.00  0.00     0.034 A 
ATOM      7 Cl   UNL d   1      -2.162  -1.594  -0.905  0.00  0.00    -0.070 Cl
ATOM      8 Cl1  UNL d   1      -0.933  -4.608  -0.844  0.00  0.00    -0.070 Cl
ENDROOT
TORSDOF 0
ENDMDL
