MODEL 1
REMARK minimizedAffinity 15.1247416
REMARK minimizedRMSD -1
REMARK  0 active torsions:
REMARK  status: ('A' for Active; 'I' for Inactive)
ROOT
ATOM      1  C   UNL d   1      -5.460   6.000  -0.679  0.00  0.00     0.020 A 
ATOM      2  C1  UNL d   1      -4.205   5.637  -1.165  0.00  0.00     0.020 A 
ATOM      3  C2  UNL d   1      -3.482   4.618  -0.542  0.00  0.00     0.034 A 
ATOM      4  C3  UNL d   1      -4.015   3.957   0.571  0.00  0.00     0.017 A 
ATOM      5  C4  UNL d   1      -5.275   4.321   1.058  0.00  0.00     0.017 A 
ATOM      6  C5  UNL d   1      -5.994   5.343   0.430  0.00  0.00     0.034 A 
ATOM      7 Cl   UNL d   1      -5.998   3.552   2.426  0.00  0.00    -0.070 Cl
ATOM      8 Cl1  UNL d   1      -3.067   2.705   1.292  0.00  0.00    -0.070 Cl
ENDROOT
TORSDOF 0
ENDMDL
