MODEL 1
REMARK minimizedAffinity 4.93686104
REMARK minimizedRMSD -1
REMARK  0 active torsions:
REMARK  status: ('A' for Active; 'I' for Inactive)
ROOT
ATOM      1  C   UNL d   1      -6.000   4.793   1.699  0.00  0.00     0.020 A 
ATOM      2  C1  UNL d   1      -5.645   6.000   1.099  0.00  0.00     0.020 A 
ATOM      3  C2  UNL d   1      -4.901   6.000  -0.083  0.00  0.00     0.034 A 
ATOM      4  C3  UNL d   1      -4.509   4.790  -0.668  0.00  0.00     0.017 A 
ATOM      5  C4  UNL d   1      -4.865   3.579  -0.065  0.00  0.00     0.017 A 
ATOM      6  C5  UNL d   1      -5.611   3.585   1.119  0.00  0.00     0.034 A 
ATOM      7 Cl   UNL d   1      -4.419   2.047  -0.727  0.00  0.00    -0.070 Cl
ATOM      8 Cl1  UNL d   1      -3.591   4.865  -2.130  0.00  0.00    -0.070 Cl
ENDROOT
TORSDOF 0
ENDMDL
