MODEL 1
REMARK minimizedAffinity 20.2690907
REMARK minimizedRMSD -1
REMARK  0 active torsions:
REMARK  status: ('A' for Active; 'I' for Inactive)
ROOT
ATOM      1  C   UNL d   1      -2.240  -1.221  -0.355  0.00  0.00     0.020 A 
ATOM      2  C1  UNL d   1      -1.457  -2.171  -1.009  0.00  0.00     0.020 A 
ATOM      3  C2  UNL d   1      -0.751  -3.123  -0.270  0.00  0.00     0.034 A 
ATOM      4  C3  UNL d   1      -0.827  -3.126   1.128  0.00  0.00     0.017 A 
ATOM      5  C4  UNL d   1      -1.612  -2.171   1.784  0.00  0.00     0.017 A 
ATOM      6  C5  UNL d   1      -2.317  -1.221   1.039  0.00  0.00     0.034 A 
ATOM      7 Cl   UNL d   1      -1.755  -2.112   3.505  0.00  0.00    -0.070 Cl
ATOM      8 Cl1  UNL d   1       0.072  -4.332   1.978  0.00  0.00    -0.070 Cl
ENDROOT
TORSDOF 0
ENDMDL
