MODEL 1
REMARK minimizedAffinity 19.8197956
REMARK minimizedRMSD -1
REMARK  0 active torsions:
REMARK  status: ('A' for Active; 'I' for Inactive)
ROOT
ATOM      1  C   UNL d   1      -2.352  -2.171  -4.396  0.00  0.00     0.020 A 
ATOM      2  C1  UNL d   1      -1.099  -2.696  -4.083  0.00  0.00     0.020 A 
ATOM      3  C2  UNL d   1      -0.603  -2.590  -2.781  0.00  0.00     0.034 A 
ATOM      4  C3  UNL d   1      -1.360  -1.957  -1.789  0.00  0.00     0.017 A 
ATOM      5  C4  UNL d   1      -2.618  -1.429  -2.105  0.00  0.00     0.017 A 
ATOM      6  C5  UNL d   1      -3.110  -1.539  -3.409  0.00  0.00     0.034 A 
ATOM      7 Cl   UNL d   1      -3.610  -0.634  -0.934  0.00  0.00    -0.070 Cl
ATOM      8 Cl1  UNL d   1      -0.685  -1.861  -0.201  0.00  0.00    -0.070 Cl
ENDROOT
TORSDOF 0
ENDMDL
