MODEL 1
REMARK minimizedAffinity 14.7016125
REMARK minimizedRMSD -1
REMARK  0 active torsions:
REMARK  status: ('A' for Active; 'I' for Inactive)
ROOT
ATOM      1  C   UNL d   1      -1.638  -0.991   0.758  0.00  0.00     0.020 A 
ATOM      2  C1  UNL d   1      -2.571  -1.581  -0.094  0.00  0.00     0.020 A 
ATOM      3  C2  UNL d   1      -2.214  -1.904  -1.405  0.00  0.00     0.034 A 
ATOM      4  C3  UNL d   1      -0.921  -1.637  -1.868  0.00  0.00     0.017 A 
ATOM      5  C4  UNL d   1       0.015  -1.044  -1.012  0.00  0.00     0.017 A 
ATOM      6  C5  UNL d   1      -0.348  -0.724   0.299  0.00  0.00     0.034 A 
ATOM      7 Cl   UNL d   1       1.630  -0.684  -1.512  0.00  0.00    -0.070 Cl
ATOM      8 Cl1  UNL d   1      -0.549  -2.062  -3.501  0.00  0.00    -0.070 Cl
ENDROOT
TORSDOF 0
ENDMDL
