MODEL 1
REMARK minimizedAffinity 15.3235741
REMARK minimizedRMSD -1
REMARK  0 active torsions:
REMARK  status: ('A' for Active; 'I' for Inactive)
ROOT
ATOM      1  C   UNL d   1      -4.014  -1.132   0.131  0.00  0.00     0.020 A 
ATOM      2  C1  UNL d   1      -3.222  -2.278   0.181  0.00  0.00     0.020 A 
ATOM      3  C2  UNL d   1      -2.423  -2.622  -0.911  0.00  0.00     0.034 A 
ATOM      4  C3  UNL d   1      -2.413  -1.818  -2.058  0.00  0.00     0.017 A 
ATOM      5  C4  UNL d   1      -3.209  -0.668  -2.106  0.00  0.00     0.017 A 
ATOM      6  C5  UNL d   1      -4.007  -0.328  -1.010  0.00  0.00     0.034 A 
ATOM      7 Cl   UNL d   1      -3.250   0.373  -3.485  0.00  0.00    -0.070 Cl
ATOM      8 Cl1  UNL d   1      -1.400  -2.303  -3.371  0.00  0.00    -0.070 Cl
ENDROOT
TORSDOF 0
ENDMDL
