MODEL 1
REMARK minimizedAffinity 16.0680923
REMARK minimizedRMSD -1
REMARK  0 active torsions:
REMARK  status: ('A' for Active; 'I' for Inactive)
ROOT
ATOM      1  C   UNL d   1      -5.808   4.536  -5.976  0.00  0.00     0.020 A 
ATOM      2  C1  UNL d   1      -6.000   5.634  -5.137  0.00  0.00     0.020 A 
ATOM      3  C2  UNL d   1      -5.185   5.807  -4.016  0.00  0.00     0.034 A 
ATOM      4  C3  UNL d   1      -4.174   4.881  -3.731  0.00  0.00     0.017 A 
ATOM      5  C4  UNL d   1      -3.983   3.780  -4.574  0.00  0.00     0.017 A 
ATOM      6  C5  UNL d   1      -4.801   3.612  -5.694  0.00  0.00     0.034 A 
ATOM      7 Cl   UNL d   1      -2.757   2.596  -4.287  0.00  0.00    -0.070 Cl
ATOM      8 Cl1  UNL d   1      -3.204   5.158  -2.329  0.00  0.00    -0.070 Cl
ENDROOT
TORSDOF 0
ENDMDL
