MODEL 1
REMARK minimizedAffinity 5.73592663
REMARK minimizedRMSD -1
REMARK  0 active torsions:
REMARK  status: ('A' for Active; 'I' for Inactive)
ROOT
ATOM      1  C   UNL d   1      -5.425   5.993  -0.916  0.00  0.00     0.020 A 
ATOM      2  C1  UNL d   1      -4.128   5.575  -1.212  0.00  0.00     0.020 A 
ATOM      3  C2  UNL d   1      -3.387   4.870  -0.261  0.00  0.00     0.034 A 
ATOM      4  C3  UNL d   1      -3.943   4.581   0.991  0.00  0.00     0.017 A 
ATOM      5  C4  UNL d   1      -5.245   5.000   1.287  0.00  0.00     0.017 A 
ATOM      6  C5  UNL d   1      -5.982   5.706   0.331  0.00  0.00     0.034 A 
ATOM      7 Cl   UNL d   1      -5.998   4.681   2.810  0.00  0.00    -0.070 Cl
ATOM      8 Cl1  UNL d   1      -2.970   3.705   2.119  0.00  0.00    -0.070 Cl
ENDROOT
TORSDOF 0
ENDMDL
