MODEL 1
REMARK minimizedAffinity 18.7000561
REMARK minimizedRMSD -1
REMARK  0 active torsions:
REMARK  status: ('A' for Active; 'I' for Inactive)
ROOT
ATOM      1  C   UNL d   1      -1.239  -2.339   0.177  0.00  0.00     0.020 A 
ATOM      2  C1  UNL d   1      -1.371  -1.298  -0.741  0.00  0.00     0.020 A 
ATOM      3  C2  UNL d   1      -1.293  -1.560  -2.110  0.00  0.00     0.034 A 
ATOM      4  C3  UNL d   1      -1.084  -2.866  -2.566  0.00  0.00     0.017 A 
ATOM      5  C4  UNL d   1      -0.951  -3.911  -1.644  0.00  0.00     0.017 A 
ATOM      6  C5  UNL d   1      -1.030  -3.643  -0.274  0.00  0.00     0.034 A 
ATOM      7 Cl   UNL d   1      -0.691  -5.549  -2.131  0.00  0.00    -0.070 Cl
ATOM      8 Cl1  UNL d   1      -0.999  -3.118  -4.273  0.00  0.00    -0.070 Cl
ENDROOT
TORSDOF 0
ENDMDL
