MODEL 1
REMARK minimizedAffinity 17.8846493
REMARK minimizedRMSD -1
REMARK  0 active torsions:
REMARK  status: ('A' for Active; 'I' for Inactive)
ROOT
ATOM      1  C   UNL d   1      -1.960  -2.008   4.924  0.00  0.00     0.020 A 
ATOM      2  C1  UNL d   1      -0.705  -2.078   5.526  0.00  0.00     0.020 A 
ATOM      3  C2  UNL d   1      -0.154  -3.320   5.850  0.00  0.00     0.034 A 
ATOM      4  C3  UNL d   1      -0.860  -4.497   5.572  0.00  0.00     0.017 A 
ATOM      5  C4  UNL d   1      -2.120  -4.425   4.968  0.00  0.00     0.017 A 
ATOM      6  C5  UNL d   1      -2.666  -3.179   4.645  0.00  0.00     0.034 A 
ATOM      7 Cl   UNL d   1      -3.050  -5.833   4.594  0.00  0.00    -0.070 Cl
ATOM      8 Cl1  UNL d   1      -0.118  -5.998   5.999  0.00  0.00    -0.070 Cl
ENDROOT
TORSDOF 0
ENDMDL
