MODEL 1
REMARK minimizedAffinity 10.1596365
REMARK minimizedRMSD -1
REMARK  0 active torsions:
REMARK  status: ('A' for Active; 'I' for Inactive)
ROOT
ATOM      1  C   UNL d   1       4.616   5.390   0.273  0.00  0.00     0.020 A 
ATOM      2  C1  UNL d   1       5.594   5.569  -0.705  0.00  0.00     0.020 A 
ATOM      3  C2  UNL d   1       5.998   4.490  -1.494  0.00  0.00     0.034 A 
ATOM      4  C3  UNL d   1       5.423   3.227  -1.307  0.00  0.00     0.017 A 
ATOM      5  C4  UNL d   1       4.442   3.049  -0.326  0.00  0.00     0.017 A 
ATOM      6  C5  UNL d   1       4.041   4.133   0.462  0.00  0.00     0.034 A 
ATOM      7 Cl   UNL d   1       3.687   1.521  -0.036  0.00  0.00    -0.070 Cl
ATOM      8 Cl1  UNL d   1       5.970   1.938  -2.319  0.00  0.00    -0.070 Cl
ENDROOT
TORSDOF 0
ENDMDL
