MODEL 1
REMARK minimizedAffinity 12.6567011
REMARK minimizedRMSD -1
REMARK  0 active torsions:
REMARK  status: ('A' for Active; 'I' for Inactive)
ROOT
ATOM      1  C   UNL d   1      -1.009  -3.409   1.132  0.00  0.00     0.020 A 
ATOM      2  C1  UNL d   1      -1.700  -2.664   2.087  0.00  0.00     0.020 A 
ATOM      3  C2  UNL d   1      -2.518  -1.604   1.688  0.00  0.00     0.034 A 
ATOM      4  C3  UNL d   1      -2.645  -1.286   0.331  0.00  0.00     0.017 A 
ATOM      5  C4  UNL d   1      -1.950  -2.034  -0.627  0.00  0.00     0.017 A 
ATOM      6  C5  UNL d   1      -1.134  -3.094  -0.222  0.00  0.00     0.034 A 
ATOM      7 Cl   UNL d   1      -2.058  -1.701  -2.319  0.00  0.00    -0.070 Cl
ATOM      8 Cl1  UNL d   1      -3.673   0.037  -0.091  0.00  0.00    -0.070 Cl
ENDROOT
TORSDOF 0
ENDMDL
