MODEL 1
REMARK minimizedAffinity 7.00063324
REMARK minimizedRMSD -1
REMARK  0 active torsions:
REMARK  status: ('A' for Active; 'I' for Inactive)
ROOT
ATOM      1  C   UNL d   1      -1.226  -2.473   2.532  0.00  0.00     0.020 A 
ATOM      2  C1  UNL d   1      -0.355  -2.933   1.545  0.00  0.00     0.020 A 
ATOM      3  C2  UNL d   1      -0.598  -2.631   0.203  0.00  0.00     0.034 A 
ATOM      4  C3  UNL d   1      -1.714  -1.866  -0.155  0.00  0.00     0.017 A 
ATOM      5  C4  UNL d   1      -2.588  -1.405   0.836  0.00  0.00     0.017 A 
ATOM      6  C5  UNL d   1      -2.340  -1.710   2.178  0.00  0.00     0.034 A 
ATOM      7 Cl   UNL d   1      -3.986  -0.456   0.472  0.00  0.00    -0.070 Cl
ATOM      8 Cl1  UNL d   1      -1.953  -1.530  -1.833  0.00  0.00    -0.070 Cl
ENDROOT
TORSDOF 0
ENDMDL
