MODEL 1
REMARK minimizedAffinity 8.80067444
REMARK minimizedRMSD -1
REMARK  0 active torsions:
REMARK  status: ('A' for Active; 'I' for Inactive)
ROOT
ATOM      1  C   UNL d   1      -0.977  -1.912   5.978  0.00  0.00     0.020 A 
ATOM      2  C1  UNL d   1      -1.943  -2.917   5.985  0.00  0.00     0.020 A 
ATOM      3  C2  UNL d   1      -3.299  -2.582   5.991  0.00  0.00     0.034 A 
ATOM      4  C3  UNL d   1      -3.692  -1.239   5.991  0.00  0.00     0.017 A 
ATOM      5  C4  UNL d   1      -2.721  -0.231   5.984  0.00  0.00     0.017 A 
ATOM      6  C5  UNL d   1      -1.365  -0.572   5.977  0.00  0.00     0.034 A 
ATOM      7 Cl   UNL d   1      -3.129   1.449   5.983  0.00  0.00    -0.070 Cl
ATOM      8 Cl1  UNL d   1      -5.386  -0.898   6.000  0.00  0.00    -0.070 Cl
ENDROOT
TORSDOF 0
ENDMDL
