MODEL 1
REMARK minimizedAffinity 11.704464
REMARK minimizedRMSD -1
REMARK  0 active torsions:
REMARK  status: ('A' for Active; 'I' for Inactive)
ROOT
ATOM      1  C   UNL d   1       5.105   5.987   0.360  0.00  0.00     0.020 A 
ATOM      2  C1  UNL d   1       5.732   5.953  -0.885  0.00  0.00     0.020 A 
ATOM      3  C2  UNL d   1       5.999   4.728  -1.499  0.00  0.00     0.034 A 
ATOM      4  C3  UNL d   1       5.639   3.531  -0.869  0.00  0.00     0.017 A 
ATOM      5  C4  UNL d   1       5.010   3.566   0.381  0.00  0.00     0.017 A 
ATOM      6  C5  UNL d   1       4.745   4.796   0.992  0.00  0.00     0.034 A 
ATOM      7 Cl   UNL d   1       4.537   2.132   1.221  0.00  0.00    -0.070 Cl
ATOM      8 Cl1  UNL d   1       6.000   2.052  -1.686  0.00  0.00    -0.070 Cl
ENDROOT
TORSDOF 0
ENDMDL
