MODEL 1
REMARK minimizedAffinity 10.1522436
REMARK minimizedRMSD -1
REMARK  0 active torsions:
REMARK  status: ('A' for Active; 'I' for Inactive)
ROOT
ATOM      1  C   UNL d   1      -1.540  -2.915   4.857  0.00  0.00     0.020 A 
ATOM      2  C1  UNL d   1      -0.689  -1.811   4.893  0.00  0.00     0.020 A 
ATOM      3  C2  UNL d   1      -1.193  -0.553   5.231  0.00  0.00     0.034 A 
ATOM      4  C3  UNL d   1      -2.551  -0.396   5.534  0.00  0.00     0.017 A 
ATOM      5  C4  UNL d   1      -3.403  -1.506   5.497  0.00  0.00     0.017 A 
ATOM      6  C5  UNL d   1      -2.893  -2.763   5.158  0.00  0.00     0.034 A 
ATOM      7 Cl   UNL d   1      -5.090  -1.391   5.858  0.00  0.00    -0.070 Cl
ATOM      8 Cl1  UNL d   1      -3.105   1.188   5.943  0.00  0.00    -0.070 Cl
ENDROOT
TORSDOF 0
ENDMDL
