MODEL 1
REMARK minimizedAffinity 6.16807318
REMARK minimizedRMSD -1
REMARK  2 active torsions:
REMARK  status: ('A' for Active; 'I' for Inactive)
REMARK    1  A    between atoms: C1_2  and  C2_3 
REMARK    2  A    between atoms: C2_3  and  C3_4 
ROOT
ATOM      1  C3  UNL d   1       1.410   0.663   2.325  0.00  0.00    -0.075 A 
ATOM      2  C4  UNL d   1       0.627  -0.319   2.949  0.00  0.00     0.002 A 
ATOM      3  C5  UNL d   1       0.025  -0.067   4.182  0.00  0.00     0.002 A 
ATOM      4  C6  UNL d   1       0.205   1.164   4.810  0.00  0.00    -0.004 A 
ATOM      5  C7  UNL d   1       0.994   2.141   4.206  0.00  0.00     0.002 A 
ATOM      6  C8  UNL d   1       1.594   1.893   2.971  0.00  0.00     0.002 A 
ENDROOT
BRANCH   1   7
ATOM      7  C2  UNL d   1       2.041   0.406   0.977  0.00  0.00     0.056 C 
BRANCH   7   8
ATOM      8  C1  UNL d   1       3.532   0.059   1.042  0.00  0.00     0.007 C 
ATOM      9  C   UNL d   1       4.435   1.207   0.612  0.00  0.00     0.009 C 
ENDBRANCH   7   8
ENDBRANCH   1   7
TORSDOF 2
ENDMDL
