MODEL 1
REMARK minimizedAffinity 6.00428915
REMARK minimizedRMSD -1
REMARK  2 active torsions:
REMARK  status: ('A' for Active; 'I' for Inactive)
REMARK    1  A    between atoms: C1_2  and  C2_3 
REMARK    2  A    between atoms: C2_3  and  C3_4 
ROOT
ATOM      1  C3  UNL d   1       1.309   3.193   0.257  0.00  0.00    -0.075 A 
ATOM      2  C4  UNL d   1       1.624   3.964   1.385  0.00  0.00     0.002 A 
ATOM      3  C5  UNL d   1       0.803   5.026   1.769  0.00  0.00     0.002 A 
ATOM      4  C6  UNL d   1      -0.334   5.335   1.026  0.00  0.00    -0.004 A 
ATOM      5  C7  UNL d   1      -0.648   4.586  -0.106  0.00  0.00     0.002 A 
ATOM      6  C8  UNL d   1       0.169   3.520  -0.490  0.00  0.00     0.002 A 
ENDROOT
BRANCH   1   7
ATOM      7  C2  UNL d   1       2.176   2.025  -0.147  0.00  0.00     0.056 C 
BRANCH   7   8
ATOM      8  C1  UNL d   1       2.027   0.795   0.756  0.00  0.00     0.007 C 
ATOM      9  C   UNL d   1       2.220  -0.521   0.015  0.00  0.00     0.009 C 
ENDBRANCH   7   8
ENDBRANCH   1   7
TORSDOF 2
ENDMDL
