MODEL 1
REMARK minimizedAffinity 12.6411304
REMARK minimizedRMSD -1
REMARK  2 active torsions:
REMARK  status: ('A' for Active; 'I' for Inactive)
REMARK    1  A    between atoms: C1_2  and  C2_3 
REMARK    2  A    between atoms: C2_3  and  C3_4 
ROOT
ATOM      1  C3  UNL d   1       4.620   2.527  -0.794  0.00  0.00    -0.075 A 
ATOM      2  C4  UNL d   1       4.200   2.789   0.519  0.00  0.00     0.002 A 
ATOM      3  C5  UNL d   1       3.391   1.879   1.199  0.00  0.00     0.002 A 
ATOM      4  C6  UNL d   1       2.983   0.702   0.574  0.00  0.00    -0.004 A 
ATOM      5  C7  UNL d   1       3.380   0.440  -0.736  0.00  0.00     0.002 A 
ATOM      6  C8  UNL d   1       4.194   1.347  -1.417  0.00  0.00     0.002 A 
ENDROOT
BRANCH   1   7
ATOM      7  C2  UNL d   1       5.520   3.494  -1.525  0.00  0.00     0.056 C 
BRANCH   7   8
ATOM      8  C1  UNL d   1       5.940   4.709  -0.689  0.00  0.00     0.007 C 
ATOM      9  C   UNL d   1       6.000   6.000  -1.495  0.00  0.00     0.009 C 
ENDBRANCH   7   8
ENDBRANCH   1   7
TORSDOF 2
ENDMDL
