MODEL 1
REMARK minimizedAffinity 0.462522805
REMARK minimizedRMSD -1
REMARK  2 active torsions:
REMARK  status: ('A' for Active; 'I' for Inactive)
REMARK    1  A    between atoms: C1_2  and  C2_3 
REMARK    2  A    between atoms: C2_3  and  C3_4 
ROOT
ATOM      1  C3  UNL d   1      -4.897   4.725   3.442  0.00  0.00    -0.075 A 
ATOM      2  C4  UNL d   1      -6.000   4.600   4.300  0.00  0.00     0.002 A 
ATOM      3  C5  UNL d   1      -5.980   5.181   5.568  0.00  0.00     0.002 A 
ATOM      4  C6  UNL d   1      -4.857   5.884   5.998  0.00  0.00    -0.004 A 
ATOM      5  C7  UNL d   1      -3.749   6.000   5.161  0.00  0.00     0.002 A 
ATOM      6  C8  UNL d   1      -3.768   5.423   3.890  0.00  0.00     0.002 A 
ENDROOT
BRANCH   1   7
ATOM      7  C2  UNL d   1      -4.924   4.123   2.057  0.00  0.00     0.056 C 
BRANCH   7   8
ATOM      8  C1  UNL d   1      -4.346   5.035   0.970  0.00  0.00     0.007 C 
ATOM      9  C   UNL d   1      -4.761   4.629  -0.438  0.00  0.00     0.009 C 
ENDBRANCH   7   8
ENDBRANCH   1   7
TORSDOF 2
ENDMDL
