MODEL 1
REMARK minimizedAffinity -1.09204984
REMARK minimizedRMSD -1
REMARK  0 active torsions:
REMARK  status: ('A' for Active; 'I' for Inactive)
ROOT
ATOM      1  C1  BNZ d   1      -2.418  -3.998  -3.031  0.00  0.00     0.000 A 
ATOM      2  C2  BNZ d   1      -2.458  -3.735  -1.687  0.00  0.00     0.000 A 
ATOM      3  C3  BNZ d   1      -2.417  -2.450  -1.224  0.00  0.00     0.000 A 
ATOM      4  C4  BNZ d   1      -2.295  -1.433  -2.101  0.00  0.00     0.000 A 
ATOM      5  C5  BNZ d   1      -2.245  -1.682  -3.458  0.00  0.00     0.000 A 
ATOM      6  C6  BNZ d   1      -2.326  -2.975  -3.923  0.00  0.00     0.000 A 
ENDROOT
TORSDOF 0
ENDMDL
