MODEL 1
REMARK minimizedAffinity -0.0547702536
REMARK minimizedRMSD -1
REMARK  0 active torsions:
REMARK  status: ('A' for Active; 'I' for Inactive)
ROOT
ATOM      1  C1  BNZ d   1      -3.642   6.000   2.731  0.00  0.00     0.000 A 
ATOM      2  C2  BNZ d   1      -3.654   5.902   1.365  0.00  0.00     0.000 A 
ATOM      3  C3  BNZ d   1      -4.834   5.814   0.680  0.00  0.00     0.000 A 
ATOM      4  C4  BNZ d   1      -5.997   5.785   1.364  0.00  0.00     0.000 A 
ATOM      5  C5  BNZ d   1      -6.000   5.873   2.742  0.00  0.00     0.000 A 
ATOM      6  C6  BNZ d   1      -4.812   6.000   3.425  0.00  0.00     0.000 A 
ENDROOT
TORSDOF 0
ENDMDL
