MODEL 1
REMARK minimizedAffinity -3.43434334
REMARK minimizedRMSD -1
REMARK  0 active torsions:
REMARK  status: ('A' for Active; 'I' for Inactive)
ROOT
ATOM      1  C1  BNZ d   1      -4.658   4.340   3.067  0.00  0.00     0.000 A 
ATOM      2  C2  BNZ d   1      -4.778   5.126   4.182  0.00  0.00     0.000 A 
ATOM      3  C3  BNZ d   1      -4.815   4.570   5.430  0.00  0.00     0.000 A 
ATOM      4  C4  BNZ d   1      -4.772   3.228   5.559  0.00  0.00     0.000 A 
ATOM      5  C5  BNZ d   1      -4.660   2.422   4.444  0.00  0.00     0.000 A 
ATOM      6  C6  BNZ d   1      -4.584   2.987   3.192  0.00  0.00     0.000 A 
ENDROOT
TORSDOF 0
ENDMDL
