MODEL 1
REMARK minimizedAffinity -1.15491807
REMARK minimizedRMSD -1
REMARK  0 active torsions:
REMARK  status: ('A' for Active; 'I' for Inactive)
ROOT
ATOM      1  C1  BNZ d   1      -4.851   6.000   0.817  0.00  0.00     0.000 A 
ATOM      2  C2  BNZ d   1      -4.987   5.996   2.179  0.00  0.00     0.000 A 
ATOM      3  C3  BNZ d   1      -5.544   4.926   2.823  0.00  0.00     0.000 A 
ATOM      4  C4  BNZ d   1      -6.000   3.882   2.103  0.00  0.00     0.000 A 
ATOM      5  C5  BNZ d   1      -5.878   3.875   0.727  0.00  0.00     0.000 A 
ATOM      6  C6  BNZ d   1      -5.282   4.936   0.085  0.00  0.00     0.000 A 
ENDROOT
TORSDOF 0
ENDMDL
