MODEL 1
REMARK minimizedAffinity -1.61037171
REMARK minimizedRMSD -1
REMARK  0 active torsions:
REMARK  status: ('A' for Active; 'I' for Inactive)
ROOT
ATOM      1  C1  BNZ d   1      -4.647   4.890  -0.003  0.00  0.00     0.000 A 
ATOM      2  C2  BNZ d   1      -4.528   5.981   0.816  0.00  0.00     0.000 A 
ATOM      3  C3  BNZ d   1      -5.120   5.999   2.048  0.00  0.00     0.000 A 
ATOM      4  C4  BNZ d   1      -5.863   4.944   2.442  0.00  0.00     0.000 A 
ATOM      5  C5  BNZ d   1      -6.000   3.841   1.623  0.00  0.00     0.000 A 
ATOM      6  C6  BNZ d   1      -5.370   3.810   0.400  0.00  0.00     0.000 A 
ENDROOT
TORSDOF 0
ENDMDL
