MODEL 1
REMARK minimizedAffinity -0.135606736
REMARK minimizedRMSD -1
REMARK  0 active torsions:
REMARK  status: ('A' for Active; 'I' for Inactive)
ROOT
ATOM      1  C1  BNZ d   1      -4.589   5.955   1.750  0.00  0.00     0.000 A 
ATOM      2  C2  BNZ d   1      -3.502   5.829   2.573  0.00  0.00     0.000 A 
ATOM      3  C3  BNZ d   1      -3.657   5.734   3.928  0.00  0.00     0.000 A 
ATOM      4  C4  BNZ d   1      -4.895   5.807   4.460  0.00  0.00     0.000 A 
ATOM      5  C5  BNZ d   1      -6.000   5.945   3.644  0.00  0.00     0.000 A 
ATOM      6  C6  BNZ d   1      -5.842   6.000   2.278  0.00  0.00     0.000 A 
ENDROOT
TORSDOF 0
ENDMDL
