MODEL 1
REMARK minimizedAffinity -0.729032159
REMARK minimizedRMSD -1
REMARK  0 active torsions:
REMARK  status: ('A' for Active; 'I' for Inactive)
ROOT
ATOM      1  C1  BNZ d   1      -3.610   5.999   3.031  0.00  0.00     0.000 A 
ATOM      2  C2  BNZ d   1      -3.658   5.902   1.666  0.00  0.00     0.000 A 
ATOM      3  C3  BNZ d   1      -4.856   5.816   1.012  0.00  0.00     0.000 A 
ATOM      4  C4  BNZ d   1      -6.000   5.786   1.725  0.00  0.00     0.000 A 
ATOM      5  C5  BNZ d   1      -5.968   5.873   3.103  0.00  0.00     0.000 A 
ATOM      6  C6  BNZ d   1      -4.763   6.000   3.755  0.00  0.00     0.000 A 
ENDROOT
TORSDOF 0
ENDMDL
