MODEL 1
REMARK minimizedAffinity 2.50998092
REMARK minimizedRMSD -1
REMARK  0 active torsions:
REMARK  status: ('A' for Active; 'I' for Inactive)
ROOT
ATOM      1  C1  BNZ d   1      -5.501   5.027  -1.481  0.00  0.00     0.000 A 
ATOM      2  C2  BNZ d   1      -5.999   5.995  -0.650  0.00  0.00     0.000 A 
ATOM      3  C3  BNZ d   1      -5.694   5.999   0.682  0.00  0.00     0.000 A 
ATOM      4  C4  BNZ d   1      -4.925   5.013   1.189  0.00  0.00     0.000 A 
ATOM      5  C5  BNZ d   1      -4.424   4.025   0.366  0.00  0.00     0.000 A 
ATOM      6  C6  BNZ d   1      -4.701   4.046  -0.982  0.00  0.00     0.000 A 
ENDROOT
TORSDOF 0
ENDMDL
