MODEL 1
REMARK minimizedAffinity -2.64289689
REMARK minimizedRMSD -1
REMARK  0 active torsions:
REMARK  status: ('A' for Active; 'I' for Inactive)
ROOT
ATOM      1  C1  BNZ d   1      -3.633   5.936   4.432  0.00  0.00     0.000 A 
ATOM      2  C2  BNZ d   1      -3.655   5.941   3.063  0.00  0.00     0.000 A 
ATOM      3  C3  BNZ d   1      -4.839   5.993   2.382  0.00  0.00     0.000 A 
ATOM      4  C4  BNZ d   1      -6.000   6.000   3.069  0.00  0.00     0.000 A 
ATOM      5  C5  BNZ d   1      -5.994   5.985   4.450  0.00  0.00     0.000 A 
ATOM      6  C6  BNZ d   1      -4.800   5.972   5.132  0.00  0.00     0.000 A 
ENDROOT
TORSDOF 0
ENDMDL
