MODEL 1
REMARK minimizedAffinity -1.99611712
REMARK minimizedRMSD -1
REMARK  0 active torsions:
REMARK  status: ('A' for Active; 'I' for Inactive)
ROOT
ATOM      1  C1  BNZ d   1      -4.257   6.000   0.421  0.00  0.00     0.000 A 
ATOM      2  C2  BNZ d   1      -4.769   5.065  -0.439  0.00  0.00     0.000 A 
ATOM      3  C3  BNZ d   1      -5.656   4.123  -0.001  0.00  0.00     0.000 A 
ATOM      4  C4  BNZ d   1      -5.999   4.090   1.303  0.00  0.00     0.000 A 
ATOM      5  C5  BNZ d   1      -5.484   5.020   2.184  0.00  0.00     0.000 A 
ATOM      6  C6  BNZ d   1      -4.622   5.992   1.732  0.00  0.00     0.000 A 
ENDROOT
TORSDOF 0
ENDMDL
