MODEL 1
REMARK minimizedAffinity -4.79556274
REMARK minimizedRMSD -1
REMARK  0 active torsions:
REMARK  status: ('A' for Active; 'I' for Inactive)
ROOT
ATOM      1  C1  BNZ d   1      -2.683  -3.343  -0.878  0.00  0.00     0.000 A 
ATOM      2  C2  BNZ d   1      -2.261  -2.072  -0.591  0.00  0.00     0.000 A 
ATOM      3  C3  BNZ d   1      -2.873  -1.335   0.384  0.00  0.00     0.000 A 
ATOM      4  C4  BNZ d   1      -3.929  -1.854   1.043  0.00  0.00     0.000 A 
ATOM      5  C5  BNZ d   1      -4.372  -3.130   0.759  0.00  0.00     0.000 A 
ATOM      6  C6  BNZ d   1      -3.730  -3.883  -0.197  0.00  0.00     0.000 A 
ENDROOT
TORSDOF 0
ENDMDL
