MODEL 1
REMARK minimizedAffinity -2.58698678
REMARK minimizedRMSD -1
REMARK  0 active torsions:
REMARK  status: ('A' for Active; 'I' for Inactive)
ROOT
ATOM      1  C1  BNZ d   1      -4.467   0.762   5.213  0.00  0.00     0.000 A 
ATOM      2  C2  BNZ d   1      -4.936  -0.257   5.998  0.00  0.00     0.000 A 
ATOM      3  C3  BNZ d   1      -4.352  -1.492   5.964  0.00  0.00     0.000 A 
ATOM      4  C4  BNZ d   1      -3.327  -1.718   5.117  0.00  0.00     0.000 A 
ATOM      5  C5  BNZ d   1      -2.849  -0.703   4.312  0.00  0.00     0.000 A 
ATOM      6  C6  BNZ d   1      -3.414   0.550   4.378  0.00  0.00     0.000 A 
ENDROOT
TORSDOF 0
ENDMDL
