MODEL 1
REMARK minimizedAffinity -4.29712486
REMARK minimizedRMSD -1
REMARK  0 active torsions:
REMARK  status: ('A' for Active; 'I' for Inactive)
ROOT
ATOM      1  C1  BNZ d   1      -4.002  -3.657   0.350  0.00  0.00     0.000 A 
ATOM      2  C2  BNZ d   1      -5.305  -3.670   0.771  0.00  0.00     0.000 A 
ATOM      3  C3  BNZ d   1      -5.999  -4.844   0.865  0.00  0.00     0.000 A 
ATOM      4  C4  BNZ d   1      -5.402  -5.998   0.501  0.00  0.00     0.000 A 
ATOM      5  C5  BNZ d   1      -4.092  -6.000   0.066  0.00  0.00     0.000 A 
ATOM      6  C6  BNZ d   1      -3.385  -4.821   0.009  0.00  0.00     0.000 A 
ENDROOT
TORSDOF 0
ENDMDL
