MODEL 1
REMARK minimizedAffinity -2.25004792
REMARK minimizedRMSD -1
REMARK  0 active torsions:
REMARK  status: ('A' for Active; 'I' for Inactive)
ROOT
ATOM      1  C1  BNZ d   1      -3.785   5.182   3.166  0.00  0.00     0.000 A 
ATOM      2  C2  BNZ d   1      -3.806   4.953   1.816  0.00  0.00     0.000 A 
ATOM      3  C3  BNZ d   1      -4.907   5.267   1.070  0.00  0.00     0.000 A 
ATOM      4  C4  BNZ d   1      -5.999   5.772   1.679  0.00  0.00     0.000 A 
ATOM      5  C5  BNZ d   1      -5.997   6.000   3.041  0.00  0.00     0.000 A 
ATOM      6  C6  BNZ d   1      -4.873   5.719   3.783  0.00  0.00     0.000 A 
ENDROOT
TORSDOF 0
ENDMDL
