MODEL 1
REMARK minimizedAffinity -0.651522279
REMARK minimizedRMSD -1
REMARK  0 active torsions:
REMARK  status: ('A' for Active; 'I' for Inactive)
ROOT
ATOM      1  C1  BNZ d   1       1.278   2.454   4.638  0.00  0.00     0.000 A 
ATOM      2  C2  BNZ d   1       0.993   1.236   5.195  0.00  0.00     0.000 A 
ATOM      3  C3  BNZ d   1       1.707   0.123   4.848  0.00  0.00     0.000 A 
ATOM      4  C4  BNZ d   1       2.676   0.221   3.916  0.00  0.00     0.000 A 
ATOM      5  C5  BNZ d   1       2.969   1.440   3.338  0.00  0.00     0.000 A 
ATOM      6  C6  BNZ d   1       2.275   2.566   3.718  0.00  0.00     0.000 A 
ENDROOT
TORSDOF 0
ENDMDL
