MODEL 1
REMARK minimizedAffinity 5.77055645
REMARK minimizedRMSD -1
REMARK  0 active torsions:
REMARK  status: ('A' for Active; 'I' for Inactive)
ROOT
ATOM      1  C1  BNZ d   1      -2.201  -2.213  -2.205  0.00  0.00     0.000 A 
ATOM      2  C2  BNZ d   1      -2.640  -3.496  -2.401  0.00  0.00     0.000 A 
ATOM      3  C3  BNZ d   1      -2.753  -4.011  -3.662  0.00  0.00     0.000 A 
ATOM      4  C4  BNZ d   1      -2.466  -3.233  -4.725  0.00  0.00     0.000 A 
ATOM      5  C5  BNZ d   1      -2.031  -1.935  -4.544  0.00  0.00     0.000 A 
ATOM      6  C6  BNZ d   1      -1.882  -1.432  -3.272  0.00  0.00     0.000 A 
ENDROOT
TORSDOF 0
ENDMDL
