MODEL 1
REMARK minimizedAffinity 4.86033487
REMARK minimizedRMSD -1
REMARK  0 active torsions:
REMARK  status: ('A' for Active; 'I' for Inactive)
ROOT
ATOM      1  C1  DEN d   1       1.164  -1.614  -1.568  0.00  0.00     0.130 A 
ATOM      2  C2  DEN d   1       1.266  -1.884  -2.999  0.00  0.00    -0.031 A 
ATOM      3  C3  DEN d   1      -0.063  -2.315  -3.478  0.00  0.00     0.027 A 
ATOM      4  C4  DEN d   1      -2.257  -2.585  -2.150  0.00  0.00     0.027 A 
ATOM      5  C5  DEN d   1      -2.835  -2.484  -0.904  0.00  0.00    -0.003 A 
ATOM      6  C6  DEN d   1      -2.118  -2.121   0.206  0.00  0.00     0.001 A 
ATOM      7  C7  DEN d   1      -0.791  -1.802   0.083  0.00  0.00     0.017 A 
ATOM      8  C8  DEN d   1      -0.200  -1.910  -1.169  0.00  0.00    -0.094 A 
ATOM      9  C9  DEN d   1      -0.945  -2.266  -2.281  0.00  0.00    -0.072 A 
ENDROOT
TORSDOF 0
ENDMDL
