MODEL 1
REMARK minimizedAffinity 8.74799633
REMARK minimizedRMSD -1
REMARK  0 active torsions:
REMARK  status: ('A' for Active; 'I' for Inactive)
ROOT
ATOM      1  C1  DEN d   1       2.447   5.927  -4.552  0.00  0.00     0.130 A 
ATOM      2  C2  DEN d   1       2.877   5.995  -5.946  0.00  0.00    -0.031 A 
ATOM      3  C3  DEN d   1       4.314   5.657  -5.998  0.00  0.00     0.027 A 
ATOM      4  C4  DEN d   1       5.904   5.032  -4.066  0.00  0.00     0.027 A 
ATOM      5  C5  DEN d   1       5.999   4.852  -2.704  0.00  0.00    -0.003 A 
ATOM      6  C6  DEN d   1       4.935   5.050  -1.865  0.00  0.00     0.001 A 
ATOM      7  C7  DEN d   1       3.716   5.395  -2.386  0.00  0.00     0.017 A 
ATOM      8  C8  DEN d   1       3.614   5.585  -3.758  0.00  0.00    -0.094 A 
ATOM      9  C9  DEN d   1       4.699   5.369  -4.590  0.00  0.00    -0.072 A 
ENDROOT
TORSDOF 0
ENDMDL
