MODEL 1
REMARK minimizedAffinity 0.126576602
REMARK minimizedRMSD -1
REMARK  0 active torsions:
REMARK  status: ('A' for Active; 'I' for Inactive)
ROOT
ATOM      1  C1  DEN d   1      -0.788  -1.665  -0.441  0.00  0.00     0.130 A 
ATOM      2  C2  DEN d   1      -2.075  -2.066  -1.002  0.00  0.00    -0.031 A 
ATOM      3  C3  DEN d   1      -1.844  -2.533  -2.384  0.00  0.00     0.027 A 
ATOM      4  C4  DEN d   1       0.369  -2.678  -3.700  0.00  0.00     0.027 A 
ATOM      5  C5  DEN d   1       1.724  -2.439  -3.647  0.00  0.00    -0.003 A 
ATOM      6  C6  DEN d   1       2.328  -1.897  -2.542  0.00  0.00     0.001 A 
ATOM      7  C7  DEN d   1       1.580  -1.619  -1.429  0.00  0.00     0.017 A 
ATOM      8  C8  DEN d   1       0.212  -1.851  -1.477  0.00  0.00    -0.094 A 
ATOM      9  C9  DEN d   1      -0.377  -2.410  -2.599  0.00  0.00    -0.072 A 
ENDROOT
TORSDOF 0
ENDMDL
