MODEL 1
REMARK minimizedAffinity -0.276278377
REMARK minimizedRMSD -1
REMARK  0 active torsions:
REMARK  status: ('A' for Active; 'I' for Inactive)
ROOT
ATOM      1  C1  DEN d   1       4.200   5.995  -2.056  0.00  0.00     0.130 A 
ATOM      2  C2  DEN d   1       5.126   5.280  -1.182  0.00  0.00    -0.031 A 
ATOM      3  C3  DEN d   1       5.995   4.439  -2.029  0.00  0.00     0.027 A 
ATOM      4  C4  DEN d   1       6.000   4.179  -4.596  0.00  0.00     0.027 A 
ATOM      5  C5  DEN d   1       5.389   4.575  -5.765  0.00  0.00    -0.003 A 
ATOM      6  C6  DEN d   1       4.326   5.439  -5.778  0.00  0.00     0.001 A 
ATOM      7  C7  DEN d   1       3.870   5.970  -4.600  0.00  0.00     0.017 A 
ATOM      8  C8  DEN d   1       4.475   5.570  -3.417  0.00  0.00    -0.094 A 
ATOM      9  C9  DEN d   1       5.557   4.705  -3.426  0.00  0.00    -0.072 A 
ENDROOT
TORSDOF 0
ENDMDL
