MODEL 1
REMARK minimizedAffinity -4.01368141
REMARK minimizedRMSD -1
REMARK  0 active torsions:
REMARK  status: ('A' for Active; 'I' for Inactive)
ROOT
ATOM      1  C1  DEN d   1       0.913  -1.851  -1.582  0.00  0.00     0.130 A 
ATOM      2  C2  DEN d   1       1.018  -2.062  -3.023  0.00  0.00    -0.031 A 
ATOM      3  C3  DEN d   1      -0.281  -2.571  -3.506  0.00  0.00     0.027 A 
ATOM      4  C4  DEN d   1      -2.435  -3.047  -2.170  0.00  0.00     0.027 A 
ATOM      5  C5  DEN d   1      -3.005  -3.033  -0.916  0.00  0.00    -0.003 A 
ATOM      6  C6  DEN d   1      -2.304  -2.659   0.200  0.00  0.00     0.001 A 
ATOM      7  C7  DEN d   1      -1.005  -2.241   0.077  0.00  0.00     0.017 A 
ATOM      8  C8  DEN d   1      -0.422  -2.260  -1.183  0.00  0.00    -0.094 A 
ATOM      9  C9  DEN d   1      -1.151  -2.629  -2.300  0.00  0.00    -0.072 A 
ENDROOT
TORSDOF 0
ENDMDL
