MODEL 1
REMARK minimizedAffinity 7.56985617
REMARK minimizedRMSD -1
REMARK  0 active torsions:
REMARK  status: ('A' for Active; 'I' for Inactive)
ROOT
ATOM      1  C1  DEN d   1       2.422  -2.166  -4.089  0.00  0.00     0.130 A 
ATOM      2  C2  DEN d   1       3.377  -1.707  -3.083  0.00  0.00    -0.031 A 
ATOM      3  C3  DEN d   1       2.627  -1.403  -1.848  0.00  0.00     0.027 A 
ATOM      4  C4  DEN d   1       0.096  -1.602  -1.395  0.00  0.00     0.027 A 
ATOM      5  C5  DEN d   1      -1.121  -1.937  -1.948  0.00  0.00    -0.003 A 
ATOM      6  C6  DEN d   1      -1.245  -2.335  -3.253  0.00  0.00     0.001 A 
ATOM      7  C7  DEN d   1      -0.127  -2.453  -4.036  0.00  0.00     0.017 A 
ATOM      8  C8  DEN d   1       1.102  -2.110  -3.487  0.00  0.00    -0.094 A 
ATOM      9  C9  DEN d   1       1.208  -1.721  -2.163  0.00  0.00    -0.072 A 
ENDROOT
TORSDOF 0
ENDMDL
