MODEL 1
REMARK minimizedAffinity -0.0489779972
REMARK minimizedRMSD -1
REMARK  0 active torsions:
REMARK  status: ('A' for Active; 'I' for Inactive)
ROOT
ATOM      1  C1  DEN d   1       0.693  -1.631  -1.556  0.00  0.00     0.130 A 
ATOM      2  C2  DEN d   1       0.737  -1.341  -2.986  0.00  0.00    -0.031 A 
ATOM      3  C3  DEN d   1      -0.568  -1.715  -3.568  0.00  0.00     0.027 A 
ATOM      4  C4  DEN d   1      -2.642  -2.706  -2.399  0.00  0.00     0.027 A 
ATOM      5  C5  DEN d   1      -3.152  -3.138  -1.195  0.00  0.00    -0.003 A 
ATOM      6  C6  DEN d   1      -2.412  -3.130  -0.042  0.00  0.00     0.001 A 
ATOM      7  C7  DEN d   1      -1.133  -2.638  -0.061  0.00  0.00     0.017 A 
ATOM      8  C8  DEN d   1      -0.609  -2.207  -1.273  0.00  0.00    -0.094 A 
ATOM      9  C9  DEN d   1      -1.378  -2.213  -2.424  0.00  0.00    -0.072 A 
ENDROOT
TORSDOF 0
ENDMDL
