MODEL 1
REMARK minimizedAffinity -1.65979505
REMARK minimizedRMSD -1
REMARK  0 active torsions:
REMARK  status: ('A' for Active; 'I' for Inactive)
ROOT
ATOM      1  C1  DEN d   1       4.781   5.992  -4.870  0.00  0.00     0.130 A 
ATOM      2  C2  DEN d   1       4.548   4.911  -5.824  0.00  0.00    -0.031 A 
ATOM      3  C3  DEN d   1       4.850   3.633  -5.147  0.00  0.00     0.027 A 
ATOM      4  C4  DEN d   1       5.646   3.227  -2.728  0.00  0.00     0.027 A 
ATOM      5  C5  DEN d   1       5.995   3.837  -1.543  0.00  0.00    -0.003 A 
ATOM      6  C6  DEN d   1       5.997   5.199  -1.397  0.00  0.00     0.001 A 
ATOM      7  C7  DEN d   1       5.599   5.995  -2.438  0.00  0.00     0.017 A 
ATOM      8  C8  DEN d   1       5.252   5.387  -3.638  0.00  0.00    -0.094 A 
ATOM      9  C9  DEN d   1       5.245   4.008  -3.763  0.00  0.00    -0.072 A 
ENDROOT
TORSDOF 0
ENDMDL
