MODEL 1
REMARK minimizedAffinity 0.902953446
REMARK minimizedRMSD -1
REMARK  0 active torsions:
REMARK  status: ('A' for Active; 'I' for Inactive)
ROOT
ATOM      1  C1  DEN d   1       5.052   4.840  -1.825  0.00  0.00     0.130 A 
ATOM      2  C2  DEN d   1       5.986   3.722  -1.927  0.00  0.00    -0.031 A 
ATOM      3  C3  DEN d   1       6.000   3.266  -3.332  0.00  0.00     0.027 A 
ATOM      4  C4  DEN d   1       4.676   4.181  -5.348  0.00  0.00     0.027 A 
ATOM      5  C5  DEN d   1       3.748   5.116  -5.751  0.00  0.00    -0.003 A 
ATOM      6  C6  DEN d   1       3.169   5.994  -4.874  0.00  0.00     0.001 A 
ATOM      7  C7  DEN d   1       3.546   5.987  -3.557  0.00  0.00     0.017 A 
ATOM      8  C8  DEN d   1       4.475   5.042  -3.142  0.00  0.00    -0.094 A 
ATOM      9  C9  DEN d   1       5.059   4.170  -4.046  0.00  0.00    -0.072 A 
ENDROOT
TORSDOF 0
ENDMDL
