MODEL 1
REMARK minimizedAffinity -0.262264341
REMARK minimizedRMSD -1
REMARK  0 active torsions:
REMARK  status: ('A' for Active; 'I' for Inactive)
ROOT
ATOM      1  C1  DEN d   1       5.999   3.741  -2.343  0.00  0.00     0.130 A 
ATOM      2  C2  DEN d   1       5.914   4.898  -1.455  0.00  0.00    -0.031 A 
ATOM      3  C3  DEN d   1       5.244   5.989  -2.191  0.00  0.00     0.027 A 
ATOM      4  C4  DEN d   1       4.332   6.000  -4.603  0.00  0.00     0.027 A 
ATOM      5  C5  DEN d   1       4.185   5.253  -5.751  0.00  0.00    -0.003 A 
ATOM      6  C6  DEN d   1       4.659   3.971  -5.854  0.00  0.00     0.001 A 
ATOM      7  C7  DEN d   1       5.263   3.382  -4.775  0.00  0.00     0.017 A 
ATOM      8  C8  DEN d   1       5.421   4.132  -3.617  0.00  0.00    -0.094 A 
ATOM      9  C9  DEN d   1       4.925   5.421  -3.528  0.00  0.00    -0.072 A 
ENDROOT
TORSDOF 0
ENDMDL
