MODEL 1
REMARK minimizedAffinity 4.96542597
REMARK minimizedRMSD -1
REMARK  0 active torsions:
REMARK  status: ('A' for Active; 'I' for Inactive)
ROOT
ATOM      1  C1  DEN d   1      -0.145  -2.949  -1.613  0.00  0.00     0.130 A 
ATOM      2  C2  DEN d   1      -0.927  -3.130  -2.833  0.00  0.00    -0.031 A 
ATOM      3  C3  DEN d   1      -2.352  -3.208  -2.455  0.00  0.00     0.027 A 
ATOM      4  C4  DEN d   1      -3.419  -3.062  -0.111  0.00  0.00     0.027 A 
ATOM      5  C5  DEN d   1      -3.159  -2.922   1.234  0.00  0.00    -0.003 A 
ATOM      6  C6  DEN d   1      -1.884  -2.816   1.724  0.00  0.00     0.001 A 
ATOM      7  C7  DEN d   1      -0.823  -2.804   0.858  0.00  0.00     0.017 A 
ATOM      8  C8  DEN d   1      -1.077  -2.952  -0.500  0.00  0.00    -0.094 A 
ATOM      9  C9  DEN d   1      -2.374  -3.045  -0.976  0.00  0.00    -0.072 A 
ENDROOT
TORSDOF 0
ENDMDL
