MODEL 1
REMARK minimizedAffinity 3.74596047
REMARK minimizedRMSD -1
REMARK  0 active torsions:
REMARK  status: ('A' for Active; 'I' for Inactive)
ROOT
ATOM      1  C1  DEN d   1      -0.480  -3.310   0.514  0.00  0.00     0.130 A 
ATOM      2  C2  DEN d   1      -1.558  -3.655   1.437  0.00  0.00    -0.031 A 
ATOM      3  C3  DEN d   1      -2.819  -3.697   0.670  0.00  0.00     0.027 A 
ATOM      4  C4  DEN d   1      -3.206  -3.267  -1.843  0.00  0.00     0.027 A 
ATOM      5  C5  DEN d   1      -2.596  -2.930  -3.031  0.00  0.00    -0.003 A 
ATOM      6  C6  DEN d   1      -1.254  -2.664  -3.114  0.00  0.00     0.001 A 
ATOM      7  C7  DEN d   1      -0.470  -2.776  -1.996  0.00  0.00     0.017 A 
ATOM      8  C8  DEN d   1      -1.080  -3.109  -0.793  0.00  0.00    -0.094 A 
ATOM      9  C9  DEN d   1      -2.435  -3.385  -0.733  0.00  0.00    -0.072 A 
ENDROOT
TORSDOF 0
ENDMDL
