MODEL 1
REMARK minimizedAffinity 7.88168049
REMARK minimizedRMSD -1
REMARK  0 active torsions:
REMARK  status: ('A' for Active; 'I' for Inactive)
ROOT
ATOM      1  C1  DEN d   1      -0.367  -1.959  -0.804  0.00  0.00     0.130 A 
ATOM      2  C2  DEN d   1       0.706  -1.945   0.186  0.00  0.00    -0.031 A 
ATOM      3  C3  DEN d   1       0.194  -2.569   1.423  0.00  0.00     0.027 A 
ATOM      4  C4  DEN d   1      -2.142  -3.553   1.897  0.00  0.00     0.027 A 
ATOM      5  C5  DEN d   1      -3.393  -3.782   1.366  0.00  0.00    -0.003 A 
ATOM      6  C6  DEN d   1      -3.730  -3.391   0.097  0.00  0.00     0.001 A 
ATOM      7  C7  DEN d   1      -2.792  -2.792  -0.700  0.00  0.00     0.017 A 
ATOM      8  C8  DEN d   1      -1.531  -2.551  -0.170  0.00  0.00    -0.094 A 
ATOM      9  C9  DEN d   1      -1.206  -2.964   1.111  0.00  0.00    -0.072 A 
ENDROOT
TORSDOF 0
ENDMDL
