MODEL 1
REMARK minimizedAffinity 0.110032484
REMARK minimizedRMSD -1
REMARK  0 active torsions:
REMARK  status: ('A' for Active; 'I' for Inactive)
ROOT
ATOM      1  C1  DEN d   1      -1.476  -0.760   2.188  0.00  0.00     0.130 A 
ATOM      2  C2  DEN d   1      -1.992  -2.126   2.229  0.00  0.00    -0.031 A 
ATOM      3  C3  DEN d   1      -2.586  -2.349   3.562  0.00  0.00     0.027 A 
ATOM      4  C4  DEN d   1      -2.760  -0.721   5.555  0.00  0.00     0.027 A 
ATOM      5  C5  DEN d   1      -2.453   0.546   5.999  0.00  0.00    -0.003 A 
ATOM      6  C6  DEN d   1      -1.775   1.448   5.222  0.00  0.00     0.001 A 
ATOM      7  C7  DEN d   1      -1.420   1.110   3.943  0.00  0.00     0.017 A 
ATOM      8  C8  DEN d   1      -1.719  -0.168   3.491  0.00  0.00    -0.094 A 
ATOM      9  C9  DEN d   1      -2.416  -1.061   4.287  0.00  0.00    -0.072 A 
ENDROOT
TORSDOF 0
ENDMDL
