MODEL 1
REMARK minimizedAffinity 0.00182978401
REMARK minimizedRMSD -1
REMARK  0 active torsions:
REMARK  status: ('A' for Active; 'I' for Inactive)
ROOT
ATOM      1  C1  DEN d   1      -1.889  -3.198  -2.219  0.00  0.00     0.130 A 
ATOM      2  C2  DEN d   1      -0.712  -2.751  -2.960  0.00  0.00    -0.031 A 
ATOM      3  C3  DEN d   1       0.244  -2.174  -1.993  0.00  0.00     0.027 A 
ATOM      4  C4  DEN d   1       0.020  -1.936   0.565  0.00  0.00     0.027 A 
ATOM      5  C5  DEN d   1      -0.805  -2.160   1.646  0.00  0.00    -0.003 A 
ATOM      6  C6  DEN d   1      -2.051  -2.711   1.511  0.00  0.00     0.001 A 
ATOM      7  C7  DEN d   1      -2.492  -3.098   0.273  0.00  0.00     0.017 A 
ATOM      8  C8  DEN d   1      -1.670  -2.867  -0.822  0.00  0.00    -0.094 A 
ATOM      9  C9  DEN d   1      -0.408  -2.321  -0.664  0.00  0.00    -0.072 A 
ENDROOT
TORSDOF 0
ENDMDL
