MODEL 1
REMARK minimizedAffinity 1.24717832
REMARK minimizedRMSD -1
REMARK  0 active torsions:
REMARK  status: ('A' for Active; 'I' for Inactive)
ROOT
ATOM      1  C1  DEN d   1      -2.137  -0.656   4.570  0.00  0.00     0.130 A 
ATOM      2  C2  DEN d   1      -1.807   0.756   4.743  0.00  0.00    -0.031 A 
ATOM      3  C3  DEN d   1      -1.351   1.281   3.440  0.00  0.00     0.027 A 
ATOM      4  C4  DEN d   1      -1.131   0.053   1.183  0.00  0.00     0.027 A 
ATOM      5  C5  DEN d   1      -1.283  -1.157   0.544  0.00  0.00    -0.003 A 
ATOM      6  C6  DEN d   1      -1.695  -2.285   1.204  0.00  0.00     0.001 A 
ATOM      7  C7  DEN d   1      -2.012  -2.214   2.535  0.00  0.00     0.017 A 
ATOM      8  C8  DEN d   1      -1.854  -0.999   3.187  0.00  0.00    -0.094 A 
ATOM      9  C9  DEN d   1      -1.448   0.133   2.500  0.00  0.00    -0.072 A 
ENDROOT
TORSDOF 0
ENDMDL
