MODEL 1
REMARK minimizedAffinity -1.37044597
REMARK minimizedRMSD -1
REMARK  0 active torsions:
REMARK  status: ('A' for Active; 'I' for Inactive)
ROOT
ATOM      1  C1  DEN d   1       4.089   5.962  -2.257  0.00  0.00     0.130 A 
ATOM      2  C2  DEN d   1       5.087   5.317  -1.408  0.00  0.00    -0.031 A 
ATOM      3  C3  DEN d   1       5.999   4.549  -2.278  0.00  0.00     0.027 A 
ATOM      4  C4  DEN d   1       5.968   4.301  -4.845  0.00  0.00     0.027 A 
ATOM      5  C5  DEN d   1       5.303   4.653  -5.999  0.00  0.00    -0.003 A 
ATOM      6  C6  DEN d   1       4.177   5.432  -5.984  0.00  0.00     0.001 A 
ATOM      7  C7  DEN d   1       3.707   5.922  -4.794  0.00  0.00     0.017 A 
ATOM      8  C8  DEN d   1       4.367   5.565  -3.626  0.00  0.00    -0.094 A 
ATOM      9  C9  DEN d   1       5.511   4.787  -3.663  0.00  0.00    -0.072 A 
ENDROOT
TORSDOF 0
ENDMDL
