MODEL 1
REMARK minimizedAffinity -3.33829045
REMARK minimizedRMSD -1
REMARK  1 active torsions:
REMARK  status: ('A' for Active; 'I' for Inactive)
REMARK    1  A    between atoms: C1_2  and  C2_3 
ROOT
ATOM      1  C2  UNL d   1      -0.230   0.301  -0.757  0.00  0.00    -0.073 A 
ATOM      2  C3  UNL d   1      -1.597   0.120  -0.514  0.00  0.00    -0.002 A 
ATOM      3  C4  UNL d   1      -2.049  -0.202   0.766  0.00  0.00     0.004 A 
ATOM      4  C5  UNL d   1      -1.142  -0.340   1.817  0.00  0.00    -0.004 A 
ATOM      5  C6  UNL d   1       0.227  -0.152   1.597  0.00  0.00    -0.075 A 
ATOM      6  C7  UNL d   1       1.215  -0.299   2.716  0.00  0.00     0.076 C 
ATOM      7  C8  UNL d   1       0.673   0.169   0.308  0.00  0.00     0.001 A 
ENDROOT
BRANCH   1   8
ATOM      8  C1  UNL d   1       0.262   0.655  -2.136  0.00  0.00     0.053 C 
ATOM      9  C   UNL d   1      -0.123   2.071  -2.533  0.00  0.00     0.018 C 
ENDBRANCH   1   8
TORSDOF 1
ENDMDL
