MODEL 1
REMARK minimizedAffinity -2.90069461
REMARK minimizedRMSD -1
REMARK  1 active torsions:
REMARK  status: ('A' for Active; 'I' for Inactive)
REMARK    1  A    between atoms: C1_2  and  C2_3 
ROOT
ATOM      1  C2  UNL d   1       0.586  -0.672   1.072  0.00  0.00    -0.073 A 
ATOM      2  C3  UNL d   1       1.606  -1.333   0.379  0.00  0.00    -0.002 A 
ATOM      3  C4  UNL d   1       1.719  -1.200  -1.006  0.00  0.00     0.004 A 
ATOM      4  C5  UNL d   1       0.818  -0.401  -1.710  0.00  0.00    -0.004 A 
ATOM      5  C6  UNL d   1      -0.202   0.277  -1.034  0.00  0.00    -0.075 A 
ATOM      6  C7  UNL d   1      -1.180   1.138  -1.777  0.00  0.00     0.076 C 
ATOM      7  C8  UNL d   1      -0.310   0.136   0.356  0.00  0.00     0.001 A 
ENDROOT
BRANCH   1   8
ATOM      8  C1  UNL d   1       0.464  -0.807   2.567  0.00  0.00     0.053 C 
ATOM      9  C   UNL d   1       1.778  -1.219   3.211  0.00  0.00     0.018 C 
ENDBRANCH   1   8
TORSDOF 1
ENDMDL
