MODEL 1
REMARK minimizedAffinity -5.13459015
REMARK minimizedRMSD -1
REMARK  1 active torsions:
REMARK  status: ('A' for Active; 'I' for Inactive)
REMARK    1  A    between atoms: C1_2  and  C2_3 
ROOT
ATOM      1  C2  UNL d   1      -0.050   0.954  -0.420  0.00  0.00    -0.073 A 
ATOM      2  C3  UNL d   1      -1.372   0.515  -0.289  0.00  0.00    -0.002 A 
ATOM      3  C4  UNL d   1      -1.735  -0.319   0.770  0.00  0.00     0.004 A 
ATOM      4  C5  UNL d   1      -0.784  -0.715   1.710  0.00  0.00    -0.004 A 
ATOM      5  C6  UNL d   1       0.539  -0.277   1.602  0.00  0.00    -0.075 A 
ATOM      6  C7  UNL d   1       1.575  -0.696   2.604  0.00  0.00     0.076 C 
ATOM      7  C8  UNL d   1       0.897   0.558   0.535  0.00  0.00     0.001 A 
ENDROOT
BRANCH   1   8
ATOM      8  C1  UNL d   1       0.346   1.860  -1.558  0.00  0.00     0.053 C 
ATOM      9  C   UNL d   1      -0.786   2.787  -1.969  0.00  0.00     0.018 C 
ENDBRANCH   1   8
TORSDOF 1
ENDMDL
