MODEL 1
REMARK minimizedAffinity 0.962823868
REMARK minimizedRMSD -1
REMARK  1 active torsions:
REMARK  status: ('A' for Active; 'I' for Inactive)
REMARK    1  A    between atoms: C3_4  and  O_7 
ROOT
ATOM      1  C   UNL d   1       0.776  -0.105  -0.617  0.00  0.00    -0.033 A 
ATOM      2  C1  UNL d   1       0.006   0.979  -1.044  0.00  0.00     0.039 A 
ATOM      3  C2  UNL d   1      -1.134   1.352  -0.330  0.00  0.00    -0.080 A 
ATOM      4  C3  UNL d   1      -1.493   0.635   0.808  0.00  0.00     0.150 A 
ATOM      5  C4  UNL d   1      -0.728  -0.443   1.242  0.00  0.00    -0.007 A 
ATOM      6  C5  UNL d   1       0.409  -0.815   0.527  0.00  0.00     0.039 A 
ENDROOT
BRANCH   4   7
ATOM      7  O   UNL d   1      -2.600   0.959   1.535  0.00  0.00    -0.526 OA
ATOM      8  H5  UNL d   1      -3.045   1.706   1.102  0.00  0.00     0.418 HD
ENDBRANCH   4   7
TORSDOF 1
ENDMDL
