MODEL 1
REMARK minimizedAffinity 1.77351177
REMARK minimizedRMSD -1
REMARK  1 active torsions:
REMARK  status: ('A' for Active; 'I' for Inactive)
REMARK    1  A    between atoms: C3_4  and  O_7 
ROOT
ATOM      1  C   UNL d   1       0.142  -0.565  -1.158  0.00  0.00    -0.033 A 
ATOM      2  C1  UNL d   1      -1.251  -0.587  -1.261  0.00  0.00     0.039 A 
ATOM      3  C2  UNL d   1      -2.037  -0.046  -0.242  0.00  0.00    -0.080 A 
ATOM      4  C3  UNL d   1      -1.420   0.515   0.872  0.00  0.00     0.150 A 
ATOM      5  C4  UNL d   1      -0.033   0.544   0.980  0.00  0.00    -0.007 A 
ATOM      6  C5  UNL d   1       0.750   0.002  -0.038  0.00  0.00     0.039 A 
ENDROOT
BRANCH   4   7
ATOM      7  O   UNL d   1      -2.145   1.051   1.894  0.00  0.00    -0.526 OA
ATOM      8  H5  UNL d   1      -3.089   0.934   1.696  0.00  0.00     0.418 HD
ENDBRANCH   4   7
TORSDOF 1
ENDMDL
