MODEL 1
REMARK minimizedAffinity 7.73697519
REMARK minimizedRMSD -1
REMARK  1 active torsions:
REMARK  status: ('A' for Active; 'I' for Inactive)
REMARK    1  A    between atoms: C3_4  and  O_7 
ROOT
ATOM      1  C   UNL d   1      -1.246  -1.080  -3.810  0.00  0.00    -0.033 A 
ATOM      2  C1  UNL d   1      -0.370  -1.014  -2.724  0.00  0.00     0.039 A 
ATOM      3  C2  UNL d   1       0.708  -0.128  -2.748  0.00  0.00    -0.080 A 
ATOM      4  C3  UNL d   1       0.899   0.687  -3.861  0.00  0.00     0.150 A 
ATOM      5  C4  UNL d   1       0.028   0.629  -4.944  0.00  0.00    -0.007 A 
ATOM      6  C5  UNL d   1      -1.047  -0.257  -4.919  0.00  0.00     0.039 A 
ENDROOT
BRANCH   4   7
ATOM      7  O   UNL d   1       1.940   1.564  -3.931  0.00  0.00    -0.526 OA
ATOM      8  H5  UNL d   1       2.474   1.474  -3.124  0.00  0.00     0.418 HD
ENDBRANCH   4   7
TORSDOF 1
ENDMDL
