MODEL 1
REMARK minimizedAffinity -3.25485802
REMARK minimizedRMSD -1
REMARK  1 active torsions:
REMARK  status: ('A' for Active; 'I' for Inactive)
REMARK    1  A    between atoms: C3_4  and  O_7 
ROOT
ATOM      1  C   UNL d   1       0.499  -0.063   1.423  0.00  0.00    -0.033 A 
ATOM      2  C1  UNL d   1       0.134  -0.056   0.075  0.00  0.00     0.039 A 
ATOM      3  C2  UNL d   1      -1.202   0.126  -0.288  0.00  0.00    -0.080 A 
ATOM      4  C3  UNL d   1      -2.162   0.300   0.705  0.00  0.00     0.150 A 
ATOM      5  C4  UNL d   1      -1.805   0.298   2.050  0.00  0.00    -0.007 A 
ATOM      6  C5  UNL d   1      -0.471   0.115   2.410  0.00  0.00     0.039 A 
ENDROOT
BRANCH   4   7
ATOM      7  O   UNL d   1      -3.479   0.477   0.400  0.00  0.00    -0.526 OA
ATOM      8  H5  UNL d   1      -3.580   0.427  -0.565  0.00  0.00     0.418 HD
ENDBRANCH   4   7
TORSDOF 1
ENDMDL
