MODEL 1
REMARK minimizedAffinity -3.12235594
REMARK minimizedRMSD -1
REMARK  1 active torsions:
REMARK  status: ('A' for Active; 'I' for Inactive)
REMARK    1  A    between atoms: C3_4  and  O_7 
ROOT
ATOM      1  C   UNL d   1       2.578   0.052   1.209  0.00  0.00    -0.033 A 
ATOM      2  C1  UNL d   1       1.230   0.414   1.179  0.00  0.00     0.039 A 
ATOM      3  C2  UNL d   1       0.475   0.205   0.023  0.00  0.00    -0.080 A 
ATOM      4  C3  UNL d   1       1.079  -0.367  -1.093  0.00  0.00     0.150 A 
ATOM      5  C4  UNL d   1       2.420  -0.733  -1.069  0.00  0.00    -0.007 A 
ATOM      6  C5  UNL d   1       3.173  -0.522   0.086  0.00  0.00     0.039 A 
ENDROOT
BRANCH   4   7
ATOM      7  O   UNL d   1       0.384  -0.586  -2.246  0.00  0.00    -0.526 OA
ATOM      8  H5  UNL d   1      -0.523  -0.257  -2.125  0.00  0.00     0.418 HD
ENDBRANCH   4   7
TORSDOF 1
ENDMDL
