MODEL 1
REMARK minimizedAffinity -0.614944041
REMARK minimizedRMSD -1
REMARK  1 active torsions:
REMARK  status: ('A' for Active; 'I' for Inactive)
REMARK    1  A    between atoms: C3_4  and  O_7 
ROOT
ATOM      1  C   UNL d   1       1.578  -0.417  -0.125  0.00  0.00    -0.033 A 
ATOM      2  C1  UNL d   1       0.352  -0.084  -0.703  0.00  0.00     0.039 A 
ATOM      3  C2  UNL d   1      -0.736   0.252   0.106  0.00  0.00    -0.080 A 
ATOM      4  C3  UNL d   1      -0.583   0.252   1.490  0.00  0.00     0.150 A 
ATOM      5  C4  UNL d   1       0.636  -0.076   2.073  0.00  0.00    -0.007 A 
ATOM      6  C5  UNL d   1       1.721  -0.412   1.263  0.00  0.00     0.039 A 
ENDROOT
BRANCH   4   7
ATOM      7  O   UNL d   1      -1.617   0.568   2.320  0.00  0.00    -0.526 OA
ATOM      8  H5  UNL d   1      -2.404   0.744   1.779  0.00  0.00     0.418 HD
ENDBRANCH   4   7
TORSDOF 1
ENDMDL
