MODEL 1
REMARK minimizedAffinity -5.07745886
REMARK minimizedRMSD -1
REMARK  1 active torsions:
REMARK  status: ('A' for Active; 'I' for Inactive)
REMARK    1  A    between atoms: C3_4  and  O_7 
ROOT
ATOM      1  C   UNL d   1      -0.670   1.159   2.684  0.00  0.00    -0.033 A 
ATOM      2  C1  UNL d   1       0.639   0.760   2.405  0.00  0.00     0.039 A 
ATOM      3  C2  UNL d   1       0.953   0.213   1.159  0.00  0.00    -0.080 A 
ATOM      4  C3  UNL d   1      -0.048   0.072   0.203  0.00  0.00     0.150 A 
ATOM      5  C4  UNL d   1      -1.353   0.471   0.473  0.00  0.00    -0.007 A 
ATOM      6  C5  UNL d   1      -1.665   1.016   1.717  0.00  0.00     0.039 A 
ENDROOT
BRANCH   4   7
ATOM      7  O   UNL d   1       0.209  -0.461  -1.026  0.00  0.00    -0.526 OA
ATOM      8  H5  UNL d   1       1.146  -0.717  -1.059  0.00  0.00     0.418 HD
ENDBRANCH   4   7
TORSDOF 1
ENDMDL
