MODEL 1
REMARK minimizedAffinity -5.525805
REMARK minimizedRMSD -1
REMARK  1 active torsions:
REMARK  status: ('A' for Active; 'I' for Inactive)
REMARK    1  A    between atoms: C3_4  and  O_7 
ROOT
ATOM      1  C   UNL d   1      -0.313   0.589   3.244  0.00  0.00    -0.033 A 
ATOM      2  C1  UNL d   1       0.986   0.342   2.798  0.00  0.00     0.039 A 
ATOM      3  C2  UNL d   1       1.259   0.291   1.430  0.00  0.00    -0.080 A 
ATOM      4  C3  UNL d   1       0.225   0.491   0.519  0.00  0.00     0.150 A 
ATOM      5  C4  UNL d   1      -1.072   0.741   0.957  0.00  0.00    -0.007 A 
ATOM      6  C5  UNL d   1      -1.342   0.790   2.324  0.00  0.00     0.039 A 
ENDROOT
BRANCH   4   7
ATOM      7  O   UNL d   1       0.441   0.447  -0.826  0.00  0.00    -0.526 OA
ATOM      8  H5  UNL d   1       1.377   0.236  -0.980  0.00  0.00     0.418 HD
ENDBRANCH   4   7
TORSDOF 1
ENDMDL
