MODEL 1
REMARK minimizedAffinity -4.22933435
REMARK minimizedRMSD -1
REMARK  1 active torsions:
REMARK  status: ('A' for Active; 'I' for Inactive)
REMARK    1  A    between atoms: C3_4  and  O_7 
ROOT
ATOM      1  C   UNL d   1      -0.333  -0.350   0.142  0.00  0.00    -0.033 A 
ATOM      2  C1  UNL d   1      -1.435  -0.720   0.915  0.00  0.00     0.039 A 
ATOM      3  C2  UNL d   1      -1.644  -0.130   2.163  0.00  0.00    -0.080 A 
ATOM      4  C3  UNL d   1      -0.745   0.828   2.625  0.00  0.00     0.150 A 
ATOM      5  C4  UNL d   1       0.353   1.203   1.859  0.00  0.00    -0.007 A 
ATOM      6  C5  UNL d   1       0.561   0.612   0.613  0.00  0.00     0.039 A 
ENDROOT
BRANCH   4   7
ATOM      7  O   UNL d   1      -0.905   1.428   3.839  0.00  0.00    -0.526 OA
ATOM      8  H5  UNL d   1      -1.690   1.049   4.269  0.00  0.00     0.418 HD
ENDBRANCH   4   7
TORSDOF 1
ENDMDL
