MODEL 1
REMARK minimizedAffinity -3.38187003
REMARK minimizedRMSD -1
REMARK  1 active torsions:
REMARK  status: ('A' for Active; 'I' for Inactive)
REMARK    1  A    between atoms: C3_4  and  O_7 
ROOT
ATOM      1  C   UNL d   1      -0.016  -1.066  -0.852  0.00  0.00    -0.033 A 
ATOM      2  C1  UNL d   1      -1.355  -0.700  -0.705  0.00  0.00     0.039 A 
ATOM      3  C2  UNL d   1      -1.739   0.144   0.339  0.00  0.00    -0.080 A 
ATOM      4  C3  UNL d   1      -0.776   0.614   1.227  0.00  0.00     0.150 A 
ATOM      5  C4  UNL d   1       0.561   0.257   1.084  0.00  0.00    -0.007 A 
ATOM      6  C5  UNL d   1       0.943  -0.587   0.041  0.00  0.00     0.039 A 
ENDROOT
BRANCH   4   7
ATOM      7  O   UNL d   1      -1.103   1.436   2.264  0.00  0.00    -0.526 OA
ATOM      8  H5  UNL d   1      -2.065   1.575   2.255  0.00  0.00     0.418 HD
ENDBRANCH   4   7
TORSDOF 1
ENDMDL
