MODEL 1
REMARK minimizedAffinity -0.33595708
REMARK minimizedRMSD -1
REMARK  0 active torsions:
REMARK  status: ('A' for Active; 'I' for Inactive)
ROOT
ATOM      1  C   UNL d   1       5.983  -1.460   4.857  0.00  0.00    -0.002 A 
ATOM      2  C1  UNL d   1       5.981  -0.672   6.000  0.00  0.00     0.010 A 
ATOM      3  C2  UNL d   1       5.985   0.721   5.902  0.00  0.00     0.041 A 
ATOM      4  C3  UNL d   1       5.990   1.314   4.624  0.00  0.00    -0.075 A 
ATOM      5  S   UNL d   1       5.995   2.999   4.261  0.00  0.00     0.015 SA
ATOM      6  C4  UNL d   1       6.000   2.713   2.581  0.00  0.00     0.022 A 
ATOM      7  C5  UNL d   1       5.998   1.371   2.286  0.00  0.00     0.026 A 
ATOM      8  C6  UNL d   1       5.992   0.542   3.459  0.00  0.00    -0.082 A 
ATOM      9  C7  UNL d   1       5.988  -0.868   3.592  0.00  0.00     0.045 A 
ENDROOT
TORSDOF 0
ENDMDL
