MODEL 1
REMARK minimizedAffinity 3.76634312
REMARK minimizedRMSD -1
REMARK  0 active torsions:
REMARK  status: ('A' for Active; 'I' for Inactive)
ROOT
ATOM      1  C   UNL d   1       5.432  -1.842   4.916  0.00  0.00    -0.002 A 
ATOM      2  C1  UNL d   1       6.000  -1.028   5.886  0.00  0.00     0.010 A 
ATOM      3  C2  UNL d   1       5.999   0.361   5.738  0.00  0.00     0.041 A 
ATOM      4  C3  UNL d   1       5.410   0.923   4.588  0.00  0.00    -0.075 A 
ATOM      5  S   UNL d   1       5.291   2.597   4.193  0.00  0.00     0.015 SA
ATOM      6  C4  UNL d   1       4.483   2.271   2.729  0.00  0.00     0.022 A 
ATOM      7  C5  UNL d   1       4.300   0.923   2.529  0.00  0.00     0.026 A 
ATOM      8  C6  UNL d   1       4.831   0.124   3.598  0.00  0.00    -0.082 A 
ATOM      9  C7  UNL d   1       4.849  -1.280   3.777  0.00  0.00     0.045 A 
ENDROOT
TORSDOF 0
ENDMDL
