MODEL 1
REMARK minimizedAffinity 7.3825717
REMARK minimizedRMSD -1
REMARK  0 active torsions:
REMARK  status: ('A' for Active; 'I' for Inactive)
ROOT
ATOM      1  C   UNL d   1       4.317   5.421  -0.929  0.00  0.00    -0.002 A 
ATOM      2  C1  UNL d   1       3.444   4.418  -0.533  0.00  0.00     0.010 A 
ATOM      3  C2  UNL d   1       3.430   3.970   0.790  0.00  0.00     0.041 A 
ATOM      4  C3  UNL d   1       4.316   4.555   1.717  0.00  0.00    -0.075 A 
ATOM      5  S   UNL d   1       4.475   4.167   3.389  0.00  0.00     0.015 SA
ATOM      6  C4  UNL d   1       5.705   5.325   3.617  0.00  0.00     0.022 A 
ATOM      7  C5  UNL d   1       6.000   5.999   2.455  0.00  0.00     0.026 A 
ATOM      8  C6  UNL d   1       5.204   5.567   1.341  0.00  0.00    -0.082 A 
ATOM      9  C7  UNL d   1       5.194   5.998  -0.007  0.00  0.00     0.045 A 
ENDROOT
TORSDOF 0
ENDMDL
