MODEL 1
REMARK minimizedAffinity 17.0328865
REMARK minimizedRMSD -1
REMARK  0 active torsions:
REMARK  status: ('A' for Active; 'I' for Inactive)
ROOT
ATOM      1  C   UNL d   1       2.092   3.512  -5.943  0.00  0.00    -0.002 A 
ATOM      2  C1  UNL d   1       2.007   2.128  -6.000  0.00  0.00     0.010 A 
ATOM      3  C2  UNL d   1       2.965   1.331  -5.371  0.00  0.00     0.041 A 
ATOM      4  C3  UNL d   1       4.020   1.954  -4.675  0.00  0.00    -0.075 A 
ATOM      5  S   UNL d   1       5.307   1.180  -3.829  0.00  0.00     0.015 SA
ATOM      6  C4  UNL d   1       6.000   2.669  -3.371  0.00  0.00     0.022 A 
ATOM      7  C5  UNL d   1       5.280   3.740  -3.844  0.00  0.00     0.026 A 
ATOM      8  C6  UNL d   1       4.126   3.346  -4.603  0.00  0.00    -0.082 A 
ATOM      9  C7  UNL d   1       3.140   4.126  -5.252  0.00  0.00     0.045 A 
ENDROOT
TORSDOF 0
ENDMDL
