MODEL 1
REMARK minimizedAffinity 1.28387558
REMARK minimizedRMSD -1
REMARK  0 active torsions:
REMARK  status: ('A' for Active; 'I' for Inactive)
ROOT
ATOM      1  C   UNL d   1       5.975   3.153   3.415  0.00  0.00    -0.002 A 
ATOM      2  C1  UNL d   1       5.971   2.385   2.260  0.00  0.00     0.010 A 
ATOM      3  C2  UNL d   1       5.977   0.990   2.335  0.00  0.00     0.041 A 
ATOM      4  C3  UNL d   1       5.985   0.376   3.602  0.00  0.00    -0.075 A 
ATOM      5  S   UNL d   1       5.992  -1.316   3.937  0.00  0.00     0.015 SA
ATOM      6  C4  UNL d   1       6.000  -1.058   5.622  0.00  0.00     0.022 A 
ATOM      7  C5  UNL d   1       5.998   0.280   5.939  0.00  0.00     0.026 A 
ATOM      8  C6  UNL d   1       5.988   1.128   4.780  0.00  0.00    -0.082 A 
ATOM      9  C7  UNL d   1       5.984   2.540   4.671  0.00  0.00     0.045 A 
ENDROOT
TORSDOF 0
ENDMDL
