MODEL 1
REMARK minimizedAffinity 0.476415426
REMARK minimizedRMSD -1
REMARK  0 active torsions:
REMARK  status: ('A' for Active; 'I' for Inactive)
ROOT
ATOM      1  C   UNL d   1       5.431  -0.372   3.536  0.00  0.00    -0.002 A 
ATOM      2  C1  UNL d   1       5.256  -0.336   4.912  0.00  0.00     0.010 A 
ATOM      3  C2  UNL d   1       5.328   0.873   5.606  0.00  0.00     0.041 A 
ATOM      4  C3  UNL d   1       5.579   2.058   4.886  0.00  0.00    -0.075 A 
ATOM      5  S   UNL d   1       5.709   3.654   5.524  0.00  0.00     0.015 SA
ATOM      6  C4  UNL d   1       5.998   4.326   3.985  0.00  0.00     0.022 A 
ATOM      7  C5  UNL d   1       6.000   3.370   2.997  0.00  0.00     0.026 A 
ATOM      8  C6  UNL d   1       5.757   2.047   3.500  0.00  0.00    -0.082 A 
ATOM      9  C7  UNL d   1       5.679   0.805   2.825  0.00  0.00     0.045 A 
ENDROOT
TORSDOF 0
ENDMDL
