MODEL 1
REMARK minimizedAffinity -2.71899176
REMARK minimizedRMSD -1
REMARK  0 active torsions:
REMARK  status: ('A' for Active; 'I' for Inactive)
ROOT
ATOM      1  C   UNL d   1       5.989  -1.312   4.797  0.00  0.00    -0.002 A 
ATOM      2  C1  UNL d   1       5.995  -1.167   3.417  0.00  0.00     0.010 A 
ATOM      3  C2  UNL d   1       5.997   0.102   2.836  0.00  0.00     0.041 A 
ATOM      4  C3  UNL d   1       5.996   1.235   3.673  0.00  0.00    -0.075 A 
ATOM      5  S   UNL d   1       6.000   2.888   3.185  0.00  0.00     0.015 SA
ATOM      6  C4  UNL d   1       5.994   3.442   4.797  0.00  0.00     0.022 A 
ATOM      7  C5  UNL d   1       5.990   2.404   5.698  0.00  0.00     0.026 A 
ATOM      8  C6  UNL d   1       5.991   1.115   5.066  0.00  0.00    -0.082 A 
ATOM      9  C7  UNL d   1       5.987  -0.186   5.624  0.00  0.00     0.045 A 
ENDROOT
TORSDOF 0
ENDMDL
