MODEL 1
REMARK minimizedAffinity -0.969857335
REMARK minimizedRMSD -1
REMARK  0 active torsions:
REMARK  status: ('A' for Active; 'I' for Inactive)
ROOT
ATOM      1  C   UNL d   1       5.996  -1.427   4.717  0.00  0.00    -0.002 A 
ATOM      2  C1  UNL d   1       5.987  -0.773   5.941  0.00  0.00     0.010 A 
ATOM      3  C2  UNL d   1       5.983   0.622   6.000  0.00  0.00     0.041 A 
ATOM      4  C3  UNL d   1       5.987   1.355   4.797  0.00  0.00    -0.075 A 
ATOM      5  S   UNL d   1       5.982   3.071   4.625  0.00  0.00     0.015 SA
ATOM      6  C4  UNL d   1       5.991   2.975   2.924  0.00  0.00     0.022 A 
ATOM      7  C5  UNL d   1       5.998   1.674   2.480  0.00  0.00     0.026 A 
ATOM      8  C6  UNL d   1       5.995   0.719   3.553  0.00  0.00    -0.082 A 
ATOM      9  C7  UNL d   1       5.999  -0.697   3.526  0.00  0.00     0.045 A 
ENDROOT
TORSDOF 0
ENDMDL
