MODEL 1
REMARK minimizedAffinity -0.654701829
REMARK minimizedRMSD -1
REMARK  0 active torsions:
REMARK  status: ('A' for Active; 'I' for Inactive)
ROOT
ATOM      1  C   UNL d   1       5.196   2.945   3.487  0.00  0.00    -0.002 A 
ATOM      2  C1  UNL d   1       5.723   3.156   4.753  0.00  0.00     0.010 A 
ATOM      3  C2  UNL d   1       5.998   2.077   5.596  0.00  0.00     0.041 A 
ATOM      4  C3  UNL d   1       5.735   0.770   5.139  0.00  0.00    -0.075 A 
ATOM      5  S   UNL d   1       5.994  -0.703   5.996  0.00  0.00     0.015 SA
ATOM      6  C4  UNL d   1       5.413  -1.646   4.701  0.00  0.00     0.022 A 
ATOM      7  C5  UNL d   1       5.026  -0.872   3.633  0.00  0.00     0.026 A 
ATOM      8  C6  UNL d   1       5.206   0.533   3.867  0.00  0.00    -0.082 A 
ATOM      9  C7  UNL d   1       4.936   1.648   3.037  0.00  0.00     0.045 A 
ENDROOT
TORSDOF 0
ENDMDL
