MODEL 1
REMARK minimizedAffinity 7.86765003
REMARK minimizedRMSD -1
REMARK  0 active torsions:
REMARK  status: ('A' for Active; 'I' for Inactive)
ROOT
ATOM      1  C   UNL d   1       0.214   4.827   0.506  0.00  0.00    -0.002 A 
ATOM      2  C1  UNL d   1      -0.378   3.791  -0.203  0.00  0.00     0.010 A 
ATOM      3  C2  UNL d   1      -1.002   2.738   0.467  0.00  0.00     0.041 A 
ATOM      4  C3  UNL d   1      -1.024   2.744   1.876  0.00  0.00    -0.075 A 
ATOM      5  S   UNL d   1      -1.733   1.560   2.909  0.00  0.00     0.015 SA
ATOM      6  C4  UNL d   1      -1.267   2.401   4.316  0.00  0.00     0.022 A 
ATOM      7  C5  UNL d   1      -0.587   3.559   4.024  0.00  0.00     0.026 A 
ATOM      8  C6  UNL d   1      -0.436   3.776   2.612  0.00  0.00    -0.082 A 
ATOM      9  C7  UNL d   1       0.191   4.829   1.903  0.00  0.00     0.045 A 
ENDROOT
TORSDOF 0
ENDMDL
