MODEL 1
REMARK minimizedAffinity -3.74065042
REMARK minimizedRMSD -1
REMARK  0 active torsions:
REMARK  status: ('A' for Active; 'I' for Inactive)
ROOT
ATOM      1  C   UNL d   1       5.713  -0.466   4.506  0.00  0.00    -0.002 A 
ATOM      2  C1  UNL d   1       5.635   0.061   5.788  0.00  0.00     0.010 A 
ATOM      3  C2  UNL d   1       5.677   1.442   5.992  0.00  0.00     0.041 A 
ATOM      4  C3  UNL d   1       5.797   2.293   4.875  0.00  0.00    -0.075 A 
ATOM      5  S   UNL d   1       5.866   4.015   4.883  0.00  0.00     0.015 SA
ATOM      6  C4  UNL d   1       6.000   4.092   3.186  0.00  0.00     0.022 A 
ATOM      7  C5  UNL d   1       5.994   2.844   2.611  0.00  0.00     0.026 A 
ATOM      8  C6  UNL d   1       5.876   1.786   3.575  0.00  0.00    -0.082 A 
ATOM      9  C7  UNL d   1       5.832   0.381   3.401  0.00  0.00     0.045 A 
ENDROOT
TORSDOF 0
ENDMDL
