MODEL 1
REMARK minimizedAffinity 10.0459518
REMARK minimizedRMSD -1
REMARK  0 active torsions:
REMARK  status: ('A' for Active; 'I' for Inactive)
ROOT
ATOM      1  O1  BZF d   1       2.222  -2.640  -0.754  0.00  0.00    -0.204 OA
ATOM      2  C2  BZF d   1       1.461  -1.988   0.196  0.00  0.00     0.174 A 
ATOM      3  C3  BZF d   1       1.695  -2.491   1.425  0.00  0.00    -0.012 A 
ATOM      4  C3A BZF d   1       2.731  -3.461   1.243  0.00  0.00    -0.107 A 
ATOM      5  C4  BZF d   1       3.404  -4.287   2.097  0.00  0.00     0.055 A 
ATOM      6  C5  BZF d   1       4.308  -5.166   1.590  0.00  0.00    -0.016 A 
ATOM      7  C6  BZF d   1       4.559  -5.250   0.237  0.00  0.00     0.022 A 
ATOM      8  C7  BZF d   1       3.919  -4.448  -0.649  0.00  0.00     0.029 A 
ATOM      9  C7A BZF d   1       3.030  -3.535  -0.137  0.00  0.00     0.058 A 
ENDROOT
TORSDOF 0
ENDMDL
