MODEL 1
REMARK minimizedAffinity 15.7652264
REMARK minimizedRMSD -1
REMARK  0 active torsions:
REMARK  status: ('A' for Active; 'I' for Inactive)
ROOT
ATOM      1  O1  BZF d   1       5.242  -0.887  -0.297  0.00  0.00    -0.204 OA
ATOM      2  C2  BZF d   1       5.006   0.459  -0.495  0.00  0.00     0.174 A 
ATOM      3  C3  BZF d   1       3.684   0.722  -0.464  0.00  0.00    -0.012 A 
ATOM      4  C3A BZF d   1       3.059  -0.524  -0.141  0.00  0.00    -0.107 A 
ATOM      5  C4  BZF d   1       1.761  -0.903   0.047  0.00  0.00     0.055 A 
ATOM      6  C5  BZF d   1       1.482  -2.212   0.279  0.00  0.00    -0.016 A 
ATOM      7  C6  BZF d   1       2.474  -3.169   0.324  0.00  0.00     0.022 A 
ATOM      8  C7  BZF d   1       3.778  -2.841   0.148  0.00  0.00     0.029 A 
ATOM      9  C7A BZF d   1       4.066  -1.513  -0.054  0.00  0.00     0.058 A 
ENDROOT
TORSDOF 0
ENDMDL
