MODEL 1
REMARK minimizedAffinity 5.9273386
REMARK minimizedRMSD -1
REMARK  0 active torsions:
REMARK  status: ('A' for Active; 'I' for Inactive)
ROOT
ATOM      1  O1  BZF d   1       1.177  -4.898   0.860  0.00  0.00    -0.204 OA
ATOM      2  C2  BZF d   1       2.512  -4.570   0.725  0.00  0.00     0.174 A 
ATOM      3  C3  BZF d   1       2.743  -3.315   1.162  0.00  0.00    -0.012 A 
ATOM      4  C3A BZF d   1       1.490  -2.861   1.683  0.00  0.00    -0.107 A 
ATOM      5  C4  BZF d   1       1.084  -1.698   2.273  0.00  0.00     0.055 A 
ATOM      6  C5  BZF d   1      -0.226  -1.546   2.601  0.00  0.00    -0.016 A 
ATOM      7  C6  BZF d   1      -1.157  -2.533   2.349  0.00  0.00     0.022 A 
ATOM      8  C7  BZF d   1      -0.801  -3.706   1.770  0.00  0.00     0.029 A 
ATOM      9  C7A BZF d   1       0.528  -3.875   1.468  0.00  0.00     0.058 A 
ENDROOT
TORSDOF 0
ENDMDL
