MODEL 1
REMARK minimizedAffinity 5.56687069
REMARK minimizedRMSD -1
REMARK  0 active torsions:
REMARK  status: ('A' for Active; 'I' for Inactive)
ROOT
ATOM      1  O1  BZF d   1      -5.381   1.280  -5.213  0.00  0.00    -0.204 OA
ATOM      2  C2  BZF d   1      -5.807  -0.004  -4.932  0.00  0.00     0.174 A 
ATOM      3  C3  BZF d   1      -5.178  -0.489  -3.842  0.00  0.00    -0.012 A 
ATOM      4  C3A BZF d   1      -4.372   0.591  -3.361  0.00  0.00    -0.107 A 
ATOM      5  C4  BZF d   1      -3.527   0.731  -2.298  0.00  0.00     0.055 A 
ATOM      6  C5  BZF d   1      -2.836   1.892  -2.151  0.00  0.00    -0.016 A 
ATOM      7  C6  BZF d   1      -2.962   2.931  -3.050  0.00  0.00     0.022 A 
ATOM      8  C7  BZF d   1      -3.792   2.840  -4.118  0.00  0.00     0.029 A 
ATOM      9  C7A BZF d   1      -4.516   1.681  -4.251  0.00  0.00     0.058 A 
ENDROOT
TORSDOF 0
ENDMDL
