MODEL 1
REMARK minimizedAffinity 1.26589966
REMARK minimizedRMSD -1
REMARK  0 active torsions:
REMARK  status: ('A' for Active; 'I' for Inactive)
ROOT
ATOM      1  O1  BZF d   1      -5.799   2.749   4.632  0.00  0.00    -0.204 OA
ATOM      2  C2  BZF d   1      -5.042   1.643   4.299  0.00  0.00     0.174 A 
ATOM      3  C3  BZF d   1      -3.731   1.878   4.511  0.00  0.00    -0.012 A 
ATOM      4  C3A BZF d   1      -3.673   3.183   5.096  0.00  0.00    -0.107 A 
ATOM      5  C4  BZF d   1      -2.648   3.966   5.545  0.00  0.00     0.055 A 
ATOM      6  C5  BZF d   1      -2.922   5.220   5.992  0.00  0.00    -0.016 A 
ATOM      7  C6  BZF d   1      -4.206   5.723   6.000  0.00  0.00     0.022 A 
ATOM      8  C7  BZF d   1      -5.256   4.982   5.569  0.00  0.00     0.029 A 
ATOM      9  C7A BZF d   1      -4.987   3.703   5.148  0.00  0.00     0.058 A 
ENDROOT
TORSDOF 0
ENDMDL
