MODEL 1
REMARK minimizedAffinity 10.9611607
REMARK minimizedRMSD -1
REMARK  0 active torsions:
REMARK  status: ('A' for Active; 'I' for Inactive)
ROOT
ATOM      1  O1  BZF d   1      -2.898   1.071  -2.543  0.00  0.00    -0.204 OA
ATOM      2  C2  BZF d   1      -2.147   2.216  -2.726  0.00  0.00     0.174 A 
ATOM      3  C3  BZF d   1      -2.699   3.004  -3.671  0.00  0.00    -0.012 A 
ATOM      4  C3A BZF d   1      -3.917   2.351  -4.041  0.00  0.00    -0.107 A 
ATOM      5  C4  BZF d   1      -4.914   2.653  -4.924  0.00  0.00     0.055 A 
ATOM      6  C5  BZF d   1      -5.930   1.769  -5.101  0.00  0.00    -0.016 A 
ATOM      7  C6  BZF d   1      -5.979   0.572  -4.417  0.00  0.00     0.022 A 
ATOM      8  C7  BZF d   1      -5.016   0.231  -3.527  0.00  0.00     0.029 A 
ATOM      9  C7A BZF d   1      -4.004   1.137  -3.321  0.00  0.00     0.058 A 
ENDROOT
TORSDOF 0
ENDMDL
