MODEL 1
REMARK minimizedAffinity 0.958298743
REMARK minimizedRMSD -1
REMARK  0 active torsions:
REMARK  status: ('A' for Active; 'I' for Inactive)
ROOT
ATOM      1  O1  BZF d   1       1.996  -1.515   2.404  0.00  0.00    -0.204 OA
ATOM      2  C2  BZF d   1       0.692  -1.805   2.052  0.00  0.00     0.174 A 
ATOM      3  C3  BZF d   1       0.656  -2.737   1.078  0.00  0.00    -0.012 A 
ATOM      4  C3A BZF d   1       2.020  -3.116   0.869  0.00  0.00    -0.107 A 
ATOM      5  C4  BZF d   1       2.628  -4.014   0.039  0.00  0.00     0.055 A 
ATOM      6  C5  BZF d   1       3.985  -4.090   0.029  0.00  0.00    -0.016 A 
ATOM      7  C6  BZF d   1       4.763  -3.281   0.831  0.00  0.00     0.022 A 
ATOM      8  C7  BZF d   1       4.205  -2.378   1.674  0.00  0.00     0.029 A 
ATOM      9  C7A BZF d   1       2.833  -2.322   1.710  0.00  0.00     0.058 A 
ENDROOT
TORSDOF 0
ENDMDL
