MODEL 1
REMARK minimizedAffinity 3.36675096
REMARK minimizedRMSD -1
REMARK  0 active torsions:
REMARK  status: ('A' for Active; 'I' for Inactive)
ROOT
ATOM      1  O1  BZF d   1       2.397  -1.892   2.358  0.00  0.00    -0.204 OA
ATOM      2  C2  BZF d   1       1.841  -1.668   1.113  0.00  0.00     0.174 A 
ATOM      3  C3  BZF d   1       2.404  -2.471   0.187  0.00  0.00    -0.012 A 
ATOM      4  C3A BZF d   1       3.306  -3.310   0.914  0.00  0.00    -0.107 A 
ATOM      5  C4  BZF d   1       4.146  -4.324   0.550  0.00  0.00     0.055 A 
ATOM      6  C5  BZF d   1       4.947  -4.888   1.491  0.00  0.00    -0.016 A 
ATOM      7  C6  BZF d   1       4.938  -4.461   2.803  0.00  0.00     0.022 A 
ATOM      8  C7  BZF d   1       4.119  -3.462   3.213  0.00  0.00     0.029 A 
ATOM      9  C7A BZF d   1       3.284  -2.912   2.271  0.00  0.00     0.058 A 
ENDROOT
TORSDOF 0
ENDMDL
