MODEL 1
REMARK minimizedAffinity 2.93137455
REMARK minimizedRMSD -1
REMARK  0 active torsions:
REMARK  status: ('A' for Active; 'I' for Inactive)
ROOT
ATOM      1  O1  BZF d   1       2.648   4.006   2.802  0.00  0.00    -0.204 OA
ATOM      2  C2  BZF d   1       1.472   3.536   2.251  0.00  0.00     0.174 A 
ATOM      3  C3  BZF d   1       0.414   3.883   3.012  0.00  0.00    -0.012 A 
ATOM      4  C3A BZF d   1       0.954   4.695   4.059  0.00  0.00    -0.107 A 
ATOM      5  C4  BZF d   1       0.398   5.351   5.120  0.00  0.00     0.055 A 
ATOM      6  C5  BZF d   1       1.212   5.995   5.998  0.00  0.00    -0.016 A 
ATOM      7  C6  BZF d   1       2.583   5.999   5.849  0.00  0.00     0.022 A 
ATOM      8  C7  BZF d   1       3.180   5.367   4.809  0.00  0.00     0.029 A 
ATOM      9  C7A BZF d   1       2.358   4.743   3.902  0.00  0.00     0.058 A 
ENDROOT
TORSDOF 0
ENDMDL
