MODEL 1
REMARK minimizedAffinity -3.28958368
REMARK minimizedRMSD -1
REMARK  0 active torsions:
REMARK  status: ('A' for Active; 'I' for Inactive)
ROOT
ATOM      1  C   UNL d   1      -2.317   1.605   0.055  0.00  0.00     0.020 A 
ATOM      2  C1  UNL d   1      -2.283   0.906   1.261  0.00  0.00     0.020 A 
ATOM      3  C2  UNL d   1      -1.113   0.255   1.658  0.00  0.00     0.034 A 
ATOM      4  C3  UNL d   1       0.028   0.303   0.848  0.00  0.00     0.017 A 
ATOM      5  C4  UNL d   1      -0.007   1.005  -0.362  0.00  0.00     0.017 A 
ATOM      6  C5  UNL d   1      -1.182   1.654  -0.755  0.00  0.00     0.034 A 
ATOM      7 Cl   UNL d   1       1.360   1.108  -1.414  0.00  0.00    -0.070 Cl
ATOM      8 Cl1  UNL d   1       1.441  -0.524   1.402  0.00  0.00    -0.070 Cl
ENDROOT
TORSDOF 0
ENDMDL
