MODEL 1
REMARK minimizedAffinity -4.82131529
REMARK minimizedRMSD -1
REMARK  0 active torsions:
REMARK  status: ('A' for Active; 'I' for Inactive)
ROOT
ATOM      1  C   UNL d   1       0.771  -0.751  -0.169  0.00  0.00     0.020 A 
ATOM      2  C1  UNL d   1       0.165  -0.797   1.086  0.00  0.00     0.020 A 
ATOM      3  C2  UNL d   1      -0.628   0.269   1.518  0.00  0.00     0.034 A 
ATOM      4  C3  UNL d   1      -0.816   1.385   0.695  0.00  0.00     0.017 A 
ATOM      5  C4  UNL d   1      -0.207   1.430  -0.565  0.00  0.00     0.017 A 
ATOM      6  C5  UNL d   1       0.585   0.360  -0.992  0.00  0.00     0.034 A 
ATOM      7 Cl   UNL d   1      -0.393   2.773  -1.637  0.00  0.00    -0.070 Cl
ATOM      8 Cl1  UNL d   1      -1.809   2.666   1.293  0.00  0.00    -0.070 Cl
ENDROOT
TORSDOF 0
ENDMDL
