MODEL 1
REMARK minimizedAffinity -4.80315065
REMARK minimizedRMSD -1
REMARK  0 active torsions:
REMARK  status: ('A' for Active; 'I' for Inactive)
ROOT
ATOM      1  C   UNL d   1      -1.925   1.873   1.312  0.00  0.00     0.020 A 
ATOM      2  C1  UNL d   1      -1.641   2.194  -0.015  0.00  0.00     0.020 A 
ATOM      3  C2  UNL d   1      -0.643   1.500  -0.703  0.00  0.00     0.034 A 
ATOM      4  C3  UNL d   1       0.074   0.482  -0.065  0.00  0.00     0.017 A 
ATOM      5  C4  UNL d   1      -0.212   0.160   1.267  0.00  0.00     0.017 A 
ATOM      6  C5  UNL d   1      -1.212   0.858   1.951  0.00  0.00     0.034 A 
ATOM      7 Cl   UNL d   1       0.630  -1.084   2.121  0.00  0.00    -0.070 Cl
ATOM      8 Cl1  UNL d   1       1.294  -0.335  -0.976  0.00  0.00    -0.070 Cl
ENDROOT
TORSDOF 0
ENDMDL
