MODEL 1
REMARK minimizedAffinity 0.980826914
REMARK minimizedRMSD -1
REMARK  0 active torsions:
REMARK  status: ('A' for Active; 'I' for Inactive)
ROOT
ATOM      1  C   UNL d   1       1.046  -0.723  -0.505  0.00  0.00     0.020 A 
ATOM      2  C1  UNL d   1       0.170  -1.060   0.526  0.00  0.00     0.020 A 
ATOM      3  C2  UNL d   1      -0.916  -0.232   0.820  0.00  0.00     0.034 A 
ATOM      4  C3  UNL d   1      -1.128   0.938   0.081  0.00  0.00     0.017 A 
ATOM      5  C4  UNL d   1      -0.248   1.276  -0.954  0.00  0.00     0.017 A 
ATOM      6  C5  UNL d   1       0.837   0.443  -1.243  0.00  0.00     0.034 A 
ATOM      7 Cl   UNL d   1      -0.445   2.703  -1.909  0.00  0.00    -0.070 Cl
ATOM      8 Cl1  UNL d   1      -2.490   1.916   0.498  0.00  0.00    -0.070 Cl
ENDROOT
TORSDOF 0
ENDMDL
