MODEL 1
REMARK minimizedAffinity -3.78625584
REMARK minimizedRMSD -1
REMARK  0 active torsions:
REMARK  status: ('A' for Active; 'I' for Inactive)
ROOT
ATOM      1  C   UNL d   1      -1.665   2.562   1.480  0.00  0.00     0.020 A 
ATOM      2  C1  UNL d   1      -2.138   2.262   0.203  0.00  0.00     0.020 A 
ATOM      3  C2  UNL d   1      -1.711   1.101  -0.445  0.00  0.00     0.034 A 
ATOM      4  C3  UNL d   1      -0.808   0.236   0.184  0.00  0.00     0.017 A 
ATOM      5  C4  UNL d   1      -0.335   0.537   1.465  0.00  0.00     0.017 A 
ATOM      6  C5  UNL d   1      -0.766   1.701   2.110  0.00  0.00     0.034 A 
ATOM      7 Cl   UNL d   1       0.780  -0.482   2.305  0.00  0.00    -0.070 Cl
ATOM      8 Cl1  UNL d   1      -0.323  -1.182  -0.676  0.00  0.00    -0.070 Cl
ENDROOT
TORSDOF 0
ENDMDL
