MODEL 1
REMARK minimizedAffinity -2.9473424
REMARK minimizedRMSD -1
REMARK  0 active torsions:
REMARK  status: ('A' for Active; 'I' for Inactive)
ROOT
ATOM      1  C   UNL d   1       0.804  -1.069  -0.252  0.00  0.00     0.020 A 
ATOM      2  C1  UNL d   1      -0.136  -0.538  -1.134  0.00  0.00     0.020 A 
ATOM      3  C2  UNL d   1      -1.083   0.380  -0.675  0.00  0.00     0.034 A 
ATOM      4  C3  UNL d   1      -1.093   0.770   0.669  0.00  0.00     0.017 A 
ATOM      5  C4  UNL d   1      -0.149   0.235   1.554  0.00  0.00     0.017 A 
ATOM      6  C5  UNL d   1       0.797  -0.683   1.089  0.00  0.00     0.034 A 
ATOM      7 Cl   UNL d   1      -0.098   0.668   3.227  0.00  0.00    -0.070 Cl
ATOM      8 Cl1  UNL d   1      -2.292   1.909   1.167  0.00  0.00    -0.070 Cl
ENDROOT
TORSDOF 0
ENDMDL
