MODEL 1
REMARK minimizedAffinity -1.65548563
REMARK minimizedRMSD -1
REMARK  0 active torsions:
REMARK  status: ('A' for Active; 'I' for Inactive)
ROOT
ATOM      1  C   UNL d   1       0.993  -0.438  -1.035  0.00  0.00     0.020 A 
ATOM      2  C1  UNL d   1       0.348  -0.869   0.124  0.00  0.00     0.020 A 
ATOM      3  C2  UNL d   1      -0.638  -0.074   0.711  0.00  0.00     0.034 A 
ATOM      4  C3  UNL d   1      -0.981   1.157   0.140  0.00  0.00     0.017 A 
ATOM      5  C4  UNL d   1      -0.334   1.589  -1.023  0.00  0.00     0.017 A 
ATOM      6  C5  UNL d   1       0.653   0.788  -1.607  0.00  0.00     0.034 A 
ATOM      7 Cl   UNL d   1      -0.704   3.095  -1.785  0.00  0.00    -0.070 Cl
ATOM      8 Cl1  UNL d   1      -2.210   2.089   0.920  0.00  0.00    -0.070 Cl
ENDROOT
TORSDOF 0
ENDMDL
