MODEL 1
REMARK minimizedAffinity -3.81272912
REMARK minimizedRMSD -1
REMARK  0 active torsions:
REMARK  status: ('A' for Active; 'I' for Inactive)
ROOT
ATOM      1  C   UNL d   1       1.468   0.565  -1.274  0.00  0.00     0.020 A 
ATOM      2  C1  UNL d   1       0.789   1.724  -1.648  0.00  0.00     0.020 A 
ATOM      3  C2  UNL d   1      -0.291   2.177  -0.887  0.00  0.00     0.034 A 
ATOM      4  C3  UNL d   1      -0.697   1.469   0.250  0.00  0.00     0.017 A 
ATOM      5  C4  UNL d   1      -0.015   0.305   0.624  0.00  0.00     0.017 A 
ATOM      6  C5  UNL d   1       1.066  -0.143  -0.141  0.00  0.00     0.034 A 
ATOM      7 Cl   UNL d   1      -0.458  -0.622   2.014  0.00  0.00    -0.070 Cl
ATOM      8 Cl1  UNL d   1      -2.041   2.086   1.143  0.00  0.00    -0.070 Cl
ENDROOT
TORSDOF 0
ENDMDL
