MODEL 1
REMARK minimizedAffinity -2.54734826
REMARK minimizedRMSD -1
REMARK  0 active torsions:
REMARK  status: ('A' for Active; 'I' for Inactive)
ROOT
ATOM      1  C   UNL d   1       0.724   0.853  -1.235  0.00  0.00     0.020 A 
ATOM      2  C1  UNL d   1       1.316  -0.256  -0.631  0.00  0.00     0.020 A 
ATOM      3  C2  UNL d   1       0.794  -0.763   0.561  0.00  0.00     0.034 A 
ATOM      4  C3  UNL d   1      -0.323  -0.162   1.153  0.00  0.00     0.017 A 
ATOM      5  C4  UNL d   1      -0.916   0.951   0.546  0.00  0.00     0.017 A 
ATOM      6  C5  UNL d   1      -0.390   1.455  -0.648  0.00  0.00     0.034 A 
ATOM      7 Cl   UNL d   1      -2.296   1.747   1.216  0.00  0.00    -0.070 Cl
ATOM      8 Cl1  UNL d   1      -0.915  -0.842   2.626  0.00  0.00    -0.070 Cl
ENDROOT
TORSDOF 0
ENDMDL
