MODEL 1
REMARK minimizedAffinity -4.18268967
REMARK minimizedRMSD -1
REMARK  0 active torsions:
REMARK  status: ('A' for Active; 'I' for Inactive)
ROOT
ATOM      1  C   UNL d   1      -0.283  -0.691  -0.768  0.00  0.00     0.020 A 
ATOM      2  C1  UNL d   1       0.692  -0.787   0.224  0.00  0.00     0.020 A 
ATOM      3  C2  UNL d   1       0.666   0.084   1.316  0.00  0.00     0.034 A 
ATOM      4  C3  UNL d   1      -0.338   1.054   1.418  0.00  0.00     0.017 A 
ATOM      5  C4  UNL d   1      -1.316   1.149   0.422  0.00  0.00     0.017 A 
ATOM      6  C5  UNL d   1      -1.285   0.275  -0.669  0.00  0.00     0.034 A 
ATOM      7 Cl   UNL d   1      -2.586   2.321   0.478  0.00  0.00    -0.070 Cl
ATOM      8 Cl1  UNL d   1      -0.309   2.098   2.795  0.00  0.00    -0.070 Cl
ENDROOT
TORSDOF 0
ENDMDL
