MODEL 1
REMARK minimizedAffinity -2.89731264
REMARK minimizedRMSD -1
REMARK  0 active torsions:
REMARK  status: ('A' for Active; 'I' for Inactive)
ROOT
ATOM      1  C   UNL d   1      -1.953   1.988   1.792  0.00  0.00     0.020 A 
ATOM      2  C1  UNL d   1      -2.315   1.697   0.477  0.00  0.00     0.020 A 
ATOM      3  C2  UNL d   1      -1.548   0.806  -0.277  0.00  0.00     0.034 A 
ATOM      4  C3  UNL d   1      -0.417   0.202   0.282  0.00  0.00     0.017 A 
ATOM      5  C4  UNL d   1      -0.054   0.494   1.602  0.00  0.00     0.017 A 
ATOM      6  C5  UNL d   1      -0.825   1.387   2.353  0.00  0.00     0.034 A 
ATOM      7 Cl   UNL d   1       1.329  -0.211   2.362  0.00  0.00    -0.070 Cl
ATOM      8 Cl1  UNL d   1       0.484  -0.890  -0.708  0.00  0.00    -0.070 Cl
ENDROOT
TORSDOF 0
ENDMDL
