MODEL 1
REMARK minimizedAffinity -4.80148745
REMARK minimizedRMSD -1
REMARK  0 active torsions:
REMARK  status: ('A' for Active; 'I' for Inactive)
ROOT
ATOM      1  C   UNL d   1      -1.427   0.984   2.268  0.00  0.00     0.020 A 
ATOM      2  C1  UNL d   1      -1.368   2.346   1.976  0.00  0.00     0.020 A 
ATOM      3  C2  UNL d   1      -0.643   2.792   0.869  0.00  0.00     0.034 A 
ATOM      4  C3  UNL d   1       0.027   1.875   0.051  0.00  0.00     0.017 A 
ATOM      5  C4  UNL d   1      -0.033   0.508   0.345  0.00  0.00     0.017 A 
ATOM      6  C5  UNL d   1      -0.761   0.067   1.454  0.00  0.00     0.034 A 
ATOM      7 Cl   UNL d   1       0.767  -0.683  -0.619  0.00  0.00    -0.070 Cl
ATOM      8 Cl1  UNL d   1       0.905   2.497  -1.301  0.00  0.00    -0.070 Cl
ENDROOT
TORSDOF 0
ENDMDL
