MODEL 1
REMARK minimizedAffinity -2.64232206
REMARK minimizedRMSD -1
REMARK  0 active torsions:
REMARK  status: ('A' for Active; 'I' for Inactive)
ROOT
ATOM      1  C   UNL d   1       0.515  -1.207  -0.060  0.00  0.00     0.020 A 
ATOM      2  C1  UNL d   1       1.386  -0.750  -1.048  0.00  0.00     0.020 A 
ATOM      3  C2  UNL d   1       1.263   0.551  -1.540  0.00  0.00     0.034 A 
ATOM      4  C3  UNL d   1       0.267   1.400  -1.044  0.00  0.00     0.017 A 
ATOM      5  C4  UNL d   1      -0.607   0.940  -0.052  0.00  0.00     0.017 A 
ATOM      6  C5  UNL d   1      -0.479  -0.364   0.437  0.00  0.00     0.034 A 
ATOM      7 Cl   UNL d   1      -1.861   1.928   0.609  0.00  0.00    -0.070 Cl
ATOM      8 Cl1  UNL d   1       0.173   2.996  -1.697  0.00  0.00    -0.070 Cl
ENDROOT
TORSDOF 0
ENDMDL
