MODEL 1
REMARK minimizedAffinity -4.37239361
REMARK minimizedRMSD -1
REMARK  0 active torsions:
REMARK  status: ('A' for Active; 'I' for Inactive)
ROOT
ATOM      1  C   UNL d   1      -1.516   2.461   0.576  0.00  0.00     0.020 A 
ATOM      2  C1  UNL d   1      -2.595   1.961   1.303  0.00  0.00     0.020 A 
ATOM      3  C2  UNL d   1      -2.658   0.601   1.613  0.00  0.00     0.034 A 
ATOM      4  C3  UNL d   1      -1.639  -0.264   1.195  0.00  0.00     0.017 A 
ATOM      5  C4  UNL d   1      -0.556   0.239   0.465  0.00  0.00     0.017 A 
ATOM      6  C5  UNL d   1      -0.499   1.602   0.158  0.00  0.00     0.034 A 
ATOM      7 Cl   UNL d   1       0.738  -0.766  -0.084  0.00  0.00    -0.070 Cl
ATOM      8 Cl1  UNL d   1      -1.781  -1.934   1.614  0.00  0.00    -0.070 Cl
ENDROOT
TORSDOF 0
ENDMDL
