MODEL 1
REMARK minimizedAffinity -5.23003817
REMARK minimizedRMSD -1
REMARK  1 active torsions:
REMARK  status: ('A' for Active; 'I' for Inactive)
REMARK    1  A    between atoms: C1_2  and  C2_3 
ROOT
ATOM      1  C2  UNL d   1       0.027   0.074   0.866  0.00  0.00    -0.077 A 
ATOM      2  C3  UNL d   1       1.099  -0.369   1.652  0.00  0.00     0.002 A 
ATOM      3  C4  UNL d   1       1.120  -0.116   3.025  0.00  0.00     0.002 A 
ATOM      4  C5  UNL d   1       0.070   0.577   3.624  0.00  0.00    -0.004 A 
ATOM      5  C6  UNL d   1      -1.000   1.024   2.850  0.00  0.00     0.002 A 
ATOM      6  C7  UNL d   1      -1.022   0.773   1.477  0.00  0.00     0.002 A 
ENDROOT
BRANCH   1   7
ATOM      7  C1  UNL d   1      -0.021  -0.240  -0.607  0.00  0.00     0.055 C 
ATOM      8  C   UNL d   1       0.707  -1.539  -0.919  0.00  0.00     0.019 C 
ENDBRANCH   1   7
TORSDOF 1
ENDMDL
