MODEL 1
REMARK minimizedAffinity -5.43372726
REMARK minimizedRMSD -1
REMARK  1 active torsions:
REMARK  status: ('A' for Active; 'I' for Inactive)
REMARK    1  A    between atoms: C1_2  and  C2_3 
ROOT
ATOM      1  C2  UNL d   1       0.181  -0.197  -0.113  0.00  0.00    -0.077 A 
ATOM      2  C3  UNL d   1       1.314  -0.165   0.712  0.00  0.00     0.002 A 
ATOM      3  C4  UNL d   1       1.233   0.360   2.003  0.00  0.00     0.002 A 
ATOM      4  C5  UNL d   1       0.022   0.854   2.482  0.00  0.00    -0.004 A 
ATOM      5  C6  UNL d   1      -1.111   0.829   1.669  0.00  0.00     0.002 A 
ATOM      6  C7  UNL d   1      -1.032   0.305   0.378  0.00  0.00     0.002 A 
ENDROOT
BRANCH   1   7
ATOM      7  C1  UNL d   1       0.254  -0.808  -1.488  0.00  0.00     0.055 C 
ATOM      8  C   UNL d   1       0.955   0.120  -2.469  0.00  0.00     0.019 C 
ENDBRANCH   1   7
TORSDOF 1
ENDMDL
