MODEL 1
REMARK minimizedAffinity -5.78843594
REMARK minimizedRMSD -1
REMARK  1 active torsions:
REMARK  status: ('A' for Active; 'I' for Inactive)
REMARK    1  A    between atoms: C1_2  and  C2_3 
ROOT
ATOM      1  C2  UNL d   1       0.156   0.480   1.121  0.00  0.00    -0.077 A 
ATOM      2  C3  UNL d   1       1.275  -0.003   1.814  0.00  0.00     0.002 A 
ATOM      3  C4  UNL d   1       1.402   0.210   3.188  0.00  0.00     0.002 A 
ATOM      4  C5  UNL d   1       0.413   0.904   3.881  0.00  0.00    -0.004 A 
ATOM      5  C6  UNL d   1      -0.703   1.391   3.201  0.00  0.00     0.002 A 
ATOM      6  C7  UNL d   1      -0.831   1.179   1.828  0.00  0.00     0.002 A 
ENDROOT
BRANCH   1   7
ATOM      7  C1  UNL d   1      -0.007   0.208  -0.351  0.00  0.00     0.055 C 
ATOM      8  C   UNL d   1       0.526  -1.168  -0.722  0.00  0.00     0.019 C 
ENDBRANCH   1   7
TORSDOF 1
ENDMDL
