MODEL 1
REMARK minimizedAffinity -3.51851606
REMARK minimizedRMSD -1
REMARK  1 active torsions:
REMARK  status: ('A' for Active; 'I' for Inactive)
REMARK    1  A    between atoms: C1_2  and  C2_3 
ROOT
ATOM      1  C2  UNL d   1       0.949  -0.341  -2.318  0.00  0.00    -0.077 A 
ATOM      2  C3  UNL d   1       2.190   0.197  -2.685  0.00  0.00     0.002 A 
ATOM      3  C4  UNL d   1       2.303   1.008  -3.815  0.00  0.00     0.002 A 
ATOM      4  C5  UNL d   1       1.177   1.293  -4.585  0.00  0.00    -0.004 A 
ATOM      5  C6  UNL d   1      -0.062   0.761  -4.230  0.00  0.00     0.002 A 
ATOM      6  C7  UNL d   1      -0.176  -0.051  -3.101  0.00  0.00     0.002 A 
ENDROOT
BRANCH   1   7
ATOM      7  C1  UNL d   1       0.816  -1.176  -1.071  0.00  0.00     0.055 C 
ATOM      8  C   UNL d   1       0.138  -0.398   0.047  0.00  0.00     0.019 C 
ENDBRANCH   1   7
TORSDOF 1
ENDMDL
