MODEL 1
REMARK minimizedAffinity -3.03515267
REMARK minimizedRMSD -1
REMARK  1 active torsions:
REMARK  status: ('A' for Active; 'I' for Inactive)
REMARK    1  A    between atoms: C1_2  and  C2_3 
ROOT
ATOM      1  C2  UNL d   1       0.591  -0.252  -2.558  0.00  0.00    -0.077 A 
ATOM      2  C3  UNL d   1       1.846   0.263  -2.909  0.00  0.00     0.002 A 
ATOM      3  C4  UNL d   1       2.008   0.978  -4.098  0.00  0.00     0.002 A 
ATOM      4  C5  UNL d   1       0.919   1.187  -4.941  0.00  0.00    -0.004 A 
ATOM      5  C6  UNL d   1      -0.333   0.677  -4.601  0.00  0.00     0.002 A 
ATOM      6  C7  UNL d   1      -0.497  -0.039  -3.415  0.00  0.00     0.002 A 
ENDROOT
BRANCH   1   7
ATOM      7  C1  UNL d   1       0.403  -0.981  -1.253  0.00  0.00     0.055 C 
ATOM      8  C   UNL d   1      -0.388  -0.143  -0.259  0.00  0.00     0.019 C 
ENDBRANCH   1   7
TORSDOF 1
ENDMDL
