MODEL 1
REMARK minimizedAffinity -2.00351405
REMARK minimizedRMSD -1
REMARK  1 active torsions:
REMARK  status: ('A' for Active; 'I' for Inactive)
REMARK    1  A    between atoms: C1_2  and  C2_3 
ROOT
ATOM      1  C2  UNL d   1      -0.397  -0.052   0.675  0.00  0.00    -0.077 A 
ATOM      2  C3  UNL d   1       0.411   1.056   0.383  0.00  0.00     0.002 A 
ATOM      3  C4  UNL d   1       0.511   2.115   1.287  0.00  0.00     0.002 A 
ATOM      4  C5  UNL d   1      -0.191   2.075   2.490  0.00  0.00    -0.004 A 
ATOM      5  C6  UNL d   1      -0.999   0.978   2.788  0.00  0.00     0.002 A 
ATOM      6  C7  UNL d   1      -1.101  -0.081   1.885  0.00  0.00     0.002 A 
ENDROOT
BRANCH   1   7
ATOM      7  C1  UNL d   1      -0.467  -1.217  -0.277  0.00  0.00     0.055 C 
ATOM      8  C   UNL d   1      -1.873  -1.796  -0.342  0.00  0.00     0.019 C 
ENDBRANCH   1   7
TORSDOF 1
ENDMDL
