MODEL 1
REMARK minimizedAffinity 0.957459927
REMARK minimizedRMSD -1
REMARK  1 active torsions:
REMARK  status: ('A' for Active; 'I' for Inactive)
REMARK    1  A    between atoms: C1_2  and  C2_3 
ROOT
ATOM      1  C2  UNL d   1       0.030  -0.130   0.756  0.00  0.00    -0.077 A 
ATOM      2  C3  UNL d   1      -0.399   0.447   1.960  0.00  0.00     0.002 A 
ATOM      3  C4  UNL d   1      -1.753   0.446   2.300  0.00  0.00     0.002 A 
ATOM      4  C5  UNL d   1      -2.688  -0.134   1.446  0.00  0.00    -0.004 A 
ATOM      5  C6  UNL d   1      -2.272  -0.709   0.246  0.00  0.00     0.002 A 
ATOM      6  C7  UNL d   1      -0.919  -0.708  -0.097  0.00  0.00     0.002 A 
ENDROOT
BRANCH   1   7
ATOM      7  C1  UNL d   1       1.495  -0.174   0.410  0.00  0.00     0.055 C 
ATOM      8  C   UNL d   1       2.332  -0.620   1.600  0.00  0.00     0.019 C 
ENDBRANCH   1   7
TORSDOF 1
ENDMDL
