MODEL 1
REMARK minimizedAffinity 6.17943287
REMARK minimizedRMSD -1
REMARK  0 active torsions:
REMARK  status: ('A' for Active; 'I' for Inactive)
ROOT
ATOM      1  C1  BNZ d   1      -2.211   2.120  -1.275  0.00  0.00     0.000 A 
ATOM      2  C2  BNZ d   1      -2.220   1.671  -2.569  0.00  0.00     0.000 A 
ATOM      3  C3  BNZ d   1      -3.397   1.383  -3.202  0.00  0.00     0.000 A 
ATOM      4  C4  BNZ d   1      -4.559   1.506  -2.528  0.00  0.00     0.000 A 
ATOM      5  C5  BNZ d   1      -4.566   1.948  -1.221  0.00  0.00     0.000 A 
ATOM      6  C6  BNZ d   1      -3.382   2.274  -0.599  0.00  0.00     0.000 A 
ENDROOT
TORSDOF 0
ENDMDL
