MODEL 1
REMARK minimizedAffinity 1.80333793
REMARK minimizedRMSD -1
REMARK  0 active torsions:
REMARK  status: ('A' for Active; 'I' for Inactive)
ROOT
ATOM      1  C1  BNZ d   1       4.932   1.042  -5.999  0.00  0.00     0.000 A 
ATOM      2  C2  BNZ d   1       4.021   1.118  -4.980  0.00  0.00     0.000 A 
ATOM      3  C3  BNZ d   1       4.049   0.223  -3.947  0.00  0.00     0.000 A 
ATOM      4  C4  BNZ d   1       4.962  -0.769  -3.955  0.00  0.00     0.000 A 
ATOM      5  C5  BNZ d   1       5.881  -0.866  -4.980  0.00  0.00     0.000 A 
ATOM      6  C6  BNZ d   1       5.874   0.060  -5.999  0.00  0.00     0.000 A 
ENDROOT
TORSDOF 0
ENDMDL
