MODEL 1
REMARK minimizedAffinity 5.08584738
REMARK minimizedRMSD -1
REMARK  0 active torsions:
REMARK  status: ('A' for Active; 'I' for Inactive)
ROOT
ATOM      1  C1  BNZ d   1       3.560  -3.692  -3.008  0.00  0.00     0.000 A 
ATOM      2  C2  BNZ d   1       4.522  -2.719  -3.068  0.00  0.00     0.000 A 
ATOM      3  C3  BNZ d   1       4.219  -1.417  -2.783  0.00  0.00     0.000 A 
ATOM      4  C4  BNZ d   1       2.949  -1.083  -2.479  0.00  0.00     0.000 A 
ATOM      5  C5  BNZ d   1       1.966  -2.051  -2.424  0.00  0.00     0.000 A 
ATOM      6  C6  BNZ d   1       2.282  -3.366  -2.673  0.00  0.00     0.000 A 
ENDROOT
TORSDOF 0
ENDMDL
