MODEL 1
REMARK minimizedAffinity -1.22001755
REMARK minimizedRMSD -1
REMARK  0 active torsions:
REMARK  status: ('A' for Active; 'I' for Inactive)
ROOT
ATOM      1  C1  BNZ d   1       0.853  -2.083   3.441  0.00  0.00     0.000 A 
ATOM      2  C2  BNZ d   1       1.883  -2.728   4.074  0.00  0.00     0.000 A 
ATOM      3  C3  BNZ d   1       3.167  -2.609   3.620  0.00  0.00     0.000 A 
ATOM      4  C4  BNZ d   1       3.414  -1.880   2.512  0.00  0.00     0.000 A 
ATOM      5  C5  BNZ d   1       2.385  -1.232   1.858  0.00  0.00     0.000 A 
ATOM      6  C6  BNZ d   1       1.099  -1.322   2.341  0.00  0.00     0.000 A 
ENDROOT
TORSDOF 0
ENDMDL
