MODEL 1
REMARK minimizedAffinity -1.12626922
REMARK minimizedRMSD -1
REMARK  0 active torsions:
REMARK  status: ('A' for Active; 'I' for Inactive)
ROOT
ATOM      1  C1  BNZ d   1       4.112   0.128  -4.996  0.00  0.00     0.000 A 
ATOM      2  C2  BNZ d   1       5.043   0.033  -5.995  0.00  0.00     0.000 A 
ATOM      3  C3  BNZ d   1       5.971  -0.971  -5.995  0.00  0.00     0.000 A 
ATOM      4  C4  BNZ d   1       5.992  -1.853  -4.975  0.00  0.00     0.000 A 
ATOM      5  C5  BNZ d   1       5.066  -1.765  -3.955  0.00  0.00     0.000 A 
ATOM      6  C6  BNZ d   1       4.109  -0.777  -3.979  0.00  0.00     0.000 A 
ENDROOT
TORSDOF 0
ENDMDL
