MODEL 1
REMARK minimizedAffinity 1.5728575
REMARK minimizedRMSD -1
REMARK  0 active torsions:
REMARK  status: ('A' for Active; 'I' for Inactive)
ROOT
ATOM      1  C1  BNZ d   1       5.008   0.006  -5.966  0.00  0.00     0.000 A 
ATOM      2  C2  BNZ d   1       4.058   0.305  -5.026  0.00  0.00     0.000 A 
ATOM      3  C3  BNZ d   1       4.087  -0.280  -3.791  0.00  0.00     0.000 A 
ATOM      4  C4  BNZ d   1       5.040  -1.192  -3.511  0.00  0.00     0.000 A 
ATOM      5  C5  BNZ d   1       6.000  -1.510  -4.451  0.00  0.00     0.000 A 
ATOM      6  C6  BNZ d   1       5.991  -0.891  -5.680  0.00  0.00     0.000 A 
ENDROOT
TORSDOF 0
ENDMDL
