MODEL 1
REMARK minimizedAffinity 8.9679594
REMARK minimizedRMSD -1
REMARK  0 active torsions:
REMARK  status: ('A' for Active; 'I' for Inactive)
ROOT
ATOM      1  C1  BNZ d   1       1.479  -1.024   2.417  0.00  0.00     0.000 A 
ATOM      2  C2  BNZ d   1       1.772  -1.574   3.636  0.00  0.00     0.000 A 
ATOM      3  C3  BNZ d   1       1.442  -2.870   3.918  0.00  0.00     0.000 A 
ATOM      4  C4  BNZ d   1       0.783  -3.601   2.997  0.00  0.00     0.000 A 
ATOM      5  C5  BNZ d   1       0.471  -3.058   1.766  0.00  0.00     0.000 A 
ATOM      6  C6  BNZ d   1       0.840  -1.766   1.472  0.00  0.00     0.000 A 
ENDROOT
TORSDOF 0
ENDMDL
