MODEL 1
REMARK minimizedAffinity -1.75157046
REMARK minimizedRMSD -1
REMARK  0 active torsions:
REMARK  status: ('A' for Active; 'I' for Inactive)
ROOT
ATOM      1  C1  BNZ d   1      -5.034  -3.312  -5.652  0.00  0.00     0.000 A 
ATOM      2  C2  BNZ d   1      -5.999  -4.264  -5.843  0.00  0.00     0.000 A 
ATOM      3  C3  BNZ d   1      -5.664  -5.580  -5.994  0.00  0.00     0.000 A 
ATOM      4  C4  BNZ d   1      -4.363  -5.937  -5.994  0.00  0.00     0.000 A 
ATOM      5  C5  BNZ d   1      -3.377  -4.988  -5.812  0.00  0.00     0.000 A 
ATOM      6  C6  BNZ d   1      -3.721  -3.669  -5.621  0.00  0.00     0.000 A 
ENDROOT
TORSDOF 0
ENDMDL
