MODEL 1
REMARK minimizedAffinity 7.1289773
REMARK minimizedRMSD -1
REMARK  0 active torsions:
REMARK  status: ('A' for Active; 'I' for Inactive)
ROOT
ATOM      1  C1  BNZ d   1      -5.103  -5.994  -6.000  0.00  0.00     0.000 A 
ATOM      2  C2  BNZ d   1      -5.999  -4.959  -5.993  0.00  0.00     0.000 A 
ATOM      3  C3  BNZ d   1      -5.570  -3.661  -5.997  0.00  0.00     0.000 A 
ATOM      4  C4  BNZ d   1      -4.248  -3.400  -5.967  0.00  0.00     0.000 A 
ATOM      5  C5  BNZ d   1      -3.331  -4.432  -5.964  0.00  0.00     0.000 A 
ATOM      6  C6  BNZ d   1      -3.766  -5.737  -6.000  0.00  0.00     0.000 A 
ENDROOT
TORSDOF 0
ENDMDL
