MODEL 1
REMARK minimizedAffinity -3.98514724
REMARK minimizedRMSD -1
REMARK  1 active torsions:
REMARK  status: ('A' for Active; 'I' for Inactive)
REMARK    1  A    between atoms: C1_2  and  C2_3 
ROOT
ATOM      1  C2  UNL d   1      -0.675   0.660  -0.023  0.00  0.00    -0.077 A 
ATOM      2  C3  UNL d   1      -0.213  -0.625   0.294  0.00  0.00     0.002 A 
ATOM      3  C4  UNL d   1       1.077  -1.021  -0.067  0.00  0.00     0.002 A 
ATOM      4  C5  UNL d   1       1.916  -0.137  -0.742  0.00  0.00    -0.004 A 
ATOM      5  C6  UNL d   1       1.465   1.143  -1.063  0.00  0.00     0.002 A 
ATOM      6  C7  UNL d   1       0.176   1.540  -0.705  0.00  0.00     0.002 A 
ENDROOT
BRANCH   1   7
ATOM      7  C1  UNL d   1      -2.048   1.106   0.408  0.00  0.00     0.055 C 
ATOM      8  C   UNL d   1      -2.574   0.250   1.551  0.00  0.00     0.019 C 
ENDBRANCH   1   7
TORSDOF 1
ENDMDL
