MODEL 1
REMARK minimizedAffinity -4.39571095
REMARK minimizedRMSD -1
REMARK  1 active torsions:
REMARK  status: ('A' for Active; 'I' for Inactive)
REMARK    1  A    between atoms: C1_2  and  C2_3 
ROOT
ATOM      1  C2  UNL d   1       1.448   0.445  -0.183  0.00  0.00    -0.077 A 
ATOM      2  C3  UNL d   1       0.926  -0.263   0.908  0.00  0.00     0.002 A 
ATOM      3  C4  UNL d   1      -0.438  -0.207   1.201  0.00  0.00     0.002 A 
ATOM      4  C5  UNL d   1      -1.292   0.554   0.404  0.00  0.00    -0.004 A 
ATOM      5  C6  UNL d   1      -0.782   1.264  -0.682  0.00  0.00     0.002 A 
ATOM      6  C7  UNL d   1       0.581   1.209  -0.975  0.00  0.00     0.002 A 
ENDROOT
BRANCH   1   7
ATOM      7  C1  UNL d   1       2.910   0.346  -0.529  0.00  0.00     0.055 C 
ATOM      8  C   UNL d   1       3.174  -0.799  -1.496  0.00  0.00     0.019 C 
ENDBRANCH   1   7
TORSDOF 1
ENDMDL
