MODEL 1
REMARK minimizedAffinity -4.57666969
REMARK minimizedRMSD -1
REMARK  1 active torsions:
REMARK  status: ('A' for Active; 'I' for Inactive)
REMARK    1  A    between atoms: C1_2  and  C2_3 
ROOT
ATOM      1  C2  UNL d   1       1.522   0.156  -1.971  0.00  0.00    -0.077 A 
ATOM      2  C3  UNL d   1       0.447   0.468  -1.126  0.00  0.00     0.002 A 
ATOM      3  C4  UNL d   1       0.142  -0.354  -0.039  0.00  0.00     0.002 A 
ATOM      4  C5  UNL d   1       0.909  -1.489   0.215  0.00  0.00    -0.004 A 
ATOM      5  C6  UNL d   1       1.978  -1.808  -0.620  0.00  0.00     0.002 A 
ATOM      6  C7  UNL d   1       2.284  -0.989  -1.708  0.00  0.00     0.002 A 
ENDROOT
BRANCH   1   7
ATOM      7  C1  UNL d   1       1.883   1.068  -3.115  0.00  0.00     0.055 C 
ATOM      8  C   UNL d   1       1.317   2.465  -2.909  0.00  0.00     0.019 C 
ENDBRANCH   1   7
TORSDOF 1
ENDMDL
