MODEL 1
REMARK minimizedAffinity -5.27733803
REMARK minimizedRMSD -1
REMARK  1 active torsions:
REMARK  status: ('A' for Active; 'I' for Inactive)
REMARK    1  A    between atoms: C1_2  and  C2_3 
ROOT
ATOM      1  C2  UNL d   1      -1.222   0.386   0.666  0.00  0.00    -0.077 A 
ATOM      2  C3  UNL d   1       0.068  -0.134   0.839  0.00  0.00     0.002 A 
ATOM      3  C4  UNL d   1       1.092   0.207  -0.046  0.00  0.00     0.002 A 
ATOM      4  C5  UNL d   1       0.838   1.072  -1.108  0.00  0.00    -0.004 A 
ATOM      5  C6  UNL d   1      -0.442   1.593  -1.290  0.00  0.00     0.002 A 
ATOM      6  C7  UNL d   1      -1.467   1.253  -0.407  0.00  0.00     0.002 A 
ENDROOT
BRANCH   1   7
ATOM      7  C1  UNL d   1      -2.316   0.059   1.648  0.00  0.00     0.055 C 
ATOM      8  C   UNL d   1      -2.280   0.993   2.849  0.00  0.00     0.019 C 
ENDBRANCH   1   7
TORSDOF 1
ENDMDL
