MODEL 1
REMARK minimizedAffinity -6.28144932
REMARK minimizedRMSD -1
REMARK  1 active torsions:
REMARK  status: ('A' for Active; 'I' for Inactive)
REMARK    1  A    between atoms: C1_2  and  C2_3 
ROOT
ATOM      1  C2  UNL d   1       0.854   0.210  -0.432  0.00  0.00    -0.077 A 
ATOM      2  C3  UNL d   1       0.553   1.418  -1.077  0.00  0.00     0.002 A 
ATOM      3  C4  UNL d   1       1.256   1.802  -2.220  0.00  0.00     0.002 A 
ATOM      4  C5  UNL d   1       2.261   0.983  -2.731  0.00  0.00    -0.004 A 
ATOM      5  C6  UNL d   1       2.569  -0.220  -2.095  0.00  0.00     0.002 A 
ATOM      6  C7  UNL d   1       1.868  -0.605  -0.951  0.00  0.00     0.002 A 
ENDROOT
BRANCH   1   7
ATOM      7  C1  UNL d   1       0.064  -0.230   0.773  0.00  0.00     0.055 C 
ATOM      8  C   UNL d   1      -1.326   0.390   0.780  0.00  0.00     0.019 C 
ENDBRANCH   1   7
TORSDOF 1
ENDMDL
