MODEL 1
REMARK minimizedAffinity -2.84251857
REMARK minimizedRMSD -1
REMARK  1 active torsions:
REMARK  status: ('A' for Active; 'I' for Inactive)
REMARK    1  A    between atoms: C1_2  and  C2_3 
ROOT
ATOM      1  C2  UNL d   1      -1.016   0.414   1.100  0.00  0.00    -0.077 A 
ATOM      2  C3  UNL d   1      -0.569   1.605   1.689  0.00  0.00     0.002 A 
ATOM      3  C4  UNL d   1      -1.212   2.120   2.816  0.00  0.00     0.002 A 
ATOM      4  C5  UNL d   1      -2.303   1.450   3.366  0.00  0.00    -0.004 A 
ATOM      5  C6  UNL d   1      -2.757   0.266   2.786  0.00  0.00     0.002 A 
ATOM      6  C7  UNL d   1      -2.116  -0.251   1.659  0.00  0.00     0.002 A 
ENDROOT
BRANCH   1   7
ATOM      7  C1  UNL d   1      -0.294  -0.170  -0.085  0.00  0.00     0.055 C 
ATOM      8  C   UNL d   1       1.057   0.499  -0.295  0.00  0.00     0.019 C 
ENDBRANCH   1   7
TORSDOF 1
ENDMDL
