MODEL 1
REMARK minimizedAffinity -3.912184
REMARK minimizedRMSD -1
REMARK  1 active torsions:
REMARK  status: ('A' for Active; 'I' for Inactive)
REMARK    1  A    between atoms: C1_2  and  C2_3 
ROOT
ATOM      1  C2  UNL d   1      -0.543  -0.329   0.011  0.00  0.00    -0.077 A 
ATOM      2  C3  UNL d   1      -0.232  -1.654  -0.323  0.00  0.00     0.002 A 
ATOM      3  C4  UNL d   1       0.978  -1.959  -0.950  0.00  0.00     0.002 A 
ATOM      4  C5  UNL d   1       1.887  -0.945  -1.244  0.00  0.00    -0.004 A 
ATOM      5  C6  UNL d   1       1.586   0.377  -0.918  0.00  0.00     0.002 A 
ATOM      6  C7  UNL d   1       0.377   0.683  -0.292  0.00  0.00     0.002 A 
ENDROOT
BRANCH   1   7
ATOM      7  C1  UNL d   1      -1.826  -0.004   0.731  0.00  0.00     0.055 C 
ATOM      8  C   UNL d   1      -1.555   0.691   2.058  0.00  0.00     0.019 C 
ENDBRANCH   1   7
TORSDOF 1
ENDMDL
