MODEL 1
REMARK minimizedAffinity -5.2972393
REMARK minimizedRMSD -1
REMARK  1 active torsions:
REMARK  status: ('A' for Active; 'I' for Inactive)
REMARK    1  A    between atoms: C1_2  and  C2_3 
ROOT
ATOM      1  C2  UNL d   1       0.590  -1.048  -0.452  0.00  0.00    -0.077 A 
ATOM      2  C3  UNL d   1      -0.219   0.089  -0.582  0.00  0.00     0.002 A 
ATOM      3  C4  UNL d   1       0.326   1.297  -1.021  0.00  0.00     0.002 A 
ATOM      4  C5  UNL d   1       1.680   1.379  -1.336  0.00  0.00    -0.004 A 
ATOM      5  C6  UNL d   1       2.494   0.253  -1.208  0.00  0.00     0.002 A 
ATOM      6  C7  UNL d   1       1.951  -0.955  -0.769  0.00  0.00     0.002 A 
ENDROOT
BRANCH   1   7
ATOM      7  C1  UNL d   1      -0.006  -2.364  -0.026  0.00  0.00     0.055 C 
ATOM      8  C   UNL d   1      -1.452  -2.491  -0.483  0.00  0.00     0.019 C 
ENDBRANCH   1   7
TORSDOF 1
ENDMDL
