MODEL 1
REMARK minimizedAffinity -3.89612651
REMARK minimizedRMSD -1
REMARK  1 active torsions:
REMARK  status: ('A' for Active; 'I' for Inactive)
REMARK    1  A    between atoms: C1_2  and  C2_3 
ROOT
ATOM      1  C2  UNL d   1       1.194  -0.101  -0.732  0.00  0.00    -0.077 A 
ATOM      2  C3  UNL d   1       1.694  -1.257  -1.347  0.00  0.00     0.002 A 
ATOM      3  C4  UNL d   1       0.966  -2.448  -1.312  0.00  0.00     0.002 A 
ATOM      4  C5  UNL d   1      -0.268  -2.492  -0.667  0.00  0.00    -0.004 A 
ATOM      5  C6  UNL d   1      -0.773  -1.349  -0.050  0.00  0.00     0.002 A 
ATOM      6  C7  UNL d   1      -0.046  -0.158  -0.083  0.00  0.00     0.002 A 
ENDROOT
BRANCH   1   7
ATOM      7  C1  UNL d   1       1.955   1.197  -0.811  0.00  0.00     0.055 C 
ATOM      8  C   UNL d   1       1.127   2.285  -1.478  0.00  0.00     0.019 C 
ENDBRANCH   1   7
TORSDOF 1
ENDMDL
