MODEL 1
REMARK minimizedAffinity -5.62909842
REMARK minimizedRMSD -1
REMARK  1 active torsions:
REMARK  status: ('A' for Active; 'I' for Inactive)
REMARK    1  A    between atoms: C1_2  and  C2_3 
ROOT
ATOM      1  C2  UNL d   1       0.130   0.402   0.018  0.00  0.00    -0.077 A 
ATOM      2  C3  UNL d   1       1.373   1.034  -0.129  0.00  0.00     0.002 A 
ATOM      3  C4  UNL d   1       2.472   0.326  -0.620  0.00  0.00     0.002 A 
ATOM      4  C5  UNL d   1       2.337  -1.016  -0.972  0.00  0.00    -0.004 A 
ATOM      5  C6  UNL d   1       1.106  -1.653  -0.828  0.00  0.00     0.002 A 
ATOM      6  C7  UNL d   1       0.007  -0.948  -0.336  0.00  0.00     0.002 A 
ENDROOT
BRANCH   1   7
ATOM      7  C1  UNL d   1      -1.068   1.177   0.501  0.00  0.00     0.055 C 
ATOM      8  C   UNL d   1      -1.932   0.337   1.431  0.00  0.00     0.019 C 
ENDBRANCH   1   7
TORSDOF 1
ENDMDL
