MODEL 1
REMARK minimizedAffinity 0.126249105
REMARK minimizedRMSD -1
REMARK  1 active torsions:
REMARK  status: ('A' for Active; 'I' for Inactive)
REMARK    1  A    between atoms: C3_4  and  O_7 
ROOT
ATOM      1  C   UNL d   1       2.885   0.324   0.220  0.00  0.00    -0.033 A 
ATOM      2  C1  UNL d   1       1.874   1.284   0.296  0.00  0.00     0.039 A 
ATOM      3  C2  UNL d   1       1.489   1.798   1.536  0.00  0.00    -0.080 A 
ATOM      4  C3  UNL d   1       2.122   1.344   2.690  0.00  0.00     0.150 A 
ATOM      5  C4  UNL d   1       3.132   0.391   2.621  0.00  0.00    -0.007 A 
ATOM      6  C5  UNL d   1       3.515  -0.121   1.382  0.00  0.00     0.039 A 
ENDROOT
BRANCH   4   7
ATOM      7  O   UNL d   1       1.777   1.812   3.923  0.00  0.00    -0.526 OA
ATOM      8  H5  UNL d   1       1.045   2.444   3.819  0.00  0.00     0.418 HD
ENDBRANCH   4   7
TORSDOF 1
ENDMDL
