MODEL 1
REMARK minimizedAffinity 7.72097445
REMARK minimizedRMSD -1
REMARK  1 active torsions:
REMARK  status: ('A' for Active; 'I' for Inactive)
REMARK    1  A    between atoms: C3_4  and  O_7 
ROOT
ATOM      1  C   UNL d   1      -2.464   1.716  -0.678  0.00  0.00    -0.033 A 
ATOM      2  C1  UNL d   1      -2.843   2.168  -1.944  0.00  0.00     0.039 A 
ATOM      3  C2  UNL d   1      -2.698   1.337  -3.056  0.00  0.00    -0.080 A 
ATOM      4  C3  UNL d   1      -2.174   0.058  -2.890  0.00  0.00     0.150 A 
ATOM      5  C4  UNL d   1      -1.798  -0.401  -1.632  0.00  0.00    -0.007 A 
ATOM      6  C5  UNL d   1      -1.943   0.431  -0.522  0.00  0.00     0.039 A 
ENDROOT
BRANCH   4   7
ATOM      7  O   UNL d   1      -2.009  -0.788  -3.947  0.00  0.00    -0.526 OA
ATOM      8  H5  UNL d   1      -2.285  -0.326  -4.756  0.00  0.00     0.418 HD
ENDBRANCH   4   7
TORSDOF 1
ENDMDL
