MODEL 1
REMARK minimizedAffinity -2.40884662
REMARK minimizedRMSD -1
REMARK  1 active torsions:
REMARK  status: ('A' for Active; 'I' for Inactive)
REMARK    1  A    between atoms: C3_4  and  O_7 
ROOT
ATOM      1  C   UNL d   1       3.347  -5.992  -5.907  0.00  0.00    -0.033 A 
ATOM      2  C1  UNL d   1       4.521  -5.996  -5.151  0.00  0.00     0.039 A 
ATOM      3  C2  UNL d   1       4.455  -5.999  -3.757  0.00  0.00    -0.080 A 
ATOM      4  C3  UNL d   1       3.211  -5.999  -3.131  0.00  0.00     0.150 A 
ATOM      5  C4  UNL d   1       2.038  -6.000  -3.878  0.00  0.00    -0.007 A 
ATOM      6  C5  UNL d   1       2.105  -5.996  -5.271  0.00  0.00     0.039 A 
ENDROOT
BRANCH   4   7
ATOM      7  O   UNL d   1       3.097  -5.998  -1.773  0.00  0.00    -0.526 OA
ATOM      8  H5  UNL d   1       3.989  -5.968  -1.389  0.00  0.00     0.418 HD
ENDBRANCH   4   7
TORSDOF 1
ENDMDL
