MODEL 1
REMARK minimizedAffinity 2.59100866
REMARK minimizedRMSD -1
REMARK  1 active torsions:
REMARK  status: ('A' for Active; 'I' for Inactive)
REMARK    1  A    between atoms: C3_4  and  O_7 
ROOT
ATOM      1  C   UNL d   1      -4.718   3.093   1.890  0.00  0.00    -0.033 A 
ATOM      2  C1  UNL d   1      -3.375   3.175   1.516  0.00  0.00     0.039 A 
ATOM      3  C2  UNL d   1      -2.992   2.865   0.210  0.00  0.00    -0.080 A 
ATOM      4  C3  UNL d   1      -3.961   2.477  -0.712  0.00  0.00     0.150 A 
ATOM      5  C4  UNL d   1      -5.301   2.397  -0.348  0.00  0.00    -0.007 A 
ATOM      6  C5  UNL d   1      -5.681   2.706   0.958  0.00  0.00     0.039 A 
ENDROOT
BRANCH   4   7
ATOM      7  O   UNL d   1      -3.635   2.160  -1.998  0.00  0.00    -0.526 OA
ATOM      8  H5  UNL d   1      -2.671   2.233  -2.097  0.00  0.00     0.418 HD
ENDBRANCH   4   7
TORSDOF 1
ENDMDL
