MODEL 1
REMARK minimizedAffinity 1.4066869
REMARK minimizedRMSD -1
REMARK  1 active torsions:
REMARK  status: ('A' for Active; 'I' for Inactive)
REMARK    1  A    between atoms: C3_4  and  O_7 
ROOT
ATOM      1  C   UNL d   1       5.837  -5.908  -4.182  0.00  0.00    -0.033 A 
ATOM      2  C1  UNL d   1       4.791  -5.967  -3.259  0.00  0.00     0.039 A 
ATOM      3  C2  UNL d   1       3.467  -5.999  -3.702  0.00  0.00    -0.080 A 
ATOM      4  C3  UNL d   1       3.204  -5.972  -5.069  0.00  0.00     0.150 A 
ATOM      5  C4  UNL d   1       4.241  -5.918  -5.994  0.00  0.00    -0.007 A 
ATOM      6  C5  UNL d   1       5.562  -5.885  -5.549  0.00  0.00     0.039 A 
ENDROOT
BRANCH   4   7
ATOM      7  O   UNL d   1       1.928  -5.997  -5.550  0.00  0.00    -0.526 OA
ATOM      8  H5  UNL d   1       1.315  -6.005  -4.795  0.00  0.00     0.418 HD
ENDBRANCH   4   7
TORSDOF 1
ENDMDL
