MODEL 1
REMARK minimizedAffinity 0.890313745
REMARK minimizedRMSD -1
REMARK  1 active torsions:
REMARK  status: ('A' for Active; 'I' for Inactive)
REMARK    1  A    between atoms: C3_4  and  O_7 
ROOT
ATOM      1  C   UNL d   1       3.059  -1.448   1.912  0.00  0.00    -0.033 A 
ATOM      2  C1  UNL d   1       1.802  -0.879   2.128  0.00  0.00     0.039 A 
ATOM      3  C2  UNL d   1       1.122  -1.117   3.324  0.00  0.00    -0.080 A 
ATOM      4  C3  UNL d   1       1.709  -1.925   4.294  0.00  0.00     0.150 A 
ATOM      5  C4  UNL d   1       2.963  -2.492   4.087  0.00  0.00    -0.007 A 
ATOM      6  C5  UNL d   1       3.639  -2.253   2.892  0.00  0.00     0.039 A 
ENDROOT
BRANCH   4   7
ATOM      7  O   UNL d   1       1.082  -2.190   5.475  0.00  0.00    -0.526 OA
ATOM      8  H5  UNL d   1       0.213  -1.755   5.467  0.00  0.00     0.418 HD
ENDBRANCH   4   7
TORSDOF 1
ENDMDL
