MODEL 1
REMARK minimizedAffinity 1.50077569
REMARK minimizedRMSD -1
REMARK  1 active torsions:
REMARK  status: ('A' for Active; 'I' for Inactive)
REMARK    1  A    between atoms: C3_4  and  O_7 
ROOT
ATOM      1  C   UNL d   1       3.593  -2.409   4.011  0.00  0.00    -0.033 A 
ATOM      2  C1  UNL d   1       2.648  -1.386   3.906  0.00  0.00     0.039 A 
ATOM      3  C2  UNL d   1       1.321  -1.618   4.272  0.00  0.00    -0.080 A 
ATOM      4  C3  UNL d   1       0.953  -2.876   4.743  0.00  0.00     0.150 A 
ATOM      5  C4  UNL d   1       1.889  -3.898   4.854  0.00  0.00    -0.007 A 
ATOM      6  C5  UNL d   1       3.214  -3.664   4.487  0.00  0.00     0.039 A 
ENDROOT
BRANCH   4   7
ATOM      7  O   UNL d   1      -0.332  -3.151   5.109  0.00  0.00    -0.526 OA
ATOM      8  H5  UNL d   1      -0.873  -2.360   4.951  0.00  0.00     0.418 HD
ENDBRANCH   4   7
TORSDOF 1
ENDMDL
