MODEL 1
REMARK minimizedAffinity 3.231745
REMARK minimizedRMSD -1
REMARK  2 active torsions:
REMARK  status: ('A' for Active; 'I' for Inactive)
REMARK    1  A    between atoms: C2'_3  and  C1'_4 
REMARK    2  A    between atoms: C1'_4  and  C1_5 
ROOT
ATOM      1  C1  I4B d   1       0.744   0.344  -0.115  0.00  0.00    -0.075 A 
ATOM      2  C2  I4B d   1       1.073  -0.686   0.731  0.00  0.00     0.003 A 
ATOM      3  C3  I4B d   1       2.431  -0.966   1.018  0.00  0.00     0.002 A 
ATOM      4  C4  I4B d   1       3.422  -0.230   0.402  0.00  0.00    -0.004 A 
ATOM      5  C5  I4B d   1       3.086   0.828  -0.438  0.00  0.00     0.002 A 
ATOM      6  C6  I4B d   1       1.738   1.125  -0.689  0.00  0.00     0.003 A 
ENDROOT
BRANCH   1   7
ATOM      7  C1' I4B d   1      -0.699   0.591  -0.421  0.00  0.00     0.060 C 
BRANCH   7   8
ATOM      8  C2' I4B d   1      -1.525  -0.371   0.409  0.00  0.00    -0.013 C 
ATOM      9  C4' I4B d   1      -2.059   0.298   1.648  0.00  0.00     0.013 C 
ATOM     10  C3' I4B d   1      -2.640  -0.886  -0.451  0.00  0.00     0.013 C 
ENDBRANCH   7   8
ENDBRANCH   1   7
TORSDOF 2
ENDMDL
