MODEL 1
REMARK minimizedAffinity -1.40068781
REMARK minimizedRMSD -1
REMARK  2 active torsions:
REMARK  status: ('A' for Active; 'I' for Inactive)
REMARK    1  A    between atoms: C2'_3  and  C1'_4 
REMARK    2  A    between atoms: C1'_4  and  C1_5 
ROOT
ATOM      1  C1  I4B d   1       0.308  -0.067  -0.979  0.00  0.00    -0.075 A 
ATOM      2  C2  I4B d   1      -0.068  -0.075  -2.299  0.00  0.00     0.003 A 
ATOM      3  C3  I4B d   1       0.711   0.605  -3.266  0.00  0.00     0.002 A 
ATOM      4  C4  I4B d   1       1.822   1.318  -2.865  0.00  0.00    -0.004 A 
ATOM      5  C5  I4B d   1       2.215   1.306  -1.530  0.00  0.00     0.002 A 
ATOM      6  C6  I4B d   1       1.460   0.599  -0.582  0.00  0.00     0.003 A 
ENDROOT
BRANCH   1   7
ATOM      7  C1' I4B d   1      -0.555  -0.769   0.021  0.00  0.00     0.060 C 
BRANCH   7   8
ATOM      8  C2' I4B d   1      -1.716   0.145   0.358  0.00  0.00    -0.013 C 
ATOM      9  C4' I4B d   1      -2.971  -0.281  -0.357  0.00  0.00     0.013 C 
ATOM     10  C3' I4B d   1      -1.906   0.123   1.845  0.00  0.00     0.013 C 
ENDBRANCH   7   8
ENDBRANCH   1   7
TORSDOF 2
ENDMDL
