MODEL 1
REMARK minimizedAffinity -4.07234383
REMARK minimizedRMSD -1
REMARK  2 active torsions:
REMARK  status: ('A' for Active; 'I' for Inactive)
REMARK    1  A    between atoms: C2'_3  and  C1'_4 
REMARK    2  A    between atoms: C1'_4  and  C1_5 
ROOT
ATOM      1  C1  I4B d   1       1.033  -0.481  -1.295  0.00  0.00    -0.075 A 
ATOM      2  C2  I4B d   1       0.335   0.199  -0.329  0.00  0.00     0.003 A 
ATOM      3  C3  I4B d   1       0.963   0.552   0.890  0.00  0.00     0.002 A 
ATOM      4  C4  I4B d   1       2.267   0.163   1.119  0.00  0.00    -0.004 A 
ATOM      5  C5  I4B d   1       2.981  -0.506   0.129  0.00  0.00     0.002 A 
ATOM      6  C6  I4B d   1       2.365  -0.819  -1.091  0.00  0.00     0.003 A 
ENDROOT
BRANCH   1   7
ATOM      7  C1' I4B d   1       0.329  -0.866  -2.557  0.00  0.00     0.060 C 
BRANCH   7   8
ATOM      8  C2' I4B d   1       0.331   0.336  -3.479  0.00  0.00    -0.013 C 
ATOM      9  C4' I4B d   1       1.662   0.494  -4.166  0.00  0.00     0.013 C 
ATOM     10  C3' I4B d   1      -0.775   0.158  -4.476  0.00  0.00     0.013 C 
ENDBRANCH   7   8
ENDBRANCH   1   7
TORSDOF 2
ENDMDL
