MODEL 1
REMARK minimizedAffinity -4.45729065
REMARK minimizedRMSD -1
REMARK  2 active torsions:
REMARK  status: ('A' for Active; 'I' for Inactive)
REMARK    1  A    between atoms: C2'_3  and  C1'_4 
REMARK    2  A    between atoms: C1'_4  and  C1_5 
ROOT
ATOM      1  C1  I4B d   1       0.466  -0.155  -0.100  0.00  0.00    -0.075 A 
ATOM      2  C2  I4B d   1      -0.879   0.090  -0.220  0.00  0.00     0.003 A 
ATOM      3  C3  I4B d   1      -1.587   0.710   0.838  0.00  0.00     0.002 A 
ATOM      4  C4  I4B d   1      -0.927   1.020   2.009  0.00  0.00    -0.004 A 
ATOM      5  C5  I4B d   1       0.442   0.791   2.120  0.00  0.00     0.002 A 
ATOM      6  C6  I4B d   1       1.146   0.211   1.055  0.00  0.00     0.003 A 
ENDROOT
BRANCH   1   7
ATOM      7  C1' I4B d   1       1.177  -0.842  -1.223  0.00  0.00     0.060 C 
BRANCH   7   8
ATOM      8  C2' I4B d   1       0.922  -0.050  -2.489  0.00  0.00    -0.013 C 
ATOM      9  C4' I4B d   1       2.204   0.499  -3.057  0.00  0.00     0.013 C 
ATOM     10  C3' I4B d   1       0.239  -0.955  -3.471  0.00  0.00     0.013 C 
ENDBRANCH   7   8
ENDBRANCH   1   7
TORSDOF 2
ENDMDL
