MODEL 1
REMARK minimizedAffinity -4.21013308
REMARK minimizedRMSD -1
REMARK  2 active torsions:
REMARK  status: ('A' for Active; 'I' for Inactive)
REMARK    1  A    between atoms: C2'_3  and  C1'_4 
REMARK    2  A    between atoms: C1'_4  and  C1_5 
ROOT
ATOM      1  C1  I4B d   1       0.320   0.214  -0.162  0.00  0.00    -0.075 A 
ATOM      2  C2  I4B d   1      -0.848   0.787   0.278  0.00  0.00     0.003 A 
ATOM      3  C3  I4B d   1      -0.979   1.192   1.628  0.00  0.00     0.002 A 
ATOM      4  C4  I4B d   1       0.057   0.962   2.510  0.00  0.00    -0.004 A 
ATOM      5  C5  I4B d   1       1.249   0.402   2.058  0.00  0.00     0.002 A 
ATOM      6  C6  I4B d   1       1.386   0.037   0.711  0.00  0.00     0.003 A 
ENDROOT
BRANCH   1   7
ATOM      7  C1' I4B d   1       0.412  -0.232  -1.586  0.00  0.00     0.060 C 
BRANCH   7   8
ATOM      8  C2' I4B d   1       0.555   1.002  -2.454  0.00  0.00    -0.013 C 
ATOM      9  C4' I4B d   1       2.004   1.336  -2.693  0.00  0.00     0.013 C 
ATOM     10  C3' I4B d   1      -0.162   0.745  -3.746  0.00  0.00     0.013 C 
ENDBRANCH   7   8
ENDBRANCH   1   7
TORSDOF 2
ENDMDL
