MODEL 1
REMARK minimizedAffinity 1.18535948
REMARK minimizedRMSD -1
REMARK  0 active torsions:
REMARK  status: ('A' for Active; 'I' for Inactive)
ROOT
ATOM      1  C   UNL d   1       5.969   0.295  -5.972  0.00  0.00     0.078 C 
ATOM      2  C1  UNL d   1       5.113   1.489  -5.669  0.00  0.00    -0.077 A 
ATOM      3  C2  UNL d   1       3.752   1.502  -5.997  0.00  0.00    -0.001 A 
ATOM      4  C3  UNL d   1       2.969   2.624  -5.718  0.00  0.00     0.003 A 
ATOM      5  C4  UNL d   1       3.539   3.741  -5.111  0.00  0.00    -0.005 A 
ATOM      6  C5  UNL d   1       4.893   3.738  -4.783  0.00  0.00     0.003 A 
ATOM      7  C6  UNL d   1       5.677   2.617  -5.061  0.00  0.00    -0.001 A 
ENDROOT
TORSDOF 0
ENDMDL
