MODEL 1
REMARK minimizedAffinity 0.214388505
REMARK minimizedRMSD -1
REMARK  0 active torsions:
REMARK  status: ('A' for Active; 'I' for Inactive)
ROOT
ATOM      1  C   UNL d   1       5.999   0.274  -5.210  0.00  0.00     0.078 C 
ATOM      2  C1  UNL d   1       5.256   1.573  -5.299  0.00  0.00    -0.077 A 
ATOM      3  C2  UNL d   1       3.992   1.641  -5.898  0.00  0.00    -0.001 A 
ATOM      4  C3  UNL d   1       3.316   2.860  -5.982  0.00  0.00     0.003 A 
ATOM      5  C4  UNL d   1       3.896   4.019  -5.471  0.00  0.00    -0.005 A 
ATOM      6  C5  UNL d   1       5.154   3.961  -4.875  0.00  0.00     0.003 A 
ATOM      7  C6  UNL d   1       5.832   2.744  -4.789  0.00  0.00    -0.001 A 
ENDROOT
TORSDOF 0
ENDMDL
