MODEL 1
REMARK minimizedAffinity -2.5088222
REMARK minimizedRMSD -1
REMARK  0 active torsions:
REMARK  status: ('A' for Active; 'I' for Inactive)
ROOT
ATOM      1  C   UNL d   1       5.252   0.146  -4.388  0.00  0.00     0.078 C 
ATOM      2  C1  UNL d   1       4.980   1.512  -4.945  0.00  0.00    -0.077 A 
ATOM      3  C2  UNL d   1       3.720   1.844  -5.457  0.00  0.00    -0.001 A 
ATOM      4  C3  UNL d   1       3.484   3.116  -5.981  0.00  0.00     0.003 A 
ATOM      5  C4  UNL d   1       4.505   4.065  -5.999  0.00  0.00    -0.005 A 
ATOM      6  C5  UNL d   1       5.762   3.743  -5.494  0.00  0.00     0.003 A 
ATOM      7  C6  UNL d   1       6.000   2.471  -4.970  0.00  0.00    -0.001 A 
ENDROOT
TORSDOF 0
ENDMDL
