MODEL 1
REMARK minimizedAffinity -4.30064058
REMARK minimizedRMSD -1
REMARK  0 active torsions:
REMARK  status: ('A' for Active; 'I' for Inactive)
ROOT
ATOM      1  C   UNL d   1       4.091   2.125   3.562  0.00  0.00     0.078 C 
ATOM      2  C1  UNL d   1       3.444   2.523   2.269  0.00  0.00    -0.077 A 
ATOM      3  C2  UNL d   1       3.934   3.601   1.520  0.00  0.00    -0.001 A 
ATOM      4  C3  UNL d   1       3.316   3.967   0.323  0.00  0.00     0.003 A 
ATOM      5  C4  UNL d   1       2.205   3.262  -0.135  0.00  0.00    -0.005 A 
ATOM      6  C5  UNL d   1       1.710   2.189   0.604  0.00  0.00     0.003 A 
ATOM      7  C6  UNL d   1       2.326   1.822   1.801  0.00  0.00    -0.001 A 
ENDROOT
TORSDOF 0
ENDMDL
