MODEL 1
REMARK minimizedAffinity -0.647252321
REMARK minimizedRMSD -1
REMARK  0 active torsions:
REMARK  status: ('A' for Active; 'I' for Inactive)
ROOT
ATOM      1  C   UNL d   1       5.825  -0.356  -5.486  0.00  0.00     0.078 C 
ATOM      2  C1  UNL d   1       5.273   1.038  -5.458  0.00  0.00    -0.077 A 
ATOM      3  C2  UNL d   1       5.998   2.090  -4.885  0.00  0.00    -0.001 A 
ATOM      4  C3  UNL d   1       5.468   3.380  -4.857  0.00  0.00     0.003 A 
ATOM      5  C4  UNL d   1       4.209   3.631  -5.399  0.00  0.00    -0.005 A 
ATOM      6  C5  UNL d   1       3.479   2.591  -5.969  0.00  0.00     0.003 A 
ATOM      7  C6  UNL d   1       4.007   1.300  -5.999  0.00  0.00    -0.001 A 
ENDROOT
TORSDOF 0
ENDMDL
