MODEL 1
REMARK minimizedAffinity -3.95536971
REMARK minimizedRMSD -1
REMARK  0 active torsions:
REMARK  status: ('A' for Active; 'I' for Inactive)
ROOT
ATOM      1  C   UNL d   1       4.856   2.301   4.059  0.00  0.00     0.078 C 
ATOM      2  C1  UNL d   1       4.152   2.802   2.833  0.00  0.00    -0.077 A 
ATOM      3  C2  UNL d   1       4.421   4.075   2.316  0.00  0.00    -0.001 A 
ATOM      4  C3  UNL d   1       3.751   4.531   1.179  0.00  0.00     0.003 A 
ATOM      5  C4  UNL d   1       2.806   3.721   0.552  0.00  0.00    -0.005 A 
ATOM      6  C5  UNL d   1       2.530   2.454   1.060  0.00  0.00     0.003 A 
ATOM      7  C6  UNL d   1       3.200   1.996   2.196  0.00  0.00    -0.001 A 
ENDROOT
TORSDOF 0
ENDMDL
