MODEL 1
REMARK minimizedAffinity -0.639391422
REMARK minimizedRMSD -1
REMARK  0 active torsions:
REMARK  status: ('A' for Active; 'I' for Inactive)
ROOT
ATOM      1  C   UNL d   1       0.054  -1.474   1.044  0.00  0.00     0.078 C 
ATOM      2  C1  UNL d   1       1.068  -0.370   1.088  0.00  0.00    -0.077 A 
ATOM      3  C2  UNL d   1       0.694   0.961   0.868  0.00  0.00    -0.001 A 
ATOM      4  C3  UNL d   1       1.650   1.978   0.903  0.00  0.00     0.003 A 
ATOM      5  C4  UNL d   1       2.986   1.673   1.156  0.00  0.00    -0.005 A 
ATOM      6  C5  UNL d   1       3.368   0.351   1.374  0.00  0.00     0.003 A 
ATOM      7  C6  UNL d   1       2.413  -0.667   1.340  0.00  0.00    -0.001 A 
ENDROOT
TORSDOF 0
ENDMDL
