MODEL 1
REMARK minimizedAffinity -1.88005435
REMARK minimizedRMSD -1
REMARK  0 active torsions:
REMARK  status: ('A' for Active; 'I' for Inactive)
ROOT
ATOM      1  C   UNL d   1       5.879   0.276  -5.976  0.00  0.00     0.078 C 
ATOM      2  C1  UNL d   1       5.229   1.627  -5.957  0.00  0.00    -0.077 A 
ATOM      3  C2  UNL d   1       5.998   2.796  -5.885  0.00  0.00    -0.001 A 
ATOM      4  C3  UNL d   1       5.379   4.047  -5.859  0.00  0.00     0.003 A 
ATOM      5  C4  UNL d   1       3.989   4.141  -5.902  0.00  0.00    -0.005 A 
ATOM      6  C5  UNL d   1       3.217   2.984  -5.972  0.00  0.00     0.003 A 
ATOM      7  C6  UNL d   1       3.833   1.732  -5.998  0.00  0.00    -0.001 A 
ENDROOT
TORSDOF 0
ENDMDL
