MODEL 1
REMARK minimizedAffinity -1.57484901
REMARK minimizedRMSD -1
REMARK  0 active torsions:
REMARK  status: ('A' for Active; 'I' for Inactive)
ROOT
ATOM      1  C   UNL d   1      -1.561  -3.812  -0.918  0.00  0.00     0.078 C 
ATOM      2  C1  UNL d   1      -1.479  -4.080   0.555  0.00  0.00    -0.077 A 
ATOM      3  C2  UNL d   1      -1.697  -3.058   1.488  0.00  0.00    -0.001 A 
ATOM      4  C3  UNL d   1      -1.608  -3.320   2.856  0.00  0.00     0.003 A 
ATOM      5  C4  UNL d   1      -1.300  -4.603   3.304  0.00  0.00    -0.005 A 
ATOM      6  C5  UNL d   1      -1.079  -5.626   2.384  0.00  0.00     0.003 A 
ATOM      7  C6  UNL d   1      -1.167  -5.366   1.015  0.00  0.00    -0.001 A 
ENDROOT
TORSDOF 0
ENDMDL
