MODEL 1
REMARK minimizedAffinity -1.57884872
REMARK minimizedRMSD -1
REMARK  0 active torsions:
REMARK  status: ('A' for Active; 'I' for Inactive)
ROOT
ATOM      1  C   UNL d   1       1.460   2.280   0.376  0.00  0.00     0.078 C 
ATOM      2  C1  UNL d   1       2.533   2.591   1.377  0.00  0.00    -0.077 A 
ATOM      3  C2  UNL d   1       2.625   1.879   2.579  0.00  0.00    -0.001 A 
ATOM      4  C3  UNL d   1       3.623   2.186   3.506  0.00  0.00     0.003 A 
ATOM      5  C4  UNL d   1       4.535   3.205   3.240  0.00  0.00    -0.005 A 
ATOM      6  C5  UNL d   1       4.450   3.920   2.048  0.00  0.00     0.003 A 
ATOM      7  C6  UNL d   1       3.453   3.615   1.120  0.00  0.00    -0.001 A 
ENDROOT
TORSDOF 0
ENDMDL
