MODEL 1
REMARK minimizedAffinity -0.605797052
REMARK minimizedRMSD -1
REMARK  0 active torsions:
REMARK  status: ('A' for Active; 'I' for Inactive)
ROOT
ATOM      1  C   UNL d   1       4.569   2.673   4.679  0.00  0.00     0.078 C 
ATOM      2  C1  UNL d   1       4.208   2.914   3.244  0.00  0.00    -0.077 A 
ATOM      3  C2  UNL d   1       4.821   3.935   2.507  0.00  0.00    -0.001 A 
ATOM      4  C3  UNL d   1       4.468   4.155   1.175  0.00  0.00     0.003 A 
ATOM      5  C4  UNL d   1       3.498   3.359   0.568  0.00  0.00    -0.005 A 
ATOM      6  C5  UNL d   1       2.881   2.342   1.293  0.00  0.00     0.003 A 
ATOM      7  C6  UNL d   1       3.233   2.121   2.626  0.00  0.00    -0.001 A 
ENDROOT
TORSDOF 0
ENDMDL
