MODEL 1
REMARK minimizedAffinity -1.33002722
REMARK minimizedRMSD -1
REMARK  0 active torsions:
REMARK  status: ('A' for Active; 'I' for Inactive)
ROOT
ATOM      1  C   UNL d   1       4.550   2.908   4.355  0.00  0.00     0.078 C 
ATOM      2  C1  UNL d   1       3.916   2.895   2.997  0.00  0.00    -0.077 A 
ATOM      3  C2  UNL d   1       4.353   3.763   1.989  0.00  0.00    -0.001 A 
ATOM      4  C3  UNL d   1       3.747   3.747   0.731  0.00  0.00     0.003 A 
ATOM      5  C4  UNL d   1       2.700   2.865   0.471  0.00  0.00    -0.005 A 
ATOM      6  C5  UNL d   1       2.257   1.999   1.468  0.00  0.00     0.003 A 
ATOM      7  C6  UNL d   1       2.862   2.014   2.726  0.00  0.00    -0.001 A 
ENDROOT
TORSDOF 0
ENDMDL
