MODEL 1
REMARK minimizedAffinity 0.285095155
REMARK minimizedRMSD -1
REMARK  0 active torsions:
REMARK  status: ('A' for Active; 'I' for Inactive)
ROOT
ATOM      1  C   UNL d   1       5.611   0.305  -4.869  0.00  0.00     0.078 C 
ATOM      2  C1  UNL d   1       5.100   1.660  -5.256  0.00  0.00    -0.077 A 
ATOM      3  C2  UNL d   1       3.732   1.887  -5.451  0.00  0.00    -0.001 A 
ATOM      4  C3  UNL d   1       3.272   3.152  -5.820  0.00  0.00     0.003 A 
ATOM      5  C4  UNL d   1       4.173   4.200  -5.999  0.00  0.00    -0.005 A 
ATOM      6  C5  UNL d   1       5.536   3.983  -5.810  0.00  0.00     0.003 A 
ATOM      7  C6  UNL d   1       5.999   2.719  -5.440  0.00  0.00    -0.001 A 
ENDROOT
TORSDOF 0
ENDMDL
