MODEL 1
REMARK minimizedAffinity 2.71104956
REMARK minimizedRMSD -1
REMARK  0 active torsions:
REMARK  status: ('A' for Active; 'I' for Inactive)
ROOT
ATOM      1  C   UNL d   1      -1.927  -2.468   2.366  0.00  0.00     0.078 C 
ATOM      2  C1  UNL d   1      -1.398  -2.585   0.968  0.00  0.00    -0.077 A 
ATOM      3  C2  UNL d   1      -1.853  -3.591   0.106  0.00  0.00    -0.001 A 
ATOM      4  C3  UNL d   1      -1.345  -3.694  -1.189  0.00  0.00     0.003 A 
ATOM      5  C4  UNL d   1      -0.378  -2.794  -1.635  0.00  0.00    -0.005 A 
ATOM      6  C5  UNL d   1       0.082  -1.791  -0.785  0.00  0.00     0.003 A 
ATOM      7  C6  UNL d   1      -0.425  -1.687   0.512  0.00  0.00    -0.001 A 
ENDROOT
TORSDOF 0
ENDMDL
