MODEL 1
REMARK minimizedAffinity 0.82902962
REMARK minimizedRMSD -1
REMARK  0 active torsions:
REMARK  status: ('A' for Active; 'I' for Inactive)
ROOT
ATOM      1  C   UNL d   1       4.792   2.417   4.170  0.00  0.00     0.078 C 
ATOM      2  C1  UNL d   1       4.475   3.048   2.847  0.00  0.00    -0.077 A 
ATOM      3  C2  UNL d   1       4.962   4.319   2.519  0.00  0.00    -0.001 A 
ATOM      4  C3  UNL d   1       4.651   4.898   1.288  0.00  0.00     0.003 A 
ATOM      5  C4  UNL d   1       3.851   4.214   0.375  0.00  0.00    -0.005 A 
ATOM      6  C5  UNL d   1       3.360   2.949   0.693  0.00  0.00     0.003 A 
ATOM      7  C6  UNL d   1       3.670   2.369   1.924  0.00  0.00    -0.001 A 
ENDROOT
TORSDOF 0
ENDMDL
