MODEL 1
REMARK minimizedAffinity -0.287319243
REMARK minimizedRMSD -1
REMARK  0 active torsions:
REMARK  status: ('A' for Active; 'I' for Inactive)
ROOT
ATOM      1  C   UNL d   1       1.874   1.085   1.877  0.00  0.00     0.078 C 
ATOM      2  C1  UNL d   1       2.978   2.099   1.838  0.00  0.00    -0.077 A 
ATOM      3  C2  UNL d   1       3.156   2.929   0.724  0.00  0.00    -0.001 A 
ATOM      4  C3  UNL d   1       4.194   3.862   0.697  0.00  0.00     0.003 A 
ATOM      5  C4  UNL d   1       5.063   3.973   1.780  0.00  0.00    -0.005 A 
ATOM      6  C5  UNL d   1       4.895   3.151   2.892  0.00  0.00     0.003 A 
ATOM      7  C6  UNL d   1       3.858   2.217   2.921  0.00  0.00    -0.001 A 
ENDROOT
TORSDOF 0
ENDMDL
