MODEL 1
REMARK minimizedAffinity -1.82356846
REMARK minimizedRMSD -1
REMARK  0 active torsions:
REMARK  status: ('A' for Active; 'I' for Inactive)
ROOT
ATOM      1  C   UNL d   1       5.374   3.051   2.775  0.00  0.00     0.078 C 
ATOM      2  C1  UNL d   1       4.055   2.882   2.081  0.00  0.00    -0.077 A 
ATOM      3  C2  UNL d   1       3.112   1.954   2.541  0.00  0.00    -0.001 A 
ATOM      4  C3  UNL d   1       1.893   1.800   1.879  0.00  0.00     0.003 A 
ATOM      5  C4  UNL d   1       1.606   2.569   0.754  0.00  0.00    -0.005 A 
ATOM      6  C5  UNL d   1       2.538   3.494   0.288  0.00  0.00     0.003 A 
ATOM      7  C6  UNL d   1       3.758   3.649   0.948  0.00  0.00    -0.001 A 
ENDROOT
TORSDOF 0
ENDMDL
