MODEL 1
REMARK minimizedAffinity -2.46738148
REMARK minimizedRMSD -1
REMARK  0 active torsions:
REMARK  status: ('A' for Active; 'I' for Inactive)
ROOT
ATOM      1  C   UNL d   1      -1.893   3.964   4.514  0.00  0.00     0.078 C 
ATOM      2  C1  UNL d   1      -1.067   3.365   3.415  0.00  0.00    -0.077 A 
ATOM      3  C2  UNL d   1      -1.628   2.468   2.498  0.00  0.00    -0.001 A 
ATOM      4  C3  UNL d   1      -0.845   1.910   1.486  0.00  0.00     0.003 A 
ATOM      5  C4  UNL d   1       0.504   2.242   1.383  0.00  0.00    -0.005 A 
ATOM      6  C5  UNL d   1       1.072   3.132   2.292  0.00  0.00     0.003 A 
ATOM      7  C6  UNL d   1       0.291   3.691   3.305  0.00  0.00    -0.001 A 
ENDROOT
TORSDOF 0
ENDMDL
