MODEL 1
REMARK minimizedAffinity -4.08242416
REMARK minimizedRMSD -1
REMARK  0 active torsions:
REMARK  status: ('A' for Active; 'I' for Inactive)
ROOT
ATOM      1  C   UNL d   1       0.335   3.197   0.292  0.00  0.00     0.078 C 
ATOM      2  C1  UNL d   1       0.672   1.756   0.049  0.00  0.00    -0.077 A 
ATOM      3  C2  UNL d   1       2.002   1.339  -0.085  0.00  0.00    -0.001 A 
ATOM      4  C3  UNL d   1       2.301  -0.003  -0.321  0.00  0.00     0.003 A 
ATOM      5  C4  UNL d   1       1.275  -0.940  -0.425  0.00  0.00    -0.005 A 
ATOM      6  C5  UNL d   1      -0.052  -0.535  -0.296  0.00  0.00     0.003 A 
ATOM      7  C6  UNL d   1      -0.353   0.807  -0.060  0.00  0.00    -0.001 A 
ENDROOT
TORSDOF 0
ENDMDL
