MODEL 1
REMARK minimizedAffinity 3.60874557
REMARK minimizedRMSD -1
REMARK  0 active torsions:
REMARK  status: ('A' for Active; 'I' for Inactive)
ROOT
ATOM      1  C   UNL d   1      -0.241   0.708   0.708  0.00  0.00     0.020 A 
ATOM      2  C1  UNL d   1       0.256  -0.593   0.629  0.00  0.00     0.020 A 
ATOM      3  C2  UNL d   1      -0.094  -1.409  -0.448  0.00  0.00     0.034 A 
ATOM      4  C3  UNL d   1      -0.943  -0.927  -1.451  0.00  0.00     0.017 A 
ATOM      5  C4  UNL d   1      -1.441   0.379  -1.371  0.00  0.00     0.017 A 
ATOM      6  C5  UNL d   1      -1.087   1.192  -0.290  0.00  0.00     0.034 A 
ATOM      7 Cl   UNL d   1      -2.493   1.045  -2.569  0.00  0.00    -0.070 Cl
ATOM      8 Cl1  UNL d   1      -1.334  -1.991  -2.754  0.00  0.00    -0.070 Cl
ENDROOT
TORSDOF 0
ENDMDL
