MODEL 1
REMARK minimizedAffinity -4.45750999
REMARK minimizedRMSD -1
REMARK  0 active torsions:
REMARK  status: ('A' for Active; 'I' for Inactive)
ROOT
ATOM      1  C   UNL d   1       2.043  -1.248   1.071  0.00  0.00     0.020 A 
ATOM      2  C1  UNL d   1       2.777  -0.075   1.240  0.00  0.00     0.020 A 
ATOM      3  C2  UNL d   1       2.223   1.154   0.875  0.00  0.00     0.034 A 
ATOM      4  C3  UNL d   1       0.932   1.213   0.339  0.00  0.00     0.017 A 
ATOM      5  C4  UNL d   1       0.196   0.035   0.169  0.00  0.00     0.017 A 
ATOM      6  C5  UNL d   1       0.755  -1.193   0.537  0.00  0.00     0.034 A 
ATOM      7 Cl   UNL d   1      -1.404   0.027  -0.486  0.00  0.00    -0.070 Cl
ATOM      8 Cl1  UNL d   1       0.310   2.767  -0.091  0.00  0.00    -0.070 Cl
ENDROOT
TORSDOF 0
ENDMDL
