MODEL 1
REMARK minimizedAffinity -4.84798956
REMARK minimizedRMSD -1
REMARK  0 active torsions:
REMARK  status: ('A' for Active; 'I' for Inactive)
ROOT
ATOM      1  C   UNL d   1       2.176  -1.925   1.755  0.00  0.00     0.020 A 
ATOM      2  C1  UNL d   1       3.141  -1.016   1.325  0.00  0.00     0.020 A 
ATOM      3  C2  UNL d   1       2.762   0.113   0.597  0.00  0.00     0.034 A 
ATOM      4  C3  UNL d   1       1.413   0.337   0.297  0.00  0.00     0.017 A 
ATOM      5  C4  UNL d   1       0.445  -0.576   0.730  0.00  0.00     0.017 A 
ATOM      6  C5  UNL d   1       0.830  -1.706   1.458  0.00  0.00     0.034 A 
ATOM      7 Cl   UNL d   1      -1.239  -0.368   0.398  0.00  0.00    -0.070 Cl
ATOM      8 Cl1  UNL d   1       1.016   1.755  -0.606  0.00  0.00    -0.070 Cl
ENDROOT
TORSDOF 0
ENDMDL
