MODEL 1
REMARK minimizedAffinity -5.45088148
REMARK minimizedRMSD -1
REMARK  0 active torsions:
REMARK  status: ('A' for Active; 'I' for Inactive)
ROOT
ATOM      1  C   UNL d   1      -0.461  -1.988   1.276  0.00  0.00     0.020 A 
ATOM      2  C1  UNL d   1       0.719  -2.517   1.797  0.00  0.00     0.020 A 
ATOM      3  C2  UNL d   1       1.905  -1.783   1.725  0.00  0.00     0.034 A 
ATOM      4  C3  UNL d   1       1.914  -0.516   1.129  0.00  0.00     0.017 A 
ATOM      5  C4  UNL d   1       0.729   0.014   0.606  0.00  0.00     0.017 A 
ATOM      6  C5  UNL d   1      -0.456  -0.725   0.681  0.00  0.00     0.034 A 
ATOM      7 Cl   UNL d   1       0.661   1.570  -0.144  0.00  0.00    -0.070 Cl
ATOM      8 Cl1  UNL d   1       3.416   0.335   1.075  0.00  0.00    -0.070 Cl
ENDROOT
TORSDOF 0
ENDMDL
