MODEL 1
REMARK minimizedAffinity -5.14217329
REMARK minimizedRMSD -1
REMARK  0 active torsions:
REMARK  status: ('A' for Active; 'I' for Inactive)
ROOT
ATOM      1  C   UNL d   1       2.999  -0.192   0.681  0.00  0.00     0.020 A 
ATOM      2  C1  UNL d   1       3.049  -1.294   1.533  0.00  0.00     0.020 A 
ATOM      3  C2  UNL d   1       1.872  -1.957   1.887  0.00  0.00     0.034 A 
ATOM      4  C3  UNL d   1       0.640  -1.517   1.389  0.00  0.00     0.017 A 
ATOM      5  C4  UNL d   1       0.591  -0.411   0.534  0.00  0.00     0.017 A 
ATOM      6  C5  UNL d   1       1.773   0.249   0.183  0.00  0.00     0.034 A 
ATOM      7 Cl   UNL d   1      -0.892   0.190  -0.121  0.00  0.00    -0.070 Cl
ATOM      8 Cl1  UNL d   1      -0.776  -2.385   1.868  0.00  0.00    -0.070 Cl
ENDROOT
TORSDOF 0
ENDMDL
