MODEL 1
REMARK minimizedAffinity -3.89452195
REMARK minimizedRMSD -1
REMARK  0 active torsions:
REMARK  status: ('A' for Active; 'I' for Inactive)
ROOT
ATOM      1  C   UNL d   1       1.869  -1.503   1.168  0.00  0.00     0.020 A 
ATOM      2  C1  UNL d   1       2.954  -0.628   1.179  0.00  0.00     0.020 A 
ATOM      3  C2  UNL d   1       2.842   0.632   0.586  0.00  0.00     0.034 A 
ATOM      4  C3  UNL d   1       1.642   1.019  -0.021  0.00  0.00     0.017 A 
ATOM      5  C4  UNL d   1       0.553   0.140  -0.032  0.00  0.00     0.017 A 
ATOM      6  C5  UNL d   1       0.671  -1.120   0.563  0.00  0.00     0.034 A 
ATOM      7 Cl   UNL d   1      -0.960   0.547  -0.762  0.00  0.00    -0.070 Cl
ATOM      8 Cl1  UNL d   1       1.574   2.591  -0.735  0.00  0.00    -0.070 Cl
ENDROOT
TORSDOF 0
ENDMDL
