MODEL 1
REMARK minimizedAffinity -0.0139351599
REMARK minimizedRMSD -1
REMARK  0 active torsions:
REMARK  status: ('A' for Active; 'I' for Inactive)
ROOT
ATOM      1  C   UNL d   1       0.691   0.996   0.916  0.00  0.00     0.020 A 
ATOM      2  C1  UNL d   1       0.143  -0.227   1.302  0.00  0.00     0.020 A 
ATOM      3  C2  UNL d   1       0.586  -0.852   2.469  0.00  0.00     0.034 A 
ATOM      4  C3  UNL d   1       1.578  -0.255   3.255  0.00  0.00     0.017 A 
ATOM      5  C4  UNL d   1       2.127   0.972   2.867  0.00  0.00     0.017 A 
ATOM      6  C5  UNL d   1       1.680   1.594   1.697  0.00  0.00     0.034 A 
ATOM      7 Cl   UNL d   1       3.355   1.770   3.785  0.00  0.00    -0.070 Cl
ATOM      8 Cl1  UNL d   1       2.077  -1.085   4.686  0.00  0.00    -0.070 Cl
ENDROOT
TORSDOF 0
ENDMDL
