MODEL 1
REMARK minimizedAffinity 2.35744953
REMARK minimizedRMSD -1
REMARK  0 active torsions:
REMARK  status: ('A' for Active; 'I' for Inactive)
ROOT
ATOM      1  C   UNL d   1      -0.501   2.864   0.349  0.00  0.00     0.020 A 
ATOM      2  C1  UNL d   1       0.711   3.518   0.566  0.00  0.00     0.020 A 
ATOM      3  C2  UNL d   1       1.798   2.818   1.094  0.00  0.00     0.034 A 
ATOM      4  C3  UNL d   1       1.675   1.459   1.406  0.00  0.00     0.017 A 
ATOM      5  C4  UNL d   1       0.459   0.803   1.187  0.00  0.00     0.017 A 
ATOM      6  C5  UNL d   1      -0.627   1.509   0.659  0.00  0.00     0.034 A 
ATOM      7 Cl   UNL d   1       0.231  -0.872   1.548  0.00  0.00    -0.070 Cl
ATOM      8 Cl1  UNL d   1       3.061   0.656   2.055  0.00  0.00    -0.070 Cl
ENDROOT
TORSDOF 0
ENDMDL
