MODEL 1
REMARK minimizedAffinity -3.64993572
REMARK minimizedRMSD -1
REMARK  0 active torsions:
REMARK  status: ('A' for Active; 'I' for Inactive)
ROOT
ATOM      1  C   UNL d   1       3.289  -0.294   1.629  0.00  0.00     0.020 A 
ATOM      2  C1  UNL d   1       2.888  -1.536   1.139  0.00  0.00     0.020 A 
ATOM      3  C2  UNL d   1       1.628  -1.683   0.556  0.00  0.00     0.034 A 
ATOM      4  C3  UNL d   1       0.764  -0.586   0.461  0.00  0.00     0.017 A 
ATOM      5  C4  UNL d   1       1.167   0.660   0.953  0.00  0.00     0.017 A 
ATOM      6  C5  UNL d   1       2.430   0.802   1.536  0.00  0.00     0.034 A 
ATOM      7 Cl   UNL d   1       0.156   2.060   0.871  0.00  0.00    -0.070 Cl
ATOM      8 Cl1  UNL d   1      -0.780  -0.840  -0.273  0.00  0.00    -0.070 Cl
ENDROOT
TORSDOF 0
ENDMDL
