MODEL 1
REMARK minimizedAffinity -5.2294426
REMARK minimizedRMSD -1
REMARK  0 active torsions:
REMARK  status: ('A' for Active; 'I' for Inactive)
ROOT
ATOM      1  C   UNL d   1       3.070  -0.782   1.506  0.00  0.00     0.020 A 
ATOM      2  C1  UNL d   1       2.816  -1.945   2.231  0.00  0.00     0.020 A 
ATOM      3  C2  UNL d   1       1.526  -2.481   2.261  0.00  0.00     0.034 A 
ATOM      4  C3  UNL d   1       0.487  -1.854   1.565  0.00  0.00     0.017 A 
ATOM      5  C4  UNL d   1       0.743  -0.686   0.837  0.00  0.00     0.017 A 
ATOM      6  C5  UNL d   1       2.036  -0.154   0.811  0.00  0.00     0.034 A 
ATOM      7 Cl   UNL d   1      -0.488   0.144  -0.047  0.00  0.00    -0.070 Cl
ATOM      8 Cl1  UNL d   1      -1.083  -2.572   1.646  0.00  0.00    -0.070 Cl
ENDROOT
TORSDOF 0
ENDMDL
