MODEL 1
REMARK minimizedAffinity -2.42256784
REMARK minimizedRMSD -1
REMARK  0 active torsions:
REMARK  status: ('A' for Active; 'I' for Inactive)
ROOT
ATOM      1  C   UNL d   1      -0.987  -2.079   1.523  0.00  0.00     0.020 A 
ATOM      2  C1  UNL d   1      -1.900  -1.105   1.123  0.00  0.00     0.020 A 
ATOM      3  C2  UNL d   1      -1.462   0.014   0.411  0.00  0.00     0.034 A 
ATOM      4  C3  UNL d   1      -0.106   0.160   0.097  0.00  0.00     0.017 A 
ATOM      5  C4  UNL d   1       0.811  -0.818   0.498  0.00  0.00     0.017 A 
ATOM      6  C5  UNL d   1       0.366  -1.936   1.211  0.00  0.00     0.034 A 
ATOM      7 Cl   UNL d   1       2.499  -0.707   0.147  0.00  0.00    -0.070 Cl
ATOM      8 Cl1  UNL d   1       0.366   1.569  -0.786  0.00  0.00    -0.070 Cl
ENDROOT
TORSDOF 0
ENDMDL
