MODEL 1
REMARK minimizedAffinity -0.0985980406
REMARK minimizedRMSD -1
REMARK  0 active torsions:
REMARK  status: ('A' for Active; 'I' for Inactive)
ROOT
ATOM      1  C   UNL d   1       2.667  -1.904  -1.735  0.00  0.00     0.078 C 
ATOM      2  C1  UNL d   1       1.344  -1.484  -1.170  0.00  0.00    -0.077 A 
ATOM      3  C2  UNL d   1       0.540  -2.388  -0.465  0.00  0.00    -0.001 A 
ATOM      4  C3  UNL d   1      -0.694  -1.986   0.047  0.00  0.00     0.003 A 
ATOM      5  C4  UNL d   1      -1.137  -0.678  -0.142  0.00  0.00    -0.005 A 
ATOM      6  C5  UNL d   1      -0.346   0.228  -0.844  0.00  0.00     0.003 A 
ATOM      7  C6  UNL d   1       0.889  -0.172  -1.357  0.00  0.00    -0.001 A 
ENDROOT
TORSDOF 0
ENDMDL
