MODEL 1
REMARK minimizedAffinity -1.2044723
REMARK minimizedRMSD -1
REMARK  0 active torsions:
REMARK  status: ('A' for Active; 'I' for Inactive)
ROOT
ATOM      1  C   UNL d   1       5.915  -2.966   4.869  0.00  0.00     0.078 C 
ATOM      2  C1  UNL d   1       5.833  -1.469   4.821  0.00  0.00    -0.077 A 
ATOM      3  C2  UNL d   1       5.987  -0.777   3.614  0.00  0.00    -0.001 A 
ATOM      4  C3  UNL d   1       5.918   0.617   3.586  0.00  0.00     0.003 A 
ATOM      5  C4  UNL d   1       5.695   1.330   4.762  0.00  0.00    -0.005 A 
ATOM      6  C5  UNL d   1       5.543   0.650   5.968  0.00  0.00     0.003 A 
ATOM      7  C6  UNL d   1       5.612  -0.744   5.998  0.00  0.00    -0.001 A 
ENDROOT
TORSDOF 0
ENDMDL
