MODEL 1
REMARK minimizedAffinity -2.80224919
REMARK minimizedRMSD -1
REMARK  0 active torsions:
REMARK  status: ('A' for Active; 'I' for Inactive)
ROOT
ATOM      1  C   UNL d   1       5.985   0.943   5.108  0.00  0.00     0.078 C 
ATOM      2  C1  UNL d   1       5.966  -0.543   4.906  0.00  0.00    -0.077 A 
ATOM      3  C2  UNL d   1       5.929  -1.418   5.998  0.00  0.00    -0.001 A 
ATOM      4  C3  UNL d   1       5.921  -2.799   5.796  0.00  0.00     0.003 A 
ATOM      5  C4  UNL d   1       5.951  -3.317   4.503  0.00  0.00    -0.005 A 
ATOM      6  C5  UNL d   1       5.990  -2.454   3.410  0.00  0.00     0.003 A 
ATOM      7  C6  UNL d   1       5.998  -1.072   3.610  0.00  0.00    -0.001 A 
ENDROOT
TORSDOF 0
ENDMDL
