MODEL 1
REMARK minimizedAffinity -2.54799914
REMARK minimizedRMSD -1
REMARK  0 active torsions:
REMARK  status: ('A' for Active; 'I' for Inactive)
ROOT
ATOM      1  C   UNL d   1       5.589  -1.255   5.263  0.00  0.00     0.078 C 
ATOM      2  C1  UNL d   1       5.562   0.220   4.996  0.00  0.00    -0.077 A 
ATOM      3  C2  UNL d   1       5.948   1.139   5.980  0.00  0.00    -0.001 A 
ATOM      4  C3  UNL d   1       5.909   2.510   5.721  0.00  0.00     0.003 A 
ATOM      5  C4  UNL d   1       5.483   2.975   4.478  0.00  0.00    -0.005 A 
ATOM      6  C5  UNL d   1       5.094   2.069   3.494  0.00  0.00     0.003 A 
ATOM      7  C6  UNL d   1       5.133   0.697   3.751  0.00  0.00    -0.001 A 
ENDROOT
TORSDOF 0
ENDMDL
