MODEL 1
REMARK minimizedAffinity -2.25534153
REMARK minimizedRMSD -1
REMARK  0 active torsions:
REMARK  status: ('A' for Active; 'I' for Inactive)
ROOT
ATOM      1  C   UNL d   1       5.811   2.465   4.774  0.00  0.00     0.078 C 
ATOM      2  C1  UNL d   1       5.883   0.967   4.774  0.00  0.00    -0.077 A 
ATOM      3  C2  UNL d   1       5.942   0.248   3.574  0.00  0.00    -0.001 A 
ATOM      4  C3  UNL d   1       6.000  -1.146   3.589  0.00  0.00     0.003 A 
ATOM      5  C4  UNL d   1       5.998  -1.834   4.801  0.00  0.00    -0.005 A 
ATOM      6  C5  UNL d   1       5.938  -1.127   6.000  0.00  0.00     0.003 A 
ATOM      7  C6  UNL d   1       5.880   0.267   5.987  0.00  0.00    -0.001 A 
ENDROOT
TORSDOF 0
ENDMDL
