MODEL 1
REMARK minimizedAffinity -1.79392707
REMARK minimizedRMSD -1
REMARK  0 active torsions:
REMARK  status: ('A' for Active; 'I' for Inactive)
ROOT
ATOM      1  C   UNL d   1       5.425  -1.580   5.309  0.00  0.00     0.078 C 
ATOM      2  C1  UNL d   1       5.418  -0.107   5.027  0.00  0.00    -0.077 A 
ATOM      3  C2  UNL d   1       4.855   0.398   3.848  0.00  0.00    -0.001 A 
ATOM      4  C3  UNL d   1       4.864   1.770   3.594  0.00  0.00     0.003 A 
ATOM      5  C4  UNL d   1       5.435   2.649   4.513  0.00  0.00    -0.005 A 
ATOM      6  C5  UNL d   1       5.999   2.155   5.687  0.00  0.00     0.003 A 
ATOM      7  C6  UNL d   1       5.991   0.783   5.943  0.00  0.00    -0.001 A 
ENDROOT
TORSDOF 0
ENDMDL
