MODEL 1
REMARK minimizedAffinity -2.94740486
REMARK minimizedRMSD -1
REMARK  0 active torsions:
REMARK  status: ('A' for Active; 'I' for Inactive)
ROOT
ATOM      1  C   UNL d   1       5.725   3.566   5.964  0.00  0.00     0.078 C 
ATOM      2  C1  UNL d   1       5.694   2.244   5.258  0.00  0.00    -0.077 A 
ATOM      3  C2  UNL d   1       5.666   2.173   3.860  0.00  0.00    -0.001 A 
ATOM      4  C3  UNL d   1       5.627   0.935   3.216  0.00  0.00     0.003 A 
ATOM      5  C4  UNL d   1       5.614  -0.241   3.962  0.00  0.00    -0.005 A 
ATOM      6  C5  UNL d   1       5.639  -0.181   5.354  0.00  0.00     0.003 A 
ATOM      7  C6  UNL d   1       5.678   1.056   6.000  0.00  0.00    -0.001 A 
ENDROOT
TORSDOF 0
ENDMDL
