MODEL 1
REMARK minimizedAffinity 8.09815884
REMARK minimizedRMSD -1
REMARK  0 active torsions:
REMARK  status: ('A' for Active; 'I' for Inactive)
ROOT
ATOM      1  C   UNL d   1       0.882   1.280  -0.467  0.00  0.00     0.078 C 
ATOM      2  C1  UNL d   1       1.076  -0.206  -0.502  0.00  0.00    -0.077 A 
ATOM      3  C2  UNL d   1      -0.013  -1.079  -0.380  0.00  0.00    -0.001 A 
ATOM      4  C3  UNL d   1       0.184  -2.460  -0.404  0.00  0.00     0.003 A 
ATOM      5  C4  UNL d   1       1.467  -2.982  -0.550  0.00  0.00    -0.005 A 
ATOM      6  C5  UNL d   1       2.557  -2.122  -0.670  0.00  0.00     0.003 A 
ATOM      7  C6  UNL d   1       2.363  -0.740  -0.646  0.00  0.00    -0.001 A 
ENDROOT
TORSDOF 0
ENDMDL
