MODEL 1
REMARK minimizedAffinity -3.30842209
REMARK minimizedRMSD -1
REMARK  0 active torsions:
REMARK  status: ('A' for Active; 'I' for Inactive)
ROOT
ATOM      1  C   UNL d   1       5.248  -1.487   5.259  0.00  0.00     0.078 C 
ATOM      2  C1  UNL d   1       5.380  -0.022   4.966  0.00  0.00    -0.077 A 
ATOM      3  C2  UNL d   1       5.372   0.924   5.998  0.00  0.00    -0.001 A 
ATOM      4  C3  UNL d   1       5.485   2.285   5.710  0.00  0.00     0.003 A 
ATOM      5  C4  UNL d   1       5.607   2.713   4.390  0.00  0.00    -0.005 A 
ATOM      6  C5  UNL d   1       5.614   1.779   3.355  0.00  0.00     0.003 A 
ATOM      7  C6  UNL d   1       5.501   0.418   3.642  0.00  0.00    -0.001 A 
ENDROOT
TORSDOF 0
ENDMDL
