MODEL 1
REMARK minimizedAffinity 6.47800016
REMARK minimizedRMSD -1
REMARK  0 active torsions:
REMARK  status: ('A' for Active; 'I' for Inactive)
ROOT
ATOM      1  C   UNL d   1       0.687   1.445  -0.524  0.00  0.00     0.078 C 
ATOM      2  C1  UNL d   1       1.026   0.010  -0.255  0.00  0.00    -0.077 A 
ATOM      3  C2  UNL d   1       0.020  -0.948  -0.077  0.00  0.00    -0.001 A 
ATOM      4  C3  UNL d   1       0.350  -2.279   0.183  0.00  0.00     0.003 A 
ATOM      5  C4  UNL d   1       1.686  -2.664   0.269  0.00  0.00    -0.005 A 
ATOM      6  C5  UNL d   1       2.694  -1.718   0.095  0.00  0.00     0.003 A 
ATOM      7  C6  UNL d   1       2.366  -0.387  -0.165  0.00  0.00    -0.001 A 
ENDROOT
TORSDOF 0
ENDMDL
