MODEL 1
REMARK minimizedAffinity -3.36236429
REMARK minimizedRMSD -1
REMARK  0 active torsions:
REMARK  status: ('A' for Active; 'I' for Inactive)
ROOT
ATOM      1  C   UNL d   1       5.577   2.402   4.849  0.00  0.00     0.078 C 
ATOM      2  C1  UNL d   1       5.587   0.902   4.859  0.00  0.00    -0.077 A 
ATOM      3  C2  UNL d   1       5.980   0.191   6.000  0.00  0.00    -0.001 A 
ATOM      4  C3  UNL d   1       5.993  -1.204   5.992  0.00  0.00     0.003 A 
ATOM      5  C4  UNL d   1       5.615  -1.901   4.846  0.00  0.00    -0.005 A 
ATOM      6  C5  UNL d   1       5.225  -1.203   3.706  0.00  0.00     0.003 A 
ATOM      7  C6  UNL d   1       5.211   0.193   3.711  0.00  0.00    -0.001 A 
ENDROOT
TORSDOF 0
ENDMDL
