MODEL 1
REMARK minimizedAffinity -2.64999342
REMARK minimizedRMSD -1
REMARK  0 active torsions:
REMARK  status: ('A' for Active; 'I' for Inactive)
ROOT
ATOM      1  C   UNL d   1       5.418  -2.179   4.876  0.00  0.00     0.078 C 
ATOM      2  C1  UNL d   1       5.427  -0.681   4.824  0.00  0.00    -0.077 A 
ATOM      3  C2  UNL d   1       5.619  -0.002   3.614  0.00  0.00    -0.001 A 
ATOM      4  C3  UNL d   1       5.635   1.393   3.582  0.00  0.00     0.003 A 
ATOM      5  C4  UNL d   1       5.462   2.122   4.757  0.00  0.00    -0.005 A 
ATOM      6  C5  UNL d   1       5.273   1.456   5.966  0.00  0.00     0.003 A 
ATOM      7  C6  UNL d   1       5.256   0.061   6.000  0.00  0.00    -0.001 A 
ENDROOT
TORSDOF 0
ENDMDL
