MODEL 1
REMARK minimizedAffinity 2.55627728
REMARK minimizedRMSD -1
REMARK  0 active torsions:
REMARK  status: ('A' for Active; 'I' for Inactive)
ROOT
ATOM      1  C   UNL d   1      -1.291   0.729   2.839  0.00  0.00     0.078 C 
ATOM      2  C1  UNL d   1      -0.656   0.876   1.489  0.00  0.00    -0.077 A 
ATOM      3  C2  UNL d   1      -0.374  -0.245   0.698  0.00  0.00    -0.001 A 
ATOM      4  C3  UNL d   1       0.226  -0.094  -0.553  0.00  0.00     0.003 A 
ATOM      5  C4  UNL d   1       0.552   1.176  -1.024  0.00  0.00    -0.005 A 
ATOM      6  C5  UNL d   1       0.278   2.297  -0.243  0.00  0.00     0.003 A 
ATOM      7  C6  UNL d   1      -0.323   2.148   1.008  0.00  0.00    -0.001 A 
ENDROOT
TORSDOF 0
ENDMDL
