MODEL 1
REMARK minimizedAffinity 2.0356288
REMARK minimizedRMSD -1
REMARK  0 active torsions:
REMARK  status: ('A' for Active; 'I' for Inactive)
ROOT
ATOM      1  C   UNL d   1       2.575  -2.278  -1.905  0.00  0.00     0.078 C 
ATOM      2  C1  UNL d   1       1.296  -1.764  -1.316  0.00  0.00    -0.077 A 
ATOM      3  C2  UNL d   1       0.887  -0.441  -1.523  0.00  0.00    -0.001 A 
ATOM      4  C3  UNL d   1      -0.302   0.027  -0.961  0.00  0.00     0.003 A 
ATOM      5  C4  UNL d   1      -1.091  -0.821  -0.186  0.00  0.00    -0.005 A 
ATOM      6  C5  UNL d   1      -0.691  -2.138   0.028  0.00  0.00     0.003 A 
ATOM      7  C6  UNL d   1       0.497  -2.608  -0.534  0.00  0.00    -0.001 A 
ENDROOT
TORSDOF 0
ENDMDL
