MODEL 1
REMARK minimizedAffinity 1.01874983
REMARK minimizedRMSD -1
REMARK  0 active torsions:
REMARK  status: ('A' for Active; 'I' for Inactive)
ROOT
ATOM      1  C   UNL d   1       5.997   1.516   5.313  0.00  0.00     0.078 C 
ATOM      2  C1  UNL d   1       5.872   0.058   4.984  0.00  0.00    -0.077 A 
ATOM      3  C2  UNL d   1       5.632  -0.366   3.672  0.00  0.00    -0.001 A 
ATOM      4  C3  UNL d   1       5.508  -1.726   3.381  0.00  0.00     0.003 A 
ATOM      5  C4  UNL d   1       5.623  -2.672   4.398  0.00  0.00    -0.005 A 
ATOM      6  C5  UNL d   1       5.860  -2.258   5.707  0.00  0.00     0.003 A 
ATOM      7  C6  UNL d   1       5.984  -0.899   6.000  0.00  0.00    -0.001 A 
ENDROOT
TORSDOF 0
ENDMDL
