MODEL 1
REMARK minimizedAffinity -2.7763176
REMARK minimizedRMSD -1
REMARK  0 active torsions:
REMARK  status: ('A' for Active; 'I' for Inactive)
ROOT
ATOM      1  C   UNL d   1       5.956   1.930   5.224  0.00  0.00     0.078 C 
ATOM      2  C1  UNL d   1       5.976   3.340   4.714  0.00  0.00    -0.077 A 
ATOM      3  C2  UNL d   1       5.967   4.426   5.598  0.00  0.00    -0.001 A 
ATOM      4  C3  UNL d   1       5.976   5.734   5.109  0.00  0.00     0.003 A 
ATOM      5  C4  UNL d   1       5.993   5.967   3.736  0.00  0.00    -0.005 A 
ATOM      6  C5  UNL d   1       6.000   4.893   2.849  0.00  0.00     0.003 A 
ATOM      7  C6  UNL d   1       5.991   3.585   3.335  0.00  0.00    -0.001 A 
ENDROOT
TORSDOF 0
ENDMDL
