MODEL 1
REMARK minimizedAffinity -2.80446434
REMARK minimizedRMSD -1
REMARK  0 active torsions:
REMARK  status: ('A' for Active; 'I' for Inactive)
ROOT
ATOM      1  C   UNL d   1       5.989   4.025   5.193  0.00  0.00     0.078 C 
ATOM      2  C1  UNL d   1       5.758   2.569   4.922  0.00  0.00    -0.077 A 
ATOM      3  C2  UNL d   1       5.300   2.131   3.673  0.00  0.00    -0.001 A 
ATOM      4  C3  UNL d   1       5.081   0.773   3.438  0.00  0.00     0.003 A 
ATOM      5  C4  UNL d   1       5.316  -0.159   4.447  0.00  0.00    -0.005 A 
ATOM      6  C5  UNL d   1       5.770   0.267   5.693  0.00  0.00     0.003 A 
ATOM      7  C6  UNL d   1       5.990   1.625   5.930  0.00  0.00    -0.001 A 
ENDROOT
TORSDOF 0
ENDMDL
