MODEL 1
REMARK minimizedAffinity -3.34454894
REMARK minimizedRMSD -1
REMARK  1 active torsions:
REMARK  status: ('A' for Active; 'I' for Inactive)
REMARK    1  A    between atoms: C1_2  and  C2_3 
ROOT
ATOM      1  C2  UNL d   1       2.440  -2.886  -0.025  0.00  0.00    -0.073 A 
ATOM      2  C3  UNL d   1       1.481  -3.904  -0.067  0.00  0.00    -0.002 A 
ATOM      3  C4  UNL d   1       0.161  -3.644   0.304  0.00  0.00     0.004 A 
ATOM      4  C5  UNL d   1      -0.214  -2.365   0.714  0.00  0.00    -0.004 A 
ATOM      5  C6  UNL d   1       0.727  -1.331   0.751  0.00  0.00    -0.075 A 
ATOM      6  C7  UNL d   1       0.340   0.050   1.192  0.00  0.00     0.076 C 
ATOM      7  C8  UNL d   1       2.051  -1.601   0.380  0.00  0.00     0.001 A 
ENDROOT
BRANCH   1   8
ATOM      8  C1  UNL d   1       3.865  -3.159  -0.431  0.00  0.00     0.053 C 
ATOM      9  C   UNL d   1       4.127  -4.644  -0.626  0.00  0.00     0.018 C 
ENDBRANCH   1   8
TORSDOF 1
ENDMDL
