MODEL 1
REMARK minimizedAffinity -0.0342423059
REMARK minimizedRMSD -1
REMARK  1 active torsions:
REMARK  status: ('A' for Active; 'I' for Inactive)
REMARK    1  A    between atoms: C1_2  and  C2_3 
ROOT
ATOM      1  C2  UNL d   1       0.377  -0.872   0.957  0.00  0.00    -0.073 A 
ATOM      2  C3  UNL d   1      -0.242  -1.881   1.705  0.00  0.00    -0.002 A 
ATOM      3  C4  UNL d   1       0.209  -3.198   1.621  0.00  0.00     0.004 A 
ATOM      4  C5  UNL d   1       1.288  -3.520   0.798  0.00  0.00    -0.004 A 
ATOM      5  C6  UNL d   1       1.928  -2.524   0.052  0.00  0.00    -0.075 A 
ATOM      6  C7  UNL d   1       3.088  -2.854  -0.841  0.00  0.00     0.076 C 
ATOM      7  C8  UNL d   1       1.466  -1.204   0.139  0.00  0.00     0.001 A 
ENDROOT
BRANCH   1   8
ATOM      8  C1  UNL d   1      -0.103   0.553   1.049  0.00  0.00     0.053 C 
ATOM      9  C   UNL d   1      -1.468   0.737   0.404  0.00  0.00     0.018 C 
ENDBRANCH   1   8
TORSDOF 1
ENDMDL
