MODEL 1
REMARK minimizedAffinity 0.965883374
REMARK minimizedRMSD -1
REMARK  1 active torsions:
REMARK  status: ('A' for Active; 'I' for Inactive)
REMARK    1  A    between atoms: C1_2  and  C2_3 
ROOT
ATOM      1  C2  UNL d   1       1.822  -3.447   0.219  0.00  0.00    -0.073 A 
ATOM      2  C3  UNL d   1       0.429  -3.462   0.350  0.00  0.00    -0.002 A 
ATOM      3  C4  UNL d   1      -0.257  -2.304   0.720  0.00  0.00     0.004 A 
ATOM      4  C5  UNL d   1       0.441  -1.119   0.955  0.00  0.00    -0.004 A 
ATOM      5  C6  UNL d   1       1.833  -1.082   0.818  0.00  0.00    -0.075 A 
ATOM      6  C7  UNL d   1       2.599   0.184   1.070  0.00  0.00     0.076 C 
ATOM      7  C8  UNL d   1       2.514  -2.249   0.450  0.00  0.00     0.001 A 
ENDROOT
BRANCH   1   8
ATOM      8  C1  UNL d   1       2.566  -4.693  -0.186  0.00  0.00     0.053 C 
ATOM      9  C   UNL d   1       4.072  -4.520  -0.073  0.00  0.00     0.018 C 
ENDBRANCH   1   8
TORSDOF 1
ENDMDL
