MODEL 1
REMARK minimizedAffinity -3.64913487
REMARK minimizedRMSD -1
REMARK  1 active torsions:
REMARK  status: ('A' for Active; 'I' for Inactive)
REMARK    1  A    between atoms: C1_2  and  C2_3 
ROOT
ATOM      1  C2  UNL d   1       2.287  -2.888   0.436  0.00  0.00    -0.073 A 
ATOM      2  C3  UNL d   1       3.342  -1.969   0.390  0.00  0.00    -0.002 A 
ATOM      3  C4  UNL d   1       3.088  -0.599   0.478  0.00  0.00     0.004 A 
ATOM      4  C5  UNL d   1       1.780  -0.136   0.620  0.00  0.00    -0.004 A 
ATOM      5  C6  UNL d   1       0.714  -1.039   0.680  0.00  0.00    -0.075 A 
ATOM      6  C7  UNL d   1      -0.699  -0.556   0.830  0.00  0.00     0.076 C 
ATOM      7  C8  UNL d   1       0.977  -2.412   0.588  0.00  0.00     0.001 A 
ENDROOT
BRANCH   1   8
ATOM      8  C1  UNL d   1       2.557  -4.367   0.348  0.00  0.00     0.053 C 
ATOM      9  C   UNL d   1       4.001  -4.662  -0.027  0.00  0.00     0.018 C 
ENDBRANCH   1   8
TORSDOF 1
ENDMDL
