MODEL 1
REMARK minimizedAffinity -4.46006727
REMARK minimizedRMSD -1
REMARK  1 active torsions:
REMARK  status: ('A' for Active; 'I' for Inactive)
REMARK    1  A    between atoms: C1_2  and  C2_3 
ROOT
ATOM      1  C2  UNL d   1      -0.311  -1.218   0.770  0.00  0.00    -0.073 A 
ATOM      2  C3  UNL d   1       0.591  -0.156   0.641  0.00  0.00    -0.002 A 
ATOM      3  C4  UNL d   1       1.960  -0.403   0.529  0.00  0.00     0.004 A 
ATOM      4  C5  UNL d   1       2.439  -1.713   0.538  0.00  0.00    -0.004 A 
ATOM      5  C6  UNL d   1       1.552  -2.788   0.654  0.00  0.00    -0.075 A 
ATOM      6  C7  UNL d   1       2.052  -4.203   0.667  0.00  0.00     0.076 C 
ATOM      7  C8  UNL d   1       0.179  -2.531   0.769  0.00  0.00     0.001 A 
ENDROOT
BRANCH   1   8
ATOM      8  C1  UNL d   1      -1.791  -0.956   0.885  0.00  0.00     0.053 C 
ATOM      9  C   UNL d   1      -2.106   0.532   0.914  0.00  0.00     0.018 C 
ENDBRANCH   1   8
TORSDOF 1
ENDMDL
