MODEL 1
REMARK minimizedAffinity 1.05188775
REMARK minimizedRMSD -1
REMARK  1 active torsions:
REMARK  status: ('A' for Active; 'I' for Inactive)
REMARK    1  A    between atoms: C1_2  and  C2_3 
ROOT
ATOM      1  C2  UNL d   1      -5.313  -3.585   5.065  0.00  0.00    -0.073 A 
ATOM      2  C3  UNL d   1      -5.330  -4.890   5.570  0.00  0.00    -0.002 A 
ATOM      3  C4  UNL d   1      -5.251  -5.982   4.704  0.00  0.00     0.004 A 
ATOM      4  C5  UNL d   1      -5.148  -5.780   3.328  0.00  0.00    -0.004 A 
ATOM      5  C6  UNL d   1      -5.118  -4.483   2.805  0.00  0.00    -0.075 A 
ATOM      6  C7  UNL d   1      -5.009  -4.250   1.327  0.00  0.00     0.076 C 
ATOM      7  C8  UNL d   1      -5.200  -3.392   3.681  0.00  0.00     0.001 A 
ENDROOT
BRANCH   1   8
ATOM      8  C1  UNL d   1      -5.391  -2.403   5.997  0.00  0.00     0.053 C 
ATOM      9  C   UNL d   1      -4.121  -1.569   5.966  0.00  0.00     0.018 C 
ENDBRANCH   1   8
TORSDOF 1
ENDMDL
