MODEL 1
REMARK minimizedAffinity 1.56903541
REMARK minimizedRMSD -1
REMARK  1 active torsions:
REMARK  status: ('A' for Active; 'I' for Inactive)
REMARK    1  A    between atoms: C1_2  and  C2_3 
ROOT
ATOM      1  C2  UNL d   1       1.176  -3.110   0.210  0.00  0.00    -0.073 A 
ATOM      2  C3  UNL d   1      -0.204  -2.879   0.164  0.00  0.00    -0.002 A 
ATOM      3  C4  UNL d   1      -0.736  -1.684   0.650  0.00  0.00     0.004 A 
ATOM      4  C5  UNL d   1       0.105  -0.706   1.180  0.00  0.00    -0.004 A 
ATOM      5  C6  UNL d   1       1.488  -0.912   1.224  0.00  0.00    -0.075 A 
ATOM      6  C7  UNL d   1       2.405   0.129   1.793  0.00  0.00     0.076 C 
ATOM      7  C8  UNL d   1       2.014  -2.116   0.737  0.00  0.00     0.001 A 
ENDROOT
BRANCH   1   8
ATOM      8  C1  UNL d   1       1.756  -4.396  -0.319  0.00  0.00     0.053 C 
ATOM      9  C   UNL d   1       3.186  -4.612   0.150  0.00  0.00     0.018 C 
ENDBRANCH   1   8
TORSDOF 1
ENDMDL
