MODEL 1
REMARK minimizedAffinity -2.51812935
REMARK minimizedRMSD -1
REMARK  1 active torsions:
REMARK  status: ('A' for Active; 'I' for Inactive)
REMARK    1  A    between atoms: C1_2  and  C2_3 
ROOT
ATOM      1  C2  UNL d   1       2.802   3.996  -3.897  0.00  0.00    -0.073 A 
ATOM      2  C3  UNL d   1       2.994   4.277  -5.255  0.00  0.00    -0.002 A 
ATOM      3  C4  UNL d   1       1.983   4.886  -5.999  0.00  0.00     0.004 A 
ATOM      4  C5  UNL d   1       0.774   5.227  -5.393  0.00  0.00    -0.004 A 
ATOM      5  C6  UNL d   1       0.567   4.965  -4.035  0.00  0.00    -0.075 A 
ATOM      6  C7  UNL d   1      -0.729   5.324  -3.369  0.00  0.00     0.076 C 
ATOM      7  C8  UNL d   1       1.586   4.350  -3.295  0.00  0.00     0.001 A 
ENDROOT
BRANCH   1   8
ATOM      8  C1  UNL d   1       3.893   3.344  -3.088  0.00  0.00     0.053 C 
ATOM      9  C   UNL d   1       3.715   1.836  -3.001  0.00  0.00     0.018 C 
ENDBRANCH   1   8
TORSDOF 1
ENDMDL
