MODEL 1
REMARK minimizedAffinity 0.857034624
REMARK minimizedRMSD -1
REMARK  1 active torsions:
REMARK  status: ('A' for Active; 'I' for Inactive)
REMARK    1  A    between atoms: C1_2  and  C2_3 
ROOT
ATOM      1  C2  UNL d   1       2.219  -3.340   0.008  0.00  0.00    -0.073 A 
ATOM      2  C3  UNL d   1       1.259  -4.320  -0.271  0.00  0.00    -0.002 A 
ATOM      3  C4  UNL d   1      -0.094  -4.066  -0.046  0.00  0.00     0.004 A 
ATOM      4  C5  UNL d   1      -0.503  -2.830   0.454  0.00  0.00    -0.004 A 
ATOM      5  C6  UNL d   1       0.440  -1.833   0.728  0.00  0.00    -0.075 A 
ATOM      6  C7  UNL d   1       0.017  -0.498   1.267  0.00  0.00     0.076 C 
ATOM      7  C8  UNL d   1       1.797  -2.097   0.501  0.00  0.00     0.001 A 
ENDROOT
BRANCH   1   8
ATOM      8  C1  UNL d   1       3.681  -3.607  -0.241  0.00  0.00     0.053 C 
ATOM      9  C   UNL d   1       4.046  -5.061   0.013  0.00  0.00     0.018 C 
ENDBRANCH   1   8
TORSDOF 1
ENDMDL
