MODEL 1
REMARK minimizedAffinity -1.33013785
REMARK minimizedRMSD -1
REMARK  1 active torsions:
REMARK  status: ('A' for Active; 'I' for Inactive)
REMARK    1  A    between atoms: C1_2  and  C2_3 
ROOT
ATOM      1  C2  UNL d   1       2.078  -3.161  -0.324  0.00  0.00    -0.073 A 
ATOM      2  C3  UNL d   1       2.816  -1.973  -0.388  0.00  0.00    -0.002 A 
ATOM      3  C4  UNL d   1       2.237  -0.763  -0.004  0.00  0.00     0.004 A 
ATOM      4  C5  UNL d   1       0.920  -0.729   0.455  0.00  0.00    -0.004 A 
ATOM      5  C6  UNL d   1       0.171  -1.907   0.537  0.00  0.00    -0.075 A 
ATOM      6  C7  UNL d   1      -1.247  -1.887   1.026  0.00  0.00     0.076 C 
ATOM      7  C8  UNL d   1       0.758  -3.118   0.147  0.00  0.00     0.001 A 
ENDROOT
BRANCH   1   8
ATOM      8  C1  UNL d   1       2.701  -4.471  -0.732  0.00  0.00     0.053 C 
ATOM      9  C   UNL d   1       4.042  -4.701  -0.053  0.00  0.00     0.018 C 
ENDBRANCH   1   8
TORSDOF 1
ENDMDL
