MODEL 1
REMARK minimizedAffinity -0.0687155575
REMARK minimizedRMSD -1
REMARK  1 active torsions:
REMARK  status: ('A' for Active; 'I' for Inactive)
REMARK    1  A    between atoms: C1_2  and  C2_3 
ROOT
ATOM      1  C2  UNL d   1      -2.282  -0.221   1.768  0.00  0.00    -0.073 A 
ATOM      2  C3  UNL d   1      -1.518  -1.387   1.879  0.00  0.00    -0.002 A 
ATOM      3  C4  UNL d   1      -2.070  -2.542   2.435  0.00  0.00     0.004 A 
ATOM      4  C5  UNL d   1      -3.392  -2.544   2.878  0.00  0.00    -0.004 A 
ATOM      5  C6  UNL d   1      -4.177  -1.392   2.764  0.00  0.00    -0.075 A 
ATOM      6  C7  UNL d   1      -5.600  -1.377   3.238  0.00  0.00     0.076 C 
ATOM      7  C8  UNL d   1      -3.614  -0.235   2.208  0.00  0.00     0.001 A 
ENDROOT
BRANCH   1   8
ATOM      8  C1  UNL d   1      -1.692   1.027   1.162  0.00  0.00     0.053 C 
ATOM      9  C   UNL d   1      -0.384   1.420   1.829  0.00  0.00     0.018 C 
ENDBRANCH   1   8
TORSDOF 1
ENDMDL
