MODEL 1
REMARK minimizedAffinity -1.31597352
REMARK minimizedRMSD -1
REMARK  1 active torsions:
REMARK  status: ('A' for Active; 'I' for Inactive)
REMARK    1  A    between atoms: C1_2  and  C2_3 
ROOT
ATOM      1  C2  UNL d   1      -0.475   2.840   3.498  0.00  0.00    -0.073 A 
ATOM      2  C3  UNL d   1      -1.592   2.522   2.717  0.00  0.00    -0.002 A 
ATOM      3  C4  UNL d   1      -1.436   1.861   1.498  0.00  0.00     0.004 A 
ATOM      4  C5  UNL d   1      -0.163   1.505   1.051  0.00  0.00    -0.004 A 
ATOM      5  C6  UNL d   1       0.965   1.804   1.822  0.00  0.00    -0.075 A 
ATOM      6  C7  UNL d   1       2.340   1.431   1.353  0.00  0.00     0.076 C 
ATOM      7  C8  UNL d   1       0.800   2.470   3.043  0.00  0.00     0.001 A 
ENDROOT
BRANCH   1   8
ATOM      8  C1  UNL d   1      -0.639   3.548   4.818  0.00  0.00     0.053 C 
ATOM      9  C   UNL d   1      -2.102   3.771   5.166  0.00  0.00     0.018 C 
ENDBRANCH   1   8
TORSDOF 1
ENDMDL
