MODEL 1
REMARK minimizedAffinity 8.89605522
REMARK minimizedRMSD -1
REMARK  1 active torsions:
REMARK  status: ('A' for Active; 'I' for Inactive)
REMARK    1  A    between atoms: C1_2  and  C2_3 
ROOT
ATOM      1  C2  UNL d   1       0.814   2.224   1.685  0.00  0.00    -0.073 A 
ATOM      2  C3  UNL d   1      -0.088   2.782   2.597  0.00  0.00    -0.002 A 
ATOM      3  C4  UNL d   1       0.373   3.566   3.656  0.00  0.00     0.004 A 
ATOM      4  C5  UNL d   1       1.739   3.803   3.810  0.00  0.00    -0.004 A 
ATOM      5  C6  UNL d   1       2.656   3.264   2.902  0.00  0.00    -0.075 A 
ATOM      6  C7  UNL d   1       4.128   3.508   3.055  0.00  0.00     0.076 C 
ATOM      7  C8  UNL d   1       2.185   2.476   1.843  0.00  0.00     0.001 A 
ENDROOT
BRANCH   1   8
ATOM      8  C1  UNL d   1       0.320   1.383   0.536  0.00  0.00     0.053 C 
ATOM      9  C   UNL d   1      -0.801   0.446   0.957  0.00  0.00     0.018 C 
ENDBRANCH   1   8
TORSDOF 1
ENDMDL
