MODEL 1
REMARK minimizedAffinity -3.18187428
REMARK minimizedRMSD -1
REMARK  1 active torsions:
REMARK  status: ('A' for Active; 'I' for Inactive)
REMARK    1  A    between atoms: C1_2  and  C2_3 
ROOT
ATOM      1  C2  UNL d   1       0.399   2.379   1.562  0.00  0.00    -0.073 A 
ATOM      2  C3  UNL d   1       1.460   3.285   1.450  0.00  0.00    -0.002 A 
ATOM      3  C4  UNL d   1       1.572   4.353   2.342  0.00  0.00     0.004 A 
ATOM      4  C5  UNL d   1       0.630   4.520   3.358  0.00  0.00    -0.004 A 
ATOM      5  C6  UNL d   1      -0.430   3.618   3.493  0.00  0.00    -0.075 A 
ATOM      6  C7  UNL d   1      -1.452   3.786   4.579  0.00  0.00     0.076 C 
ATOM      7  C8  UNL d   1      -0.537   2.551   2.592  0.00  0.00     0.001 A 
ENDROOT
BRANCH   1   8
ATOM      8  C1  UNL d   1       0.278   1.221   0.605  0.00  0.00     0.053 C 
ATOM      9  C   UNL d   1      -1.048   0.492   0.757  0.00  0.00     0.018 C 
ENDBRANCH   1   8
TORSDOF 1
ENDMDL
