MODEL 1
REMARK minimizedAffinity -1.21626174
REMARK minimizedRMSD -1
REMARK  1 active torsions:
REMARK  status: ('A' for Active; 'I' for Inactive)
REMARK    1  A    between atoms: C1_2  and  C2_3 
ROOT
ATOM      1  C2  UNL d   1      -0.109   3.430   3.378  0.00  0.00    -0.073 A 
ATOM      2  C3  UNL d   1       1.216   2.982   3.360  0.00  0.00    -0.002 A 
ATOM      3  C4  UNL d   1       1.647   2.094   2.373  0.00  0.00     0.004 A 
ATOM      4  C5  UNL d   1       0.760   1.651   1.392  0.00  0.00    -0.004 A 
ATOM      5  C6  UNL d   1      -0.566   2.097   1.386  0.00  0.00    -0.075 A 
ATOM      6  C7  UNL d   1      -1.533   1.628   0.339  0.00  0.00     0.076 C 
ATOM      7  C8  UNL d   1      -0.991   2.987   2.382  0.00  0.00     0.001 A 
ENDROOT
BRANCH   1   8
ATOM      8  C1  UNL d   1      -0.577   4.394   4.437  0.00  0.00     0.053 C 
ATOM      9  C   UNL d   1      -2.085   4.345   4.628  0.00  0.00     0.018 C 
ENDBRANCH   1   8
TORSDOF 1
ENDMDL
