MODEL 1
REMARK minimizedAffinity 6.27024174
REMARK minimizedRMSD -1
REMARK  1 active torsions:
REMARK  status: ('A' for Active; 'I' for Inactive)
REMARK    1  A    between atoms: C1_2  and  C2_3 
ROOT
ATOM      1  C2  UNL d   1      -1.122  -0.515   1.929  0.00  0.00    -0.073 A 
ATOM      2  C3  UNL d   1      -0.595  -1.711   2.428  0.00  0.00    -0.002 A 
ATOM      3  C4  UNL d   1      -1.375  -2.545   3.231  0.00  0.00     0.004 A 
ATOM      4  C5  UNL d   1      -2.690  -2.195   3.536  0.00  0.00    -0.004 A 
ATOM      5  C6  UNL d   1      -3.239  -1.009   3.036  0.00  0.00    -0.075 A 
ATOM      6  C7  UNL d   1      -4.651  -0.617   3.357  0.00  0.00     0.076 C 
ATOM      7  C8  UNL d   1      -2.448  -0.176   2.234  0.00  0.00     0.001 A 
ENDROOT
BRANCH   1   8
ATOM      8  C1  UNL d   1      -0.285   0.385   1.057  0.00  0.00     0.053 C 
ATOM      9  C   UNL d   1       0.517   1.386   1.874  0.00  0.00     0.018 C 
ENDBRANCH   1   8
TORSDOF 1
ENDMDL
