MODEL 1
REMARK minimizedAffinity 3.30654454
REMARK minimizedRMSD -1
REMARK  1 active torsions:
REMARK  status: ('A' for Active; 'I' for Inactive)
REMARK    1  A    between atoms: C1_2  and  C2_3 
ROOT
ATOM      1  C2  UNL d   1      -0.797   3.308   3.622  0.00  0.00    -0.073 A 
ATOM      2  C3  UNL d   1       0.592   3.206   3.490  0.00  0.00    -0.002 A 
ATOM      3  C4  UNL d   1       1.149   2.460   2.450  0.00  0.00     0.004 A 
ATOM      4  C5  UNL d   1       0.324   1.814   1.530  0.00  0.00    -0.004 A 
ATOM      5  C6  UNL d   1      -1.067   1.913   1.638  0.00  0.00    -0.075 A 
ATOM      6  C7  UNL d   1      -1.969   1.223   0.657  0.00  0.00     0.076 C 
ATOM      7  C8  UNL d   1      -1.619   2.662   2.687  0.00  0.00     0.001 A 
ENDROOT
BRANCH   1   8
ATOM      8  C1  UNL d   1      -1.403   4.117   4.739  0.00  0.00     0.053 C 
ATOM      9  C   UNL d   1      -0.373   5.000   5.427  0.00  0.00     0.018 C 
ENDBRANCH   1   8
TORSDOF 1
ENDMDL
