MODEL 1
REMARK minimizedAffinity 0.816552877
REMARK minimizedRMSD -1
REMARK  1 active torsions:
REMARK  status: ('A' for Active; 'I' for Inactive)
REMARK    1  A    between atoms: C1_2  and  C2_3 
ROOT
ATOM      1  C2  UNL d   1      -0.142   3.420   3.074  0.00  0.00    -0.073 A 
ATOM      2  C3  UNL d   1       1.173   3.520   2.607  0.00  0.00    -0.002 A 
ATOM      3  C4  UNL d   1       1.589   2.768   1.507  0.00  0.00     0.004 A 
ATOM      4  C5  UNL d   1       0.695   1.915   0.861  0.00  0.00    -0.004 A 
ATOM      5  C6  UNL d   1      -0.627   1.811   1.306  0.00  0.00    -0.075 A 
ATOM      6  C7  UNL d   1      -1.601   0.896   0.622  0.00  0.00     0.076 C 
ATOM      7  C8  UNL d   1      -1.037   2.567   2.412  0.00  0.00     0.001 A 
ENDROOT
BRANCH   1   8
ATOM      8  C1  UNL d   1      -0.598   4.234   4.257  0.00  0.00     0.053 C 
ATOM      9  C   UNL d   1      -1.973   3.808   4.747  0.00  0.00     0.018 C 
ENDBRANCH   1   8
TORSDOF 1
ENDMDL
