MODEL 1
REMARK minimizedAffinity -1.4772557
REMARK minimizedRMSD -1
REMARK  1 active torsions:
REMARK  status: ('A' for Active; 'I' for Inactive)
REMARK    1  A    between atoms: C1_2  and  C2_3 
ROOT
ATOM      1  C2  UNL d   1       1.295   3.153   2.476  0.00  0.00    -0.073 A 
ATOM      2  C3  UNL d   1       1.758   2.975   1.168  0.00  0.00    -0.002 A 
ATOM      3  C4  UNL d   1       1.029   2.206   0.260  0.00  0.00     0.004 A 
ATOM      4  C5  UNL d   1      -0.173   1.615   0.648  0.00  0.00    -0.004 A 
ATOM      5  C6  UNL d   1      -0.659   1.791   1.948  0.00  0.00    -0.075 A 
ATOM      6  C7  UNL d   1      -1.950   1.160   2.381  0.00  0.00     0.076 C 
ATOM      7  C8  UNL d   1       0.081   2.562   2.854  0.00  0.00     0.001 A 
ENDROOT
BRANCH   1   8
ATOM      8  C1  UNL d   1       2.076   3.987   3.458  0.00  0.00     0.053 C 
ATOM      9  C   UNL d   1       3.567   3.696   3.394  0.00  0.00     0.018 C 
ENDBRANCH   1   8
TORSDOF 1
ENDMDL
