MODEL 1
REMARK minimizedAffinity 9.12190056
REMARK minimizedRMSD -1
REMARK  1 active torsions:
REMARK  status: ('A' for Active; 'I' for Inactive)
REMARK    1  A    between atoms: C1_2  and  C2_3 
ROOT
ATOM      1  C2  UNL d   1      -0.107   3.027   3.668  0.00  0.00    -0.073 A 
ATOM      2  C3  UNL d   1       0.810   3.657   2.820  0.00  0.00    -0.002 A 
ATOM      3  C4  UNL d   1       1.057   3.147   1.545  0.00  0.00     0.004 A 
ATOM      4  C5  UNL d   1       0.385   2.008   1.102  0.00  0.00    -0.004 A 
ATOM      5  C6  UNL d   1      -0.544   1.371   1.931  0.00  0.00    -0.075 A 
ATOM      6  C7  UNL d   1      -1.273   0.143   1.471  0.00  0.00     0.076 C 
ATOM      7  C8  UNL d   1      -0.784   1.887   3.211  0.00  0.00     0.001 A 
ENDROOT
BRANCH   1   8
ATOM      8  C1  UNL d   1      -0.381   3.578   5.044  0.00  0.00     0.053 C 
ATOM      9  C   UNL d   1      -1.802   3.289   5.500  0.00  0.00     0.018 C 
ENDBRANCH   1   8
TORSDOF 1
ENDMDL
