MODEL 1
REMARK minimizedAffinity 3.14511585
REMARK minimizedRMSD -1
REMARK  1 active torsions:
REMARK  status: ('A' for Active; 'I' for Inactive)
REMARK    1  A    between atoms: C1_2  and  C2_3 
ROOT
ATOM      1  C2  UNL d   1       2.339   4.296   3.768  0.00  0.00    -0.073 A 
ATOM      2  C3  UNL d   1       2.774   5.147   2.746  0.00  0.00    -0.002 A 
ATOM      3  C4  UNL d   1       4.125   5.476   2.630  0.00  0.00     0.004 A 
ATOM      4  C5  UNL d   1       5.055   4.952   3.528  0.00  0.00    -0.004 A 
ATOM      5  C6  UNL d   1       4.642   4.090   4.548  0.00  0.00    -0.075 A 
ATOM      6  C7  UNL d   1       5.629   3.519   5.523  0.00  0.00     0.076 C 
ATOM      7  C8  UNL d   1       3.283   3.766   4.660  0.00  0.00     0.001 A 
ENDROOT
BRANCH   1   8
ATOM      8  C1  UNL d   1       0.882   3.933   3.894  0.00  0.00     0.053 C 
ATOM      9  C   UNL d   1       0.300   3.445   2.576  0.00  0.00     0.018 C 
ENDBRANCH   1   8
TORSDOF 1
ENDMDL
