MODEL 1
REMARK minimizedAffinity 7.48171949
REMARK minimizedRMSD -1
REMARK  1 active torsions:
REMARK  status: ('A' for Active; 'I' for Inactive)
REMARK    1  A    between atoms: C1_2  and  C2_3 
ROOT
ATOM      1  C2  UNL d   1      -0.531   3.127   3.889  0.00  0.00    -0.073 A 
ATOM      2  C3  UNL d   1       0.529   3.833   3.309  0.00  0.00    -0.002 A 
ATOM      3  C4  UNL d   1       1.070   3.419   2.092  0.00  0.00     0.004 A 
ATOM      4  C5  UNL d   1       0.554   2.300   1.439  0.00  0.00    -0.004 A 
ATOM      5  C6  UNL d   1      -0.514   1.588   1.996  0.00  0.00    -0.075 A 
ATOM      6  C7  UNL d   1      -1.079   0.381   1.307  0.00  0.00     0.076 C 
ATOM      7  C8  UNL d   1      -1.050   2.009   3.220  0.00  0.00     0.001 A 
ENDROOT
BRANCH   1   8
ATOM      8  C1  UNL d   1      -1.124   3.575   5.200  0.00  0.00     0.053 C 
ATOM      9  C   UNL d   1      -2.587   3.184   5.328  0.00  0.00     0.018 C 
ENDBRANCH   1   8
TORSDOF 1
ENDMDL
