MODEL 1
REMARK minimizedAffinity 6.28797197
REMARK minimizedRMSD -1
REMARK  1 active torsions:
REMARK  status: ('A' for Active; 'I' for Inactive)
REMARK    1  A    between atoms: C1_2  and  C2_3 
ROOT
ATOM      1  C2  UNL d   1       1.342   3.700   3.903  0.00  0.00    -0.073 A 
ATOM      2  C3  UNL d   1       0.446   3.869   4.964  0.00  0.00    -0.002 A 
ATOM      3  C4  UNL d   1      -0.772   3.187   4.973  0.00  0.00     0.004 A 
ATOM      4  C5  UNL d   1      -1.102   2.326   3.927  0.00  0.00    -0.004 A 
ATOM      5  C6  UNL d   1      -0.214   2.135   2.864  0.00  0.00    -0.075 A 
ATOM      6  C7  UNL d   1      -0.554   1.213   1.730  0.00  0.00     0.076 C 
ATOM      7  C8  UNL d   1       1.006   2.825   2.861  0.00  0.00     0.001 A 
ENDROOT
BRANCH   1   8
ATOM      8  C1  UNL d   1       2.661   4.430   3.892  0.00  0.00     0.053 C 
ATOM      9  C   UNL d   1       2.934   5.134   5.212  0.00  0.00     0.018 C 
ENDBRANCH   1   8
TORSDOF 1
ENDMDL
