MODEL 1
REMARK minimizedAffinity -3.3387444
REMARK minimizedRMSD -1
REMARK  1 active torsions:
REMARK  status: ('A' for Active; 'I' for Inactive)
REMARK    1  A    between atoms: C1_2  and  C2_3 
ROOT
ATOM      1  C2  UNL d   1      -0.507  -0.783   1.290  0.00  0.00    -0.073 A 
ATOM      2  C3  UNL d   1       0.107  -1.226   2.467  0.00  0.00    -0.002 A 
ATOM      3  C4  UNL d   1       1.492  -1.136   2.617  0.00  0.00     0.004 A 
ATOM      4  C5  UNL d   1       2.274  -0.596   1.596  0.00  0.00    -0.004 A 
ATOM      5  C6  UNL d   1       1.678  -0.136   0.417  0.00  0.00    -0.075 A 
ATOM      6  C7  UNL d   1       2.506   0.445  -0.691  0.00  0.00     0.076 C 
ATOM      7  C8  UNL d   1       0.287  -0.233   0.274  0.00  0.00     0.001 A 
ENDROOT
BRANCH   1   8
ATOM      8  C1  UNL d   1      -2.002  -0.873   1.127  0.00  0.00     0.053 C 
ATOM      9  C   UNL d   1      -2.736   0.067   2.069  0.00  0.00     0.018 C 
ENDBRANCH   1   8
TORSDOF 1
ENDMDL
