MODEL 1
REMARK minimizedAffinity 2.16302705
REMARK minimizedRMSD -1
REMARK  1 active torsions:
REMARK  status: ('A' for Active; 'I' for Inactive)
REMARK    1  A    between atoms: C1_2  and  C2_3 
ROOT
ATOM      1  C2  UNL d   1       1.244  -1.523   0.779  0.00  0.00    -0.073 A 
ATOM      2  C3  UNL d   1       0.797  -1.719   2.090  0.00  0.00    -0.002 A 
ATOM      3  C4  UNL d   1      -0.275  -0.977   2.588  0.00  0.00     0.004 A 
ATOM      4  C5  UNL d   1      -0.915  -0.038   1.779  0.00  0.00    -0.004 A 
ATOM      5  C6  UNL d   1      -0.490   0.163   0.461  0.00  0.00    -0.075 A 
ATOM      6  C7  UNL d   1      -1.166   1.171  -0.421  0.00  0.00     0.076 C 
ATOM      7  C8  UNL d   1       0.589  -0.584  -0.030  0.00  0.00     0.001 A 
ENDROOT
BRANCH   1   8
ATOM      8  C1  UNL d   1       2.397  -2.327   0.235  0.00  0.00     0.053 C 
ATOM      9  C   UNL d   1       2.759  -1.917  -1.184  0.00  0.00     0.018 C 
ENDBRANCH   1   8
TORSDOF 1
ENDMDL
