MODEL 1
REMARK minimizedAffinity -1.17326558
REMARK minimizedRMSD -1
REMARK  1 active torsions:
REMARK  status: ('A' for Active; 'I' for Inactive)
REMARK    1  A    between atoms: C1_2  and  C2_3 
ROOT
ATOM      1  C2  UNL d   1       1.086  -1.685   1.289  0.00  0.00    -0.073 A 
ATOM      2  C3  UNL d   1       0.318  -1.409   2.426  0.00  0.00    -0.002 A 
ATOM      3  C4  UNL d   1      -0.755  -0.520   2.353  0.00  0.00     0.004 A 
ATOM      4  C5  UNL d   1      -1.075   0.097   1.144  0.00  0.00    -0.004 A 
ATOM      5  C6  UNL d   1      -0.327  -0.175  -0.006  0.00  0.00    -0.075 A 
ATOM      6  C7  UNL d   1      -0.656   0.481  -1.314  0.00  0.00     0.076 C 
ATOM      7  C8  UNL d   1       0.751  -1.068   0.076  0.00  0.00     0.001 A 
ENDROOT
BRANCH   1   8
ATOM      8  C1  UNL d   1       2.241  -2.650   1.362  0.00  0.00     0.053 C 
ATOM      9  C   UNL d   1       3.031  -2.692   0.063  0.00  0.00     0.018 C 
ENDBRANCH   1   8
TORSDOF 1
ENDMDL
