MODEL 1
REMARK minimizedAffinity -2.04563141
REMARK minimizedRMSD -1
REMARK  1 active torsions:
REMARK  status: ('A' for Active; 'I' for Inactive)
REMARK    1  A    between atoms: C1_2  and  C2_3 
ROOT
ATOM      1  C2  UNL d   1      -0.371  -0.544   0.180  0.00  0.00    -0.073 A 
ATOM      2  C3  UNL d   1       0.317  -0.968  -0.962  0.00  0.00    -0.002 A 
ATOM      3  C4  UNL d   1       1.570  -1.572  -0.846  0.00  0.00     0.004 A 
ATOM      4  C5  UNL d   1       2.142  -1.766   0.410  0.00  0.00    -0.004 A 
ATOM      5  C6  UNL d   1       1.465  -1.359   1.565  0.00  0.00    -0.075 A 
ATOM      6  C7  UNL d   1       2.068  -1.558   2.924  0.00  0.00     0.076 C 
ATOM      7  C8  UNL d   1       0.209  -0.750   1.440  0.00  0.00     0.001 A 
ENDROOT
BRANCH   1   8
ATOM      8  C1  UNL d   1      -1.726   0.104   0.061  0.00  0.00     0.053 C 
ATOM      9  C   UNL d   1      -2.769  -0.592   0.921  0.00  0.00     0.018 C 
ENDBRANCH   1   8
TORSDOF 1
ENDMDL
