MODEL 1
REMARK minimizedAffinity -3.99246049
REMARK minimizedRMSD -1
REMARK  1 active torsions:
REMARK  status: ('A' for Active; 'I' for Inactive)
REMARK    1  A    between atoms: C1_2  and  C2_3 
ROOT
ATOM      1  C2  UNL d   1       0.197  -1.037   1.281  0.00  0.00    -0.073 A 
ATOM      2  C3  UNL d   1      -1.117  -0.655   0.989  0.00  0.00    -0.002 A 
ATOM      3  C4  UNL d   1      -1.569  -0.635  -0.332  0.00  0.00     0.004 A 
ATOM      4  C5  UNL d   1      -0.715  -1.003  -1.371  0.00  0.00    -0.004 A 
ATOM      5  C6  UNL d   1       0.598  -1.399  -1.099  0.00  0.00    -0.075 A 
ATOM      6  C7  UNL d   1       1.530  -1.795  -2.206  0.00  0.00     0.076 C 
ATOM      7  C8  UNL d   1       1.045  -1.414   0.229  0.00  0.00     0.001 A 
ENDROOT
BRANCH   1   8
ATOM      8  C1  UNL d   1       0.687  -1.066   2.705  0.00  0.00     0.053 C 
ATOM      9  C   UNL d   1       1.993  -0.307   2.874  0.00  0.00     0.018 C 
ENDBRANCH   1   8
TORSDOF 1
ENDMDL
