MODEL 1
REMARK minimizedAffinity 12.34272
REMARK minimizedRMSD -1
REMARK  0 active torsions:
REMARK  status: ('A' for Active; 'I' for Inactive)
ROOT
ATOM      1  C   UNL d   1       0.429   1.876  -0.562  0.00  0.00     0.020 A 
ATOM      2  C1  UNL d   1      -0.453   1.855   0.518  0.00  0.00     0.020 A 
ATOM      3  C2  UNL d   1      -1.090   3.030   0.922  0.00  0.00     0.034 A 
ATOM      4  C3  UNL d   1      -0.846   4.231   0.245  0.00  0.00     0.017 A 
ATOM      5  C4  UNL d   1       0.039   4.251  -0.838  0.00  0.00     0.017 A 
ATOM      6  C5  UNL d   1       0.674   3.071  -1.238  0.00  0.00     0.034 A 
ATOM      7 Cl   UNL d   1       0.391   5.694  -1.722  0.00  0.00    -0.070 Cl
ATOM      8 Cl1  UNL d   1      -1.669   5.646   0.798  0.00  0.00    -0.070 Cl
ENDROOT
TORSDOF 0
ENDMDL
