MODEL 1
REMARK minimizedAffinity 14.5219049
REMARK minimizedRMSD -1
REMARK  0 active torsions:
REMARK  status: ('A' for Active; 'I' for Inactive)
ROOT
ATOM      1  C   UNL d   1       0.781  -4.912  -0.635  0.00  0.00     0.020 A 
ATOM      2  C1  UNL d   1       1.495  -5.998  -1.138  0.00  0.00     0.020 A 
ATOM      3  C2  UNL d   1       2.891  -5.995  -1.100  0.00  0.00     0.034 A 
ATOM      4  C3  UNL d   1       3.577  -4.903  -0.557  0.00  0.00     0.017 A 
ATOM      5  C4  UNL d   1       2.860  -3.812  -0.052  0.00  0.00     0.017 A 
ATOM      6  C5  UNL d   1       1.462  -3.821  -0.093  0.00  0.00     0.034 A 
ATOM      7 Cl   UNL d   1       3.637  -2.429   0.633  0.00  0.00    -0.070 Cl
ATOM      8 Cl1  UNL d   1       5.304  -4.966  -0.542  0.00  0.00    -0.070 Cl
ENDROOT
TORSDOF 0
ENDMDL
