MODEL 1
REMARK minimizedAffinity 16.5802212
REMARK minimizedRMSD -1
REMARK  0 active torsions:
REMARK  status: ('A' for Active; 'I' for Inactive)
ROOT
ATOM      1  C   UNL d   1      -4.511  -5.793  -5.563  0.00  0.00     0.020 A 
ATOM      2  C1  UNL d   1      -4.761  -5.342  -4.267  0.00  0.00     0.020 A 
ATOM      3  C2  UNL d   1      -3.696  -5.066  -3.407  0.00  0.00     0.034 A 
ATOM      4  C3  UNL d   1      -2.377  -5.240  -3.841  0.00  0.00     0.017 A 
ATOM      5  C4  UNL d   1      -2.127  -5.692  -5.141  0.00  0.00     0.017 A 
ATOM      6  C5  UNL d   1      -3.197  -5.967  -5.999  0.00  0.00     0.034 A 
ATOM      7 Cl   UNL d   1      -0.526  -5.931  -5.748  0.00  0.00    -0.070 Cl
ATOM      8 Cl1  UNL d   1      -1.109  -4.879  -2.723  0.00  0.00    -0.070 Cl
ENDROOT
TORSDOF 0
ENDMDL
