MODEL 1
REMARK minimizedAffinity 15.0527391
REMARK minimizedRMSD -1
REMARK  0 active torsions:
REMARK  status: ('A' for Active; 'I' for Inactive)
ROOT
ATOM      1  C   UNL d   1      -0.157   2.477   0.407  0.00  0.00     0.020 A 
ATOM      2  C1  UNL d   1      -0.049   2.428  -0.982  0.00  0.00     0.020 A 
ATOM      3  C2  UNL d   1      -0.908   3.191  -1.777  0.00  0.00     0.034 A 
ATOM      4  C3  UNL d   1      -1.878   4.006  -1.182  0.00  0.00     0.017 A 
ATOM      5  C4  UNL d   1      -1.985   4.055   0.212  0.00  0.00     0.017 A 
ATOM      6  C5  UNL d   1      -1.123   3.289   1.003  0.00  0.00     0.034 A 
ATOM      7 Cl   UNL d   1      -3.157   5.037   1.018  0.00  0.00    -0.070 Cl
ATOM      8 Cl1  UNL d   1      -2.906   4.923  -2.226  0.00  0.00    -0.070 Cl
ENDROOT
TORSDOF 0
ENDMDL
