MODEL 1
REMARK minimizedAffinity 11.8444881
REMARK minimizedRMSD -1
REMARK  0 active torsions:
REMARK  status: ('A' for Active; 'I' for Inactive)
ROOT
ATOM      1  C   UNL d   1      -3.498   5.917   1.325  0.00  0.00     0.020 A 
ATOM      2  C1  UNL d   1      -4.767   5.681   0.796  0.00  0.00     0.020 A 
ATOM      3  C2  UNL d   1      -4.904   5.269  -0.531  0.00  0.00     0.034 A 
ATOM      4  C3  UNL d   1      -3.771   5.093  -1.334  0.00  0.00     0.017 A 
ATOM      5  C4  UNL d   1      -2.499   5.330  -0.803  0.00  0.00     0.017 A 
ATOM      6  C5  UNL d   1      -2.367   5.742   0.527  0.00  0.00     0.034 A 
ATOM      7 Cl   UNL d   1      -1.055   5.133  -1.732  0.00  0.00    -0.070 Cl
ATOM      8 Cl1  UNL d   1      -4.016   4.582  -2.967  0.00  0.00    -0.070 Cl
ENDROOT
TORSDOF 0
ENDMDL
