MODEL 1
REMARK minimizedAffinity 7.61705303
REMARK minimizedRMSD -1
REMARK  0 active torsions:
REMARK  status: ('A' for Active; 'I' for Inactive)
ROOT
ATOM      1  C   UNL d   1      -1.415   2.284  -0.354  0.00  0.00     0.020 A 
ATOM      2  C1  UNL d   1      -0.785   1.611   0.692  0.00  0.00     0.020 A 
ATOM      3  C2  UNL d   1       0.560   1.861   0.973  0.00  0.00     0.034 A 
ATOM      4  C3  UNL d   1       1.279   2.786   0.207  0.00  0.00     0.017 A 
ATOM      5  C4  UNL d   1       0.646   3.460  -0.843  0.00  0.00     0.017 A 
ATOM      6  C5  UNL d   1      -0.701   3.206  -1.120  0.00  0.00     0.034 A 
ATOM      7 Cl   UNL d   1       1.467   4.615  -1.832  0.00  0.00    -0.070 Cl
ATOM      8 Cl1  UNL d   1       2.939   3.046   0.611  0.00  0.00    -0.070 Cl
ENDROOT
TORSDOF 0
ENDMDL
