MODEL 1
REMARK minimizedAffinity 20.8930626
REMARK minimizedRMSD -1
REMARK  0 active torsions:
REMARK  status: ('A' for Active; 'I' for Inactive)
ROOT
ATOM      1  C   UNL d   1       3.607  -1.513   0.429  0.00  0.00     0.020 A 
ATOM      2  C1  UNL d   1       2.214  -1.465   0.410  0.00  0.00     0.020 A 
ATOM      3  C2  UNL d   1       1.482  -2.582   0.001  0.00  0.00     0.034 A 
ATOM      4  C3  UNL d   1       2.144  -3.751  -0.392  0.00  0.00     0.017 A 
ATOM      5  C4  UNL d   1       3.542  -3.799  -0.372  0.00  0.00     0.017 A 
ATOM      6  C5  UNL d   1       4.270  -2.678   0.039  0.00  0.00     0.034 A 
ATOM      7 Cl   UNL d   1       4.429  -5.206  -0.842  0.00  0.00    -0.070 Cl
ATOM      8 Cl1  UNL d   1       1.176  -5.094  -0.886  0.00  0.00    -0.070 Cl
ENDROOT
TORSDOF 0
ENDMDL
