MODEL 1
REMARK minimizedAffinity 10.0188408
REMARK minimizedRMSD -1
REMARK  0 active torsions:
REMARK  status: ('A' for Active; 'I' for Inactive)
ROOT
ATOM      1  C   UNL d   1      -0.488   3.417  -0.980  0.00  0.00     0.020 A 
ATOM      2  C1  UNL d   1       0.813   3.882  -1.161  0.00  0.00     0.020 A 
ATOM      3  C2  UNL d   1       1.804   3.565  -0.228  0.00  0.00     0.034 A 
ATOM      4  C3  UNL d   1       1.494   2.781   0.889  0.00  0.00     0.017 A 
ATOM      5  C4  UNL d   1       0.187   2.314   1.069  0.00  0.00     0.017 A 
ATOM      6  C5  UNL d   1      -0.801   2.634   0.132  0.00  0.00     0.034 A 
ATOM      7 Cl   UNL d   1      -0.272   1.341   2.421  0.00  0.00    -0.070 Cl
ATOM      8 Cl1  UNL d   1       2.768   2.427   2.001  0.00  0.00    -0.070 Cl
ENDROOT
TORSDOF 0
ENDMDL
