MODEL 1
REMARK minimizedAffinity 12.3479834
REMARK minimizedRMSD -1
REMARK  0 active torsions:
REMARK  status: ('A' for Active; 'I' for Inactive)
ROOT
ATOM      1  C   UNL d   1      -1.371   1.727   2.181  0.00  0.00     0.020 A 
ATOM      2  C1  UNL d   1      -0.513   1.505   3.257  0.00  0.00     0.020 A 
ATOM      3  C2  UNL d   1       0.841   1.833   3.150  0.00  0.00     0.034 A 
ATOM      4  C3  UNL d   1       1.339   2.384   1.964  0.00  0.00     0.017 A 
ATOM      5  C4  UNL d   1       0.477   2.606   0.884  0.00  0.00     0.017 A 
ATOM      6  C5  UNL d   1      -0.877   2.276   0.997  0.00  0.00     0.034 A 
ATOM      7 Cl   UNL d   1       1.019   3.282  -0.611  0.00  0.00    -0.070 Cl
ATOM      8 Cl1  UNL d   1       3.024   2.765   1.901  0.00  0.00    -0.070 Cl
ENDROOT
TORSDOF 0
ENDMDL
