MODEL 1
REMARK minimizedAffinity 11.6046305
REMARK minimizedRMSD -1
REMARK  0 active torsions:
REMARK  status: ('A' for Active; 'I' for Inactive)
ROOT
ATOM      1  C   UNL d   1       5.998  -3.900  -3.434  0.00  0.00     0.020 A 
ATOM      2  C1  UNL d   1       5.999  -5.287  -3.288  0.00  0.00     0.020 A 
ATOM      3  C2  UNL d   1       6.000  -5.855  -2.012  0.00  0.00     0.034 A 
ATOM      4  C3  UNL d   1       5.999  -5.036  -0.877  0.00  0.00     0.017 A 
ATOM      5  C4  UNL d   1       5.998  -3.644  -1.025  0.00  0.00     0.017 A 
ATOM      6  C5  UNL d   1       5.998  -3.081  -2.305  0.00  0.00     0.034 A 
ATOM      7 Cl   UNL d   1       5.998  -2.568   0.328  0.00  0.00    -0.070 Cl
ATOM      8 Cl1  UNL d   1       6.000  -5.806   0.670  0.00  0.00    -0.070 Cl
ENDROOT
TORSDOF 0
ENDMDL
