MODEL 1
REMARK minimizedAffinity 7.72732401
REMARK minimizedRMSD -1
REMARK  0 active torsions:
REMARK  status: ('A' for Active; 'I' for Inactive)
ROOT
ATOM      1  C   UNL d   1       5.374  -1.846   0.383  0.00  0.00     0.020 A 
ATOM      2  C1  UNL d   1       5.152  -3.220   0.300  0.00  0.00     0.020 A 
ATOM      3  C2  UNL d   1       3.886  -3.703  -0.036  0.00  0.00     0.034 A 
ATOM      4  C3  UNL d   1       2.837  -2.812  -0.290  0.00  0.00     0.017 A 
ATOM      5  C4  UNL d   1       3.061  -1.433  -0.207  0.00  0.00     0.017 A 
ATOM      6  C5  UNL d   1       4.331  -0.954   0.130  0.00  0.00     0.034 A 
ATOM      7 Cl   UNL d   1       1.816  -0.272  -0.506  0.00  0.00    -0.070 Cl
ATOM      8 Cl1  UNL d   1       1.297  -3.480  -0.700  0.00  0.00    -0.070 Cl
ENDROOT
TORSDOF 0
ENDMDL
