MODEL 1
REMARK minimizedAffinity 8.27839279
REMARK minimizedRMSD -1
REMARK  0 active torsions:
REMARK  status: ('A' for Active; 'I' for Inactive)
ROOT
ATOM      1  C   UNL d   1      -3.338   1.279  -1.595  0.00  0.00     0.020 A 
ATOM      2  C1  UNL d   1      -3.572  -0.078  -1.378  0.00  0.00     0.020 A 
ATOM      3  C2  UNL d   1      -4.212  -0.498  -0.210  0.00  0.00     0.034 A 
ATOM      4  C3  UNL d   1      -4.620   0.439   0.745  0.00  0.00     0.017 A 
ATOM      5  C4  UNL d   1      -4.385   1.802   0.526  0.00  0.00     0.017 A 
ATOM      6  C5  UNL d   1      -3.744   2.217  -0.645  0.00  0.00     0.034 A 
ATOM      7 Cl   UNL d   1      -4.860   3.018   1.659  0.00  0.00    -0.070 Cl
ATOM      8 Cl1  UNL d   1      -5.406  -0.151   2.166  0.00  0.00    -0.070 Cl
ENDROOT
TORSDOF 0
ENDMDL
