MODEL 1
REMARK minimizedAffinity 8.42243385
REMARK minimizedRMSD -1
REMARK  0 active torsions:
REMARK  status: ('A' for Active; 'I' for Inactive)
ROOT
ATOM      1  C   UNL d   1       0.373   1.828   0.177  0.00  0.00     0.020 A 
ATOM      2  C1  UNL d   1       0.203   2.250   1.495  0.00  0.00     0.020 A 
ATOM      3  C2  UNL d   1      -0.958   2.931   1.866  0.00  0.00     0.034 A 
ATOM      4  C3  UNL d   1      -1.954   3.193   0.918  0.00  0.00     0.017 A 
ATOM      5  C4  UNL d   1      -1.782   2.770  -0.405  0.00  0.00     0.017 A 
ATOM      6  C5  UNL d   1      -0.618   2.088  -0.771  0.00  0.00     0.034 A 
ATOM      7 Cl   UNL d   1      -2.967   3.056  -1.631  0.00  0.00    -0.070 Cl
ATOM      8 Cl1  UNL d   1      -3.364   4.040   1.447  0.00  0.00    -0.070 Cl
ENDROOT
TORSDOF 0
ENDMDL
