MODEL 1
REMARK minimizedAffinity 7.52995968
REMARK minimizedRMSD -1
REMARK  2 active torsions:
REMARK  status: ('A' for Active; 'I' for Inactive)
REMARK    1  A    between atoms: C2'_3  and  C1'_4 
REMARK    2  A    between atoms: C1'_4  and  C1_5 
ROOT
ATOM      1  C1  I4B d   1      -0.110   3.697   1.505  0.00  0.00    -0.075 A 
ATOM      2  C2  I4B d   1      -0.236   5.063   1.547  0.00  0.00     0.003 A 
ATOM      3  C3  I4B d   1      -0.063   5.831   0.370  0.00  0.00     0.002 A 
ATOM      4  C4  I4B d   1       0.282   5.201  -0.808  0.00  0.00    -0.004 A 
ATOM      5  C5  I4B d   1       0.387   3.814  -0.854  0.00  0.00     0.002 A 
ATOM      6  C6  I4B d   1       0.178   3.056   0.307  0.00  0.00     0.003 A 
ENDROOT
BRANCH   1   7
ATOM      7  C1' I4B d   1      -0.266   2.919   2.773  0.00  0.00     0.060 C 
BRANCH   7   8
ATOM      8  C2' I4B d   1       1.005   2.124   2.993  0.00  0.00    -0.013 C 
ATOM      9  C4' I4B d   1       2.187   3.033   3.205  0.00  0.00     0.013 C 
ATOM     10  C3' I4B d   1       0.792   1.228   4.176  0.00  0.00     0.013 C 
ENDBRANCH   7   8
ENDBRANCH   1   7
TORSDOF 2
ENDMDL
