MODEL 1
REMARK minimizedAffinity 6.00667572
REMARK minimizedRMSD -1
REMARK  2 active torsions:
REMARK  status: ('A' for Active; 'I' for Inactive)
REMARK    1  A    between atoms: C2'_3  and  C1'_4 
REMARK    2  A    between atoms: C1'_4  and  C1_5 
ROOT
ATOM      1  C1  I4B d   1      -0.192   2.017   1.957  0.00  0.00    -0.075 A 
ATOM      2  C2  I4B d   1      -1.147   2.972   2.202  0.00  0.00     0.003 A 
ATOM      3  C3  I4B d   1      -1.292   4.075   1.326  0.00  0.00     0.002 A 
ATOM      4  C4  I4B d   1      -0.434   4.209   0.254  0.00  0.00    -0.004 A 
ATOM      5  C5  I4B d   1       0.518   3.227  -0.006  0.00  0.00     0.002 A 
ATOM      6  C6  I4B d   1       0.632   2.118   0.844  0.00  0.00     0.003 A 
ENDROOT
BRANCH   1   7
ATOM      7  C1' I4B d   1      -0.045   0.882   2.921  0.00  0.00     0.060 C 
BRANCH   7   8
ATOM      8  C2' I4B d   1       1.427   0.535   3.011  0.00  0.00    -0.013 C 
ATOM      9  C4' I4B d   1       2.252   1.744   3.366  0.00  0.00     0.013 C 
ATOM     10  C3' I4B d   1       1.585  -0.549   4.036  0.00  0.00     0.013 C 
ENDBRANCH   7   8
ENDBRANCH   1   7
TORSDOF 2
ENDMDL
