MODEL 1
REMARK minimizedAffinity 10.0791769
REMARK minimizedRMSD -1
REMARK  2 active torsions:
REMARK  status: ('A' for Active; 'I' for Inactive)
REMARK    1  A    between atoms: C2'_3  and  C1'_4 
REMARK    2  A    between atoms: C1'_4  and  C1_5 
ROOT
ATOM      1  C1  I4B d   1      -0.633   2.989   1.898  0.00  0.00    -0.075 A 
ATOM      2  C2  I4B d   1       0.067   2.616   0.778  0.00  0.00     0.003 A 
ATOM      3  C3  I4B d   1       0.225   3.522  -0.299  0.00  0.00     0.002 A 
ATOM      4  C4  I4B d   1      -0.374   4.764  -0.234  0.00  0.00    -0.004 A 
ATOM      5  C5  I4B d   1      -1.064   5.149   0.912  0.00  0.00     0.002 A 
ATOM      6  C6  I4B d   1      -1.184   4.260   1.990  0.00  0.00     0.003 A 
ENDROOT
BRANCH   1   7
ATOM      7  C1' I4B d   1      -0.807   1.995   3.003  0.00  0.00     0.060 C 
BRANCH   7   8
ATOM      8  C2' I4B d   1       0.547   1.381   3.296  0.00  0.00    -0.013 C 
ATOM      9  C4' I4B d   1       1.524   2.420   3.779  0.00  0.00     0.013 C 
ATOM     10  C3' I4B d   1       0.353   0.302   4.320  0.00  0.00     0.013 C 
ENDBRANCH   7   8
ENDBRANCH   1   7
TORSDOF 2
ENDMDL
