MODEL 1
REMARK minimizedAffinity 6.13564301
REMARK minimizedRMSD -1
REMARK  0 active torsions:
REMARK  status: ('A' for Active; 'I' for Inactive)
ROOT
ATOM      1  C   UNL d   1       6.000   0.696   4.921  0.00  0.00     0.023 A 
ATOM      2  C1  UNL d   1       5.298   0.788   3.719  0.00  0.00     0.003 A 
ATOM      3  C2  UNL d   1       4.077   0.127   3.571  0.00  0.00     0.048 A 
ATOM      4  C3  UNL d   1       3.563  -0.622   4.628  0.00  0.00     0.023 A 
ATOM      5  C4  UNL d   1       4.261  -0.716   5.833  0.00  0.00     0.048 A 
ATOM      6  C5  UNL d   1       5.482  -0.054   5.977  0.00  0.00     0.003 A 
ATOM      7  I   UNL d   1       1.745  -1.606   4.409  0.00  0.00    -0.146 I 
ENDROOT
TORSDOF 0
ENDMDL
