MODEL 1
REMARK minimizedAffinity 5.03236675
REMARK minimizedRMSD -1
REMARK  0 active torsions:
REMARK  status: ('A' for Active; 'I' for Inactive)
ROOT
ATOM      1  C   UNL d   1      -0.443   1.986  -1.129  0.00  0.00     0.023 A 
ATOM      2  C1  UNL d   1       0.045   3.047  -0.365  0.00  0.00     0.003 A 
ATOM      3  C2  UNL d   1       1.019   3.897  -0.891  0.00  0.00     0.048 A 
ATOM      4  C3  UNL d   1       1.501   3.683  -2.182  0.00  0.00     0.023 A 
ATOM      5  C4  UNL d   1       1.014   2.624  -2.950  0.00  0.00     0.048 A 
ATOM      6  C5  UNL d   1       0.041   1.775  -2.420  0.00  0.00     0.003 A 
ATOM      7  I   UNL d   1       2.951   4.948  -2.967  0.00  0.00    -0.146 I 
ENDROOT
TORSDOF 0
ENDMDL
