MODEL 1
REMARK minimizedAffinity 2.40316772
REMARK minimizedRMSD -1
REMARK  0 active torsions:
REMARK  status: ('A' for Active; 'I' for Inactive)
ROOT
ATOM      1  C   UNL d   1       4.685   0.009   3.686  0.00  0.00     0.023 A 
ATOM      2  C1  UNL d   1       5.620   0.387   4.650  0.00  0.00     0.003 A 
ATOM      3  C2  UNL d   1       5.999   1.726   4.770  0.00  0.00     0.048 A 
ATOM      4  C3  UNL d   1       5.438   2.682   3.923  0.00  0.00     0.023 A 
ATOM      5  C4  UNL d   1       4.501   2.308   2.958  0.00  0.00     0.048 A 
ATOM      6  C5  UNL d   1       4.127   0.968   2.841  0.00  0.00     0.003 A 
ATOM      7  I   UNL d   1       6.000   4.675   4.099  0.00  0.00    -0.146 I 
ENDROOT
TORSDOF 0
ENDMDL
