MODEL 1
REMARK minimizedAffinity 6.02206373
REMARK minimizedRMSD -1
REMARK  0 active torsions:
REMARK  status: ('A' for Active; 'I' for Inactive)
ROOT
ATOM      1  C   UNL d   1       5.998  -0.236   4.993  0.00  0.00     0.023 A 
ATOM      2  C1  UNL d   1       5.999   1.084   5.443  0.00  0.00     0.003 A 
ATOM      3  C2  UNL d   1       5.457   2.095   4.647  0.00  0.00     0.048 A 
ATOM      4  C3  UNL d   1       4.914   1.778   3.403  0.00  0.00     0.023 A 
ATOM      5  C4  UNL d   1       4.910   0.458   2.949  0.00  0.00     0.048 A 
ATOM      6  C5  UNL d   1       5.454  -0.549   3.748  0.00  0.00     0.003 A 
ATOM      7  I   UNL d   1       4.105   3.281   2.216  0.00  0.00    -0.146 I 
ENDROOT
TORSDOF 0
ENDMDL
