MODEL 1
REMARK minimizedAffinity 9.23697472
REMARK minimizedRMSD -1
REMARK  0 active torsions:
REMARK  status: ('A' for Active; 'I' for Inactive)
ROOT
ATOM      1  C   UNL d   1      -2.959   2.806  -0.413  0.00  0.00     0.023 A 
ATOM      2  C1  UNL d   1      -3.236   1.506  -0.837  0.00  0.00     0.003 A 
ATOM      3  C2  UNL d   1      -3.332   0.471   0.097  0.00  0.00     0.048 A 
ATOM      4  C3  UNL d   1      -3.150   0.744   1.452  0.00  0.00     0.023 A 
ATOM      5  C4  UNL d   1      -2.874   2.044   1.880  0.00  0.00     0.048 A 
ATOM      6  C5  UNL d   1      -2.778   3.074   0.943  0.00  0.00     0.003 A 
ATOM      7  I   UNL d   1      -3.292  -0.794   2.843  0.00  0.00    -0.146 I 
ENDROOT
TORSDOF 0
ENDMDL
