MODEL 1
REMARK minimizedAffinity 6.24051094
REMARK minimizedRMSD -1
REMARK  0 active torsions:
REMARK  status: ('A' for Active; 'I' for Inactive)
ROOT
ATOM      1  C   UNL d   1      -3.675  -5.288   0.703  0.00  0.00     0.023 A 
ATOM      2  C1  UNL d   1      -2.375  -5.155   1.192  0.00  0.00     0.003 A 
ATOM      3  C2  UNL d   1      -1.352  -4.721   0.347  0.00  0.00     0.048 A 
ATOM      4  C3  UNL d   1      -1.636  -4.419  -0.985  0.00  0.00     0.023 A 
ATOM      5  C4  UNL d   1      -2.935  -4.549  -1.477  0.00  0.00     0.048 A 
ATOM      6  C5  UNL d   1      -3.955  -4.985  -0.629  0.00  0.00     0.003 A 
ATOM      7  I   UNL d   1      -0.114  -3.771  -2.243  0.00  0.00    -0.146 I 
ENDROOT
TORSDOF 0
ENDMDL
