MODEL 1
REMARK minimizedAffinity 5.14435101
REMARK minimizedRMSD -1
REMARK  0 active torsions:
REMARK  status: ('A' for Active; 'I' for Inactive)
ROOT
ATOM      1  C   UNL d   1       3.380   0.353   1.873  0.00  0.00     0.023 A 
ATOM      2  C1  UNL d   1       3.757  -0.745   2.648  0.00  0.00     0.003 A 
ATOM      3  C2  UNL d   1       4.509  -0.557   3.809  0.00  0.00     0.048 A 
ATOM      4  C3  UNL d   1       4.880   0.732   4.191  0.00  0.00     0.023 A 
ATOM      5  C4  UNL d   1       4.505   1.833   3.420  0.00  0.00     0.048 A 
ATOM      6  C5  UNL d   1       3.754   1.640   2.259  0.00  0.00     0.003 A 
ATOM      7  I   UNL d   1       6.000   1.015   5.919  0.00  0.00    -0.146 I 
ENDROOT
TORSDOF 0
ENDMDL
