MODEL 1
REMARK minimizedAffinity -3.05762815
REMARK minimizedRMSD -1
REMARK  0 active torsions:
REMARK  status: ('A' for Active; 'I' for Inactive)
ROOT
ATOM      1  C   UNL d   1      -3.079  -0.590   1.100  0.00  0.00     0.023 A 
ATOM      2  C1  UNL d   1      -3.742   0.255   0.210  0.00  0.00     0.003 A 
ATOM      3  C2  UNL d   1      -3.751   1.634   0.429  0.00  0.00     0.048 A 
ATOM      4  C3  UNL d   1      -3.094   2.162   1.540  0.00  0.00     0.023 A 
ATOM      5  C4  UNL d   1      -2.428   1.320   2.433  0.00  0.00     0.048 A 
ATOM      6  C5  UNL d   1      -2.423  -0.058   2.210  0.00  0.00     0.003 A 
ATOM      7  I   UNL d   1      -3.106   4.214   1.869  0.00  0.00    -0.146 I 
ENDROOT
TORSDOF 0
ENDMDL
