MODEL 1
REMARK minimizedAffinity 3.42155647
REMARK minimizedRMSD -1
REMARK  0 active torsions:
REMARK  status: ('A' for Active; 'I' for Inactive)
ROOT
ATOM      1  C   UNL d   1      -2.989   1.086   3.055  0.00  0.00     0.023 A 
ATOM      2  C1  UNL d   1      -3.207   0.350   1.891  0.00  0.00     0.003 A 
ATOM      3  C2  UNL d   1      -4.070  -0.748   1.908  0.00  0.00     0.048 A 
ATOM      4  C3  UNL d   1      -4.714  -1.102   3.093  0.00  0.00     0.023 A 
ATOM      5  C4  UNL d   1      -4.500  -0.367   4.260  0.00  0.00     0.048 A 
ATOM      6  C5  UNL d   1      -3.635   0.728   4.238  0.00  0.00     0.003 A 
ATOM      7  I   UNL d   1      -6.000  -2.735   3.121  0.00  0.00    -0.146 I 
ENDROOT
TORSDOF 0
ENDMDL
