MODEL 1
REMARK minimizedAffinity -2.30787849
REMARK minimizedRMSD -1
REMARK  0 active torsions:
REMARK  status: ('A' for Active; 'I' for Inactive)
ROOT
ATOM      1  C   UNL d   1       3.304  -0.481   2.278  0.00  0.00     0.023 A 
ATOM      2  C1  UNL d   1       3.631  -1.344   3.324  0.00  0.00     0.003 A 
ATOM      3  C2  UNL d   1       4.405  -0.886   4.393  0.00  0.00     0.048 A 
ATOM      4  C3  UNL d   1       4.848   0.436   4.409  0.00  0.00     0.023 A 
ATOM      5  C4  UNL d   1       4.522   1.304   3.364  0.00  0.00     0.048 A 
ATOM      6  C5  UNL d   1       3.749   0.841   2.298  0.00  0.00     0.003 A 
ATOM      7  I   UNL d   1       6.000   1.120   5.998  0.00  0.00    -0.146 I 
ENDROOT
TORSDOF 0
ENDMDL
