MODEL 1
REMARK minimizedAffinity -1.72445929
REMARK minimizedRMSD -1
REMARK  0 active torsions:
REMARK  status: ('A' for Active; 'I' for Inactive)
ROOT
ATOM      1  C   UNL d   1       0.294  -3.038  -0.038  0.00  0.00     0.023 A 
ATOM      2  C1  UNL d   1       0.255  -1.643  -0.031  0.00  0.00     0.003 A 
ATOM      3  C2  UNL d   1       1.128  -0.923   0.787  0.00  0.00     0.048 A 
ATOM      4  C3  UNL d   1       2.038  -1.604   1.595  0.00  0.00     0.023 A 
ATOM      5  C4  UNL d   1       2.082  -2.999   1.590  0.00  0.00     0.048 A 
ATOM      6  C5  UNL d   1       1.206  -3.715   0.772  0.00  0.00     0.003 A 
ATOM      7  I   UNL d   1       3.339  -0.535   2.813  0.00  0.00    -0.146 I 
ENDROOT
TORSDOF 0
ENDMDL
