MODEL 1
REMARK minimizedAffinity 2.67067575
REMARK minimizedRMSD -1
REMARK  0 active torsions:
REMARK  status: ('A' for Active; 'I' for Inactive)
ROOT
ATOM      1  C   UNL d   1       5.723   2.591   4.132  0.00  0.00     0.023 A 
ATOM      2  C1  UNL d   1       5.999   1.520   4.981  0.00  0.00     0.003 A 
ATOM      3  C2  UNL d   1       5.150   0.412   5.010  0.00  0.00     0.048 A 
ATOM      4  C3  UNL d   1       4.026   0.382   4.185  0.00  0.00     0.023 A 
ATOM      5  C4  UNL d   1       3.745   1.451   3.333  0.00  0.00     0.048 A 
ATOM      6  C5  UNL d   1       4.597   2.557   3.309  0.00  0.00     0.003 A 
ATOM      7  I   UNL d   1       2.760  -1.266   4.225  0.00  0.00    -0.146 I 
ENDROOT
TORSDOF 0
ENDMDL
