MODEL 1
REMARK minimizedAffinity 2.29402947
REMARK minimizedRMSD -1
REMARK  0 active torsions:
REMARK  status: ('A' for Active; 'I' for Inactive)
ROOT
ATOM      1  C   UNL d   1      -3.457  -0.964   2.984  0.00  0.00     0.023 A 
ATOM      2  C1  UNL d   1      -2.919   0.140   3.645  0.00  0.00     0.003 A 
ATOM      3  C2  UNL d   1      -2.736   1.344   2.961  0.00  0.00     0.048 A 
ATOM      4  C3  UNL d   1      -3.094   1.436   1.617  0.00  0.00     0.023 A 
ATOM      5  C4  UNL d   1      -3.634   0.334   0.952  0.00  0.00     0.048 A 
ATOM      6  C5  UNL d   1      -3.814  -0.867   1.639  0.00  0.00     0.003 A 
ATOM      7  I   UNL d   1      -2.824   3.227   0.597  0.00  0.00    -0.146 I 
ENDROOT
TORSDOF 0
ENDMDL
