MODEL 1
REMARK minimizedAffinity 7.25177193
REMARK minimizedRMSD -1
REMARK  0 active torsions:
REMARK  status: ('A' for Active; 'I' for Inactive)
ROOT
ATOM      1  C   UNL d   1       3.679   5.513  -3.562  0.00  0.00     0.023 A 
ATOM      2  C1  UNL d   1       3.042   4.827  -4.597  0.00  0.00     0.003 A 
ATOM      3  C2  UNL d   1       3.706   3.796  -5.265  0.00  0.00     0.048 A 
ATOM      4  C3  UNL d   1       5.005   3.455  -4.892  0.00  0.00     0.023 A 
ATOM      5  C4  UNL d   1       5.646   4.138  -3.857  0.00  0.00     0.048 A 
ATOM      6  C5  UNL d   1       4.979   5.169  -3.193  0.00  0.00     0.003 A 
ATOM      7  I   UNL d   1       5.995   1.920  -5.885  0.00  0.00    -0.146 I 
ENDROOT
TORSDOF 0
ENDMDL
