MODEL 1
REMARK minimizedAffinity 0.612984121
REMARK minimizedRMSD -1
REMARK  0 active torsions:
REMARK  status: ('A' for Active; 'I' for Inactive)
ROOT
ATOM      1  C   UNL d   1       5.308   1.584   4.283  0.00  0.00     0.023 A 
ATOM      2  C1  UNL d   1       4.497   1.916   3.198  0.00  0.00     0.003 A 
ATOM      3  C2  UNL d   1       3.692   0.943   2.603  0.00  0.00     0.048 A 
ATOM      4  C3  UNL d   1       3.703  -0.361   3.098  0.00  0.00     0.023 A 
ATOM      5  C4  UNL d   1       4.512  -0.697   4.184  0.00  0.00     0.048 A 
ATOM      6  C5  UNL d   1       5.316   0.279   4.776  0.00  0.00     0.003 A 
ATOM      7  I   UNL d   1       2.506  -1.811   2.213  0.00  0.00    -0.146 I 
ENDROOT
TORSDOF 0
ENDMDL
