MODEL 1
REMARK minimizedAffinity 5.49988651
REMARK minimizedRMSD -1
REMARK  0 active torsions:
REMARK  status: ('A' for Active; 'I' for Inactive)
ROOT
ATOM      1  C   UNL d   1      -1.047   3.170  -4.211  0.00  0.00     0.023 A 
ATOM      2  C1  UNL d   1      -1.306   3.316  -2.849  0.00  0.00     0.003 A 
ATOM      3  C2  UNL d   1      -1.344   2.193  -2.019  0.00  0.00     0.048 A 
ATOM      4  C3  UNL d   1      -1.120   0.927  -2.559  0.00  0.00     0.023 A 
ATOM      5  C4  UNL d   1      -0.860   0.776  -3.922  0.00  0.00     0.048 A 
ATOM      6  C5  UNL d   1      -0.824   1.901  -4.747  0.00  0.00     0.003 A 
ATOM      7  I   UNL d   1      -1.176  -0.746  -1.327  0.00  0.00    -0.146 I 
ENDROOT
TORSDOF 0
ENDMDL
