MODEL 1
REMARK minimizedAffinity 11.3589334
REMARK minimizedRMSD -1
REMARK  0 active torsions:
REMARK  status: ('A' for Active; 'I' for Inactive)
ROOT
ATOM      1  C   UNL d   1      -0.184  -1.984   1.872  0.00  0.00     0.023 A 
ATOM      2  C1  UNL d   1       0.336  -3.211   1.457  0.00  0.00     0.003 A 
ATOM      3  C2  UNL d   1       1.616  -3.599   1.856  0.00  0.00     0.048 A 
ATOM      4  C3  UNL d   1       2.372  -2.756   2.670  0.00  0.00     0.023 A 
ATOM      5  C4  UNL d   1       1.856  -1.529   3.089  0.00  0.00     0.048 A 
ATOM      6  C5  UNL d   1       0.576  -1.144   2.687  0.00  0.00     0.003 A 
ATOM      7  I   UNL d   1       4.279  -3.332   3.265  0.00  0.00    -0.146 I 
ENDROOT
TORSDOF 0
ENDMDL
