MODEL 1
REMARK minimizedAffinity 10.447175
REMARK minimizedRMSD -1
REMARK  0 active torsions:
REMARK  status: ('A' for Active; 'I' for Inactive)
ROOT
ATOM      1  C   UNL d   1      -0.063  -1.268   2.562  0.00  0.00     0.023 A 
ATOM      2  C1  UNL d   1      -0.867  -1.194   1.424  0.00  0.00     0.003 A 
ATOM      3  C2  UNL d   1      -2.064  -0.476   1.459  0.00  0.00     0.048 A 
ATOM      4  C3  UNL d   1      -2.451   0.167   2.635  0.00  0.00     0.023 A 
ATOM      5  C4  UNL d   1      -1.649   0.097   3.775  0.00  0.00     0.048 A 
ATOM      6  C5  UNL d   1      -0.453  -0.623   3.736  0.00  0.00     0.003 A 
ATOM      7  I   UNL d   1      -4.232   1.236   2.689  0.00  0.00    -0.146 I 
ENDROOT
TORSDOF 0
ENDMDL
