MODEL 1
REMARK minimizedAffinity 12.8805428
REMARK minimizedRMSD -1
REMARK  0 active torsions:
REMARK  status: ('A' for Active; 'I' for Inactive)
ROOT
ATOM      1  C   UNL d   1       0.786  -1.225   1.551  0.00  0.00     0.023 A 
ATOM      2  C1  UNL d   1       0.799  -2.171   2.576  0.00  0.00     0.003 A 
ATOM      3  C2  UNL d   1       1.555  -3.338   2.441  0.00  0.00     0.048 A 
ATOM      4  C3  UNL d   1       2.296  -3.551   1.280  0.00  0.00     0.023 A 
ATOM      5  C4  UNL d   1       2.286  -2.607   0.252  0.00  0.00     0.048 A 
ATOM      6  C5  UNL d   1       1.528  -1.443   0.390  0.00  0.00     0.003 A 
ATOM      7  I   UNL d   1       3.422  -5.287   1.077  0.00  0.00    -0.146 I 
ENDROOT
TORSDOF 0
ENDMDL
