MODEL 1
REMARK minimizedAffinity 6.77653551
REMARK minimizedRMSD -1
REMARK  0 active torsions:
REMARK  status: ('A' for Active; 'I' for Inactive)
ROOT
ATOM      1  C   UNL d   1       5.998   0.744   0.373  0.00  0.00     0.023 A 
ATOM      2  C1  UNL d   1       6.000   1.920   1.125  0.00  0.00     0.003 A 
ATOM      3  C2  UNL d   1       4.869   2.282   1.859  0.00  0.00     0.048 A 
ATOM      4  C3  UNL d   1       3.740   1.465   1.839  0.00  0.00     0.023 A 
ATOM      5  C4  UNL d   1       3.733   0.287   1.089  0.00  0.00     0.048 A 
ATOM      6  C5  UNL d   1       4.866  -0.071   0.355  0.00  0.00     0.003 A 
ATOM      7  I   UNL d   1       2.056   2.002   2.932  0.00  0.00    -0.146 I 
ENDROOT
TORSDOF 0
ENDMDL
