MODEL 1
REMARK minimizedAffinity 2.13958859
REMARK minimizedRMSD -1
REMARK  0 active torsions:
REMARK  status: ('A' for Active; 'I' for Inactive)
ROOT
ATOM      1  C   UNL d   1       1.829   2.982   3.059  0.00  0.00     0.023 A 
ATOM      2  C1  UNL d   1       2.999   2.937   3.817  0.00  0.00     0.003 A 
ATOM      3  C2  UNL d   1       4.196   2.520   3.231  0.00  0.00     0.048 A 
ATOM      4  C3  UNL d   1       4.216   2.150   1.887  0.00  0.00     0.023 A 
ATOM      5  C4  UNL d   1       3.047   2.194   1.125  0.00  0.00     0.048 A 
ATOM      6  C5  UNL d   1       1.853   2.611   1.715  0.00  0.00     0.003 A 
ATOM      7  I   UNL d   1       5.996   1.529   1.013  0.00  0.00    -0.146 I 
ENDROOT
TORSDOF 0
ENDMDL
