MODEL 1
REMARK minimizedAffinity 4.84352493
REMARK minimizedRMSD -1
REMARK  0 active torsions:
REMARK  status: ('A' for Active; 'I' for Inactive)
ROOT
ATOM      1  C   UNL d   1       5.990   0.785  -4.069  0.00  0.00     0.023 A 
ATOM      2  C1  UNL d   1       5.997   1.621  -2.952  0.00  0.00     0.003 A 
ATOM      3  C2  UNL d   1       6.000   1.072  -1.668  0.00  0.00     0.048 A 
ATOM      4  C3  UNL d   1       5.996  -0.313  -1.508  0.00  0.00     0.023 A 
ATOM      5  C4  UNL d   1       5.989  -1.153  -2.623  0.00  0.00     0.048 A 
ATOM      6  C5  UNL d   1       5.986  -0.600  -3.904  0.00  0.00     0.003 A 
ATOM      7  I   UNL d   1       6.000  -1.133   0.402  0.00  0.00    -0.146 I 
ENDROOT
TORSDOF 0
ENDMDL
