MODEL 1
REMARK minimizedAffinity 3.43287945
REMARK minimizedRMSD -1
REMARK  1 active torsions:
REMARK  status: ('A' for Active; 'I' for Inactive)
REMARK    1  A    between atoms: C1_2  and  C2_3 
ROOT
ATOM      1  C2  UNL d   1       2.946  -4.430   4.897  0.00  0.00    -0.077 A 
ATOM      2  C3  UNL d   1       1.981  -4.110   3.931  0.00  0.00     0.002 A 
ATOM      3  C4  UNL d   1       2.288  -3.234   2.889  0.00  0.00     0.002 A 
ATOM      4  C5  UNL d   1       3.561  -2.674   2.799  0.00  0.00    -0.004 A 
ATOM      5  C6  UNL d   1       4.527  -2.984   3.755  0.00  0.00     0.002 A 
ATOM      6  C7  UNL d   1       4.221  -3.859   4.799  0.00  0.00     0.002 A 
ENDROOT
BRANCH   1   7
ATOM      7  C1  UNL d   1       2.632  -5.413   5.994  0.00  0.00     0.055 C 
ATOM      8  C   UNL d   1       1.156  -5.783   6.000  0.00  0.00     0.019 C 
ENDBRANCH   1   7
TORSDOF 1
ENDMDL
