MODEL 1
REMARK minimizedAffinity 5.87351036
REMARK minimizedRMSD -1
REMARK  1 active torsions:
REMARK  status: ('A' for Active; 'I' for Inactive)
REMARK    1  A    between atoms: C1_2  and  C2_3 
ROOT
ATOM      1  C2  UNL d   1       2.197  -2.232   3.092  0.00  0.00    -0.077 A 
ATOM      2  C3  UNL d   1       1.501  -3.403   3.421  0.00  0.00     0.002 A 
ATOM      3  C4  UNL d   1       2.163  -4.471   4.031  0.00  0.00     0.002 A 
ATOM      4  C5  UNL d   1       3.523  -4.375   4.321  0.00  0.00    -0.004 A 
ATOM      5  C6  UNL d   1       4.224  -3.215   3.997  0.00  0.00     0.002 A 
ATOM      6  C7  UNL d   1       3.564  -2.147   3.386  0.00  0.00     0.002 A 
ENDROOT
BRANCH   1   7
ATOM      7  C1  UNL d   1       1.474  -1.061   2.479  0.00  0.00     0.055 C 
ATOM      8  C   UNL d   1       2.231  -0.509   1.280  0.00  0.00     0.019 C 
ENDBRANCH   1   7
TORSDOF 1
ENDMDL
