MODEL 1
REMARK minimizedAffinity -0.359733403
REMARK minimizedRMSD -1
REMARK  1 active torsions:
REMARK  status: ('A' for Active; 'I' for Inactive)
REMARK    1  A    between atoms: C1_2  and  C2_3 
ROOT
ATOM      1  C2  UNL d   1       1.625  -4.166   4.132  0.00  0.00    -0.077 A 
ATOM      2  C3  UNL d   1       0.831  -3.011   4.126  0.00  0.00     0.002 A 
ATOM      3  C4  UNL d   1       1.311  -1.827   3.561  0.00  0.00     0.002 A 
ATOM      4  C5  UNL d   1       2.583  -1.789   2.994  0.00  0.00    -0.004 A 
ATOM      5  C6  UNL d   1       3.381  -2.933   2.997  0.00  0.00     0.002 A 
ATOM      6  C7  UNL d   1       2.904  -4.116   3.562  0.00  0.00     0.002 A 
ENDROOT
BRANCH   1   7
ATOM      7  C1  UNL d   1       1.091  -5.457   4.697  0.00  0.00     0.055 C 
ATOM      8  C   UNL d   1       0.300  -5.216   5.974  0.00  0.00     0.019 C 
ENDBRANCH   1   7
TORSDOF 1
ENDMDL
