MODEL 1
REMARK minimizedAffinity 4.32393122
REMARK minimizedRMSD -1
REMARK  1 active torsions:
REMARK  status: ('A' for Active; 'I' for Inactive)
REMARK    1  A    between atoms: C1_2  and  C2_3 
ROOT
ATOM      1  C2  UNL d   1       1.696  -4.333   4.849  0.00  0.00    -0.077 A 
ATOM      2  C3  UNL d   1       1.174  -4.593   3.574  0.00  0.00     0.002 A 
ATOM      3  C4  UNL d   1       1.289  -3.643   2.557  0.00  0.00     0.002 A 
ATOM      4  C5  UNL d   1       1.930  -2.431   2.803  0.00  0.00    -0.004 A 
ATOM      5  C6  UNL d   1       2.451  -2.163   4.068  0.00  0.00     0.002 A 
ATOM      6  C7  UNL d   1       2.335  -3.110   5.086  0.00  0.00     0.002 A 
ENDROOT
BRANCH   1   7
ATOM      7  C1  UNL d   1       1.616  -5.376   5.933  0.00  0.00     0.055 C 
ATOM      8  C   UNL d   1       0.229  -6.000   6.000  0.00  0.00     0.019 C 
ENDBRANCH   1   7
TORSDOF 1
ENDMDL
