MODEL 1
REMARK minimizedAffinity 3.15341997
REMARK minimizedRMSD -1
REMARK  1 active torsions:
REMARK  status: ('A' for Active; 'I' for Inactive)
REMARK    1  A    between atoms: C1_2  and  C2_3 
ROOT
ATOM      1  C2  UNL d   1       3.868  -5.767  -4.322  0.00  0.00    -0.077 A 
ATOM      2  C3  UNL d   1       5.200  -5.600  -3.920  0.00  0.00     0.002 A 
ATOM      3  C4  UNL d   1       5.515  -5.436  -2.570  0.00  0.00     0.002 A 
ATOM      4  C5  UNL d   1       4.504  -5.442  -1.611  0.00  0.00    -0.004 A 
ATOM      5  C6  UNL d   1       3.176  -5.605  -2.001  0.00  0.00     0.002 A 
ATOM      6  C7  UNL d   1       2.859  -5.768  -3.351  0.00  0.00     0.002 A 
ENDROOT
BRANCH   1   7
ATOM      7  C1  UNL d   1       3.531  -5.993  -5.773  0.00  0.00     0.055 C 
ATOM      8  C   UNL d   1       2.026  -5.986  -5.999  0.00  0.00     0.019 C 
ENDBRANCH   1   7
TORSDOF 1
ENDMDL
