MODEL 1
REMARK minimizedAffinity -0.318888605
REMARK minimizedRMSD -1
REMARK  1 active torsions:
REMARK  status: ('A' for Active; 'I' for Inactive)
REMARK    1  A    between atoms: C1_2  and  C2_3 
ROOT
ATOM      1  C2  UNL d   1       3.363  -5.962  -2.668  0.00  0.00    -0.077 A 
ATOM      2  C3  UNL d   1       2.392  -5.987  -3.679  0.00  0.00     0.002 A 
ATOM      3  C4  UNL d   1       2.772  -5.999  -5.023  0.00  0.00     0.002 A 
ATOM      4  C5  UNL d   1       4.122  -5.990  -5.367  0.00  0.00    -0.004 A 
ATOM      5  C6  UNL d   1       5.095  -5.963  -4.369  0.00  0.00     0.002 A 
ATOM      6  C7  UNL d   1       4.717  -5.950  -3.026  0.00  0.00     0.002 A 
ENDROOT
BRANCH   1   7
ATOM      7  C1  UNL d   1       2.956  -5.999  -1.218  0.00  0.00     0.055 C 
ATOM      8  C   UNL d   1       1.442  -6.000  -1.068  0.00  0.00     0.019 C 
ENDBRANCH   1   7
TORSDOF 1
ENDMDL
