MODEL 1
REMARK minimizedAffinity 1.76870644
REMARK minimizedRMSD -1
REMARK  1 active torsions:
REMARK  status: ('A' for Active; 'I' for Inactive)
REMARK    1  A    between atoms: C1_2  and  C2_3 
ROOT
ATOM      1  C2  UNL d   1       1.859  -2.253   3.216  0.00  0.00    -0.077 A 
ATOM      2  C3  UNL d   1       1.279  -1.324   4.092  0.00  0.00     0.002 A 
ATOM      3  C4  UNL d   1       1.329   0.042   3.806  0.00  0.00     0.002 A 
ATOM      4  C5  UNL d   1       1.952   0.490   2.643  0.00  0.00    -0.004 A 
ATOM      5  C6  UNL d   1       2.533  -0.426   1.767  0.00  0.00     0.002 A 
ATOM      6  C7  UNL d   1       2.486  -1.792   2.052  0.00  0.00     0.002 A 
ENDROOT
BRANCH   1   7
ATOM      7  C1  UNL d   1       1.763  -3.730   3.498  0.00  0.00     0.055 C 
ATOM      8  C   UNL d   1       1.211  -3.993   4.892  0.00  0.00     0.019 C 
ENDBRANCH   1   7
TORSDOF 1
ENDMDL
