MODEL 1
REMARK minimizedAffinity 6.65475988
REMARK minimizedRMSD -1
REMARK  1 active torsions:
REMARK  status: ('A' for Active; 'I' for Inactive)
REMARK    1  A    between atoms: C1_2  and  C2_3 
ROOT
ATOM      1  C2  UNL d   1       1.411  -4.031   4.598  0.00  0.00    -0.077 A 
ATOM      2  C3  UNL d   1       1.940  -4.912   3.643  0.00  0.00     0.002 A 
ATOM      3  C4  UNL d   1       2.242  -4.461   2.357  0.00  0.00     0.002 A 
ATOM      4  C5  UNL d   1       2.024  -3.128   2.015  0.00  0.00    -0.004 A 
ATOM      5  C6  UNL d   1       1.497  -2.245   2.957  0.00  0.00     0.002 A 
ATOM      6  C7  UNL d   1       1.193  -2.694   4.242  0.00  0.00     0.002 A 
ENDROOT
BRANCH   1   7
ATOM      7  C1  UNL d   1       1.131  -4.504   6.000  0.00  0.00     0.055 C 
ATOM      8  C   UNL d   1       0.408  -5.844   5.998  0.00  0.00     0.019 C 
ENDBRANCH   1   7
TORSDOF 1
ENDMDL
