MODEL 1
REMARK minimizedAffinity 4.00128317
REMARK minimizedRMSD -1
REMARK  1 active torsions:
REMARK  status: ('A' for Active; 'I' for Inactive)
REMARK    1  A    between atoms: C1_2  and  C2_3 
ROOT
ATOM      1  C2  UNL d   1      -3.443   2.551  -1.243  0.00  0.00    -0.077 A 
ATOM      2  C3  UNL d   1      -3.601   1.989  -2.518  0.00  0.00     0.002 A 
ATOM      3  C4  UNL d   1      -2.901   0.835  -2.873  0.00  0.00     0.002 A 
ATOM      4  C5  UNL d   1      -2.042   0.230  -1.957  0.00  0.00    -0.004 A 
ATOM      5  C6  UNL d   1      -1.877   0.781  -0.688  0.00  0.00     0.002 A 
ATOM      6  C7  UNL d   1      -2.575   1.936  -0.332  0.00  0.00     0.002 A 
ENDROOT
BRANCH   1   7
ATOM      7  C1  UNL d   1      -4.235   3.768  -0.841  0.00  0.00     0.055 C 
ATOM      8  C   UNL d   1      -5.681   3.410  -0.530  0.00  0.00     0.019 C 
ENDBRANCH   1   7
TORSDOF 1
ENDMDL
