MODEL 1
REMARK minimizedAffinity 11.9565744
REMARK minimizedRMSD -1
REMARK  1 active torsions:
REMARK  status: ('A' for Active; 'I' for Inactive)
REMARK    1  A    between atoms: C1_2  and  C2_3 
ROOT
ATOM      1  C2  UNL d   1       3.562  -3.130   4.489  0.00  0.00    -0.077 A 
ATOM      2  C3  UNL d   1       2.935  -4.307   4.054  0.00  0.00     0.002 A 
ATOM      3  C4  UNL d   1       1.797  -4.244   3.248  0.00  0.00     0.002 A 
ATOM      4  C5  UNL d   1       1.279  -3.009   2.866  0.00  0.00    -0.004 A 
ATOM      5  C6  UNL d   1       1.893  -1.833   3.296  0.00  0.00     0.002 A 
ATOM      6  C7  UNL d   1       3.030  -1.894   4.103  0.00  0.00     0.002 A 
ENDROOT
BRANCH   1   7
ATOM      7  C1  UNL d   1       4.818  -3.196   5.318  0.00  0.00     0.055 C 
ATOM      8  C   UNL d   1       5.999  -2.581   4.583  0.00  0.00     0.019 C 
ENDBRANCH   1   7
TORSDOF 1
ENDMDL
