MODEL 1
REMARK minimizedAffinity 15.7225332
REMARK minimizedRMSD -1
REMARK  1 active torsions:
REMARK  status: ('A' for Active; 'I' for Inactive)
REMARK    1  A    between atoms: C1_2  and  C2_3 
ROOT
ATOM      1  C2  UNL d   1       2.284  -0.100   2.570  0.00  0.00    -0.077 A 
ATOM      2  C3  UNL d   1       2.898  -0.224   1.316  0.00  0.00     0.002 A 
ATOM      3  C4  UNL d   1       3.329   0.910   0.625  0.00  0.00     0.002 A 
ATOM      4  C5  UNL d   1       3.155   2.175   1.182  0.00  0.00    -0.004 A 
ATOM      5  C6  UNL d   1       2.544   2.309   2.428  0.00  0.00     0.002 A 
ATOM      6  C7  UNL d   1       2.111   1.177   3.119  0.00  0.00     0.002 A 
ENDROOT
BRANCH   1   7
ATOM      7  C1  UNL d   1       1.862  -1.325   3.338  0.00  0.00     0.055 C 
ATOM      8  C   UNL d   1       1.377  -2.424   2.405  0.00  0.00     0.019 C 
ENDBRANCH   1   7
TORSDOF 1
ENDMDL
