MODEL 1
REMARK minimizedAffinity 4.82258892
REMARK minimizedRMSD -1
REMARK  0 active torsions:
REMARK  status: ('A' for Active; 'I' for Inactive)
ROOT
ATOM      1  C   UNL d   1      -5.469  -1.724  -3.967  0.00  0.00     0.023 A 
ATOM      2  C1  UNL d   1      -4.619  -1.769  -5.072  0.00  0.00     0.003 A 
ATOM      3  C2  UNL d   1      -4.295  -2.995  -5.657  0.00  0.00     0.048 A 
ATOM      4  C3  UNL d   1      -4.826  -4.173  -5.132  0.00  0.00     0.023 A 
ATOM      5  C4  UNL d   1      -5.678  -4.133  -4.026  0.00  0.00     0.048 A 
ATOM      6  C5  UNL d   1      -5.998  -2.904  -3.445  0.00  0.00     0.003 A 
ATOM      7  I   UNL d   1      -4.347  -5.999  -6.000  0.00  0.00    -0.146 I 
ENDROOT
TORSDOF 0
ENDMDL
