MODEL 1
REMARK minimizedAffinity 18.4090099
REMARK minimizedRMSD -1
REMARK  0 active torsions:
REMARK  status: ('A' for Active; 'I' for Inactive)
ROOT
ATOM      1  C   UNL d   1       1.108   2.935   3.083  0.00  0.00     0.023 A 
ATOM      2  C1  UNL d   1       1.204   1.691   3.707  0.00  0.00     0.003 A 
ATOM      3  C2  UNL d   1       0.353   0.651   3.328  0.00  0.00     0.048 A 
ATOM      4  C3  UNL d   1      -0.591   0.861   2.323  0.00  0.00     0.023 A 
ATOM      5  C4  UNL d   1      -0.690   2.104   1.695  0.00  0.00     0.048 A 
ATOM      6  C5  UNL d   1       0.162   3.141   2.078  0.00  0.00     0.003 A 
ATOM      7  I   UNL d   1      -1.858  -0.685   1.757  0.00  0.00    -0.146 I 
ENDROOT
TORSDOF 0
ENDMDL
