MODEL 1
REMARK minimizedAffinity 0.499861926
REMARK minimizedRMSD -1
REMARK  0 active torsions:
REMARK  status: ('A' for Active; 'I' for Inactive)
ROOT
ATOM      1  C   UNL d   1      -4.706  -5.428  -5.996  0.00  0.00     0.023 A 
ATOM      2  C1  UNL d   1      -5.618  -5.864  -5.035  0.00  0.00     0.003 A 
ATOM      3  C2  UNL d   1      -5.989  -5.017  -3.988  0.00  0.00     0.048 A 
ATOM      4  C3  UNL d   1      -5.445  -3.736  -3.909  0.00  0.00     0.023 A 
ATOM      5  C4  UNL d   1      -4.533  -3.295  -4.869  0.00  0.00     0.048 A 
ATOM      6  C5  UNL d   1      -4.164  -4.146  -5.913  0.00  0.00     0.003 A 
ATOM      7  I   UNL d   1      -5.995  -2.474  -2.352  0.00  0.00    -0.146 I 
ENDROOT
TORSDOF 0
ENDMDL
