MODEL 1
REMARK minimizedAffinity 0.776336372
REMARK minimizedRMSD -1
REMARK  0 active torsions:
REMARK  status: ('A' for Active; 'I' for Inactive)
ROOT
ATOM      1  C   UNL d   1      -6.000  -1.675   0.531  0.00  0.00     0.023 A 
ATOM      2  C1  UNL d   1      -5.635  -2.332  -0.645  0.00  0.00     0.003 A 
ATOM      3  C2  UNL d   1      -4.999  -3.573  -0.584  0.00  0.00     0.048 A 
ATOM      4  C3  UNL d   1      -4.730  -4.152   0.655  0.00  0.00     0.023 A 
ATOM      5  C4  UNL d   1      -5.094  -3.500   1.834  0.00  0.00     0.048 A 
ATOM      6  C5  UNL d   1      -5.729  -2.258   1.769  0.00  0.00     0.003 A 
ATOM      7  I   UNL d   1      -3.783  -6.000   0.748  0.00  0.00    -0.146 I 
ENDROOT
TORSDOF 0
ENDMDL
