MODEL 1
REMARK minimizedAffinity 2.59168172
REMARK minimizedRMSD -1
REMARK  0 active torsions:
REMARK  status: ('A' for Active; 'I' for Inactive)
ROOT
ATOM      1  C   UNL d   1      -5.994  -2.062   1.345  0.00  0.00     0.023 A 
ATOM      2  C1  UNL d   1      -5.972  -3.236   2.098  0.00  0.00     0.003 A 
ATOM      3  C2  UNL d   1      -5.314  -4.368   1.611  0.00  0.00     0.048 A 
ATOM      4  C3  UNL d   1      -4.679  -4.318   0.370  0.00  0.00     0.023 A 
ATOM      5  C4  UNL d   1      -4.697  -3.145  -0.386  0.00  0.00     0.048 A 
ATOM      6  C5  UNL d   1      -5.357  -2.017   0.104  0.00  0.00     0.003 A 
ATOM      7  I   UNL d   1      -3.698  -6.000  -0.356  0.00  0.00    -0.146 I 
ENDROOT
TORSDOF 0
ENDMDL
