MODEL 1
REMARK minimizedAffinity 14.3730364
REMARK minimizedRMSD -1
REMARK  0 active torsions:
REMARK  status: ('A' for Active; 'I' for Inactive)
ROOT
ATOM      1  C   UNL d   1       1.279  -0.817  -3.074  0.00  0.00     0.023 A 
ATOM      2  C1  UNL d   1       1.658   0.429  -2.573  0.00  0.00     0.003 A 
ATOM      3  C2  UNL d   1       2.289   1.355  -3.405  0.00  0.00     0.048 A 
ATOM      4  C3  UNL d   1       2.539   1.030  -4.738  0.00  0.00     0.023 A 
ATOM      5  C4  UNL d   1       2.161  -0.215  -5.244  0.00  0.00     0.048 A 
ATOM      6  C5  UNL d   1       1.530  -1.138  -4.408  0.00  0.00     0.003 A 
ATOM      7  I   UNL d   1       3.478   2.407  -5.979  0.00  0.00    -0.146 I 
ENDROOT
TORSDOF 0
ENDMDL
