MODEL 1
REMARK minimizedAffinity 12.5185938
REMARK minimizedRMSD -1
REMARK  0 active torsions:
REMARK  status: ('A' for Active; 'I' for Inactive)
ROOT
ATOM      1  C   UNL d   1       2.819   5.218  -5.044  0.00  0.00     0.023 A 
ATOM      2  C1  UNL d   1       3.386   3.945  -4.982  0.00  0.00     0.003 A 
ATOM      3  C2  UNL d   1       2.993   3.052  -3.983  0.00  0.00     0.048 A 
ATOM      4  C3  UNL d   1       2.030   3.437  -3.051  0.00  0.00     0.023 A 
ATOM      5  C4  UNL d   1       1.459   4.710  -3.110  0.00  0.00     0.048 A 
ATOM      6  C5  UNL d   1       1.857   5.600  -4.109  0.00  0.00     0.003 A 
ATOM      7  I   UNL d   1       1.443   2.110  -1.564  0.00  0.00    -0.146 I 
ENDROOT
TORSDOF 0
ENDMDL
