MODEL 1
REMARK minimizedAffinity 12.0803766
REMARK minimizedRMSD -1
REMARK  0 active torsions:
REMARK  status: ('A' for Active; 'I' for Inactive)
ROOT
ATOM      1  C   UNL d   1       0.759  -1.187  -5.316  0.00  0.00     0.023 A 
ATOM      2  C1  UNL d   1       0.513   0.004  -6.000  0.00  0.00     0.003 A 
ATOM      3  C2  UNL d   1       1.386   1.085  -5.857  0.00  0.00     0.048 A 
ATOM      4  C3  UNL d   1       2.502   0.967  -5.031  0.00  0.00     0.023 A 
ATOM      5  C4  UNL d   1       2.753  -0.223  -4.345  0.00  0.00     0.048 A 
ATOM      6  C5  UNL d   1       1.877  -1.300  -4.490  0.00  0.00     0.003 A 
ATOM      7  I   UNL d   1       3.803   2.575  -4.817  0.00  0.00    -0.146 I 
ENDROOT
TORSDOF 0
ENDMDL
