MODEL 1
REMARK minimizedAffinity 12.9255991
REMARK minimizedRMSD -1
REMARK  0 active torsions:
REMARK  status: ('A' for Active; 'I' for Inactive)
ROOT
ATOM      1  C   UNL d   1       5.460   2.891  -5.871  0.00  0.00     0.023 A 
ATOM      2  C1  UNL d   1       4.133   2.480  -6.000  0.00  0.00     0.003 A 
ATOM      3  C2  UNL d   1       3.104   3.260  -5.469  0.00  0.00     0.048 A 
ATOM      4  C3  UNL d   1       3.408   4.451  -4.811  0.00  0.00     0.023 A 
ATOM      5  C4  UNL d   1       4.734   4.867  -4.680  0.00  0.00     0.048 A 
ATOM      6  C5  UNL d   1       5.760   4.084  -5.212  0.00  0.00     0.003 A 
ATOM      7  I   UNL d   1       1.878   5.614  -4.020  0.00  0.00    -0.146 I 
ENDROOT
TORSDOF 0
ENDMDL
