MODEL 1
REMARK minimizedAffinity 3.28125143
REMARK minimizedRMSD -1
REMARK  0 active torsions:
REMARK  status: ('A' for Active; 'I' for Inactive)
ROOT
ATOM      1  C   UNL d   1      -4.427  -5.974  -6.000  0.00  0.00     0.023 A 
ATOM      2  C1  UNL d   1      -5.707  -5.709  -5.513  0.00  0.00     0.003 A 
ATOM      3  C2  UNL d   1      -5.999  -4.464  -4.953  0.00  0.00     0.048 A 
ATOM      4  C3  UNL d   1      -5.006  -3.487  -4.884  0.00  0.00     0.023 A 
ATOM      5  C4  UNL d   1      -3.724  -3.747  -5.371  0.00  0.00     0.048 A 
ATOM      6  C5  UNL d   1      -3.437  -4.994  -5.929  0.00  0.00     0.003 A 
ATOM      7  I   UNL d   1      -5.438  -1.632  -4.051  0.00  0.00    -0.146 I 
ENDROOT
TORSDOF 0
ENDMDL
