MODEL 1
REMARK minimizedAffinity 4.59566212
REMARK minimizedRMSD -1
REMARK  0 active torsions:
REMARK  status: ('A' for Active; 'I' for Inactive)
ROOT
ATOM      1  C   UNL d   1       0.936  -5.359   2.912  0.00  0.00     0.023 A 
ATOM      2  C1  UNL d   1       1.516  -5.816   4.095  0.00  0.00     0.003 A 
ATOM      3  C2  UNL d   1       2.899  -6.000   4.171  0.00  0.00     0.048 A 
ATOM      4  C3  UNL d   1       3.695  -5.724   3.060  0.00  0.00     0.023 A 
ATOM      5  C4  UNL d   1       3.119  -5.266   1.874  0.00  0.00     0.048 A 
ATOM      6  C5  UNL d   1       1.736  -5.085   1.802  0.00  0.00     0.003 A 
ATOM      7  I   UNL d   1       5.752  -5.997   3.170  0.00  0.00    -0.146 I 
ENDROOT
TORSDOF 0
ENDMDL
