MODEL 1
REMARK minimizedAffinity 8.69878674
REMARK minimizedRMSD -1
REMARK  0 active torsions:
REMARK  status: ('A' for Active; 'I' for Inactive)
ROOT
ATOM      1  C   UNL d   1      -2.896  -0.630   1.527  0.00  0.00     0.023 A 
ATOM      2  C1  UNL d   1      -1.790  -1.131   2.214  0.00  0.00     0.003 A 
ATOM      3  C2  UNL d   1      -0.776  -0.267   2.631  0.00  0.00     0.048 A 
ATOM      4  C3  UNL d   1      -0.874   1.097   2.359  0.00  0.00     0.023 A 
ATOM      5  C4  UNL d   1      -1.980   1.603   1.673  0.00  0.00     0.048 A 
ATOM      6  C5  UNL d   1      -2.991   0.735   1.257  0.00  0.00     0.003 A 
ATOM      7  I   UNL d   1       0.634   2.386   2.979  0.00  0.00    -0.146 I 
ENDROOT
TORSDOF 0
ENDMDL
