MODEL 1
REMARK minimizedAffinity 13.3015461
REMARK minimizedRMSD -1
REMARK  0 active torsions:
REMARK  status: ('A' for Active; 'I' for Inactive)
ROOT
ATOM      1  C   UNL d   1      -3.296   0.342   1.133  0.00  0.00     0.023 A 
ATOM      2  C1  UNL d   1      -2.157  -0.394   1.458  0.00  0.00     0.003 A 
ATOM      3  C2  UNL d   1      -1.052   0.242   2.027  0.00  0.00     0.048 A 
ATOM      4  C3  UNL d   1      -1.093   1.614   2.271  0.00  0.00     0.023 A 
ATOM      5  C4  UNL d   1      -2.231   2.355   1.948  0.00  0.00     0.048 A 
ATOM      6  C5  UNL d   1      -3.333   1.715   1.378  0.00  0.00     0.003 A 
ATOM      7  I   UNL d   1       0.551   2.563   3.118  0.00  0.00    -0.146 I 
ENDROOT
TORSDOF 0
ENDMDL
