MODEL 1
REMARK minimizedAffinity 11.0145836
REMARK minimizedRMSD -1
REMARK  0 active torsions:
REMARK  status: ('A' for Active; 'I' for Inactive)
ROOT
ATOM      1  C   UNL d   1      -4.042   0.054   1.079  0.00  0.00     0.023 A 
ATOM      2  C1  UNL d   1      -2.939  -0.756   1.352  0.00  0.00     0.003 A 
ATOM      3  C2  UNL d   1      -1.658  -0.202   1.390  0.00  0.00     0.048 A 
ATOM      4  C3  UNL d   1      -1.486   1.161   1.156  0.00  0.00     0.023 A 
ATOM      5  C4  UNL d   1      -2.587   1.976   0.883  0.00  0.00     0.048 A 
ATOM      6  C5  UNL d   1      -3.866   1.418   0.845  0.00  0.00     0.003 A 
ATOM      7  I   UNL d   1       0.420   1.987   1.213  0.00  0.00    -0.146 I 
ENDROOT
TORSDOF 0
ENDMDL
