MODEL 1
REMARK minimizedAffinity 13.0617676
REMARK minimizedRMSD -1
REMARK  0 active torsions:
REMARK  status: ('A' for Active; 'I' for Inactive)
ROOT
ATOM      1  C   UNL d   1       3.681   5.104  -4.392  0.00  0.00     0.023 A 
ATOM      2  C1  UNL d   1       2.705   5.657  -3.563  0.00  0.00     0.003 A 
ATOM      3  C2  UNL d   1       2.124   4.886  -2.555  0.00  0.00     0.048 A 
ATOM      4  C3  UNL d   1       2.526   3.562  -2.379  0.00  0.00     0.023 A 
ATOM      5  C4  UNL d   1       3.503   3.004  -3.205  0.00  0.00     0.048 A 
ATOM      6  C5  UNL d   1       4.080   3.779  -4.213  0.00  0.00     0.003 A 
ATOM      7  I   UNL d   1       1.664   2.412  -0.878  0.00  0.00    -0.146 I 
ENDROOT
TORSDOF 0
ENDMDL
