MODEL 1
REMARK minimizedAffinity 1.68686414
REMARK minimizedRMSD -1
REMARK  0 active torsions:
REMARK  status: ('A' for Active; 'I' for Inactive)
ROOT
ATOM      1  C   UNL d   1      -3.354  -3.734  -0.510  0.00  0.00     0.023 A 
ATOM      2  C1  UNL d   1      -4.485  -2.935  -0.343  0.00  0.00     0.003 A 
ATOM      3  C2  UNL d   1      -4.357  -1.637   0.155  0.00  0.00     0.048 A 
ATOM      4  C3  UNL d   1      -3.094  -1.143   0.482  0.00  0.00     0.023 A 
ATOM      5  C4  UNL d   1      -1.959  -1.939   0.315  0.00  0.00     0.048 A 
ATOM      6  C5  UNL d   1      -2.093  -3.236  -0.182  0.00  0.00     0.003 A 
ATOM      7  I   UNL d   1      -2.901   0.789   1.223  0.00  0.00    -0.146 I 
ENDROOT
TORSDOF 0
ENDMDL
