MODEL 1
REMARK minimizedAffinity 11.8195143
REMARK minimizedRMSD -1
REMARK  0 active torsions:
REMARK  status: ('A' for Active; 'I' for Inactive)
ROOT
ATOM      1  C   UNL d   1       5.995  -0.514   1.948  0.00  0.00     0.023 A 
ATOM      2  C1  UNL d   1       5.411  -1.307   2.935  0.00  0.00     0.003 A 
ATOM      3  C2  UNL d   1       4.043  -1.202   3.198  0.00  0.00     0.048 A 
ATOM      4  C3  UNL d   1       3.266  -0.304   2.468  0.00  0.00     0.023 A 
ATOM      5  C4  UNL d   1       3.846   0.491   1.478  0.00  0.00     0.048 A 
ATOM      6  C5  UNL d   1       5.214   0.384   1.220  0.00  0.00     0.003 A 
ATOM      7  I   UNL d   1       1.230  -0.147   2.857  0.00  0.00    -0.146 I 
ENDROOT
TORSDOF 0
ENDMDL
