MODEL 1
REMARK minimizedAffinity 3.38208008
REMARK minimizedRMSD -1
REMARK  0 active torsions:
REMARK  status: ('A' for Active; 'I' for Inactive)
ROOT
ATOM      1  C   UNL d   1      -1.168   0.513   2.301  0.00  0.00     0.023 A 
ATOM      2  C1  UNL d   1      -1.919   0.280   3.454  0.00  0.00     0.003 A 
ATOM      3  C2  UNL d   1      -3.305   0.442   3.431  0.00  0.00     0.048 A 
ATOM      4  C3  UNL d   1      -3.935   0.837   2.251  0.00  0.00     0.023 A 
ATOM      5  C4  UNL d   1      -3.189   1.070   1.095  0.00  0.00     0.048 A 
ATOM      6  C5  UNL d   1      -1.803   0.907   1.123  0.00  0.00     0.003 A 
ATOM      7  I   UNL d   1      -5.999   1.079   2.214  0.00  0.00    -0.146 I 
ENDROOT
TORSDOF 0
ENDMDL
