MODEL 1
REMARK minimizedAffinity 9.51082897
REMARK minimizedRMSD -1
REMARK  1 active torsions:
REMARK  status: ('A' for Active; 'I' for Inactive)
REMARK    1  A    between atoms: C1_2  and  C2_3 
ROOT
ATOM      1  C2  UNL d   1       3.694   2.841  -0.464  0.00  0.00    -0.081 A 
ATOM      2  C3  UNL d   1       2.470   2.233  -0.769  0.00  0.00     0.006 A 
ATOM      3  C4  UNL d   1       2.412   1.172  -1.675  0.00  0.00     0.002 A 
ATOM      4  C5  UNL d   1       3.578   0.695  -2.285  0.00  0.00    -0.080 A 
ATOM      5  C6  UNL d   1       3.534  -0.463  -3.236  0.00  0.00     0.076 C 
ATOM      6  C7  UNL d   1       4.798   1.314  -1.994  0.00  0.00     0.002 A 
ATOM      7  C8  UNL d   1       4.856   2.376  -1.088  0.00  0.00     0.006 A 
ENDROOT
BRANCH   1   8
ATOM      8  C1  UNL d   1       3.768   3.944   0.561  0.00  0.00     0.054 C 
ATOM      9  C   UNL d   1       4.061   3.390   1.949  0.00  0.00     0.018 C 
ENDBRANCH   1   8
TORSDOF 1
ENDMDL
