MODEL 1
REMARK minimizedAffinity 13.4918852
REMARK minimizedRMSD -1
REMARK  1 active torsions:
REMARK  status: ('A' for Active; 'I' for Inactive)
REMARK    1  A    between atoms: C1_2  and  C2_3 
ROOT
ATOM      1  C2  UNL d   1      -0.859   3.495  -5.532  0.00  0.00    -0.081 A 
ATOM      2  C3  UNL d   1      -1.905   3.324  -4.617  0.00  0.00     0.006 A 
ATOM      3  C4  UNL d   1      -2.227   2.052  -4.139  0.00  0.00     0.002 A 
ATOM      4  C5  UNL d   1      -1.504   0.931  -4.561  0.00  0.00    -0.080 A 
ATOM      5  C6  UNL d   1      -1.819  -0.437  -4.032  0.00  0.00     0.076 C 
ATOM      6  C7  UNL d   1      -0.470   1.099  -5.488  0.00  0.00     0.002 A 
ATOM      7  C8  UNL d   1      -0.148   2.371  -5.967  0.00  0.00     0.006 A 
ENDROOT
BRANCH   1   8
ATOM      8  C1  UNL d   1      -0.467   4.874  -6.000  0.00  0.00     0.054 C 
ATOM      9  C   UNL d   1      -1.659   5.820  -5.990  0.00  0.00     0.018 C 
ENDBRANCH   1   8
TORSDOF 1
ENDMDL
