MODEL 1
REMARK minimizedAffinity 5.21458101
REMARK minimizedRMSD -1
REMARK  1 active torsions:
REMARK  status: ('A' for Active; 'I' for Inactive)
REMARK    1  A    between atoms: C1_2  and  C2_3 
ROOT
ATOM      1  C2  UNL d   1      -1.706  -2.326   0.457  0.00  0.00    -0.081 A 
ATOM      2  C3  UNL d   1      -2.478  -2.063  -0.681  0.00  0.00     0.006 A 
ATOM      3  C4  UNL d   1      -3.103  -3.105  -1.370  0.00  0.00     0.002 A 
ATOM      4  C5  UNL d   1      -2.973  -4.426  -0.929  0.00  0.00    -0.080 A 
ATOM      5  C6  UNL d   1      -3.664  -5.550  -1.641  0.00  0.00     0.076 C 
ATOM      6  C7  UNL d   1      -2.187  -4.692   0.198  0.00  0.00     0.002 A 
ATOM      7  C8  UNL d   1      -1.561  -3.650   0.886  0.00  0.00     0.006 A 
ENDROOT
BRANCH   1   8
ATOM      8  C1  UNL d   1      -1.084  -1.198   1.239  0.00  0.00     0.054 C 
ATOM      9  C   UNL d   1       0.370  -0.986   0.842  0.00  0.00     0.018 C 
ENDBRANCH   1   8
TORSDOF 1
ENDMDL
