MODEL 1
REMARK minimizedAffinity -0.0181707684
REMARK minimizedRMSD -1
REMARK  1 active torsions:
REMARK  status: ('A' for Active; 'I' for Inactive)
REMARK    1  A    between atoms: C1_2  and  C2_3 
ROOT
ATOM      1  C2  UNL d   1       0.975   1.622   1.108  0.00  0.00    -0.081 A 
ATOM      2  C3  UNL d   1      -0.420   1.737   1.082  0.00  0.00     0.006 A 
ATOM      3  C4  UNL d   1      -1.181   0.941   0.223  0.00  0.00     0.002 A 
ATOM      4  C5  UNL d   1      -0.560   0.012  -0.619  0.00  0.00    -0.080 A 
ATOM      5  C6  UNL d   1      -1.367  -0.870  -1.524  0.00  0.00     0.076 C 
ATOM      6  C7  UNL d   1       0.835  -0.092  -0.605  0.00  0.00     0.002 A 
ATOM      7  C8  UNL d   1       1.596   0.704   0.254  0.00  0.00     0.006 A 
ENDROOT
BRANCH   1   8
ATOM      8  C1  UNL d   1       1.793   2.433   2.081  0.00  0.00     0.054 C 
ATOM      9  C   UNL d   1       3.175   2.739   1.520  0.00  0.00     0.018 C 
ENDBRANCH   1   8
TORSDOF 1
ENDMDL
