MODEL 1
REMARK minimizedAffinity -1.99419427
REMARK minimizedRMSD -1
REMARK  1 active torsions:
REMARK  status: ('A' for Active; 'I' for Inactive)
REMARK    1  A    between atoms: C1_2  and  C2_3 
ROOT
ATOM      1  C2  UNL d   1      -5.639   5.015  -3.885  0.00  0.00    -0.081 A 
ATOM      2  C3  UNL d   1      -5.864   5.771  -2.728  0.00  0.00     0.006 A 
ATOM      3  C4  UNL d   1      -5.994   5.145  -1.487  0.00  0.00     0.002 A 
ATOM      4  C5  UNL d   1      -5.892   3.754  -1.379  0.00  0.00    -0.080 A 
ATOM      5  C6  UNL d   1      -5.999   3.072  -0.048  0.00  0.00     0.076 C 
ATOM      6  C7  UNL d   1      -5.685   2.996  -2.537  0.00  0.00     0.002 A 
ATOM      7  C8  UNL d   1      -5.556   3.622  -3.779  0.00  0.00     0.006 A 
ENDROOT
BRANCH   1   8
ATOM      8  C1  UNL d   1      -5.434   5.692  -5.216  0.00  0.00     0.054 C 
ATOM      9  C   UNL d   1      -3.964   6.000  -5.460  0.00  0.00     0.018 C 
ENDBRANCH   1   8
TORSDOF 1
ENDMDL
