MODEL 1
REMARK minimizedAffinity 12.2272415
REMARK minimizedRMSD -1
REMARK  1 active torsions:
REMARK  status: ('A' for Active; 'I' for Inactive)
REMARK    1  A    between atoms: C1_2  and  C2_3 
ROOT
ATOM      1  C2  UNL d   1      -2.375  -1.679   1.387  0.00  0.00    -0.081 A 
ATOM      2  C3  UNL d   1      -2.918  -1.653   0.096  0.00  0.00     0.006 A 
ATOM      3  C4  UNL d   1      -2.992  -2.822  -0.664  0.00  0.00     0.002 A 
ATOM      4  C5  UNL d   1      -2.533  -4.037  -0.145  0.00  0.00    -0.080 A 
ATOM      5  C6  UNL d   1      -2.634  -5.305  -0.939  0.00  0.00     0.076 C 
ATOM      6  C7  UNL d   1      -1.974  -4.060   1.138  0.00  0.00     0.002 A 
ATOM      7  C8  UNL d   1      -1.899  -2.891   1.898  0.00  0.00     0.006 A 
ENDROOT
BRANCH   1   8
ATOM      8  C1  UNL d   1      -2.353  -0.432   2.234  0.00  0.00     0.054 C 
ATOM      9  C   UNL d   1      -3.004   0.739   1.512  0.00  0.00     0.018 C 
ENDBRANCH   1   8
TORSDOF 1
ENDMDL
