MODEL 1
REMARK minimizedAffinity 9.07975388
REMARK minimizedRMSD -1
REMARK  1 active torsions:
REMARK  status: ('A' for Active; 'I' for Inactive)
REMARK    1  A    between atoms: C1_2  and  C2_3 
ROOT
ATOM      1  C2  UNL d   1       4.681   5.366   2.371  0.00  0.00    -0.081 A 
ATOM      2  C3  UNL d   1       4.123   4.144   1.977  0.00  0.00     0.006 A 
ATOM      3  C4  UNL d   1       4.499   3.551   0.769  0.00  0.00     0.002 A 
ATOM      4  C5  UNL d   1       5.445   4.165  -0.059  0.00  0.00    -0.080 A 
ATOM      5  C6  UNL d   1       5.880   3.523  -1.343  0.00  0.00     0.076 C 
ATOM      6  C7  UNL d   1       5.989   5.394   0.327  0.00  0.00     0.002 A 
ATOM      7  C8  UNL d   1       5.613   5.988   1.533  0.00  0.00     0.006 A 
ENDROOT
BRANCH   1   8
ATOM      8  C1  UNL d   1       4.325   5.976   3.703  0.00  0.00     0.054 C 
ATOM      9  C   UNL d   1       2.939   5.544   4.157  0.00  0.00     0.018 C 
ENDBRANCH   1   8
TORSDOF 1
ENDMDL
