MODEL 1
REMARK minimizedAffinity 6.27545643
REMARK minimizedRMSD -1
REMARK  1 active torsions:
REMARK  status: ('A' for Active; 'I' for Inactive)
REMARK    1  A    between atoms: C1_2  and  C2_3 
ROOT
ATOM      1  C2  UNL d   1       2.399   3.246  -5.523  0.00  0.00    -0.081 A 
ATOM      2  C3  UNL d   1       1.113   3.776  -5.679  0.00  0.00     0.006 A 
ATOM      3  C4  UNL d   1      -0.002   3.084  -5.199  0.00  0.00     0.002 A 
ATOM      4  C5  UNL d   1       0.152   1.856  -4.548  0.00  0.00    -0.080 A 
ATOM      5  C6  UNL d   1      -1.034   1.117  -4.002  0.00  0.00     0.076 C 
ATOM      6  C7  UNL d   1       1.435   1.317  -4.407  0.00  0.00     0.002 A 
ATOM      7  C8  UNL d   1       2.550   2.008  -4.887  0.00  0.00     0.006 A 
ENDROOT
BRANCH   1   8
ATOM      8  C1  UNL d   1       3.608   4.020  -5.981  0.00  0.00     0.054 C 
ATOM      9  C   UNL d   1       4.863   3.160  -5.944  0.00  0.00     0.018 C 
ENDBRANCH   1   8
TORSDOF 1
ENDMDL
