MODEL 1
REMARK minimizedAffinity -2.37654138
REMARK minimizedRMSD -1
REMARK  1 active torsions:
REMARK  status: ('A' for Active; 'I' for Inactive)
REMARK    1  A    between atoms: C1_2  and  C2_3 
ROOT
ATOM      1  C2  UNL d   1      -2.738  -2.993  -0.029  0.00  0.00    -0.081 A 
ATOM      2  C3  UNL d   1      -3.060  -4.329   0.235  0.00  0.00     0.006 A 
ATOM      3  C4  UNL d   1      -3.123  -5.262  -0.803  0.00  0.00     0.002 A 
ATOM      4  C5  UNL d   1      -2.857  -4.875  -2.121  0.00  0.00    -0.080 A 
ATOM      5  C6  UNL d   1      -2.891  -5.872  -3.241  0.00  0.00     0.076 C 
ATOM      6  C7  UNL d   1      -2.552  -3.536  -2.388  0.00  0.00     0.002 A 
ATOM      7  C8  UNL d   1      -2.490  -2.603  -1.350  0.00  0.00     0.006 A 
ENDROOT
BRANCH   1   8
ATOM      8  C1  UNL d   1      -2.606  -1.999   1.096  0.00  0.00     0.054 C 
ATOM      9  C   UNL d   1      -1.604  -0.906   0.755  0.00  0.00     0.018 C 
ENDBRANCH   1   8
TORSDOF 1
ENDMDL
