MODEL 1
REMARK minimizedAffinity 12.9051704
REMARK minimizedRMSD -1
REMARK  1 active torsions:
REMARK  status: ('A' for Active; 'I' for Inactive)
REMARK    1  A    between atoms: C1_2  and  C2_3 
ROOT
ATOM      1  C2  UNL d   1       5.547   3.737  -0.786  0.00  0.00    -0.081 A 
ATOM      2  C3  UNL d   1       4.785   4.908  -0.687  0.00  0.00     0.006 A 
ATOM      3  C4  UNL d   1       4.482   5.453   0.563  0.00  0.00     0.002 A 
ATOM      4  C5  UNL d   1       4.941   4.841   1.734  0.00  0.00    -0.080 A 
ATOM      5  C6  UNL d   1       4.648   5.432   3.081  0.00  0.00     0.076 C 
ATOM      6  C7  UNL d   1       5.688   3.662   1.637  0.00  0.00     0.002 A 
ATOM      7  C8  UNL d   1       5.991   3.116   0.387  0.00  0.00     0.006 A 
ENDROOT
BRANCH   1   8
ATOM      8  C1  UNL d   1       5.931   3.183  -2.134  0.00  0.00     0.054 C 
ATOM      9  C   UNL d   1       4.813   2.333  -2.721  0.00  0.00     0.018 C 
ENDBRANCH   1   8
TORSDOF 1
ENDMDL
