MODEL 1
REMARK minimizedAffinity 20.0238476
REMARK minimizedRMSD -1
REMARK  1 active torsions:
REMARK  status: ('A' for Active; 'I' for Inactive)
REMARK    1  A    between atoms: C1_2  and  C2_3 
ROOT
ATOM      1  C2  UNL d   1      -2.894  -3.023   1.212  0.00  0.00    -0.081 A 
ATOM      2  C3  UNL d   1      -2.401  -4.334   1.211  0.00  0.00     0.006 A 
ATOM      3  C4  UNL d   1      -2.739  -5.217   0.182  0.00  0.00     0.002 A 
ATOM      4  C5  UNL d   1      -3.568  -4.803  -0.865  0.00  0.00    -0.080 A 
ATOM      5  C6  UNL d   1      -3.914  -5.731  -1.991  0.00  0.00     0.076 C 
ATOM      6  C7  UNL d   1      -4.075  -3.499  -0.855  0.00  0.00     0.002 A 
ATOM      7  C8  UNL d   1      -3.738  -2.616   0.173  0.00  0.00     0.006 A 
ENDROOT
BRANCH   1   8
ATOM      8  C1  UNL d   1      -2.479  -2.049   2.284  0.00  0.00     0.054 C 
ATOM      9  C   UNL d   1      -3.110  -0.682   2.064  0.00  0.00     0.018 C 
ENDBRANCH   1   8
TORSDOF 1
ENDMDL
