MODEL 1
REMARK minimizedAffinity 0.0923764259
REMARK minimizedRMSD -1
REMARK  1 active torsions:
REMARK  status: ('A' for Active; 'I' for Inactive)
REMARK    1  A    between atoms: C1_2  and  C2_3 
ROOT
ATOM      1  C2  UNL d   1      -5.690   4.407  -4.595  0.00  0.00    -0.081 A 
ATOM      2  C3  UNL d   1      -5.540   3.018  -4.685  0.00  0.00     0.006 A 
ATOM      3  C4  UNL d   1      -5.621   2.221  -3.540  0.00  0.00     0.002 A 
ATOM      4  C5  UNL d   1      -5.861   2.798  -2.289  0.00  0.00    -0.080 A 
ATOM      5  C6  UNL d   1      -5.980   1.951  -1.057  0.00  0.00     0.076 C 
ATOM      6  C7  UNL d   1      -5.993   4.188  -2.196  0.00  0.00     0.002 A 
ATOM      7  C8  UNL d   1      -5.912   4.985  -3.340  0.00  0.00     0.006 A 
ENDROOT
BRANCH   1   8
ATOM      8  C1  UNL d   1      -5.668   5.262  -5.835  0.00  0.00     0.054 C 
ATOM      9  C   UNL d   1      -4.328   5.966  -5.999  0.00  0.00     0.018 C 
ENDBRANCH   1   8
TORSDOF 1
ENDMDL
