MODEL 1
REMARK minimizedAffinity 2.06251931
REMARK minimizedRMSD -1
REMARK  1 active torsions:
REMARK  status: ('A' for Active; 'I' for Inactive)
REMARK    1  A    between atoms: N_2  and  C1_3 
ROOT
ATOM      1  C1  UNL d   1      -5.311   1.630  -4.642  0.00  0.00     0.143 A 
ATOM      2  C2  UNL d   1      -3.968   1.875  -4.334  0.00  0.00    -0.057 A 
ATOM      3  C3  UNL d   1      -3.309   3.013  -4.816  0.00  0.00     0.033 A 
ATOM      4  C4  UNL d   1      -3.975   3.912  -5.642  0.00  0.00    -0.042 A 
ATOM      5  C5  UNL d   1      -5.302   3.676  -5.981  0.00  0.00     0.033 A 
ATOM      6  C6  UNL d   1      -5.957   2.542  -5.491  0.00  0.00    -0.057 A 
ENDROOT
BRANCH   1   7
ATOM      7  N   UNL d   1      -5.993   0.468  -4.274  0.00  0.00    -0.732 N 
ATOM      8  C   UNL d   1      -5.769  -0.141  -2.981  0.00  0.00     0.284 C 
ATOM      9  H3  UNL d   1      -6.968   0.482  -4.564  0.00  0.00     0.395 HD
ENDBRANCH   1   7
TORSDOF 1
ENDMDL
