MODEL 1
REMARK minimizedAffinity 5.30660009
REMARK minimizedRMSD -1
REMARK  1 active torsions:
REMARK  status: ('A' for Active; 'I' for Inactive)
REMARK    1  A    between atoms: N_2  and  C1_3 
ROOT
ATOM      1  C1  UNL d   1       0.242   1.565  -0.946  0.00  0.00     0.143 A 
ATOM      2  C2  UNL d   1       0.285   2.730  -0.172  0.00  0.00    -0.057 A 
ATOM      3  C3  UNL d   1       0.177   2.679   1.223  0.00  0.00     0.033 A 
ATOM      4  C4  UNL d   1      -0.005   1.460   1.868  0.00  0.00    -0.042 A 
ATOM      5  C5  UNL d   1      -0.076   0.292   1.117  0.00  0.00     0.033 A 
ATOM      6  C6  UNL d   1       0.039   0.349  -0.275  0.00  0.00    -0.057 A 
ENDROOT
BRANCH   1   7
ATOM      7  N   UNL d   1       0.245   1.559  -2.343  0.00  0.00    -0.732 N 
ATOM      8  C   UNL d   1       1.184   0.737  -3.075  0.00  0.00     0.284 C 
ATOM      9  H3  UNL d   1      -0.695   1.564  -2.733  0.00  0.00     0.395 HD
ENDBRANCH   1   7
TORSDOF 1
ENDMDL
