MODEL 1
REMARK minimizedAffinity 6.3438015
REMARK minimizedRMSD -1
REMARK  1 active torsions:
REMARK  status: ('A' for Active; 'I' for Inactive)
REMARK    1  A    between atoms: N_2  and  C1_3 
ROOT
ATOM      1  C1  UNL d   1       0.377   1.162  -1.546  0.00  0.00     0.143 A 
ATOM      2  C2  UNL d   1       0.074   2.205  -0.664  0.00  0.00    -0.057 A 
ATOM      3  C3  UNL d   1      -0.017   1.986   0.715  0.00  0.00     0.033 A 
ATOM      4  C4  UNL d   1       0.164   0.710   1.237  0.00  0.00    -0.042 A 
ATOM      5  C5  UNL d   1       0.442  -0.347   0.377  0.00  0.00     0.033 A 
ATOM      6  C6  UNL d   1       0.539  -0.121  -1.000  0.00  0.00    -0.057 A 
ENDROOT
BRANCH   1   7
ATOM      7  N   UNL d   1       0.385   1.297  -2.937  0.00  0.00    -0.732 N 
ATOM      8  C   UNL d   1       1.200   0.426  -3.757  0.00  0.00     0.284 C 
ATOM      9  H3  UNL d   1      -0.542   1.476  -3.315  0.00  0.00     0.395 HD
ENDBRANCH   1   7
TORSDOF 1
ENDMDL
