MODEL 1
REMARK minimizedAffinity 5.34469509
REMARK minimizedRMSD -1
REMARK  1 active torsions:
REMARK  status: ('A' for Active; 'I' for Inactive)
REMARK    1  A    between atoms: N_2  and  C1_3 
ROOT
ATOM      1  C1  UNL d   1      -5.723   2.828  -5.148  0.00  0.00     0.143 A 
ATOM      2  C2  UNL d   1      -5.569   2.560  -3.784  0.00  0.00    -0.057 A 
ATOM      3  C3  UNL d   1      -5.599   1.248  -3.294  0.00  0.00     0.033 A 
ATOM      4  C4  UNL d   1      -5.813   0.181  -4.159  0.00  0.00    -0.042 A 
ATOM      5  C5  UNL d   1      -5.994   0.426  -5.516  0.00  0.00     0.033 A 
ATOM      6  C6  UNL d   1      -5.957   1.737  -6.000  0.00  0.00    -0.057 A 
ENDROOT
BRANCH   1   7
ATOM      7  N   UNL d   1      -5.802   4.116  -5.684  0.00  0.00    -0.732 N 
ATOM      8  C   UNL d   1      -4.600   4.857  -6.000  0.00  0.00     0.284 C 
ATOM      9  H3  UNL d   1      -6.539   4.203  -6.379  0.00  0.00     0.395 HD
ENDBRANCH   1   7
TORSDOF 1
ENDMDL
