MODEL 1
REMARK minimizedAffinity 9.15236664
REMARK minimizedRMSD -1
REMARK  1 active torsions:
REMARK  status: ('A' for Active; 'I' for Inactive)
REMARK    1  A    between atoms: N_2  and  C1_3 
ROOT
ATOM      1  C1  UNL d   1      -4.637   3.817  -5.081  0.00  0.00     0.143 A 
ATOM      2  C2  UNL d   1      -4.443   4.859  -5.994  0.00  0.00    -0.057 A 
ATOM      3  C3  UNL d   1      -3.296   5.661  -5.949  0.00  0.00     0.033 A 
ATOM      4  C4  UNL d   1      -2.333   5.452  -4.968  0.00  0.00    -0.042 A 
ATOM      5  C5  UNL d   1      -2.516   4.439  -4.034  0.00  0.00     0.033 A 
ATOM      6  C6  UNL d   1      -3.660   3.637  -4.088  0.00  0.00    -0.057 A 
ENDROOT
BRANCH   1   7
ATOM      7  N   UNL d   1      -5.801   3.048  -5.012  0.00  0.00    -0.732 N 
ATOM      8  C   UNL d   1      -5.999   1.929  -5.908  0.00  0.00     0.284 C 
ATOM      9  H3  UNL d   1      -6.094   2.871  -4.054  0.00  0.00     0.395 HD
ENDBRANCH   1   7
TORSDOF 1
ENDMDL
