MODEL 1
REMARK minimizedAffinity -0.00111648138
REMARK minimizedRMSD -1
REMARK  1 active torsions:
REMARK  status: ('A' for Active; 'I' for Inactive)
REMARK    1  A    between atoms: N_2  and  C1_3 
ROOT
ATOM      1  C1  UNL d   1      -3.883   3.386  -4.896  0.00  0.00     0.143 A 
ATOM      2  C2  UNL d   1      -3.758   2.213  -4.143  0.00  0.00    -0.057 A 
ATOM      3  C3  UNL d   1      -2.536   1.849  -3.565  0.00  0.00     0.033 A 
ATOM      4  C4  UNL d   1      -1.406   2.638  -3.756  0.00  0.00    -0.042 A 
ATOM      5  C5  UNL d   1      -1.502   3.795  -4.521  0.00  0.00     0.033 A 
ATOM      6  C6  UNL d   1      -2.727   4.157  -5.090  0.00  0.00    -0.057 A 
ENDROOT
BRANCH   1   7
ATOM      7  N   UNL d   1      -5.047   3.752  -5.577  0.00  0.00    -0.732 N 
ATOM      8  C   UNL d   1      -6.000   2.748  -6.000  0.00  0.00     0.284 C 
ATOM      9  H3  UNL d   1      -5.471   4.594  -5.196  0.00  0.00     0.395 HD
ENDBRANCH   1   7
TORSDOF 1
ENDMDL
