MODEL 1
REMARK minimizedAffinity -3.44343734
REMARK minimizedRMSD -1
REMARK  0 active torsions:
REMARK  status: ('A' for Active; 'I' for Inactive)
ROOT
ATOM      1  C   UNL d   1      -0.567  -0.798   0.427  0.00  0.00     0.020 A 
ATOM      2  C1  UNL d   1      -1.443   0.278   0.567  0.00  0.00     0.020 A 
ATOM      3  C2  UNL d   1      -0.940   1.572   0.717  0.00  0.00     0.034 A 
ATOM      4  C3  UNL d   1       0.442   1.794   0.726  0.00  0.00     0.017 A 
ATOM      5  C4  UNL d   1       1.320   0.714   0.585  0.00  0.00     0.017 A 
ATOM      6  C5  UNL d   1       0.812  -0.580   0.436  0.00  0.00     0.034 A 
ATOM      7 Cl   UNL d   1       3.037   0.909   0.587  0.00  0.00    -0.070 Cl
ATOM      8 Cl1  UNL d   1       0.993   3.421   0.914  0.00  0.00    -0.070 Cl
ENDROOT
TORSDOF 0
ENDMDL
