MODEL 1
REMARK minimizedAffinity -3.24648905
REMARK minimizedRMSD -1
REMARK  0 active torsions:
REMARK  status: ('A' for Active; 'I' for Inactive)
ROOT
ATOM      1  C   UNL d   1       2.597   1.532   0.995  0.00  0.00     0.020 A 
ATOM      2  C1  UNL d   1       1.851   2.688   1.220  0.00  0.00     0.020 A 
ATOM      3  C2  UNL d   1       0.493   2.716   0.896  0.00  0.00     0.034 A 
ATOM      4  C3  UNL d   1      -0.123   1.587   0.346  0.00  0.00     0.017 A 
ATOM      5  C4  UNL d   1       0.627   0.427   0.120  0.00  0.00     0.017 A 
ATOM      6  C5  UNL d   1       1.986   0.403   0.447  0.00  0.00     0.034 A 
ATOM      7 Cl   UNL d   1      -0.064  -1.007  -0.555  0.00  0.00    -0.070 Cl
ATOM      8 Cl1  UNL d   1      -1.806   1.693  -0.030  0.00  0.00    -0.070 Cl
ENDROOT
TORSDOF 0
ENDMDL
