MODEL 1
REMARK minimizedAffinity -2.3299017
REMARK minimizedRMSD -1
REMARK  0 active torsions:
REMARK  status: ('A' for Active; 'I' for Inactive)
ROOT
ATOM      1  C   UNL d   1      -0.228   2.861   0.817  0.00  0.00     0.020 A 
ATOM      2  C1  UNL d   1      -1.341   2.077   0.514  0.00  0.00     0.020 A 
ATOM      3  C2  UNL d   1      -1.181   0.723   0.214  0.00  0.00     0.034 A 
ATOM      4  C3  UNL d   1       0.095   0.148   0.216  0.00  0.00     0.017 A 
ATOM      5  C4  UNL d   1       1.212   0.935   0.520  0.00  0.00     0.017 A 
ATOM      6  C5  UNL d   1       1.045   2.290   0.820  0.00  0.00     0.034 A 
ATOM      7 Cl   UNL d   1       2.818   0.296   0.542  0.00  0.00    -0.070 Cl
ATOM      8 Cl1  UNL d   1       0.219  -1.533  -0.165  0.00  0.00    -0.070 Cl
ENDROOT
TORSDOF 0
ENDMDL
