MODEL 1
REMARK minimizedAffinity -0.923136055
REMARK minimizedRMSD -1
REMARK  0 active torsions:
REMARK  status: ('A' for Active; 'I' for Inactive)
ROOT
ATOM      1  C   UNL d   1      -0.862  -2.395  -1.885  0.00  0.00     0.020 A 
ATOM      2  C1  UNL d   1      -1.618  -1.273  -2.223  0.00  0.00     0.020 A 
ATOM      3  C2  UNL d   1      -1.485  -0.094  -1.487  0.00  0.00     0.034 A 
ATOM      4  C3  UNL d   1      -0.595  -0.034  -0.409  0.00  0.00     0.017 A 
ATOM      5  C4  UNL d   1       0.163  -1.160  -0.070  0.00  0.00     0.017 A 
ATOM      6  C5  UNL d   1       0.027  -2.338  -0.810  0.00  0.00     0.034 A 
ATOM      7 Cl   UNL d   1       1.282  -1.162   1.247  0.00  0.00    -0.070 Cl
ATOM      8 Cl1  UNL d   1      -0.481   1.457   0.457  0.00  0.00    -0.070 Cl
ENDROOT
TORSDOF 0
ENDMDL
