MODEL 1
REMARK minimizedAffinity -4.27953005
REMARK minimizedRMSD -1
REMARK  0 active torsions:
REMARK  status: ('A' for Active; 'I' for Inactive)
ROOT
ATOM      1  C   UNL d   1      -1.037   2.138   0.213  0.00  0.00     0.020 A 
ATOM      2  C1  UNL d   1      -1.723   1.739  -0.933  0.00  0.00     0.020 A 
ATOM      3  C2  UNL d   1      -1.427   0.513  -1.533  0.00  0.00     0.034 A 
ATOM      4  C3  UNL d   1      -0.442  -0.318  -0.987  0.00  0.00     0.017 A 
ATOM      5  C4  UNL d   1       0.245   0.083   0.165  0.00  0.00     0.017 A 
ATOM      6  C5  UNL d   1      -0.055   1.312   0.761  0.00  0.00     0.034 A 
ATOM      7 Cl   UNL d   1       1.473  -0.889   0.897  0.00  0.00    -0.070 Cl
ATOM      8 Cl1  UNL d   1      -0.128  -1.820  -1.780  0.00  0.00    -0.070 Cl
ENDROOT
TORSDOF 0
ENDMDL
