MODEL 1
REMARK minimizedAffinity -2.04231668
REMARK minimizedRMSD -1
REMARK  0 active torsions:
REMARK  status: ('A' for Active; 'I' for Inactive)
ROOT
ATOM      1  C   UNL d   1      -1.702  -2.648  -1.925  0.00  0.00     0.020 A 
ATOM      2  C1  UNL d   1      -0.900  -3.759  -1.667  0.00  0.00     0.020 A 
ATOM      3  C2  UNL d   1       0.147  -3.666  -0.748  0.00  0.00     0.034 A 
ATOM      4  C3  UNL d   1       0.396  -2.459  -0.084  0.00  0.00     0.017 A 
ATOM      5  C4  UNL d   1      -0.410  -1.345  -0.344  0.00  0.00     0.017 A 
ATOM      6  C5  UNL d   1      -1.458  -1.444  -1.265  0.00  0.00     0.034 A 
ATOM      7 Cl   UNL d   1      -0.166   0.178   0.437  0.00  0.00    -0.070 Cl
ATOM      8 Cl1  UNL d   1       1.708  -2.415   1.039  0.00  0.00    -0.070 Cl
ENDROOT
TORSDOF 0
ENDMDL
