MODEL 1
REMARK minimizedAffinity -3.21193218
REMARK minimizedRMSD -1
REMARK  0 active torsions:
REMARK  status: ('A' for Active; 'I' for Inactive)
ROOT
ATOM      1  C   UNL d   1      -1.136   2.258   0.352  0.00  0.00     0.020 A 
ATOM      2  C1  UNL d   1      -1.582   0.948   0.185  0.00  0.00     0.020 A 
ATOM      3  C2  UNL d   1      -0.673  -0.111   0.242  0.00  0.00     0.034 A 
ATOM      4  C3  UNL d   1       0.686   0.138   0.468  0.00  0.00     0.017 A 
ATOM      5  C4  UNL d   1       1.132   1.454   0.636  0.00  0.00     0.017 A 
ATOM      6  C5  UNL d   1       0.218   2.511   0.578  0.00  0.00     0.034 A 
ATOM      7 Cl   UNL d   1       2.792   1.841   0.919  0.00  0.00    -0.070 Cl
ATOM      8 Cl1  UNL d   1       1.753  -1.219   0.527  0.00  0.00    -0.070 Cl
ENDROOT
TORSDOF 0
ENDMDL
