MODEL 1
REMARK minimizedAffinity -2.15572858
REMARK minimizedRMSD -1
REMARK  0 active torsions:
REMARK  status: ('A' for Active; 'I' for Inactive)
ROOT
ATOM      1  C   UNL d   1      -0.851   2.672   0.587  0.00  0.00     0.020 A 
ATOM      2  C1  UNL d   1      -1.872   1.807   0.194  0.00  0.00     0.020 A 
ATOM      3  C2  UNL d   1      -1.580   0.476  -0.112  0.00  0.00     0.034 A 
ATOM      4  C3  UNL d   1      -0.264   0.006  -0.024  0.00  0.00     0.017 A 
ATOM      5  C4  UNL d   1       0.759   0.875   0.370  0.00  0.00     0.017 A 
ATOM      6  C5  UNL d   1       0.461   2.207   0.675  0.00  0.00     0.034 A 
ATOM      7 Cl   UNL d   1       2.407   0.369   0.501  0.00  0.00    -0.070 Cl
ATOM      8 Cl1  UNL d   1       0.025  -1.652  -0.416  0.00  0.00    -0.070 Cl
ENDROOT
TORSDOF 0
ENDMDL
