MODEL 1
REMARK minimizedAffinity -1.55871284
REMARK minimizedRMSD -1
REMARK  0 active torsions:
REMARK  status: ('A' for Active; 'I' for Inactive)
ROOT
ATOM      1  C   UNL d   1      -0.234  -2.103  -0.371  0.00  0.00     0.020 A 
ATOM      2  C1  UNL d   1      -0.075  -1.125  -1.351  0.00  0.00     0.020 A 
ATOM      3  C2  UNL d   1      -0.274   0.220  -1.034  0.00  0.00     0.034 A 
ATOM      4  C3  UNL d   1      -0.634   0.591   0.267  0.00  0.00     0.017 A 
ATOM      5  C4  UNL d   1      -0.793  -0.392   1.251  0.00  0.00     0.017 A 
ATOM      6  C5  UNL d   1      -0.592  -1.738   0.927  0.00  0.00     0.034 A 
ATOM      7 Cl   UNL d   1      -1.235  -0.012   2.878  0.00  0.00    -0.070 Cl
ATOM      8 Cl1  UNL d   1      -0.864   2.273   0.589  0.00  0.00    -0.070 Cl
ENDROOT
TORSDOF 0
ENDMDL
