MODEL 1
REMARK minimizedAffinity -1.35299873
REMARK minimizedRMSD -1
REMARK  0 active torsions:
REMARK  status: ('A' for Active; 'I' for Inactive)
ROOT
ATOM      1  C   UNL d   1      -1.013  -1.829  -1.324  0.00  0.00     0.020 A 
ATOM      2  C1  UNL d   1      -2.153  -1.037  -1.194  0.00  0.00     0.020 A 
ATOM      3  C2  UNL d   1      -2.075   0.201  -0.553  0.00  0.00     0.034 A 
ATOM      4  C3  UNL d   1      -0.853   0.650  -0.038  0.00  0.00     0.017 A 
ATOM      5  C4  UNL d   1       0.291  -0.145  -0.168  0.00  0.00     0.017 A 
ATOM      6  C5  UNL d   1       0.206  -1.384  -0.812  0.00  0.00     0.034 A 
ATOM      7 Cl   UNL d   1       1.833   0.342   0.441  0.00  0.00    -0.070 Cl
ATOM      8 Cl1  UNL d   1      -0.829   2.191   0.743  0.00  0.00    -0.070 Cl
ENDROOT
TORSDOF 0
ENDMDL
