MODEL 1
REMARK minimizedAffinity -3.57368588
REMARK minimizedRMSD -1
REMARK  0 active torsions:
REMARK  status: ('A' for Active; 'I' for Inactive)
ROOT
ATOM      1  C   UNL d   1      -2.206   1.199   0.384  0.00  0.00     0.020 A 
ATOM      2  C1  UNL d   1      -1.537   2.422   0.397  0.00  0.00     0.020 A 
ATOM      3  C2  UNL d   1      -0.145   2.455   0.504  0.00  0.00     0.034 A 
ATOM      4  C3  UNL d   1       0.582   1.263   0.598  0.00  0.00     0.017 A 
ATOM      5  C4  UNL d   1      -0.091   0.036   0.585  0.00  0.00     0.017 A 
ATOM      6  C5  UNL d   1      -1.485   0.008   0.478  0.00  0.00     0.034 A 
ATOM      7 Cl   UNL d   1       0.738  -1.477   0.697  0.00  0.00    -0.070 Cl
ATOM      8 Cl1  UNL d   1       2.301   1.378   0.727  0.00  0.00    -0.070 Cl
ENDROOT
TORSDOF 0
ENDMDL
