MODEL 1
REMARK minimizedAffinity -2.60871744
REMARK minimizedRMSD -1
REMARK  0 active torsions:
REMARK  status: ('A' for Active; 'I' for Inactive)
ROOT
ATOM      1  C   UNL d   1      -1.028   0.974   0.093  0.00  0.00     0.020 A 
ATOM      2  C1  UNL d   1      -1.453   0.697  -1.206  0.00  0.00     0.020 A 
ATOM      3  C2  UNL d   1      -1.111  -0.516  -1.808  0.00  0.00     0.034 A 
ATOM      4  C3  UNL d   1      -0.342  -1.455  -1.112  0.00  0.00     0.017 A 
ATOM      5  C4  UNL d   1       0.084  -1.176   0.192  0.00  0.00     0.017 A 
ATOM      6  C5  UNL d   1      -0.261   0.040   0.790  0.00  0.00     0.034 A 
ATOM      7 Cl   UNL d   1       1.036  -2.285   1.114  0.00  0.00    -0.070 Cl
ATOM      8 Cl1  UNL d   1       0.044  -2.934  -1.918  0.00  0.00    -0.070 Cl
ENDROOT
TORSDOF 0
ENDMDL
