MODEL 1
REMARK minimizedAffinity -3.49153876
REMARK minimizedRMSD -1
REMARK  0 active torsions:
REMARK  status: ('A' for Active; 'I' for Inactive)
ROOT
ATOM      1  C   UNL d   1      -0.604  -3.437  -2.671  0.00  0.00     0.020 A 
ATOM      2  C1  UNL d   1      -0.026  -3.867  -1.477  0.00  0.00     0.020 A 
ATOM      3  C2  UNL d   1       0.084  -2.988  -0.398  0.00  0.00     0.034 A 
ATOM      4  C3  UNL d   1      -0.384  -1.674  -0.510  0.00  0.00     0.017 A 
ATOM      5  C4  UNL d   1      -0.965  -1.243  -1.708  0.00  0.00     0.017 A 
ATOM      6  C5  UNL d   1      -1.072  -2.127  -2.786  0.00  0.00     0.034 A 
ATOM      7 Cl   UNL d   1      -1.566   0.363  -1.921  0.00  0.00    -0.070 Cl
ATOM      8 Cl1  UNL d   1      -0.216  -0.642   0.866  0.00  0.00    -0.070 Cl
ENDROOT
TORSDOF 0
ENDMDL
