MODEL 1
REMARK minimizedAffinity 0.119236507
REMARK minimizedRMSD -1
REMARK  0 active torsions:
REMARK  status: ('A' for Active; 'I' for Inactive)
ROOT
ATOM      1  C   UNL d   1      -1.682   1.094  -0.337  0.00  0.00     0.020 A 
ATOM      2  C1  UNL d   1      -0.763   1.546   0.610  0.00  0.00     0.020 A 
ATOM      3  C2  UNL d   1       0.255   0.700   1.054  0.00  0.00     0.034 A 
ATOM      4  C3  UNL d   1       0.358  -0.602   0.551  0.00  0.00     0.017 A 
ATOM      5  C4  UNL d   1      -0.565  -1.055  -0.399  0.00  0.00     0.017 A 
ATOM      6  C5  UNL d   1      -1.583  -0.203  -0.840  0.00  0.00     0.034 A 
ATOM      7 Cl   UNL d   1      -0.503  -2.648  -1.066  0.00  0.00    -0.070 Cl
ATOM      8 Cl1  UNL d   1       1.642  -1.594   1.144  0.00  0.00    -0.070 Cl
ENDROOT
TORSDOF 0
ENDMDL
