MODEL 1
REMARK minimizedAffinity -0.851981938
REMARK minimizedRMSD -1
REMARK  0 active torsions:
REMARK  status: ('A' for Active; 'I' for Inactive)
ROOT
ATOM      1  C   UNL d   1      -0.187  -0.189  -1.043  0.00  0.00     0.020 A 
ATOM      2  C1  UNL d   1       0.051  -0.563   0.279  0.00  0.00     0.020 A 
ATOM      3  C2  UNL d   1      -0.101  -1.896   0.666  0.00  0.00     0.034 A 
ATOM      4  C3  UNL d   1      -0.492  -2.860  -0.271  0.00  0.00     0.017 A 
ATOM      5  C4  UNL d   1      -0.731  -2.484  -1.597  0.00  0.00     0.017 A 
ATOM      6  C5  UNL d   1      -0.577  -1.147  -1.979  0.00  0.00     0.034 A 
ATOM      7 Cl   UNL d   1      -1.216  -3.616  -2.809  0.00  0.00    -0.070 Cl
ATOM      8 Cl1  UNL d   1      -0.660  -4.490   0.277  0.00  0.00    -0.070 Cl
ENDROOT
TORSDOF 0
ENDMDL
