MODEL 1
REMARK minimizedAffinity -1.78187406
REMARK minimizedRMSD -1
REMARK  0 active torsions:
REMARK  status: ('A' for Active; 'I' for Inactive)
ROOT
ATOM      1  C   UNL d   1      -0.320  -1.574  -1.003  0.00  0.00     0.020 A 
ATOM      2  C1  UNL d   1       0.711  -0.641  -1.112  0.00  0.00     0.020 A 
ATOM      3  C2  UNL d   1       0.574   0.622  -0.532  0.00  0.00     0.034 A 
ATOM      4  C3  UNL d   1      -0.596   0.956   0.159  0.00  0.00     0.017 A 
ATOM      5  C4  UNL d   1      -1.630   0.019   0.268  0.00  0.00     0.017 A 
ATOM      6  C5  UNL d   1      -1.488  -1.244  -0.315  0.00  0.00     0.034 A 
ATOM      7 Cl   UNL d   1      -3.104   0.358   1.105  0.00  0.00    -0.070 Cl
ATOM      8 Cl1  UNL d   1      -0.697   2.536   0.851  0.00  0.00    -0.070 Cl
ENDROOT
TORSDOF 0
ENDMDL
