MODEL 1
REMARK minimizedAffinity -2.29205322
REMARK minimizedRMSD -1
REMARK  0 active torsions:
REMARK  status: ('A' for Active; 'I' for Inactive)
ROOT
ATOM      1  C   UNL d   1      -0.701   2.231   0.608  0.00  0.00     0.020 A 
ATOM      2  C1  UNL d   1      -1.653   1.737  -0.283  0.00  0.00     0.020 A 
ATOM      3  C2  UNL d   1      -1.467   0.491  -0.884  0.00  0.00     0.034 A 
ATOM      4  C3  UNL d   1      -0.326  -0.267  -0.595  0.00  0.00     0.017 A 
ATOM      5  C4  UNL d   1       0.629   0.230   0.299  0.00  0.00     0.017 A 
ATOM      6  C5  UNL d   1       0.437   1.478   0.898  0.00  0.00     0.034 A 
ATOM      7 Cl   UNL d   1       2.062  -0.647   0.705  0.00  0.00    -0.070 Cl
ATOM      8 Cl1  UNL d   1      -0.161  -1.800  -1.375  0.00  0.00    -0.070 Cl
ENDROOT
TORSDOF 0
ENDMDL
