MODEL 1
REMARK minimizedAffinity 1.712116
REMARK minimizedRMSD -1
REMARK  1 active torsions:
REMARK  status: ('A' for Active; 'I' for Inactive)
REMARK    1  A    between atoms: C1_2  and  C2_3 
ROOT
ATOM      1  C2  UNL d   1       0.257  -1.174  -0.837  0.00  0.00    -0.076 A 
ATOM      2  C3  UNL d   1       1.601  -1.567  -0.957  0.00  0.00     0.004 A 
ATOM      3  C4  UNL d   1       2.595  -0.971  -0.182  0.00  0.00    -0.003 A 
ATOM      4  C5  UNL d   1       2.260   0.028   0.726  0.00  0.00     0.000 A 
ATOM      5  C6  UNL d   1       0.929   0.418   0.871  0.00  0.00     0.000 A 
ATOM      6  C7  UNL d   1      -0.087  -0.185   0.109  0.00  0.00    -0.073 A 
ATOM      7  C8  UNL d   1      -1.505   0.279   0.302  0.00  0.00     0.078 C 
ENDROOT
BRANCH   1   8
ATOM      8  C1  UNL d   1      -0.774  -1.838  -1.722  0.00  0.00     0.053 C 
ATOM      9  C   UNL d   1      -0.954  -1.115  -3.048  0.00  0.00     0.018 C 
ENDBRANCH   1   8
TORSDOF 1
ENDMDL
