MODEL 1
REMARK minimizedAffinity -1.20459509
REMARK minimizedRMSD -1
REMARK  1 active torsions:
REMARK  status: ('A' for Active; 'I' for Inactive)
REMARK    1  A    between atoms: C1_2  and  C2_3 
ROOT
ATOM      1  C2  UNL d   1       0.289  -1.379  -0.902  0.00  0.00    -0.076 A 
ATOM      2  C3  UNL d   1       1.553  -1.985  -1.007  0.00  0.00     0.004 A 
ATOM      3  C4  UNL d   1       2.539  -1.759  -0.048  0.00  0.00    -0.003 A 
ATOM      4  C5  UNL d   1       2.276  -0.923   1.032  0.00  0.00     0.000 A 
ATOM      5  C6  UNL d   1       1.022  -0.328   1.161  0.00  0.00     0.000 A 
ATOM      6  C7  UNL d   1       0.012  -0.559   0.212  0.00  0.00    -0.073 A 
ATOM      7  C8  UNL d   1      -1.321   0.114   0.397  0.00  0.00     0.078 C 
ENDROOT
BRANCH   1   8
ATOM      8  C1  UNL d   1      -0.731  -1.640  -1.987  0.00  0.00     0.053 C 
ATOM      9  C   UNL d   1      -1.107  -0.379  -2.749  0.00  0.00     0.018 C 
ENDBRANCH   1   8
TORSDOF 1
ENDMDL
