MODEL 1
REMARK minimizedAffinity 3.93969727
REMARK minimizedRMSD -1
REMARK  1 active torsions:
REMARK  status: ('A' for Active; 'I' for Inactive)
REMARK    1  A    between atoms: C1_2  and  C2_3 
ROOT
ATOM      1  C2  UNL d   1      -1.034  -0.154  -1.989  0.00  0.00    -0.076 A 
ATOM      2  C3  UNL d   1      -0.544  -1.472  -1.992  0.00  0.00     0.004 A 
ATOM      3  C4  UNL d   1      -0.720  -2.300  -3.099  0.00  0.00    -0.003 A 
ATOM      4  C5  UNL d   1      -1.387  -1.824  -4.222  0.00  0.00     0.000 A 
ATOM      5  C6  UNL d   1      -1.864  -0.513  -4.244  0.00  0.00     0.000 A 
ATOM      6  C7  UNL d   1      -1.681   0.340  -3.142  0.00  0.00    -0.073 A 
ATOM      7  C8  UNL d   1      -2.221   1.742  -3.217  0.00  0.00     0.078 C 
ENDROOT
BRANCH   1   8
ATOM      8  C1  UNL d   1      -0.838   0.689  -0.749  0.00  0.00     0.053 C 
ATOM      9  C   UNL d   1       0.401   0.289   0.038  0.00  0.00     0.018 C 
ENDBRANCH   1   8
TORSDOF 1
ENDMDL
