MODEL 1
REMARK minimizedAffinity 0.651557505
REMARK minimizedRMSD -1
REMARK  1 active torsions:
REMARK  status: ('A' for Active; 'I' for Inactive)
REMARK    1  A    between atoms: C1_2  and  C2_3 
ROOT
ATOM      1  C2  UNL d   1       1.663  -0.720  -0.261  0.00  0.00    -0.076 A 
ATOM      2  C3  UNL d   1       0.551  -1.145  -1.008  0.00  0.00     0.004 A 
ATOM      3  C4  UNL d   1      -0.701  -0.558  -0.830  0.00  0.00    -0.003 A 
ATOM      4  C5  UNL d   1      -0.860   0.466   0.098  0.00  0.00     0.000 A 
ATOM      5  C6  UNL d   1       0.236   0.913   0.835  0.00  0.00     0.000 A 
ATOM      6  C7  UNL d   1       1.507   0.342   0.656  0.00  0.00    -0.073 A 
ATOM      7  C8  UNL d   1       2.653   0.859   1.483  0.00  0.00     0.078 C 
ENDROOT
BRANCH   1   8
ATOM      8  C1  UNL d   1       2.989  -1.412  -0.477  0.00  0.00     0.053 C 
ATOM      9  C   UNL d   1       3.119  -1.999  -1.875  0.00  0.00     0.018 C 
ENDBRANCH   1   8
TORSDOF 1
ENDMDL
