MODEL 1
REMARK minimizedAffinity -2.74426222
REMARK minimizedRMSD -1
REMARK  1 active torsions:
REMARK  status: ('A' for Active; 'I' for Inactive)
REMARK    1  A    between atoms: C1_2  and  C2_3 
ROOT
ATOM      1  C2  UNL d   1       0.209   0.027   1.160  0.00  0.00    -0.076 A 
ATOM      2  C3  UNL d   1       1.175  -0.190   2.157  0.00  0.00     0.004 A 
ATOM      3  C4  UNL d   1       2.395   0.484   2.132  0.00  0.00    -0.003 A 
ATOM      4  C5  UNL d   1       2.668   1.386   1.110  0.00  0.00     0.000 A 
ATOM      5  C6  UNL d   1       1.714   1.626   0.122  0.00  0.00     0.000 A 
ATOM      6  C7  UNL d   1       0.472   0.968   0.141  0.00  0.00    -0.073 A 
ATOM      7  C8  UNL d   1      -0.518   1.260  -0.952  0.00  0.00     0.078 C 
ENDROOT
BRANCH   1   8
ATOM      8  C1  UNL d   1      -1.085  -0.753   1.224  0.00  0.00     0.053 C 
ATOM      9  C   UNL d   1      -2.245   0.084   1.742  0.00  0.00     0.018 C 
ENDBRANCH   1   8
TORSDOF 1
ENDMDL
