MODEL 1
REMARK minimizedAffinity 2.36893296
REMARK minimizedRMSD -1
REMARK  0 active torsions:
REMARK  status: ('A' for Active; 'I' for Inactive)
ROOT
ATOM      1  C   UNL d   1      -4.151  -2.508   0.284  0.00  0.00     0.172 C 
ATOM      2  N   UNL d   1      -2.797  -2.997   0.168  0.00  0.00    -0.070 N 
ATOM      3  C1  UNL d   1      -1.803  -2.427  -0.582  0.00  0.00    -0.004 A 
ATOM      4  C2  UNL d   1      -0.666  -3.191  -0.426  0.00  0.00    -0.047 A 
ATOM      5  C3  UNL d   1      -0.988  -4.257   0.447  0.00  0.00    -0.047 A 
ATOM      6  C4  UNL d   1      -2.314  -4.113   0.799  0.00  0.00    -0.004 A 
ENDROOT
TORSDOF 0
ENDMDL
