MODEL 1
REMARK minimizedAffinity -0.625137031
REMARK minimizedRMSD -1
REMARK  0 active torsions:
REMARK  status: ('A' for Active; 'I' for Inactive)
ROOT
ATOM      1  C   UNL d   1      -5.994   1.493   0.516  0.00  0.00     0.172 C 
ATOM      2  N   UNL d   1      -5.996   0.753   1.757  0.00  0.00    -0.070 N 
ATOM      3  C1  UNL d   1      -5.995  -0.611   1.873  0.00  0.00    -0.004 A 
ATOM      4  C2  UNL d   1      -5.997  -0.920   3.216  0.00  0.00    -0.047 A 
ATOM      5  C3  UNL d   1      -6.000   0.300   3.932  0.00  0.00    -0.047 A 
ATOM      6  C4  UNL d   1      -5.999   1.321   3.004  0.00  0.00    -0.004 A 
ENDROOT
TORSDOF 0
ENDMDL
