MODEL 1
REMARK minimizedAffinity 3.29066491
REMARK minimizedRMSD -1
REMARK  0 active torsions:
REMARK  status: ('A' for Active; 'I' for Inactive)
ROOT
ATOM      1  C   UNL d   1      -3.157  -2.669   0.145  0.00  0.00     0.172 C 
ATOM      2  N   UNL d   1      -1.969  -3.490   0.143  0.00  0.00    -0.070 N 
ATOM      3  C1  UNL d   1      -1.817  -4.675   0.812  0.00  0.00    -0.004 A 
ATOM      4  C2  UNL d   1      -0.547  -5.144   0.555  0.00  0.00    -0.047 A 
ATOM      5  C3  UNL d   1       0.086  -4.208  -0.296  0.00  0.00    -0.047 A 
ATOM      6  C4  UNL d   1      -0.817  -3.194  -0.536  0.00  0.00    -0.004 A 
ENDROOT
TORSDOF 0
ENDMDL
