MODEL 1
REMARK minimizedAffinity 4.77953577
REMARK minimizedRMSD -1
REMARK  0 active torsions:
REMARK  status: ('A' for Active; 'I' for Inactive)
ROOT
ATOM      1  C   UNL d   1       0.456  -5.265   0.435  0.00  0.00     0.172 C 
ATOM      2  N   UNL d   1      -0.665  -4.356   0.473  0.00  0.00    -0.070 N 
ATOM      3  C1  UNL d   1      -1.257  -3.773  -0.615  0.00  0.00    -0.004 A 
ATOM      4  C2  UNL d   1      -2.287  -2.978  -0.160  0.00  0.00    -0.047 A 
ATOM      5  C3  UNL d   1      -2.314  -3.087   1.251  0.00  0.00    -0.047 A 
ATOM      6  C4  UNL d   1      -1.300  -3.946   1.616  0.00  0.00    -0.004 A 
ENDROOT
TORSDOF 0
ENDMDL
