MODEL 1
REMARK minimizedAffinity 4.11850357
REMARK minimizedRMSD -1
REMARK  0 active torsions:
REMARK  status: ('A' for Active; 'I' for Inactive)
ROOT
ATOM      1  C   UNL d   1       0.944  -1.928   5.266  0.00  0.00     0.172 C 
ATOM      2  N   UNL d   1       2.091  -2.030   4.395  0.00  0.00    -0.070 N 
ATOM      3  C1  UNL d   1       2.180  -1.518   3.128  0.00  0.00    -0.004 A 
ATOM      4  C2  UNL d   1       3.430  -1.825   2.635  0.00  0.00    -0.047 A 
ATOM      5  C3  UNL d   1       4.115  -2.548   3.640  0.00  0.00    -0.047 A 
ATOM      6  C4  UNL d   1       3.264  -2.660   4.719  0.00  0.00    -0.004 A 
ENDROOT
TORSDOF 0
ENDMDL
