MODEL 1
REMARK minimizedAffinity -3.25160885
REMARK minimizedRMSD -1
REMARK  0 active torsions:
REMARK  status: ('A' for Active; 'I' for Inactive)
ROOT
ATOM      1  C   UNL d   1       0.239   0.164  -0.989  0.00  0.00     0.172 C 
ATOM      2  N   UNL d   1      -0.215  -1.044  -0.340  0.00  0.00    -0.070 N 
ATOM      3  C1  UNL d   1       0.487  -1.763   0.590  0.00  0.00    -0.004 A 
ATOM      4  C2  UNL d   1      -0.288  -2.840   0.963  0.00  0.00    -0.047 A 
ATOM      5  C3  UNL d   1      -1.497  -2.766   0.232  0.00  0.00    -0.047 A 
ATOM      6  C4  UNL d   1      -1.426  -1.644  -0.567  0.00  0.00    -0.004 A 
ENDROOT
TORSDOF 0
ENDMDL
