MODEL 1
REMARK minimizedAffinity -1.04151225
REMARK minimizedRMSD -1
REMARK  0 active torsions:
REMARK  status: ('A' for Active; 'I' for Inactive)
ROOT
ATOM      1  C   UNL d   1       0.039  -4.489  -0.253  0.00  0.00     0.172 C 
ATOM      2  N   UNL d   1      -1.022  -3.577   0.105  0.00  0.00    -0.070 N 
ATOM      3  C1  UNL d   1      -2.190  -3.399  -0.588  0.00  0.00    -0.004 A 
ATOM      4  C2  UNL d   1      -2.933  -2.447   0.076  0.00  0.00    -0.047 A 
ATOM      5  C3  UNL d   1      -2.186  -2.039   1.207  0.00  0.00    -0.047 A 
ATOM      6  C4  UNL d   1      -1.007  -2.754   1.200  0.00  0.00    -0.004 A 
ENDROOT
TORSDOF 0
ENDMDL
