MODEL 1
REMARK minimizedAffinity 10.1355333
REMARK minimizedRMSD -1
REMARK  0 active torsions:
REMARK  status: ('A' for Active; 'I' for Inactive)
ROOT
ATOM      1  C   UNL d   1       1.436  -5.034   0.444  0.00  0.00     0.172 C 
ATOM      2  N   UNL d   1       0.219  -4.318   0.139  0.00  0.00    -0.070 N 
ATOM      3  C1  UNL d   1      -0.576  -4.526  -0.957  0.00  0.00    -0.004 A 
ATOM      4  C2  UNL d   1      -1.635  -3.647  -0.882  0.00  0.00    -0.047 A 
ATOM      5  C3  UNL d   1      -1.471  -2.885   0.299  0.00  0.00    -0.047 A 
ATOM      6  C4  UNL d   1      -0.315  -3.321   0.912  0.00  0.00    -0.004 A 
ENDROOT
TORSDOF 0
ENDMDL
