MODEL 1
REMARK minimizedAffinity 3.21686769
REMARK minimizedRMSD -1
REMARK  0 active torsions:
REMARK  status: ('A' for Active; 'I' for Inactive)
ROOT
ATOM      1  C   UNL d   1      -0.091   1.519  -0.251  0.00  0.00     0.172 C 
ATOM      2  N   UNL d   1       0.374   1.114   1.054  0.00  0.00    -0.070 N 
ATOM      3  C1  UNL d   1       0.412   1.906   2.170  0.00  0.00    -0.004 A 
ATOM      4  C2  UNL d   1       0.918   1.152   3.207  0.00  0.00    -0.047 A 
ATOM      5  C3  UNL d   1       1.195  -0.138   2.696  0.00  0.00    -0.047 A 
ATOM      6  C4  UNL d   1       0.849  -0.134   1.361  0.00  0.00    -0.004 A 
ENDROOT
TORSDOF 0
ENDMDL
