MODEL 1
REMARK minimizedAffinity 7.18269253
REMARK minimizedRMSD -1
REMARK  0 active torsions:
REMARK  status: ('A' for Active; 'I' for Inactive)
ROOT
ATOM      1  C1  BNZ d   1       0.702   1.269  -0.372  0.00  0.00     0.000 A 
ATOM      2  C2  BNZ d   1      -0.528   1.866  -0.440  0.00  0.00     0.000 A 
ATOM      3  C3  BNZ d   1      -0.962   2.446  -1.598  0.00  0.00     0.000 A 
ATOM      4  C4  BNZ d   1      -0.151   2.464  -2.675  0.00  0.00     0.000 A 
ATOM      5  C5  BNZ d   1       1.097   1.875  -2.621  0.00  0.00     0.000 A 
ATOM      6  C6  BNZ d   1       1.515   1.257  -1.464  0.00  0.00     0.000 A 
ENDROOT
TORSDOF 0
ENDMDL
