MODEL 1
REMARK minimizedAffinity 8.54296303
REMARK minimizedRMSD -1
REMARK  0 active torsions:
REMARK  status: ('A' for Active; 'I' for Inactive)
ROOT
ATOM      1  C1  BNZ d   1      -0.121  -3.628   2.777  0.00  0.00     0.000 A 
ATOM      2  C2  BNZ d   1       0.691  -2.889   1.958  0.00  0.00     0.000 A 
ATOM      3  C3  BNZ d   1       0.978  -1.585   2.250  0.00  0.00     0.000 A 
ATOM      4  C4  BNZ d   1       0.424  -1.011   3.336  0.00  0.00     0.000 A 
ATOM      5  C5  BNZ d   1      -0.404  -1.740   4.167  0.00  0.00     0.000 A 
ATOM      6  C6  BNZ d   1      -0.660  -3.064   3.891  0.00  0.00     0.000 A 
ENDROOT
TORSDOF 0
ENDMDL
