MODEL 1
REMARK minimizedAffinity 0.16570887
REMARK minimizedRMSD -1
REMARK  0 active torsions:
REMARK  status: ('A' for Active; 'I' for Inactive)
ROOT
ATOM      1  C1  BNZ d   1      -4.790   3.604  -5.279  0.00  0.00     0.000 A 
ATOM      2  C2  BNZ d   1      -3.659   3.756  -4.522  0.00  0.00     0.000 A 
ATOM      3  C3  BNZ d   1      -3.008   4.957  -4.469  0.00  0.00     0.000 A 
ATOM      4  C4  BNZ d   1      -3.466   5.992  -5.203  0.00  0.00     0.000 A 
ATOM      5  C5  BNZ d   1      -4.600   5.852  -5.978  0.00  0.00     0.000 A 
ATOM      6  C6  BNZ d   1      -5.275   4.653  -5.998  0.00  0.00     0.000 A 
ENDROOT
TORSDOF 0
ENDMDL
