MODEL 1
REMARK minimizedAffinity 6.68340063
REMARK minimizedRMSD -1
REMARK  0 active torsions:
REMARK  status: ('A' for Active; 'I' for Inactive)
ROOT
ATOM      1  C1  BNZ d   1      -1.591   3.652  -4.237  0.00  0.00     0.000 A 
ATOM      2  C2  BNZ d   1      -1.687   4.980  -4.555  0.00  0.00     0.000 A 
ATOM      3  C3  BNZ d   1      -2.729   5.446  -5.307  0.00  0.00     0.000 A 
ATOM      4  C4  BNZ d   1      -3.651   4.578  -5.772  0.00  0.00     0.000 A 
ATOM      5  C5  BNZ d   1      -3.563   3.235  -5.467  0.00  0.00     0.000 A 
ATOM      6  C6  BNZ d   1      -2.534   2.775  -4.678  0.00  0.00     0.000 A 
ENDROOT
TORSDOF 0
ENDMDL
