MODEL 1
REMARK minimizedAffinity -1.56054449
REMARK minimizedRMSD -1
REMARK  0 active torsions:
REMARK  status: ('A' for Active; 'I' for Inactive)
ROOT
ATOM      1  C1  BNZ d   1      -1.460   4.415  -4.673  0.00  0.00     0.000 A 
ATOM      2  C2  BNZ d   1      -2.202   3.419  -5.251  0.00  0.00     0.000 A 
ATOM      3  C3  BNZ d   1      -3.352   3.709  -5.931  0.00  0.00     0.000 A 
ATOM      4  C4  BNZ d   1      -3.779   4.986  -5.998  0.00  0.00     0.000 A 
ATOM      5  C5  BNZ d   1      -3.047   6.000  -5.412  0.00  0.00     0.000 A 
ATOM      6  C6  BNZ d   1      -1.869   5.709  -4.762  0.00  0.00     0.000 A 
ENDROOT
TORSDOF 0
ENDMDL
