MODEL 1
REMARK minimizedAffinity 6.06316185
REMARK minimizedRMSD -1
REMARK  0 active torsions:
REMARK  status: ('A' for Active; 'I' for Inactive)
ROOT
ATOM      1  C1  BNZ d   1      -1.241  -2.266   5.266  0.00  0.00     0.000 A 
ATOM      2  C2  BNZ d   1      -2.255  -1.702   5.995  0.00  0.00     0.000 A 
ATOM      3  C3  BNZ d   1      -3.505  -2.255   6.000  0.00  0.00     0.000 A 
ATOM      4  C4  BNZ d   1      -3.750  -3.347   5.246  0.00  0.00     0.000 A 
ATOM      5  C5  BNZ d   1      -2.741  -3.921   4.499  0.00  0.00     0.000 A 
ATOM      6  C6  BNZ d   1      -1.475  -3.384   4.526  0.00  0.00     0.000 A 
ENDROOT
TORSDOF 0
ENDMDL
