MODEL 1
REMARK minimizedAffinity 8.23323154
REMARK minimizedRMSD -1
REMARK  0 active torsions:
REMARK  status: ('A' for Active; 'I' for Inactive)
ROOT
ATOM      1  C1  BNZ d   1       3.646  -5.984  -1.640  0.00  0.00     0.000 A 
ATOM      2  C2  BNZ d   1       2.425  -6.000  -2.262  0.00  0.00     0.000 A 
ATOM      3  C3  BNZ d   1       1.499  -5.027  -2.010  0.00  0.00     0.000 A 
ATOM      4  C4  BNZ d   1       1.778  -4.063  -1.108  0.00  0.00     0.000 A 
ATOM      5  C5  BNZ d   1       3.000  -4.039  -0.466  0.00  0.00     0.000 A 
ATOM      6  C6  BNZ d   1       3.945  -4.998  -0.751  0.00  0.00     0.000 A 
ENDROOT
TORSDOF 0
ENDMDL
