MODEL 1
REMARK minimizedAffinity 1.78316069
REMARK minimizedRMSD -1
REMARK  0 active torsions:
REMARK  status: ('A' for Active; 'I' for Inactive)
ROOT
ATOM      1  C1  BNZ d   1      -3.750   4.686  -5.194  0.00  0.00     0.000 A 
ATOM      2  C2  BNZ d   1      -3.260   5.685  -5.992  0.00  0.00     0.000 A 
ATOM      3  C3  BNZ d   1      -1.927   5.987  -5.997  0.00  0.00     0.000 A 
ATOM      4  C4  BNZ d   1      -1.093   5.319  -5.175  0.00  0.00     0.000 A 
ATOM      5  C5  BNZ d   1      -1.573   4.315  -4.357  0.00  0.00     0.000 A 
ATOM      6  C6  BNZ d   1      -2.909   3.987  -4.383  0.00  0.00     0.000 A 
ENDROOT
TORSDOF 0
ENDMDL
