MODEL 1
REMARK minimizedAffinity 12.542264
REMARK minimizedRMSD -1
REMARK  0 active torsions:
REMARK  status: ('A' for Active; 'I' for Inactive)
ROOT
ATOM      1  C1  BNZ d   1      -3.769   4.617   1.016  0.00  0.00     0.000 A 
ATOM      2  C2  BNZ d   1      -4.509   5.320   1.930  0.00  0.00     0.000 A 
ATOM      3  C3  BNZ d   1      -5.635   5.995   1.548  0.00  0.00     0.000 A 
ATOM      4  C4  BNZ d   1      -5.996   6.000   0.249  0.00  0.00     0.000 A 
ATOM      5  C5  BNZ d   1      -5.256   5.304  -0.686  0.00  0.00     0.000 A 
ATOM      6  C6  BNZ d   1      -4.145   4.594  -0.291  0.00  0.00     0.000 A 
ENDROOT
TORSDOF 0
ENDMDL
