MODEL 1
REMARK minimizedAffinity 5.55941725
REMARK minimizedRMSD -1
REMARK  0 active torsions:
REMARK  status: ('A' for Active; 'I' for Inactive)
ROOT
ATOM      1  C1  BNZ d   1      -2.546  -3.374   4.501  0.00  0.00     0.000 A 
ATOM      2  C2  BNZ d   1      -1.396  -4.118   4.503  0.00  0.00     0.000 A 
ATOM      3  C3  BNZ d   1      -0.325  -3.749   5.268  0.00  0.00     0.000 A 
ATOM      4  C4  BNZ d   1      -0.390  -2.617   5.998  0.00  0.00     0.000 A 
ATOM      5  C5  BNZ d   1      -1.539  -1.852   6.000  0.00  0.00     0.000 A 
ATOM      6  C6  BNZ d   1      -2.629  -2.247   5.259  0.00  0.00     0.000 A 
ENDROOT
TORSDOF 0
ENDMDL
