MODEL 1
REMARK minimizedAffinity -0.402261406
REMARK minimizedRMSD -1
REMARK  0 active torsions:
REMARK  status: ('A' for Active; 'I' for Inactive)
ROOT
ATOM      1  C1  BNZ d   1      -3.351   4.436  -4.499  0.00  0.00     0.000 A 
ATOM      2  C2  BNZ d   1      -3.000   5.710  -4.857  0.00  0.00     0.000 A 
ATOM      3  C3  BNZ d   1      -1.723   6.000  -5.249  0.00  0.00     0.000 A 
ATOM      4  C4  BNZ d   1      -0.790   5.025  -5.244  0.00  0.00     0.000 A 
ATOM      5  C5  BNZ d   1      -1.127   3.738  -4.877  0.00  0.00     0.000 A 
ATOM      6  C6  BNZ d   1      -2.423   3.441  -4.521  0.00  0.00     0.000 A 
ENDROOT
TORSDOF 0
ENDMDL
