MODEL 1
REMARK minimizedAffinity 3.04759407
REMARK minimizedRMSD -1
REMARK  0 active torsions:
REMARK  status: ('A' for Active; 'I' for Inactive)
ROOT
ATOM      1  C1  BNZ d   1      -2.780   3.624  -4.518  0.00  0.00     0.000 A 
ATOM      2  C2  BNZ d   1      -3.455   4.814  -4.578  0.00  0.00     0.000 A 
ATOM      3  C3  BNZ d   1      -2.779   5.999  -4.661  0.00  0.00     0.000 A 
ATOM      4  C4  BNZ d   1      -1.430   5.996  -4.643  0.00  0.00     0.000 A 
ATOM      5  C5  BNZ d   1      -0.735   4.805  -4.573  0.00  0.00     0.000 A 
ATOM      6  C6  BNZ d   1      -1.419   3.612  -4.529  0.00  0.00     0.000 A 
ENDROOT
TORSDOF 0
ENDMDL
