MODEL 1
REMARK minimizedAffinity 3.96972966
REMARK minimizedRMSD -1
REMARK  0 active torsions:
REMARK  status: ('A' for Active; 'I' for Inactive)
ROOT
ATOM      1  C1  BNZ d   1      -3.777  -2.005   6.000  0.00  0.00     0.000 A 
ATOM      2  C2  BNZ d   1      -2.619  -1.274   6.000  0.00  0.00     0.000 A 
ATOM      3  C3  BNZ d   1      -1.492  -1.749   5.389  0.00  0.00     0.000 A 
ATOM      4  C4  BNZ d   1      -1.513  -2.969   4.814  0.00  0.00     0.000 A 
ATOM      5  C5  BNZ d   1      -2.670  -3.722   4.814  0.00  0.00     0.000 A 
ATOM      6  C6  BNZ d   1      -3.813  -3.224   5.396  0.00  0.00     0.000 A 
ENDROOT
TORSDOF 0
ENDMDL
