MODEL 1
REMARK minimizedAffinity 1.17954314
REMARK minimizedRMSD -1
REMARK  0 active torsions:
REMARK  status: ('A' for Active; 'I' for Inactive)
ROOT
ATOM      1  C1  BNZ d   1      -4.152   3.664  -5.462  0.00  0.00     0.000 A 
ATOM      2  C2  BNZ d   1      -2.945   3.702  -4.817  0.00  0.00     0.000 A 
ATOM      3  C3  BNZ d   1      -2.253   4.874  -4.695  0.00  0.00     0.000 A 
ATOM      4  C4  BNZ d   1      -2.749   5.998  -5.251  0.00  0.00     0.000 A 
ATOM      5  C5  BNZ d   1      -3.961   5.974  -5.912  0.00  0.00     0.000 A 
ATOM      6  C6  BNZ d   1      -4.673   4.800  -6.000  0.00  0.00     0.000 A 
ENDROOT
TORSDOF 0
ENDMDL
