MODEL 1
REMARK minimizedAffinity 8.78432083
REMARK minimizedRMSD -1
REMARK  0 active torsions:
REMARK  status: ('A' for Active; 'I' for Inactive)
ROOT
ATOM      1  C1  BNZ d   1      -1.028  -1.983   5.999  0.00  0.00     0.000 A 
ATOM      2  C2  BNZ d   1      -0.615  -3.047   5.242  0.00  0.00     0.000 A 
ATOM      3  C3  BNZ d   1      -1.504  -3.744   4.472  0.00  0.00     0.000 A 
ATOM      4  C4  BNZ d   1      -2.808  -3.402   4.490  0.00  0.00     0.000 A 
ATOM      5  C5  BNZ d   1      -3.241  -2.338   5.256  0.00  0.00     0.000 A 
ATOM      6  C6  BNZ d   1      -2.337  -1.614   6.000  0.00  0.00     0.000 A 
ENDROOT
TORSDOF 0
ENDMDL
