MODEL 1
REMARK minimizedAffinity 9.06506443
REMARK minimizedRMSD -1
REMARK  0 active torsions:
REMARK  status: ('A' for Active; 'I' for Inactive)
ROOT
ATOM      1  C1  BNZ d   1      -1.720   0.997   2.031  0.00  0.00     0.000 A 
ATOM      2  C2  BNZ d   1      -2.630   1.597   1.202  0.00  0.00     0.000 A 
ATOM      3  C3  BNZ d   1      -2.231   2.193   0.038  0.00  0.00     0.000 A 
ATOM      4  C4  BNZ d   1      -0.919   2.222  -0.275  0.00  0.00     0.000 A 
ATOM      5  C5  BNZ d   1       0.012   1.629   0.555  0.00  0.00     0.000 A 
ATOM      6  C6  BNZ d   1      -0.399   0.997   1.706  0.00  0.00     0.000 A 
ENDROOT
TORSDOF 0
ENDMDL
