MODEL 1
REMARK minimizedAffinity 5.30397081
REMARK minimizedRMSD -1
REMARK  0 active torsions:
REMARK  status: ('A' for Active; 'I' for Inactive)
ROOT
ATOM      1  C1  BNZ d   1      -0.676  -2.863   5.979  0.00  0.00     0.000 A 
ATOM      2  C2  BNZ d   1      -1.487  -1.760   5.991  0.00  0.00     0.000 A 
ATOM      3  C3  BNZ d   1      -2.666  -1.750   5.300  0.00  0.00     0.000 A 
ATOM      4  C4  BNZ d   1      -3.012  -2.827   4.564  0.00  0.00     0.000 A 
ATOM      5  C5  BNZ d   1      -2.200  -3.943   4.534  0.00  0.00     0.000 A 
ATOM      6  C6  BNZ d   1      -1.033  -3.964   5.263  0.00  0.00     0.000 A 
ENDROOT
TORSDOF 0
ENDMDL
