MODEL 1
REMARK minimizedAffinity 4.68276215
REMARK minimizedRMSD -1
REMARK  0 active torsions:
REMARK  status: ('A' for Active; 'I' for Inactive)
ROOT
ATOM      1  C1  DEN d   1       1.903   1.673   1.961  0.00  0.00     0.130 A 
ATOM      2  C2  DEN d   1       1.555   2.668   2.971  0.00  0.00    -0.031 A 
ATOM      3  C3  DEN d   1       2.795   3.361   3.376  0.00  0.00     0.027 A 
ATOM      4  C4  DEN d   1       5.206   2.994   2.538  0.00  0.00     0.027 A 
ATOM      5  C5  DEN d   1       6.000   2.251   1.692  0.00  0.00    -0.003 A 
ATOM      6  C6  DEN d   1       5.493   1.249   0.908  0.00  0.00     0.001 A 
ATOM      7  C7  DEN d   1       4.148   0.992   0.920  0.00  0.00     0.017 A 
ATOM      8  C8  DEN d   1       3.342   1.732   1.776  0.00  0.00    -0.094 A 
ATOM      9  C9  DEN d   1       3.872   2.749   2.552  0.00  0.00    -0.072 A 
ENDROOT
TORSDOF 0
ENDMDL
