MODEL 1
REMARK minimizedAffinity 5.91528082
REMARK minimizedRMSD -1
REMARK  0 active torsions:
REMARK  status: ('A' for Active; 'I' for Inactive)
ROOT
ATOM      1  C1  DEN d   1      -0.966  -3.403   3.089  0.00  0.00     0.130 A 
ATOM      2  C2  DEN d   1      -1.024  -1.956   3.276  0.00  0.00    -0.031 A 
ATOM      3  C3  DEN d   1       0.235  -1.379   2.766  0.00  0.00     0.027 A 
ATOM      4  C4  DEN d   1       2.257  -2.578   1.704  0.00  0.00     0.027 A 
ATOM      5  C5  DEN d   1       2.774  -3.803   1.345  0.00  0.00    -0.003 A 
ATOM      6  C6  DEN d   1       2.100  -4.974   1.571  0.00  0.00     0.001 A 
ATOM      7  C7  DEN d   1       0.851  -4.941   2.132  0.00  0.00     0.017 A 
ATOM      8  C8  DEN d   1       0.327  -3.710   2.504  0.00  0.00    -0.094 A 
ATOM      9  C9  DEN d   1       1.018  -2.537   2.256  0.00  0.00    -0.072 A 
ENDROOT
TORSDOF 0
ENDMDL
