MODEL 1
REMARK minimizedAffinity 13.3173876
REMARK minimizedRMSD -1
REMARK  0 active torsions:
REMARK  status: ('A' for Active; 'I' for Inactive)
ROOT
ATOM      1  C1  DEN d   1       1.228  -0.960   3.197  0.00  0.00     0.130 A 
ATOM      2  C2  DEN d   1      -0.139  -0.912   2.685  0.00  0.00    -0.031 A 
ATOM      3  C3  DEN d   1      -0.384  -2.152   1.922  0.00  0.00     0.027 A 
ATOM      4  C4  DEN d   1       1.209  -4.134   1.491  0.00  0.00     0.027 A 
ATOM      5  C5  DEN d   1       2.477  -4.624   1.714  0.00  0.00    -0.003 A 
ATOM      6  C6  DEN d   1       3.421  -3.918   2.412  0.00  0.00     0.001 A 
ATOM      7  C7  DEN d   1       3.096  -2.701   2.952  0.00  0.00     0.017 A 
ATOM      8  C8  DEN d   1       1.822  -2.197   2.725  0.00  0.00    -0.094 A 
ATOM      9  C9  DEN d   1       0.879  -2.932   2.027  0.00  0.00    -0.072 A 
ENDROOT
TORSDOF 0
ENDMDL
