MODEL 1
REMARK minimizedAffinity 6.78663874
REMARK minimizedRMSD -1
REMARK  0 active torsions:
REMARK  status: ('A' for Active; 'I' for Inactive)
ROOT
ATOM      1  C1  DEN d   1       3.751  -3.717   5.496  0.00  0.00     0.130 A 
ATOM      2  C2  DEN d   1       4.289  -4.978   6.000  0.00  0.00    -0.031 A 
ATOM      3  C3  DEN d   1       4.122  -5.999   4.946  0.00  0.00     0.027 A 
ATOM      4  C4  DEN d   1       3.093  -5.751   2.594  0.00  0.00     0.027 A 
ATOM      5  C5  DEN d   1       2.490  -4.874   1.720  0.00  0.00    -0.003 A 
ATOM      6  C6  DEN d   1       2.237  -3.570   2.052  0.00  0.00     0.001 A 
ATOM      7  C7  DEN d   1       2.629  -3.092   3.274  0.00  0.00     0.017 A 
ATOM      8  C8  DEN d   1       3.230  -3.972   4.165  0.00  0.00    -0.094 A 
ATOM      9  C9  DEN d   1       3.488  -5.284   3.806  0.00  0.00    -0.072 A 
ENDROOT
TORSDOF 0
ENDMDL
