MODEL 1
REMARK minimizedAffinity 6.76900005
REMARK minimizedRMSD -1
REMARK  0 active torsions:
REMARK  status: ('A' for Active; 'I' for Inactive)
ROOT
ATOM      1  C1  DEN d   1      -0.890  -2.911   3.346  0.00  0.00     0.130 A 
ATOM      2  C2  DEN d   1      -1.006  -1.472   3.569  0.00  0.00    -0.031 A 
ATOM      3  C3  DEN d   1       0.068  -0.805   2.807  0.00  0.00     0.027 A 
ATOM      4  C4  DEN d   1       1.886  -1.852   1.308  0.00  0.00     0.027 A 
ATOM      5  C5  DEN d   1       2.395  -3.036   0.821  0.00  0.00    -0.003 A 
ATOM      6  C6  DEN d   1       1.870  -4.253   1.166  0.00  0.00     0.001 A 
ATOM      7  C7  DEN d   1       0.775  -4.312   1.987  0.00  0.00     0.017 A 
ATOM      8  C8  DEN d   1       0.261  -3.123   2.488  0.00  0.00    -0.094 A 
ATOM      9  C9  DEN d   1       0.798  -1.902   2.117  0.00  0.00    -0.072 A 
ENDROOT
TORSDOF 0
ENDMDL
