MODEL 1
REMARK minimizedAffinity 7.09107351
REMARK minimizedRMSD -1
REMARK  0 active torsions:
REMARK  status: ('A' for Active; 'I' for Inactive)
ROOT
ATOM      1  C1  DEN d   1       5.471   1.840  -3.764  0.00  0.00     0.130 A 
ATOM      2  C2  DEN d   1       5.560   0.662  -4.623  0.00  0.00    -0.031 A 
ATOM      3  C3  DEN d   1       5.767  -0.518  -3.759  0.00  0.00     0.027 A 
ATOM      4  C4  DEN d   1       5.952  -0.635  -1.189  0.00  0.00     0.027 A 
ATOM      5  C5  DEN d   1       5.949   0.107  -0.028  0.00  0.00    -0.003 A 
ATOM      6  C6  DEN d   1       5.821   1.471  -0.034  0.00  0.00     0.001 A 
ATOM      7  C7  DEN d   1       5.646   2.132  -1.221  0.00  0.00     0.017 A 
ATOM      8  C8  DEN d   1       5.655   1.391  -2.396  0.00  0.00    -0.094 A 
ATOM      9  C9  DEN d   1       5.773   0.012  -2.369  0.00  0.00    -0.072 A 
ENDROOT
TORSDOF 0
ENDMDL
