MODEL 1
REMARK minimizedAffinity 5.2265811
REMARK minimizedRMSD -1
REMARK  0 active torsions:
REMARK  status: ('A' for Active; 'I' for Inactive)
ROOT
ATOM      1  C1  DEN d   1       5.958  -1.134  -0.729  0.00  0.00     0.130 A 
ATOM      2  C2  DEN d   1       5.988   0.071   0.095  0.00  0.00    -0.031 A 
ATOM      3  C3  DEN d   1       5.999   1.240  -0.807  0.00  0.00     0.027 A 
ATOM      4  C4  DEN d   1       5.966   1.301  -3.386  0.00  0.00     0.027 A 
ATOM      5  C5  DEN d   1       5.950   0.529  -4.526  0.00  0.00    -0.003 A 
ATOM      6  C6  DEN d   1       5.970  -0.839  -4.483  0.00  0.00     0.001 A 
ATOM      7  C7  DEN d   1       5.961  -1.480  -3.272  0.00  0.00     0.017 A 
ATOM      8  C8  DEN d   1       5.985  -0.709  -2.117  0.00  0.00    -0.094 A 
ATOM      9  C9  DEN d   1       5.952   0.674  -2.182  0.00  0.00    -0.072 A 
ENDROOT
TORSDOF 0
ENDMDL
