MODEL 1
REMARK minimizedAffinity 4.53167009
REMARK minimizedRMSD -1
REMARK  0 active torsions:
REMARK  status: ('A' for Active; 'I' for Inactive)
ROOT
ATOM      1  C1  DEN d   1      -0.073  -2.827   2.747  0.00  0.00     0.130 A 
ATOM      2  C2  DEN d   1       0.118  -1.407   3.031  0.00  0.00    -0.031 A 
ATOM      3  C3  DEN d   1       1.402  -0.991   2.432  0.00  0.00     0.027 A 
ATOM      4  C4  DEN d   1       3.102  -2.397   1.096  0.00  0.00     0.027 A 
ATOM      5  C5  DEN d   1       3.381  -3.655   0.608  0.00  0.00    -0.003 A 
ATOM      6  C6  DEN d   1       2.552  -4.723   0.826  0.00  0.00     0.001 A 
ATOM      7  C7  DEN d   1       1.380  -4.544   1.513  0.00  0.00     0.017 A 
ATOM      8  C8  DEN d   1       1.095  -3.281   2.014  0.00  0.00    -0.094 A 
ATOM      9  C9  DEN d   1       1.940  -2.211   1.772  0.00  0.00    -0.072 A 
ENDROOT
TORSDOF 0
ENDMDL
