MODEL 1
REMARK minimizedAffinity 3.99023175
REMARK minimizedRMSD -1
REMARK  0 active torsions:
REMARK  status: ('A' for Active; 'I' for Inactive)
ROOT
ATOM      1  C1  DEN d   1      -3.658   0.609  -2.222  0.00  0.00     0.130 A 
ATOM      2  C2  DEN d   1      -2.665  -0.329  -1.705  0.00  0.00    -0.031 A 
ATOM      3  C3  DEN d   1      -1.353   0.347  -1.707  0.00  0.00     0.027 A 
ATOM      4  C4  DEN d   1      -0.765   2.746  -2.451  0.00  0.00     0.027 A 
ATOM      5  C5  DEN d   1      -1.272   3.916  -2.973  0.00  0.00    -0.003 A 
ATOM      6  C6  DEN d   1      -2.593   4.052  -3.310  0.00  0.00     0.001 A 
ATOM      7  C7  DEN d   1      -3.461   3.017  -3.087  0.00  0.00     0.017 A 
ATOM      8  C8  DEN d   1      -2.956   1.832  -2.568  0.00  0.00    -0.094 A 
ATOM      9  C9  DEN d   1      -1.620   1.717  -2.222  0.00  0.00    -0.072 A 
ENDROOT
TORSDOF 0
ENDMDL
