MODEL 1
REMARK minimizedAffinity 5.52238083
REMARK minimizedRMSD -1
REMARK  1 active torsions:
REMARK  status: ('A' for Active; 'I' for Inactive)
REMARK    1  A    between atoms: N_2  and  C1_3 
ROOT
ATOM      1  C1  UNL d   1       4.464   0.749  -5.696  0.00  0.00     0.143 A 
ATOM      2  C2  UNL d   1       3.403  -0.151  -5.842  0.00  0.00    -0.057 A 
ATOM      3  C3  UNL d   1       3.630  -1.526  -5.978  0.00  0.00     0.033 A 
ATOM      4  C4  UNL d   1       4.929  -2.023  -6.000  0.00  0.00    -0.042 A 
ATOM      5  C5  UNL d   1       6.000  -1.145  -5.882  0.00  0.00     0.033 A 
ATOM      6  C6  UNL d   1       5.766   0.226  -5.739  0.00  0.00    -0.057 A 
ENDROOT
BRANCH   1   7
ATOM      7  N   UNL d   1       4.307   2.136  -5.655  0.00  0.00    -0.732 N 
ATOM      8  C   UNL d   1       5.416   3.013  -5.965  0.00  0.00     0.284 C 
ATOM      9  H3  UNL d   1       3.417   2.438  -6.046  0.00  0.00     0.395 HD
ENDBRANCH   1   7
TORSDOF 1
ENDMDL
