MODEL 1
REMARK minimizedAffinity 13.5072927
REMARK minimizedRMSD -1
REMARK  1 active torsions:
REMARK  status: ('A' for Active; 'I' for Inactive)
REMARK    1  A    between atoms: N_2  and  C1_3 
ROOT
ATOM      1  C1  UNL d   1      -0.437   0.503  -2.012  0.00  0.00     0.143 A 
ATOM      2  C2  UNL d   1      -0.783   1.515  -1.110  0.00  0.00    -0.057 A 
ATOM      3  C3  UNL d   1      -0.373   1.467   0.228  0.00  0.00     0.033 A 
ATOM      4  C4  UNL d   1       0.368   0.387   0.696  0.00  0.00    -0.042 A 
ATOM      5  C5  UNL d   1       0.702  -0.643  -0.176  0.00  0.00     0.033 A 
ATOM      6  C6  UNL d   1       0.295  -0.586  -1.513  0.00  0.00    -0.057 A 
ENDROOT
BRANCH   1   7
ATOM      7  N   UNL d   1      -0.897   0.444  -3.330  0.00  0.00    -0.732 N 
ATOM      8  C   UNL d   1      -1.822  -0.590  -3.743  0.00  0.00     0.284 C 
ATOM      9  H3  UNL d   1      -1.107   1.365  -3.709  0.00  0.00     0.395 HD
ENDBRANCH   1   7
TORSDOF 1
ENDMDL
