MODEL 1
REMARK minimizedAffinity 10.9007511
REMARK minimizedRMSD -1
REMARK  1 active torsions:
REMARK  status: ('A' for Active; 'I' for Inactive)
REMARK    1  A    between atoms: N_2  and  C1_3 
ROOT
ATOM      1  C1  UNL d   1       1.425  -0.573   0.861  0.00  0.00     0.143 A 
ATOM      2  C2  UNL d   1       1.667  -1.372  -0.262  0.00  0.00    -0.057 A 
ATOM      3  C3  UNL d   1       0.665  -1.617  -1.208  0.00  0.00     0.033 A 
ATOM      4  C4  UNL d   1      -0.610  -1.090  -1.032  0.00  0.00    -0.042 A 
ATOM      5  C5  UNL d   1      -0.881  -0.314   0.089  0.00  0.00     0.033 A 
ATOM      6  C6  UNL d   1       0.126  -0.068   1.027  0.00  0.00    -0.057 A 
ENDROOT
BRANCH   1   7
ATOM      7  N   UNL d   1       2.351  -0.374   1.888  0.00  0.00    -0.732 N 
ATOM      8  C   UNL d   1       2.137  -0.953   3.197  0.00  0.00     0.284 C 
ATOM      9  H3  UNL d   1       3.313  -0.431   1.560  0.00  0.00     0.395 HD
ENDBRANCH   1   7
TORSDOF 1
ENDMDL
