MODEL 1
REMARK minimizedAffinity 6.13776541
REMARK minimizedRMSD -1
REMARK  1 active torsions:
REMARK  status: ('A' for Active; 'I' for Inactive)
REMARK    1  A    between atoms: N_2  and  C1_3 
ROOT
ATOM      1  C1  UNL d   1       3.568  -2.393   4.476  0.00  0.00     0.143 A 
ATOM      2  C2  UNL d   1       2.642  -3.426   4.649  0.00  0.00    -0.057 A 
ATOM      3  C3  UNL d   1       1.371  -3.368   4.062  0.00  0.00     0.033 A 
ATOM      4  C4  UNL d   1       0.994  -2.257   3.315  0.00  0.00    -0.042 A 
ATOM      5  C5  UNL d   1       1.890  -1.207   3.151  0.00  0.00     0.033 A 
ATOM      6  C6  UNL d   1       3.160  -1.274   3.734  0.00  0.00    -0.057 A 
ENDROOT
BRANCH   1   7
ATOM      7  N   UNL d   1       4.810  -2.347   5.115  0.00  0.00    -0.732 N 
ATOM      8  C   UNL d   1       5.998  -1.951   4.389  0.00  0.00     0.284 C 
ATOM      9  H3  UNL d   1       4.750  -1.963   6.055  0.00  0.00     0.395 HD
ENDBRANCH   1   7
TORSDOF 1
ENDMDL
