MODEL 1
REMARK minimizedAffinity 9.65056801
REMARK minimizedRMSD -1
REMARK  1 active torsions:
REMARK  status: ('A' for Active; 'I' for Inactive)
REMARK    1  A    between atoms: N_2  and  C1_3 
ROOT
ATOM      1  C1  UNL d   1       1.772  -1.388   1.448  0.00  0.00     0.143 A 
ATOM      2  C2  UNL d   1       1.606  -2.198   0.320  0.00  0.00    -0.057 A 
ATOM      3  C3  UNL d   1       0.445  -2.127  -0.461  0.00  0.00     0.033 A 
ATOM      4  C4  UNL d   1      -0.585  -1.262  -0.108  0.00  0.00    -0.042 A 
ATOM      5  C5  UNL d   1      -0.453  -0.466   1.024  0.00  0.00     0.033 A 
ATOM      6  C6  UNL d   1       0.711  -0.537   1.795  0.00  0.00    -0.057 A 
ENDROOT
BRANCH   1   7
ATOM      7  N   UNL d   1       2.859  -1.483   2.320  0.00  0.00    -0.732 N 
ATOM      8  C   UNL d   1       3.096  -2.695   3.074  0.00  0.00     0.284 C 
ATOM      9  H3  UNL d   1       3.702  -1.060   1.938  0.00  0.00     0.395 HD
ENDBRANCH   1   7
TORSDOF 1
ENDMDL
