MODEL 1
REMARK minimizedAffinity 1.86453784
REMARK minimizedRMSD -1
REMARK  1 active torsions:
REMARK  status: ('A' for Active; 'I' for Inactive)
REMARK    1  A    between atoms: N_2  and  C1_3 
ROOT
ATOM      1  C1  UNL d   1       3.382  -1.838   4.329  0.00  0.00     0.143 A 
ATOM      2  C2  UNL d   1       3.674  -2.259   5.631  0.00  0.00    -0.057 A 
ATOM      3  C3  UNL d   1       4.972  -2.631   6.000  0.00  0.00     0.033 A 
ATOM      4  C4  UNL d   1       6.000  -2.615   5.062  0.00  0.00    -0.042 A 
ATOM      5  C5  UNL d   1       5.728  -2.224   3.756  0.00  0.00     0.033 A 
ATOM      6  C6  UNL d   1       4.431  -1.847   3.396  0.00  0.00    -0.057 A 
ENDROOT
BRANCH   1   7
ATOM      7  N   UNL d   1       2.093  -1.550   3.875  0.00  0.00    -0.732 N 
ATOM      8  C   UNL d   1       1.888  -0.662   2.751  0.00  0.00     0.284 C 
ATOM      9  H3  UNL d   1       1.490  -2.369   3.873  0.00  0.00     0.395 HD
ENDBRANCH   1   7
TORSDOF 1
ENDMDL
