MODEL 1
REMARK minimizedAffinity -3.60836053
REMARK minimizedRMSD -1
REMARK  1 active torsions:
REMARK  status: ('A' for Active; 'I' for Inactive)
REMARK    1  A    between atoms: C1_2  and  C2_3 
ROOT
ATOM      1  C2  UNL d   1      -3.259  -5.183  -5.515  0.00  0.00    -0.073 A 
ATOM      2  C3  UNL d   1      -4.489  -5.801  -5.262  0.00  0.00    -0.002 A 
ATOM      3  C4  UNL d   1      -5.596  -5.040  -4.882  0.00  0.00     0.004 A 
ATOM      4  C5  UNL d   1      -5.486  -3.655  -4.758  0.00  0.00    -0.004 A 
ATOM      5  C6  UNL d   1      -4.269  -3.018  -5.018  0.00  0.00    -0.075 A 
ATOM      6  C7  UNL d   1      -4.134  -1.529  -4.886  0.00  0.00     0.076 C 
ATOM      7  C8  UNL d   1      -3.161  -3.789  -5.396  0.00  0.00     0.001 A 
ENDROOT
BRANCH   1   8
ATOM      8  C1  UNL d   1      -2.063  -5.999  -5.931  0.00  0.00     0.053 C 
ATOM      9  C   UNL d   1      -0.974  -5.996  -4.871  0.00  0.00     0.018 C 
ENDBRANCH   1   8
TORSDOF 1
ENDMDL
