MODEL 1
REMARK minimizedAffinity -4.05262899
REMARK minimizedRMSD -1
REMARK  1 active torsions:
REMARK  status: ('A' for Active; 'I' for Inactive)
REMARK    1  A    between atoms: C1_2  and  C2_3 
ROOT
ATOM      1  C2  UNL d   1      -3.190  -4.737  -4.977  0.00  0.00    -0.073 A 
ATOM      2  C3  UNL d   1      -3.901  -5.531  -5.884  0.00  0.00    -0.002 A 
ATOM      3  C4  UNL d   1      -5.285  -5.401  -6.000  0.00  0.00     0.004 A 
ATOM      4  C5  UNL d   1      -5.971  -4.472  -5.217  0.00  0.00    -0.004 A 
ATOM      5  C6  UNL d   1      -5.277  -3.661  -4.314  0.00  0.00    -0.075 A 
ATOM      6  C7  UNL d   1      -6.000  -2.659  -3.463  0.00  0.00     0.076 C 
ATOM      7  C8  UNL d   1      -3.887  -3.799  -4.202  0.00  0.00     0.001 A 
ENDROOT
BRANCH   1   8
ATOM      8  C1  UNL d   1      -1.694  -4.869  -4.853  0.00  0.00     0.053 C 
ATOM      9  C   UNL d   1      -1.138  -5.942  -5.776  0.00  0.00     0.018 C 
ENDBRANCH   1   8
TORSDOF 1
ENDMDL
