MODEL 1
REMARK minimizedAffinity -2.95906949
REMARK minimizedRMSD -1
REMARK  1 active torsions:
REMARK  status: ('A' for Active; 'I' for Inactive)
REMARK    1  A    between atoms: C1_2  and  C2_3 
ROOT
ATOM      1  C2  UNL d   1      -4.834  -4.314  -4.359  0.00  0.00    -0.073 A 
ATOM      2  C3  UNL d   1      -4.807  -5.108  -3.208  0.00  0.00    -0.002 A 
ATOM      3  C4  UNL d   1      -3.722  -5.950  -2.957  0.00  0.00     0.004 A 
ATOM      4  C5  UNL d   1      -2.652  -6.000  -3.850  0.00  0.00    -0.004 A 
ATOM      5  C6  UNL d   1      -2.655  -5.205  -5.000  0.00  0.00    -0.075 A 
ATOM      6  C7  UNL d   1      -1.512  -5.249  -5.971  0.00  0.00     0.076 C 
ATOM      7  C8  UNL d   1      -3.749  -4.364  -5.246  0.00  0.00     0.001 A 
ENDROOT
BRANCH   1   8
ATOM      8  C1  UNL d   1      -6.000  -3.399  -4.631  0.00  0.00     0.053 C 
ATOM      9  C   UNL d   1      -5.897  -2.733  -5.994  0.00  0.00     0.018 C 
ENDBRANCH   1   8
TORSDOF 1
ENDMDL
