MODEL 1
REMARK minimizedAffinity -3.86361074
REMARK minimizedRMSD -1
REMARK  1 active torsions:
REMARK  status: ('A' for Active; 'I' for Inactive)
REMARK    1  A    between atoms: C1_2  and  C2_3 
ROOT
ATOM      1  C2  UNL d   1      -3.156  -4.678  -5.301  0.00  0.00    -0.073 A 
ATOM      2  C3  UNL d   1      -3.791  -5.917  -5.162  0.00  0.00    -0.002 A 
ATOM      3  C4  UNL d   1      -5.133  -5.983  -4.783  0.00  0.00     0.004 A 
ATOM      4  C5  UNL d   1      -5.853  -4.812  -4.547  0.00  0.00    -0.004 A 
ATOM      5  C6  UNL d   1      -5.239  -3.564  -4.693  0.00  0.00    -0.075 A 
ATOM      6  C7  UNL d   1      -6.000  -2.295  -4.441  0.00  0.00     0.076 C 
ATOM      7  C8  UNL d   1      -3.891  -3.507  -5.071  0.00  0.00     0.001 A 
ENDROOT
BRANCH   1   8
ATOM      8  C1  UNL d   1      -1.709  -4.603  -5.716  0.00  0.00     0.053 C 
ATOM      9  C   UNL d   1      -1.125  -5.977  -6.000  0.00  0.00     0.018 C 
ENDBRANCH   1   8
TORSDOF 1
ENDMDL
