MODEL 1
REMARK minimizedAffinity 2.50115466
REMARK minimizedRMSD -1
REMARK  1 active torsions:
REMARK  status: ('A' for Active; 'I' for Inactive)
REMARK    1  A    between atoms: C1_2  and  C2_3 
ROOT
ATOM      1  C2  UNL d   1      -5.162  -3.712  -5.187  0.00  0.00    -0.073 A 
ATOM      2  C3  UNL d   1      -5.837  -4.795  -4.612  0.00  0.00    -0.002 A 
ATOM      3  C4  UNL d   1      -5.125  -5.888  -4.119  0.00  0.00     0.004 A 
ATOM      4  C5  UNL d   1      -3.732  -5.908  -4.189  0.00  0.00    -0.004 A 
ATOM      5  C6  UNL d   1      -3.038  -4.830  -4.748  0.00  0.00    -0.075 A 
ATOM      6  C7  UNL d   1      -1.540  -4.836  -4.833  0.00  0.00     0.076 C 
ATOM      7  C8  UNL d   1      -3.761  -3.736  -5.244  0.00  0.00     0.001 A 
ENDROOT
BRANCH   1   8
ATOM      8  C1  UNL d   1      -5.927  -2.526  -5.715  0.00  0.00     0.053 C 
ATOM      9  C   UNL d   1      -5.034  -1.310  -5.904  0.00  0.00     0.018 C 
ENDBRANCH   1   8
TORSDOF 1
ENDMDL
