MODEL 1
REMARK minimizedAffinity -4.05023766
REMARK minimizedRMSD -1
REMARK  1 active torsions:
REMARK  status: ('A' for Active; 'I' for Inactive)
REMARK    1  A    between atoms: C1_2  and  C2_3 
ROOT
ATOM      1  C2  UNL d   1      -5.157  -3.731  -4.366  0.00  0.00    -0.073 A 
ATOM      2  C3  UNL d   1      -5.909  -4.859  -4.713  0.00  0.00    -0.002 A 
ATOM      3  C4  UNL d   1      -5.284  -5.986  -5.249  0.00  0.00     0.004 A 
ATOM      4  C5  UNL d   1      -3.901  -6.000  -5.436  0.00  0.00    -0.004 A 
ATOM      5  C6  UNL d   1      -3.131  -4.887  -5.084  0.00  0.00    -0.075 A 
ATOM      6  C7  UNL d   1      -1.644  -4.884  -5.281  0.00  0.00     0.076 C 
ATOM      7  C8  UNL d   1      -3.767  -3.758  -4.549  0.00  0.00     0.001 A 
ENDROOT
BRANCH   1   8
ATOM      8  C1  UNL d   1      -5.827  -2.515  -3.781  0.00  0.00     0.053 C 
ATOM      9  C   UNL d   1      -5.999  -1.409  -4.811  0.00  0.00     0.018 C 
ENDBRANCH   1   8
TORSDOF 1
ENDMDL
