MODEL 1
REMARK minimizedAffinity -1.75168979
REMARK minimizedRMSD -1
REMARK  1 active torsions:
REMARK  status: ('A' for Active; 'I' for Inactive)
REMARK    1  A    between atoms: C1_2  and  C2_3 
ROOT
ATOM      1  C2  UNL d   1      -5.237  -3.204  -4.936  0.00  0.00    -0.073 A 
ATOM      2  C3  UNL d   1      -5.988  -4.017  -5.793  0.00  0.00    -0.002 A 
ATOM      3  C4  UNL d   1      -5.625  -5.348  -6.000  0.00  0.00     0.004 A 
ATOM      4  C5  UNL d   1      -4.514  -5.882  -5.347  0.00  0.00    -0.004 A 
ATOM      5  C6  UNL d   1      -3.758  -5.090  -4.478  0.00  0.00    -0.075 A 
ATOM      6  C7  UNL d   1      -2.559  -5.649  -3.771  0.00  0.00     0.076 C 
ATOM      7  C8  UNL d   1      -4.127  -3.753  -4.278  0.00  0.00     0.001 A 
ENDROOT
BRANCH   1   8
ATOM      8  C1  UNL d   1      -5.628  -1.768  -4.705  0.00  0.00     0.053 C 
ATOM      9  C   UNL d   1      -6.000  -1.062  -6.000  0.00  0.00     0.018 C 
ENDBRANCH   1   8
TORSDOF 1
ENDMDL
