MODEL 1
REMARK minimizedAffinity -3.79710937
REMARK minimizedRMSD -1
REMARK  1 active torsions:
REMARK  status: ('A' for Active; 'I' for Inactive)
REMARK    1  A    between atoms: C1_2  and  C2_3 
ROOT
ATOM      1  C2  UNL d   1      -3.252  -4.135  -5.562  0.00  0.00    -0.073 A 
ATOM      2  C3  UNL d   1      -3.984  -5.328  -5.556  0.00  0.00    -0.002 A 
ATOM      3  C4  UNL d   1      -5.350  -5.315  -5.272  0.00  0.00     0.004 A 
ATOM      4  C5  UNL d   1      -6.000  -4.111  -4.999  0.00  0.00    -0.004 A 
ATOM      5  C6  UNL d   1      -5.288  -2.907  -5.012  0.00  0.00    -0.075 A 
ATOM      6  C7  UNL d   1      -5.971  -1.604  -4.718  0.00  0.00     0.076 C 
ATOM      7  C8  UNL d   1      -3.916  -2.929  -5.296  0.00  0.00     0.001 A 
ENDROOT
BRANCH   1   8
ATOM      8  C1  UNL d   1      -1.778  -4.143  -5.875  0.00  0.00     0.053 C 
ATOM      9  C   UNL d   1      -1.037  -5.219  -5.098  0.00  0.00     0.018 C 
ENDBRANCH   1   8
TORSDOF 1
ENDMDL
