MODEL 1
REMARK minimizedAffinity -2.69351912
REMARK minimizedRMSD -1
REMARK  1 active torsions:
REMARK  status: ('A' for Active; 'I' for Inactive)
REMARK    1  A    between atoms: C1_2  and  C2_3 
ROOT
ATOM      1  C2  UNL d   1      -3.329  -4.668  -5.170  0.00  0.00    -0.073 A 
ATOM      2  C3  UNL d   1      -4.108  -5.805  -5.415  0.00  0.00    -0.002 A 
ATOM      3  C4  UNL d   1      -5.438  -5.674  -5.817  0.00  0.00     0.004 A 
ATOM      4  C5  UNL d   1      -6.000  -4.409  -5.986  0.00  0.00    -0.004 A 
ATOM      5  C6  UNL d   1      -5.234  -3.261  -5.758  0.00  0.00    -0.075 A 
ATOM      6  C7  UNL d   1      -5.824  -1.892  -5.932  0.00  0.00     0.076 C 
ATOM      7  C8  UNL d   1      -3.900  -3.400  -5.351  0.00  0.00     0.001 A 
ENDROOT
BRANCH   1   8
ATOM      8  C1  UNL d   1      -1.891  -4.804  -4.742  0.00  0.00     0.053 C 
ATOM      9  C   UNL d   1      -1.679  -5.998  -3.826  0.00  0.00     0.018 C 
ENDBRANCH   1   8
TORSDOF 1
ENDMDL
