MODEL 1
REMARK minimizedAffinity -3.49841762
REMARK minimizedRMSD -1
REMARK  1 active torsions:
REMARK  status: ('A' for Active; 'I' for Inactive)
REMARK    1  A    between atoms: C1_2  and  C2_3 
ROOT
ATOM      1  C2  UNL d   1      -3.226  -4.314  -5.461  0.00  0.00    -0.073 A 
ATOM      2  C3  UNL d   1      -4.044  -5.362  -5.898  0.00  0.00    -0.002 A 
ATOM      3  C4  UNL d   1      -5.425  -5.184  -5.997  0.00  0.00     0.004 A 
ATOM      4  C5  UNL d   1      -6.000  -3.956  -5.668  0.00  0.00    -0.004 A 
ATOM      5  C6  UNL d   1      -5.198  -2.894  -5.240  0.00  0.00    -0.075 A 
ATOM      6  C7  UNL d   1      -5.801  -1.568  -4.879  0.00  0.00     0.076 C 
ATOM      7  C8  UNL d   1      -3.812  -3.081  -5.140  0.00  0.00     0.001 A 
ENDROOT
BRANCH   1   8
ATOM      8  C1  UNL d   1      -1.734  -4.499  -5.359  0.00  0.00     0.053 C 
ATOM      9  C   UNL d   1      -1.276  -5.800  -6.000  0.00  0.00     0.018 C 
ENDBRANCH   1   8
TORSDOF 1
ENDMDL
