MODEL 1
REMARK minimizedAffinity 2.23084092
REMARK minimizedRMSD -1
REMARK  1 active torsions:
REMARK  status: ('A' for Active; 'I' for Inactive)
REMARK    1  A    between atoms: C1_2  and  C2_3 
ROOT
ATOM      1  C2  UNL d   1      -2.328  -0.573   3.553  0.00  0.00    -0.073 A 
ATOM      2  C3  UNL d   1      -1.702  -1.651   4.187  0.00  0.00    -0.002 A 
ATOM      3  C4  UNL d   1      -0.548  -2.216   3.642  0.00  0.00     0.004 A 
ATOM      4  C5  UNL d   1      -0.005  -1.704   2.463  0.00  0.00    -0.004 A 
ATOM      5  C6  UNL d   1      -0.610  -0.619   1.821  0.00  0.00    -0.075 A 
ATOM      6  C7  UNL d   1      -0.041  -0.058   0.551  0.00  0.00     0.076 C 
ATOM      7  C8  UNL d   1      -1.770  -0.059   2.373  0.00  0.00     0.001 A 
ENDROOT
BRANCH   1   8
ATOM      8  C1  UNL d   1      -3.571   0.044   4.141  0.00  0.00     0.053 C 
ATOM      9  C   UNL d   1      -4.399  -0.969   4.915  0.00  0.00     0.018 C 
ENDBRANCH   1   8
TORSDOF 1
ENDMDL
