MODEL 1
REMARK minimizedAffinity -0.597192168
REMARK minimizedRMSD -1
REMARK  1 active torsions:
REMARK  status: ('A' for Active; 'I' for Inactive)
REMARK    1  A    between atoms: C1_2  and  C2_3 
ROOT
ATOM      1  C2  UNL d   1      -2.360  -5.381  -4.859  0.00  0.00    -0.073 A 
ATOM      2  C3  UNL d   1      -2.526  -4.252  -4.049  0.00  0.00    -0.002 A 
ATOM      3  C4  UNL d   1      -3.791  -3.687  -3.879  0.00  0.00     0.004 A 
ATOM      4  C5  UNL d   1      -4.901  -4.249  -4.509  0.00  0.00    -0.004 A 
ATOM      5  C6  UNL d   1      -4.757  -5.385  -5.312  0.00  0.00    -0.075 A 
ATOM      6  C7  UNL d   1      -5.941  -6.000  -5.999  0.00  0.00     0.076 C 
ATOM      7  C8  UNL d   1      -3.483  -5.944  -5.481  0.00  0.00     0.001 A 
ENDROOT
BRANCH   1   8
ATOM      8  C1  UNL d   1      -0.997  -5.998  -5.041  0.00  0.00     0.053 C 
ATOM      9  C   UNL d   1      -0.185  -5.975  -3.756  0.00  0.00     0.018 C 
ENDBRANCH   1   8
TORSDOF 1
ENDMDL
