MODEL 1
REMARK minimizedAffinity -2.11714196
REMARK minimizedRMSD -1
REMARK  1 active torsions:
REMARK  status: ('A' for Active; 'I' for Inactive)
REMARK    1  A    between atoms: C1_2  and  C2_3 
ROOT
ATOM      1  C2  UNL d   1      -2.604  -3.928  -5.540  0.00  0.00    -0.073 A 
ATOM      2  C3  UNL d   1      -3.137  -2.722  -5.070  0.00  0.00    -0.002 A 
ATOM      3  C4  UNL d   1      -4.515  -2.576  -4.910  0.00  0.00     0.004 A 
ATOM      4  C5  UNL d   1      -5.373  -3.634  -5.209  0.00  0.00    -0.004 A 
ATOM      5  C6  UNL d   1      -4.859  -4.851  -5.668  0.00  0.00    -0.075 A 
ATOM      6  C7  UNL d   1      -5.768  -5.998  -5.997  0.00  0.00     0.076 C 
ATOM      7  C8  UNL d   1      -3.474  -4.989  -5.829  0.00  0.00     0.001 A 
ENDROOT
BRANCH   1   8
ATOM      8  C1  UNL d   1      -1.116  -4.093  -5.709  0.00  0.00     0.053 C 
ATOM      9  C   UNL d   1      -0.731  -5.535  -5.999  0.00  0.00     0.018 C 
ENDBRANCH   1   8
TORSDOF 1
ENDMDL
