MODEL 1
REMARK minimizedAffinity -2.67699599
REMARK minimizedRMSD -1
REMARK  1 active torsions:
REMARK  status: ('A' for Active; 'I' for Inactive)
REMARK    1  A    between atoms: C1_2  and  C2_3 
ROOT
ATOM      1  C2  UNL d   1      -3.211  -4.358  -4.976  0.00  0.00    -0.073 A 
ATOM      2  C3  UNL d   1      -3.947  -5.053  -5.942  0.00  0.00    -0.002 A 
ATOM      3  C4  UNL d   1      -5.335  -4.921  -6.000  0.00  0.00     0.004 A 
ATOM      4  C5  UNL d   1      -6.000  -4.090  -5.098  0.00  0.00    -0.004 A 
ATOM      5  C6  UNL d   1      -5.281  -3.378  -4.133  0.00  0.00    -0.075 A 
ATOM      6  C7  UNL d   1      -5.981  -2.481  -3.155  0.00  0.00     0.076 C 
ATOM      7  C8  UNL d   1      -3.887  -3.517  -4.080  0.00  0.00     0.001 A 
ENDROOT
BRANCH   1   8
ATOM      8  C1  UNL d   1      -1.712  -4.492  -4.913  0.00  0.00     0.053 C 
ATOM      9  C   UNL d   1      -1.275  -5.940  -4.757  0.00  0.00     0.018 C 
ENDBRANCH   1   8
TORSDOF 1
ENDMDL
