MODEL 1
REMARK minimizedAffinity -3.0220654
REMARK minimizedRMSD -1
REMARK  1 active torsions:
REMARK  status: ('A' for Active; 'I' for Inactive)
REMARK    1  A    between atoms: C1_2  and  C2_3 
ROOT
ATOM      1  C2  UNL d   1      -3.707  -4.738  -5.025  0.00  0.00    -0.073 A 
ATOM      2  C3  UNL d   1      -4.269  -5.130  -3.805  0.00  0.00    -0.002 A 
ATOM      3  C4  UNL d   1      -5.381  -4.460  -3.293  0.00  0.00     0.004 A 
ATOM      4  C5  UNL d   1      -5.945  -3.397  -3.998  0.00  0.00    -0.004 A 
ATOM      5  C6  UNL d   1      -5.405  -2.998  -5.225  0.00  0.00    -0.075 A 
ATOM      6  C7  UNL d   1      -6.000  -1.855  -5.994  0.00  0.00     0.076 C 
ATOM      7  C8  UNL d   1      -4.287  -3.674  -5.731  0.00  0.00     0.001 A 
ENDROOT
BRANCH   1   8
ATOM      8  C1  UNL d   1      -2.510  -5.463  -5.585  0.00  0.00     0.053 C 
ATOM      9  C   UNL d   1      -1.374  -4.511  -5.923  0.00  0.00     0.018 C 
ENDBRANCH   1   8
TORSDOF 1
ENDMDL
