MODEL 1
REMARK minimizedAffinity 7.8223691
REMARK minimizedRMSD -1
REMARK  1 active torsions:
REMARK  status: ('A' for Active; 'I' for Inactive)
REMARK    1  A    between atoms: C1_2  and  C2_3 
ROOT
ATOM      1  C2  UNL d   1      -4.026  -2.628  -5.072  0.00  0.00    -0.073 A 
ATOM      2  C3  UNL d   1      -4.124  -2.808  -3.688  0.00  0.00    -0.002 A 
ATOM      3  C4  UNL d   1      -3.395  -3.816  -3.055  0.00  0.00     0.004 A 
ATOM      4  C5  UNL d   1      -2.558  -4.649  -3.798  0.00  0.00    -0.004 A 
ATOM      5  C6  UNL d   1      -2.438  -4.476  -5.181  0.00  0.00    -0.075 A 
ATOM      6  C7  UNL d   1      -1.542  -5.365  -5.994  0.00  0.00     0.076 C 
ATOM      7  C8  UNL d   1      -3.175  -3.464  -5.809  0.00  0.00     0.001 A 
ENDROOT
BRANCH   1   8
ATOM      8  C1  UNL d   1      -4.806  -1.537  -5.759  0.00  0.00     0.053 C 
ATOM      9  C   UNL d   1      -5.992  -1.074  -4.927  0.00  0.00     0.018 C 
ENDBRANCH   1   8
TORSDOF 1
ENDMDL
