MODEL 1
REMARK minimizedAffinity -2.93737388
REMARK minimizedRMSD -1
REMARK  1 active torsions:
REMARK  status: ('A' for Active; 'I' for Inactive)
REMARK    1  A    between atoms: C1_2  and  C2_3 
ROOT
ATOM      1  C2  UNL d   1      -2.596  -4.275  -5.413  0.00  0.00    -0.073 A 
ATOM      2  C3  UNL d   1      -3.001  -3.127  -4.722  0.00  0.00    -0.002 A 
ATOM      3  C4  UNL d   1      -4.353  -2.907  -4.453  0.00  0.00     0.004 A 
ATOM      4  C5  UNL d   1      -5.310  -3.834  -4.864  0.00  0.00    -0.004 A 
ATOM      5  C6  UNL d   1      -4.924  -4.993  -5.545  0.00  0.00    -0.075 A 
ATOM      6  C7  UNL d   1      -5.942  -5.998  -5.997  0.00  0.00     0.076 C 
ATOM      7  C8  UNL d   1      -3.565  -5.205  -5.814  0.00  0.00     0.001 A 
ENDROOT
BRANCH   1   8
ATOM      8  C1  UNL d   1      -1.137  -4.520  -5.701  0.00  0.00     0.053 C 
ATOM      9  C   UNL d   1      -0.853  -5.984  -5.999  0.00  0.00     0.018 C 
ENDBRANCH   1   8
TORSDOF 1
ENDMDL
