MODEL 1
REMARK minimizedAffinity -3.14553571
REMARK minimizedRMSD -1
REMARK  0 active torsions:
REMARK  status: ('A' for Active; 'I' for Inactive)
ROOT
ATOM      1  C2' OXE d   1       0.897  -2.603   0.941  0.00  0.00     0.078 C 
ATOM      2  C1' OXE d   1       2.970  -0.711   0.928  0.00  0.00     0.078 C 
ATOM      3  C1  OXE d   1       1.591  -0.247   0.530  0.00  0.00    -0.078 A 
ATOM      4  C2  OXE d   1       0.593  -1.190   0.495  0.00  0.00    -0.078 A 
ATOM      5  C3  OXE d   1      -0.709  -0.804   0.187  0.00  0.00     0.003 A 
ATOM      6  C4  OXE d   1      -0.980   0.503  -0.235  0.00  0.00    -0.002 A 
ATOM      7  C5  OXE d   1       0.031   1.470  -0.244  0.00  0.00    -0.002 A 
ATOM      8  C6  OXE d   1       1.310   1.123   0.176  0.00  0.00     0.003 A 
ENDROOT
TORSDOF 0
ENDMDL
