MODEL 1
REMARK minimizedAffinity -3.5090673
REMARK minimizedRMSD -1
REMARK  0 active torsions:
REMARK  status: ('A' for Active; 'I' for Inactive)
ROOT
ATOM      1  C2' OXE d   1      -2.104  -0.295   0.953  0.00  0.00     0.078 C 
ATOM      2  C1' OXE d   1       0.489   0.351   0.094  0.00  0.00     0.078 C 
ATOM      3  C1  OXE d   1      -0.622   0.398  -0.925  0.00  0.00    -0.078 A 
ATOM      4  C2  OXE d   1      -1.879   0.035  -0.507  0.00  0.00    -0.078 A 
ATOM      5  C3  OXE d   1      -2.950   0.114  -1.393  0.00  0.00     0.003 A 
ATOM      6  C4  OXE d   1      -2.732   0.411  -2.744  0.00  0.00    -0.002 A 
ATOM      7  C5  OXE d   1      -1.452   0.745  -3.200  0.00  0.00    -0.002 A 
ATOM      8  C6  OXE d   1      -0.396   0.785  -2.296  0.00  0.00     0.003 A 
ENDROOT
TORSDOF 0
ENDMDL
