MODEL 1
REMARK minimizedAffinity 3.22514057
REMARK minimizedRMSD -1
REMARK  0 active torsions:
REMARK  status: ('A' for Active; 'I' for Inactive)
ROOT
ATOM      1  C2' OXE d   1       0.324  -1.015   0.810  0.00  0.00     0.078 C 
ATOM      2  C1' OXE d   1      -0.709   1.566   0.420  0.00  0.00     0.078 C 
ATOM      3  C1  OXE d   1      -1.014   0.521  -0.624  0.00  0.00    -0.078 A 
ATOM      4  C2  OXE d   1      -0.465  -0.727  -0.449  0.00  0.00    -0.078 A 
ATOM      5  C3  OXE d   1      -0.759  -1.742  -1.354  0.00  0.00     0.003 A 
ATOM      6  C4  OXE d   1      -1.482  -1.465  -2.521  0.00  0.00    -0.002 A 
ATOM      7  C5  OXE d   1      -2.016  -0.191  -2.739  0.00  0.00    -0.002 A 
ATOM      8  C6  OXE d   1      -1.828   0.800  -1.781  0.00  0.00     0.003 A 
ENDROOT
TORSDOF 0
ENDMDL
