MODEL 1
REMARK minimizedAffinity -6.14729643
REMARK minimizedRMSD -1
REMARK  0 active torsions:
REMARK  status: ('A' for Active; 'I' for Inactive)
ROOT
ATOM      1  C2' OXE d   1       0.642   1.801  -0.189  0.00  0.00     0.078 C 
ATOM      2  C1' OXE d   1      -1.071  -0.415   0.003  0.00  0.00     0.078 C 
ATOM      3  C1  OXE d   1       0.320  -0.550   0.569  0.00  0.00    -0.078 A 
ATOM      4  C2  OXE d   1       1.167   0.523   0.429  0.00  0.00    -0.078 A 
ATOM      5  C3  OXE d   1       2.444   0.470   0.981  0.00  0.00     0.003 A 
ATOM      6  C4  OXE d   1       2.925  -0.719   1.542  0.00  0.00    -0.002 A 
ATOM      7  C5  OXE d   1       2.092  -1.837   1.659  0.00  0.00    -0.002 A 
ATOM      8  C6  OXE d   1       0.776  -1.755   1.217  0.00  0.00     0.003 A 
ENDROOT
TORSDOF 0
ENDMDL
