MODEL 1
REMARK minimizedAffinity -2.71683216
REMARK minimizedRMSD -1
REMARK  0 active torsions:
REMARK  status: ('A' for Active; 'I' for Inactive)
ROOT
ATOM      1  C2' OXE d   1      -1.602  -1.130   1.131  0.00  0.00     0.078 C 
ATOM      2  C1' OXE d   1       0.735  -2.151   2.303  0.00  0.00     0.078 C 
ATOM      3  C1  OXE d   1       0.837  -0.847   1.551  0.00  0.00    -0.078 A 
ATOM      4  C2  OXE d   1      -0.302  -0.379   0.941  0.00  0.00    -0.078 A 
ATOM      5  C3  OXE d   1      -0.276   0.847   0.281  0.00  0.00     0.003 A 
ATOM      6  C4  OXE d   1       0.933   1.530   0.102  0.00  0.00    -0.002 A 
ATOM      7  C5  OXE d   1       2.112   1.050   0.681  0.00  0.00    -0.002 A 
ATOM      8  C6  OXE d   1       2.073  -0.112   1.443  0.00  0.00     0.003 A 
ENDROOT
TORSDOF 0
ENDMDL
