MODEL 1
REMARK minimizedAffinity -0.568336725
REMARK minimizedRMSD -1
REMARK  0 active torsions:
REMARK  status: ('A' for Active; 'I' for Inactive)
ROOT
ATOM      1  C2' OXE d   1      -0.383  -0.763   1.479  0.00  0.00     0.078 C 
ATOM      2  C1' OXE d   1       0.977   1.522   0.579  0.00  0.00     0.078 C 
ATOM      3  C1  OXE d   1       1.456   0.875   1.854  0.00  0.00    -0.078 A 
ATOM      4  C2  OXE d   1       0.755  -0.215   2.313  0.00  0.00    -0.078 A 
ATOM      5  C3  OXE d   1       1.188  -0.882   3.455  0.00  0.00     0.003 A 
ATOM      6  C4  OXE d   1       2.236  -0.362   4.225  0.00  0.00    -0.002 A 
ATOM      7  C5  OXE d   1       2.938   0.770   3.798  0.00  0.00    -0.002 A 
ATOM      8  C6  OXE d   1       2.588   1.374   2.595  0.00  0.00     0.003 A 
ENDROOT
TORSDOF 0
ENDMDL
