MODEL 1
REMARK minimizedAffinity -5.46898842
REMARK minimizedRMSD -1
REMARK  0 active torsions:
REMARK  status: ('A' for Active; 'I' for Inactive)
ROOT
ATOM      1  C2' OXE d   1      -1.440  -0.565   0.166  0.00  0.00     0.078 C 
ATOM      2  C1' OXE d   1       0.562  -2.367   0.957  0.00  0.00     0.078 C 
ATOM      3  C1  OXE d   1       0.929  -0.908   0.856  0.00  0.00    -0.078 A 
ATOM      4  C2  OXE d   1      -0.044  -0.040   0.423  0.00  0.00    -0.078 A 
ATOM      5  C3  OXE d   1       0.226   1.325   0.363  0.00  0.00     0.003 A 
ATOM      6  C4  OXE d   1       1.523   1.801   0.593  0.00  0.00    -0.002 A 
ATOM      7  C5  OXE d   1       2.539   0.928   0.997  0.00  0.00    -0.002 A 
ATOM      8  C6  OXE d   1       2.248  -0.420   1.174  0.00  0.00     0.003 A 
ENDROOT
TORSDOF 0
ENDMDL
