MODEL 1
REMARK minimizedAffinity -4.32795572
REMARK minimizedRMSD -1
REMARK  0 active torsions:
REMARK  status: ('A' for Active; 'I' for Inactive)
ROOT
ATOM      1  C4' PXY d   1       1.229   2.287   2.390  0.00  0.00     0.077 C 
ATOM      2  C1' PXY d   1      -1.006  -1.639  -1.217  0.00  0.00     0.077 C 
ATOM      3  C1  PXY d   1      -0.409  -0.609  -0.278  0.00  0.00    -0.082 A 
ATOM      4  C2  PXY d   1      -0.809  -0.562   0.982  0.00  0.00     0.003 A 
ATOM      5  C3  PXY d   1      -0.304   0.384   1.836  0.00  0.00     0.003 A 
ATOM      6  C4  PXY d   1       0.661   1.257   1.410  0.00  0.00    -0.082 A 
ATOM      7  C5  PXY d   1       1.082   1.209   0.128  0.00  0.00     0.003 A 
ATOM      8  C6  PXY d   1       0.527   0.268  -0.734  0.00  0.00     0.003 A 
ENDROOT
TORSDOF 0
ENDMDL
