MODEL 1
REMARK minimizedAffinity -4.20658922
REMARK minimizedRMSD -1
REMARK  0 active torsions:
REMARK  status: ('A' for Active; 'I' for Inactive)
ROOT
ATOM      1  C4' PXY d   1       0.190   1.526   2.277  0.00  0.00     0.077 C 
ATOM      2  C1' PXY d   1      -0.823  -1.486  -2.552  0.00  0.00     0.077 C 
ATOM      3  C1  PXY d   1      -0.548  -0.689  -1.292  0.00  0.00    -0.082 A 
ATOM      4  C2  PXY d   1      -0.878  -1.194  -0.114  0.00  0.00     0.003 A 
ATOM      5  C3  PXY d   1      -0.665  -0.474   1.033  0.00  0.00     0.003 A 
ATOM      6  C4  PXY d   1      -0.060   0.753   0.979  0.00  0.00    -0.082 A 
ATOM      7  C5  PXY d   1       0.289   1.270  -0.218  0.00  0.00     0.003 A 
ATOM      8  C6  PXY d   1       0.027   0.541  -1.374  0.00  0.00     0.003 A 
ENDROOT
TORSDOF 0
ENDMDL
