MODEL 1
REMARK minimizedAffinity -4.35540342
REMARK minimizedRMSD -1
REMARK  0 active torsions:
REMARK  status: ('A' for Active; 'I' for Inactive)
ROOT
ATOM      1  C4' PXY d   1       1.115   2.350   1.966  0.00  0.00     0.077 C 
ATOM      2  C1' PXY d   1      -1.215  -2.127  -0.852  0.00  0.00     0.077 C 
ATOM      3  C1  PXY d   1      -0.615  -0.950  -0.108  0.00  0.00    -0.082 A 
ATOM      4  C2  PXY d   1       0.506  -0.401  -0.547  0.00  0.00     0.003 A 
ATOM      5  C3  PXY d   1       1.079   0.643   0.132  0.00  0.00     0.003 A 
ATOM      6  C4  PXY d   1       0.469   1.166   1.241  0.00  0.00    -0.082 A 
ATOM      7  C5  PXY d   1      -0.681   0.619   1.689  0.00  0.00     0.003 A 
ATOM      8  C6  PXY d   1      -1.224  -0.468   1.009  0.00  0.00     0.003 A 
ENDROOT
TORSDOF 0
ENDMDL
