MODEL 1
REMARK minimizedAffinity -4.73888302
REMARK minimizedRMSD -1
REMARK  0 active torsions:
REMARK  status: ('A' for Active; 'I' for Inactive)
ROOT
ATOM      1  C4' PXY d   1       1.330   3.083   0.927  0.00  0.00     0.077 C 
ATOM      2  C1' PXY d   1       0.219  -2.324  -0.787  0.00  0.00     0.077 C 
ATOM      3  C1  PXY d   1       0.523  -0.908  -0.341  0.00  0.00    -0.082 A 
ATOM      4  C2  PXY d   1      -0.270  -0.314   0.537  0.00  0.00     0.003 A 
ATOM      5  C3  PXY d   1      -0.028   0.978   0.927  0.00  0.00     0.003 A 
ATOM      6  C4  PXY d   1       1.067   1.651   0.455  0.00  0.00    -0.082 A 
ATOM      7  C5  PXY d   1       1.886   1.048  -0.432  0.00  0.00     0.003 A 
ATOM      8  C6  PXY d   1       1.600  -0.249  -0.847  0.00  0.00     0.003 A 
ENDROOT
TORSDOF 0
ENDMDL
