MODEL 1
REMARK minimizedAffinity -4.05942106
REMARK minimizedRMSD -1
REMARK  0 active torsions:
REMARK  status: ('A' for Active; 'I' for Inactive)
ROOT
ATOM      1  C4' PXY d   1      -0.686  -1.929  -1.106  0.00  0.00     0.077 C 
ATOM      2  C1' PXY d   1       1.402   2.679   1.690  0.00  0.00     0.077 C 
ATOM      3  C1  PXY d   1       0.862   1.473   0.946  0.00  0.00    -0.082 A 
ATOM      4  C2  PXY d   1      -0.322   0.980   1.272  0.00  0.00     0.003 A 
ATOM      5  C3  PXY d   1      -0.811  -0.129   0.632  0.00  0.00     0.003 A 
ATOM      6  C4  PXY d   1      -0.105  -0.708  -0.389  0.00  0.00    -0.082 A 
ATOM      7  C5  PXY d   1       1.098  -0.204  -0.735  0.00  0.00     0.003 A 
ATOM      8  C6  PXY d   1       1.596   0.898  -0.044  0.00  0.00     0.003 A 
ENDROOT
TORSDOF 0
ENDMDL
