MODEL 1
REMARK minimizedAffinity -1.88116395
REMARK minimizedRMSD -1
REMARK  0 active torsions:
REMARK  status: ('A' for Active; 'I' for Inactive)
ROOT
ATOM      1  C4' PXY d   1      -1.160  -1.968  -1.353  0.00  0.00     0.077 C 
ATOM      2  C1' PXY d   1       1.295   2.231   1.771  0.00  0.00     0.077 C 
ATOM      3  C1  PXY d   1       0.659   1.132   0.942  0.00  0.00    -0.082 A 
ATOM      4  C2  PXY d   1      -0.581   0.751   1.202  0.00  0.00     0.003 A 
ATOM      5  C3  PXY d   1      -1.160  -0.263   0.483  0.00  0.00     0.003 A 
ATOM      6  C4  PXY d   1      -0.482  -0.856  -0.548  0.00  0.00    -0.082 A 
ATOM      7  C5  PXY d   1       0.780  -0.465  -0.827  0.00  0.00     0.003 A 
ATOM      8  C6  PXY d   1       1.364   0.538  -0.058  0.00  0.00     0.003 A 
ENDROOT
TORSDOF 0
ENDMDL
