MODEL 1
REMARK minimizedAffinity -2.59870243
REMARK minimizedRMSD -1
REMARK  0 active torsions:
REMARK  status: ('A' for Active; 'I' for Inactive)
ROOT
ATOM      1  C4' PXY d   1      -4.112  -3.235  -1.892  0.00  0.00     0.077 C 
ATOM      2  C1' PXY d   1       0.880  -0.354  -1.448  0.00  0.00     0.077 C 
ATOM      3  C1  PXY d   1      -0.432  -1.103  -1.575  0.00  0.00    -0.082 A 
ATOM      4  C2  PXY d   1      -0.973  -1.662  -0.505  0.00  0.00     0.003 A 
ATOM      5  C3  PXY d   1      -2.143  -2.370  -0.608  0.00  0.00     0.003 A 
ATOM      6  C4  PXY d   1      -2.793  -2.461  -1.809  0.00  0.00    -0.082 A 
ATOM      7  C5  PXY d   1      -2.254  -1.884  -2.904  0.00  0.00     0.003 A 
ATOM      8  C6  PXY d   1      -1.045  -1.205  -2.786  0.00  0.00     0.003 A 
ENDROOT
TORSDOF 0
ENDMDL
