MODEL 1
REMARK minimizedAffinity 0.598963916
REMARK minimizedRMSD -1
REMARK  0 active torsions:
REMARK  status: ('A' for Active; 'I' for Inactive)
ROOT
ATOM      1  C4' PXY d   1       1.537   2.276   1.013  0.00  0.00     0.077 C 
ATOM      2  C1' PXY d   1      -0.928  -2.386  -1.354  0.00  0.00     0.077 C 
ATOM      3  C1  PXY d   1      -0.270  -1.167  -0.738  0.00  0.00    -0.082 A 
ATOM      4  C2  PXY d   1      -0.839  -0.569   0.297  0.00  0.00     0.003 A 
ATOM      5  C3  PXY d   1      -0.274   0.553   0.846  0.00  0.00     0.003 A 
ATOM      6  C4  PXY d   1       0.913   1.037   0.365  0.00  0.00    -0.082 A 
ATOM      7  C5  PXY d   1       1.505   0.426  -0.683  0.00  0.00     0.003 A 
ATOM      8  C6  PXY d   1       0.894  -0.687  -1.253  0.00  0.00     0.003 A 
ENDROOT
TORSDOF 0
ENDMDL
