MODEL 1
REMARK minimizedAffinity -5.25594902
REMARK minimizedRMSD -1
REMARK  0 active torsions:
REMARK  status: ('A' for Active; 'I' for Inactive)
ROOT
ATOM      1  C4' PXY d   1       2.725   1.725  -0.077  0.00  0.00     0.077 C 
ATOM      2  C1' PXY d   1      -2.352   0.839   2.541  0.00  0.00     0.077 C 
ATOM      3  C1  PXY d   1      -1.022   1.060   1.848  0.00  0.00    -0.082 A 
ATOM      4  C2  PXY d   1      -0.103   1.818   2.423  0.00  0.00     0.003 A 
ATOM      5  C3  PXY d   1       1.093   2.054   1.795  0.00  0.00     0.003 A 
ATOM      6  C4  PXY d   1       1.371   1.466   0.591  0.00  0.00    -0.082 A 
ATOM      7  C5  PXY d   1       0.443   0.682   0.003  0.00  0.00     0.003 A 
ATOM      8  C6  PXY d   1      -0.781   0.488   0.637  0.00  0.00     0.003 A 
ENDROOT
TORSDOF 0
ENDMDL
