MODEL 1
REMARK minimizedAffinity -3.57101417
REMARK minimizedRMSD -1
REMARK  0 active torsions:
REMARK  status: ('A' for Active; 'I' for Inactive)
ROOT
ATOM      1  C4' PXY d   1       1.231   2.293   1.331  0.00  0.00     0.077 C 
ATOM      2  C1' PXY d   1      -1.243  -2.607  -0.482  0.00  0.00     0.077 C 
ATOM      3  C1  PXY d   1      -0.583  -1.325  -0.014  0.00  0.00    -0.082 A 
ATOM      4  C2  PXY d   1      -0.977  -0.762   1.117  0.00  0.00     0.003 A 
ATOM      5  C3  PXY d   1      -0.413   0.414   1.540  0.00  0.00     0.003 A 
ATOM      6  C4  PXY d   1       0.600   0.993   0.824  0.00  0.00    -0.082 A 
ATOM      7  C5  PXY d   1       1.015   0.420  -0.326  0.00  0.00     0.003 A 
ATOM      8  C6  PXY d   1       0.401  -0.753  -0.758  0.00  0.00     0.003 A 
ENDROOT
TORSDOF 0
ENDMDL
