MODEL 1
REMARK minimizedAffinity -3.01666522
REMARK minimizedRMSD -1
REMARK  0 active torsions:
REMARK  status: ('A' for Active; 'I' for Inactive)
ROOT
ATOM      1  C4' PXY d   1       0.528   0.679   4.242  0.00  0.00     0.077 C 
ATOM      2  C1' PXY d   1       0.234   1.189  -1.508  0.00  0.00     0.077 C 
ATOM      3  C1  PXY d   1       0.300   1.048  -0.000  0.00  0.00    -0.082 A 
ATOM      4  C2  PXY d   1       0.996   1.922   0.708  0.00  0.00     0.003 A 
ATOM      5  C3  PXY d   1       1.093   1.792   2.070  0.00  0.00     0.003 A 
ATOM      6  C4  PXY d   1       0.426   0.787   2.718  0.00  0.00    -0.082 A 
ATOM      7  C5  PXY d   1      -0.295  -0.102   2.004  0.00  0.00     0.003 A 
ATOM      8  C6  PXY d   1      -0.347   0.023   0.618  0.00  0.00     0.003 A 
ENDROOT
TORSDOF 0
ENDMDL
