MODEL 1
REMARK minimizedAffinity -4.69892979
REMARK minimizedRMSD -1
REMARK  0 active torsions:
REMARK  status: ('A' for Active; 'I' for Inactive)
ROOT
ATOM      1  C4' PXY d   1      -0.362  -1.560  -1.000  0.00  0.00     0.077 C 
ATOM      2  C1' PXY d   1       1.988   3.078   1.526  0.00  0.00     0.077 C 
ATOM      3  C1  PXY d   1       1.381   1.862   0.854  0.00  0.00    -0.082 A 
ATOM      4  C2  PXY d   1       0.095   1.599   1.017  0.00  0.00     0.003 A 
ATOM      5  C3  PXY d   1      -0.463   0.485   0.443  0.00  0.00     0.003 A 
ATOM      6  C4  PXY d   1       0.291  -0.338  -0.349  0.00  0.00    -0.082 A 
ATOM      7  C5  PXY d   1       1.602  -0.071  -0.528  0.00  0.00     0.003 A 
ATOM      8  C6  PXY d   1       2.159   1.042   0.096  0.00  0.00     0.003 A 
ENDROOT
TORSDOF 0
ENDMDL
