MODEL 1
REMARK minimizedAffinity 0.764232993
REMARK minimizedRMSD -1
REMARK  0 active torsions:
REMARK  status: ('A' for Active; 'I' for Inactive)
ROOT
ATOM      1  C4' PXY d   1      -4.507  -4.130   0.006  0.00  0.00     0.077 C 
ATOM      2  C1' PXY d   1      -1.827  -0.780  -3.868  0.00  0.00     0.077 C 
ATOM      3  C1  PXY d   1      -2.518  -1.665  -2.850  0.00  0.00    -0.082 A 
ATOM      4  C2  PXY d   1      -3.828  -1.841  -2.919  0.00  0.00     0.003 A 
ATOM      5  C3  PXY d   1      -4.474  -2.612  -1.987  0.00  0.00     0.003 A 
ATOM      6  C4  PXY d   1      -3.765  -3.253  -1.006  0.00  0.00    -0.082 A 
ATOM      7  C5  PXY d   1      -2.427  -3.087  -0.936  0.00  0.00     0.003 A 
ATOM      8  C6  PXY d   1      -1.796  -2.267  -1.867  0.00  0.00     0.003 A 
ENDROOT
TORSDOF 0
ENDMDL
