MODEL 1
REMARK minimizedAffinity -4.79186678
REMARK minimizedRMSD -1
REMARK  0 active torsions:
REMARK  status: ('A' for Active; 'I' for Inactive)
ROOT
ATOM      1  C4' PXY d   1      -1.163  -1.525  -0.792  0.00  0.00     0.077 C 
ATOM      2  C1' PXY d   1       1.682   2.923   1.562  0.00  0.00     0.077 C 
ATOM      3  C1  PXY d   1       0.944   1.757   0.934  0.00  0.00    -0.082 A 
ATOM      4  C2  PXY d   1      -0.287   1.474   1.328  0.00  0.00     0.003 A 
ATOM      5  C3  PXY d   1      -0.958   0.404   0.794  0.00  0.00     0.003 A 
ATOM      6  C4  PXY d   1      -0.382  -0.352  -0.193  0.00  0.00    -0.082 A 
ATOM      7  C5  PXY d   1       0.869  -0.063  -0.608  0.00  0.00     0.003 A 
ATOM      8  C6  PXY d   1       1.548   1.003  -0.024  0.00  0.00     0.003 A 
ENDROOT
TORSDOF 0
ENDMDL
