MODEL 1
REMARK minimizedAffinity -5.6170373
REMARK minimizedRMSD -1
REMARK  0 active torsions:
REMARK  status: ('A' for Active; 'I' for Inactive)
ROOT
ATOM      1  C4' PXY d   1       3.365   0.692  -0.506  0.00  0.00     0.077 C 
ATOM      2  C1' PXY d   1      -1.546   1.479   2.440  0.00  0.00     0.077 C 
ATOM      3  C1  PXY d   1      -0.261   1.260   1.666  0.00  0.00    -0.082 A 
ATOM      4  C2  PXY d   1       0.754   2.092   1.834  0.00  0.00     0.003 A 
ATOM      5  C3  PXY d   1       1.912   1.927   1.119  0.00  0.00     0.003 A 
ATOM      6  C4  PXY d   1       2.052   0.869   0.261  0.00  0.00    -0.082 A 
ATOM      7  C5  PXY d   1       1.025   0.010   0.092  0.00  0.00     0.003 A 
ATOM      8  C6  PXY d   1      -0.157   0.218   0.797  0.00  0.00     0.003 A 
ENDROOT
TORSDOF 0
ENDMDL
