MODEL 1
REMARK minimizedAffinity -4.04851103
REMARK minimizedRMSD -1
REMARK  0 active torsions:
REMARK  status: ('A' for Active; 'I' for Inactive)
ROOT
ATOM      1  C4' PXY d   1      -0.779  -1.693  -1.295  0.00  0.00     0.077 C 
ATOM      2  C1' PXY d   1       0.704   2.661   2.207  0.00  0.00     0.077 C 
ATOM      3  C1  PXY d   1       0.319   1.526   1.278  0.00  0.00    -0.082 A 
ATOM      4  C2  PXY d   1      -0.563   0.624   1.678  0.00  0.00     0.003 A 
ATOM      5  C3  PXY d   1      -0.899  -0.426   0.863  0.00  0.00     0.003 A 
ATOM      6  C4  PXY d   1      -0.367  -0.525  -0.394  0.00  0.00    -0.082 A 
ATOM      7  C5  PXY d   1       0.525   0.397  -0.814  0.00  0.00     0.003 A 
ATOM      8  C6  PXY d   1       0.884   1.432   0.044  0.00  0.00     0.003 A 
ENDROOT
TORSDOF 0
ENDMDL
