MODEL 1
REMARK minimizedAffinity -4.02380419
REMARK minimizedRMSD -1
REMARK  0 active torsions:
REMARK  status: ('A' for Active; 'I' for Inactive)
ROOT
ATOM      1  C4' PXY d   1      -0.748  -1.556  -1.089  0.00  0.00     0.077 C 
ATOM      2  C1' PXY d   1       1.440   3.157   1.443  0.00  0.00     0.077 C 
ATOM      3  C1  PXY d   1       0.861   1.917   0.790  0.00  0.00    -0.082 A 
ATOM      4  C2  PXY d   1       1.429   1.425  -0.298  0.00  0.00     0.003 A 
ATOM      5  C3  PXY d   1       0.899   0.323  -0.920  0.00  0.00     0.003 A 
ATOM      6  C4  PXY d   1      -0.192  -0.312  -0.391  0.00  0.00    -0.082 A 
ATOM      7  C5  PXY d   1      -0.771   0.177   0.725  0.00  0.00     0.003 A 
ATOM      8  C6  PXY d   1      -0.243   1.321   1.318  0.00  0.00     0.003 A 
ENDROOT
TORSDOF 0
ENDMDL
