MODEL 1
REMARK minimizedAffinity -4.03015041
REMARK minimizedRMSD -1
REMARK  0 active torsions:
REMARK  status: ('A' for Active; 'I' for Inactive)
ROOT
ATOM      1  C4' PXY d   1      -1.672  -1.809  -2.326  0.00  0.00     0.077 C 
ATOM      2  C1' PXY d   1       0.168   1.600   1.965  0.00  0.00     0.077 C 
ATOM      3  C1  PXY d   1      -0.307   0.696   0.844  0.00  0.00    -0.082 A 
ATOM      4  C2  PXY d   1      -0.819   1.229  -0.253  0.00  0.00     0.003 A 
ATOM      5  C3  PXY d   1      -1.282   0.427  -1.263  0.00  0.00     0.003 A 
ATOM      6  C4  PXY d   1      -1.172  -0.935  -1.172  0.00  0.00    -0.082 A 
ATOM      7  C5  PXY d   1      -0.641  -1.487  -0.060  0.00  0.00     0.003 A 
ATOM      8  C6  PXY d   1      -0.214  -0.655   0.972  0.00  0.00     0.003 A 
ENDROOT
TORSDOF 0
ENDMDL
