MODEL 1
REMARK minimizedAffinity -4.29484081
REMARK minimizedRMSD -1
REMARK  0 active torsions:
REMARK  status: ('A' for Active; 'I' for Inactive)
ROOT
ATOM      1  C4' PXY d   1      -2.354   0.616   2.388  0.00  0.00     0.077 C 
ATOM      2  C1' PXY d   1       2.361   1.221  -0.902  0.00  0.00     0.077 C 
ATOM      3  C1  PXY d   1       1.119   1.056  -0.048  0.00  0.00    -0.082 A 
ATOM      4  C2  PXY d   1       0.881   1.910   0.933  0.00  0.00     0.003 A 
ATOM      5  C3  PXY d   1      -0.221   1.757   1.735  0.00  0.00     0.003 A 
ATOM      6  C4  PXY d   1      -1.117   0.750   1.495  0.00  0.00    -0.082 A 
ATOM      7  C5  PXY d   1      -0.887  -0.120   0.489  0.00  0.00     0.003 A 
ATOM      8  C6  PXY d   1       0.259   0.029  -0.287  0.00  0.00     0.003 A 
ENDROOT
TORSDOF 0
ENDMDL
