MODEL 1
REMARK minimizedAffinity -4.11484194
REMARK minimizedRMSD -1
REMARK  0 active torsions:
REMARK  status: ('A' for Active; 'I' for Inactive)
ROOT
ATOM      1  C4' PXY d   1       3.043   1.146  -0.816  0.00  0.00     0.077 C 
ATOM      2  C1' PXY d   1      -1.637   1.034   2.575  0.00  0.00     0.077 C 
ATOM      3  C1  PXY d   1      -0.407   1.076   1.689  0.00  0.00    -0.082 A 
ATOM      4  C2  PXY d   1      -0.316   0.253   0.657  0.00  0.00     0.003 A 
ATOM      5  C3  PXY d   1       0.803   0.255  -0.135  0.00  0.00     0.003 A 
ATOM      6  C4  PXY d   1       1.816   1.146   0.099  0.00  0.00    -0.082 A 
ATOM      7  C5  PXY d   1       1.726   1.996   1.144  0.00  0.00     0.003 A 
ATOM      8  C6  PXY d   1       0.600   1.950   1.961  0.00  0.00     0.003 A 
ENDROOT
TORSDOF 0
ENDMDL
