MODEL 1
REMARK minimizedAffinity 0.165917203
REMARK minimizedRMSD -1
REMARK  2 active torsions:
REMARK  status: ('A' for Active; 'I' for Inactive)
REMARK    1  A    between atoms: C2'_3  and  C1'_4 
REMARK    2  A    between atoms: C1'_4  and  C1_5 
ROOT
ATOM      1  C1  I4B d   1      -1.558  -0.645   1.303  0.00  0.00    -0.075 A 
ATOM      2  C2  I4B d   1      -0.469  -0.787   2.126  0.00  0.00     0.003 A 
ATOM      3  C3  I4B d   1       0.835  -0.860   1.578  0.00  0.00     0.002 A 
ATOM      4  C4  I4B d   1       0.998  -0.840   0.208  0.00  0.00    -0.004 A 
ATOM      5  C5  I4B d   1      -0.105  -0.673  -0.625  0.00  0.00     0.002 A 
ATOM      6  C6  I4B d   1      -1.390  -0.563  -0.074  0.00  0.00     0.003 A 
ENDROOT
BRANCH   1   7
ATOM      7  C1' I4B d   1      -2.923  -0.603   1.913  0.00  0.00     0.060 C 
BRANCH   7   8
ATOM      8  C2' I4B d   1      -3.834  -1.481   1.080  0.00  0.00    -0.013 C 
ATOM      9  C4' I4B d   1      -3.483  -2.937   1.238  0.00  0.00     0.013 C 
ATOM     10  C3' I4B d   1      -5.247  -1.216   1.504  0.00  0.00     0.013 C 
ENDBRANCH   7   8
ENDBRANCH   1   7
TORSDOF 2
ENDMDL
