MODEL 1
REMARK minimizedAffinity 2.4500668
REMARK minimizedRMSD -1
REMARK  2 active torsions:
REMARK  status: ('A' for Active; 'I' for Inactive)
REMARK    1  A    between atoms: C2'_3  and  C1'_4 
REMARK    2  A    between atoms: C1'_4  and  C1_5 
ROOT
ATOM      1  C1  I4B d   1       0.187  -0.465   0.471  0.00  0.00    -0.075 A 
ATOM      2  C2  I4B d   1      -1.144  -0.207   0.687  0.00  0.00     0.003 A 
ATOM      3  C3  I4B d   1      -1.712  -0.417   1.967  0.00  0.00     0.002 A 
ATOM      4  C4  I4B d   1      -0.931  -0.931   2.982  0.00  0.00    -0.004 A 
ATOM      5  C5  I4B d   1       0.424  -1.170   2.767  0.00  0.00     0.002 A 
ATOM      6  C6  I4B d   1       0.989  -0.924   1.507  0.00  0.00     0.003 A 
ENDROOT
BRANCH   1   7
ATOM      7  C1' I4B d   1       0.747  -0.263  -0.901  0.00  0.00     0.060 C 
BRANCH   7   8
ATOM      8  C2' I4B d   1       2.252  -0.145  -0.778  0.00  0.00    -0.013 C 
ATOM      9  C4' I4B d   1       2.951  -1.142  -1.664  0.00  0.00     0.013 C 
ATOM     10  C3' I4B d   1       2.637   1.260  -1.136  0.00  0.00     0.013 C 
ENDBRANCH   7   8
ENDBRANCH   1   7
TORSDOF 2
ENDMDL
