MODEL 1
REMARK minimizedAffinity 1.66710293
REMARK minimizedRMSD -1
REMARK  2 active torsions:
REMARK  status: ('A' for Active; 'I' for Inactive)
REMARK    1  A    between atoms: C2'_3  and  C1'_4 
REMARK    2  A    between atoms: C1'_4  and  C1_5 
ROOT
ATOM      1  C1  I4B d   1       0.665  -0.972   2.496  0.00  0.00    -0.075 A 
ATOM      2  C2  I4B d   1       0.670  -1.237   1.150  0.00  0.00     0.003 A 
ATOM      3  C3  I4B d   1       1.829  -0.982   0.377  0.00  0.00     0.002 A 
ATOM      4  C4  I4B d   1       2.936  -0.419   0.978  0.00  0.00    -0.004 A 
ATOM      5  C5  I4B d   1       2.937  -0.172   2.348  0.00  0.00     0.002 A 
ATOM      6  C6  I4B d   1       1.799  -0.461   3.115  0.00  0.00     0.003 A 
ENDROOT
BRANCH   1   7
ATOM      7  C1' I4B d   1      -0.587  -1.221   3.276  0.00  0.00     0.060 C 
BRANCH   7   8
ATOM      8  C2' I4B d   1      -1.199  -2.513   2.774  0.00  0.00    -0.013 C 
ATOM      9  C4' I4B d   1      -1.513  -3.447   3.914  0.00  0.00     0.013 C 
ATOM     10  C3' I4B d   1      -2.436  -2.169   2.000  0.00  0.00     0.013 C 
ENDBRANCH   7   8
ENDBRANCH   1   7
TORSDOF 2
ENDMDL
