MODEL 1
REMARK minimizedAffinity 8.15079498
REMARK minimizedRMSD -1
REMARK  2 active torsions:
REMARK  status: ('A' for Active; 'I' for Inactive)
REMARK    1  A    between atoms: C2'_3  and  C1'_4 
REMARK    2  A    between atoms: C1'_4  and  C1_5 
ROOT
ATOM      1  C1  I4B d   1      -0.753   3.274  -3.175  0.00  0.00    -0.075 A 
ATOM      2  C2  I4B d   1       0.122   2.714  -2.279  0.00  0.00     0.003 A 
ATOM      3  C3  I4B d   1       1.486   2.547  -2.623  0.00  0.00     0.002 A 
ATOM      4  C4  I4B d   1       1.917   2.904  -3.884  0.00  0.00    -0.004 A 
ATOM      5  C5  I4B d   1       1.033   3.492  -4.784  0.00  0.00     0.002 A 
ATOM      6  C6  I4B d   1      -0.308   3.690  -4.424  0.00  0.00     0.003 A 
ENDROOT
BRANCH   1   7
ATOM      7  C1' I4B d   1      -2.193   3.405  -2.791  0.00  0.00     0.060 C 
BRANCH   7   8
ATOM      8  C2' I4B d   1      -3.004   3.551  -4.062  0.00  0.00    -0.013 C 
ATOM      9  C4' I4B d   1      -3.600   2.233  -4.483  0.00  0.00     0.013 C 
ATOM     10  C3' I4B d   1      -4.072   4.574  -3.815  0.00  0.00     0.013 C 
ENDBRANCH   7   8
ENDBRANCH   1   7
TORSDOF 2
ENDMDL
