MODEL 1
REMARK minimizedAffinity -3.58017945
REMARK minimizedRMSD -1
REMARK  2 active torsions:
REMARK  status: ('A' for Active; 'I' for Inactive)
REMARK    1  A    between atoms: C2'_3  and  C1'_4 
REMARK    2  A    between atoms: C1'_4  and  C1_5 
ROOT
ATOM      1  C1  I4B d   1      -0.917   0.611  -1.013  0.00  0.00    -0.075 A 
ATOM      2  C2  I4B d   1      -1.443   0.444  -2.270  0.00  0.00     0.003 A 
ATOM      3  C3  I4B d   1      -1.448   1.520  -3.189  0.00  0.00     0.002 A 
ATOM      4  C4  I4B d   1      -0.966   2.752  -2.797  0.00  0.00    -0.004 A 
ATOM      5  C5  I4B d   1      -0.413   2.914  -1.530  0.00  0.00     0.002 A 
ATOM      6  C6  I4B d   1      -0.376   1.834  -0.636  0.00  0.00     0.003 A 
ENDROOT
BRANCH   1   7
ATOM      7  C1' I4B d   1      -0.958  -0.537  -0.056  0.00  0.00     0.060 C 
BRANCH   7   8
ATOM      8  C2' I4B d   1       0.363  -0.575   0.685  0.00  0.00    -0.013 C 
ATOM      9  C4' I4B d   1       0.198  -1.156   2.065  0.00  0.00     0.013 C 
ATOM     10  C3' I4B d   1       1.329  -1.381  -0.130  0.00  0.00     0.013 C 
ENDBRANCH   7   8
ENDBRANCH   1   7
TORSDOF 2
ENDMDL
