MODEL 1
REMARK minimizedAffinity -3.27965641
REMARK minimizedRMSD -1
REMARK  2 active torsions:
REMARK  status: ('A' for Active; 'I' for Inactive)
REMARK    1  A    between atoms: C2'_3  and  C1'_4 
REMARK    2  A    between atoms: C1'_4  and  C1_5 
ROOT
ATOM      1  C1  I4B d   1      -0.351   0.689  -0.799  0.00  0.00    -0.075 A 
ATOM      2  C2  I4B d   1      -0.477   1.551   0.261  0.00  0.00     0.003 A 
ATOM      3  C3  I4B d   1      -0.635   1.047   1.575  0.00  0.00     0.002 A 
ATOM      4  C4  I4B d   1      -0.711  -0.316   1.775  0.00  0.00    -0.004 A 
ATOM      5  C5  I4B d   1      -0.560  -1.189   0.701  0.00  0.00     0.002 A 
ATOM      6  C6  I4B d   1      -0.366  -0.684  -0.593  0.00  0.00     0.003 A 
ENDROOT
BRANCH   1   7
ATOM      7  C1' I4B d   1      -0.219   1.256  -2.177  0.00  0.00     0.060 C 
BRANCH   7   8
ATOM      8  C2' I4B d   1      -1.337   2.258  -2.379  0.00  0.00    -0.013 C 
ATOM      9  C4' I4B d   1      -0.887   3.413  -3.234  0.00  0.00     0.013 C 
ATOM     10  C3' I4B d   1      -2.495   1.540  -3.006  0.00  0.00     0.013 C 
ENDBRANCH   7   8
ENDBRANCH   1   7
TORSDOF 2
ENDMDL
