MODEL 1
REMARK minimizedAffinity -1.4862076
REMARK minimizedRMSD -1
REMARK  2 active torsions:
REMARK  status: ('A' for Active; 'I' for Inactive)
REMARK    1  A    between atoms: C2'_3  and  C1'_4 
REMARK    2  A    between atoms: C1'_4  and  C1_5 
ROOT
ATOM      1  C1  I4B d   1      -0.908   1.188  -1.801  0.00  0.00    -0.075 A 
ATOM      2  C2  I4B d   1      -2.091   1.879  -1.709  0.00  0.00     0.003 A 
ATOM      3  C3  I4B d   1      -2.237   3.131  -2.354  0.00  0.00     0.002 A 
ATOM      4  C4  I4B d   1      -1.166   3.675  -3.033  0.00  0.00    -0.004 A 
ATOM      5  C5  I4B d   1       0.024   2.963  -3.145  0.00  0.00     0.002 A 
ATOM      6  C6  I4B d   1       0.151   1.706  -2.536  0.00  0.00     0.003 A 
ENDROOT
BRANCH   1   7
ATOM      7  C1' I4B d   1      -0.777  -0.116  -1.081  0.00  0.00     0.060 C 
BRANCH   7   8
ATOM      8  C2' I4B d   1      -0.101   0.151   0.248  0.00  0.00    -0.013 C 
ATOM      9  C4' I4B d   1      -1.088   0.093   1.384  0.00  0.00     0.013 C 
ATOM     10  C3' I4B d   1       0.989  -0.863   0.425  0.00  0.00     0.013 C 
ENDBRANCH   7   8
ENDBRANCH   1   7
TORSDOF 2
ENDMDL
