MODEL 1
REMARK minimizedAffinity -1.33992767
REMARK minimizedRMSD -1
REMARK  2 active torsions:
REMARK  status: ('A' for Active; 'I' for Inactive)
REMARK    1  A    between atoms: C2'_3  and  C1'_4 
REMARK    2  A    between atoms: C1'_4  and  C1_5 
ROOT
ATOM      1  C1  I4B d   1      -0.713   1.615  -1.840  0.00  0.00    -0.075 A 
ATOM      2  C2  I4B d   1       0.382   2.410  -2.076  0.00  0.00     0.003 A 
ATOM      3  C3  I4B d   1       0.221   3.689  -2.661  0.00  0.00     0.002 A 
ATOM      4  C4  I4B d   1      -1.038   4.111  -3.038  0.00  0.00    -0.004 A 
ATOM      5  C5  I4B d   1      -2.149   3.314  -2.777  0.00  0.00     0.002 A 
ATOM      6  C6  I4B d   1      -1.987   2.063  -2.163  0.00  0.00     0.003 A 
ENDROOT
BRANCH   1   7
ATOM      7  C1' I4B d   1      -0.503   0.256  -1.252  0.00  0.00     0.060 C 
BRANCH   7   8
ATOM      8  C2' I4B d   1      -0.053   0.434   0.184  0.00  0.00    -0.013 C 
ATOM      9  C4' I4B d   1      -1.228   0.649   1.102  0.00  0.00     0.013 C 
ATOM     10  C3' I4B d   1       0.727  -0.785   0.579  0.00  0.00     0.013 C 
ENDBRANCH   7   8
ENDBRANCH   1   7
TORSDOF 2
ENDMDL
