MODEL 1
REMARK minimizedAffinity -4.04776764
REMARK minimizedRMSD -1
REMARK  0 active torsions:
REMARK  status: ('A' for Active; 'I' for Inactive)
ROOT
ATOM      1  N1  IND d   1       0.257   0.129  -0.561  0.00  0.00    -0.196 N 
ATOM      2  C2  IND d   1       0.047   0.645   0.688  0.00  0.00     0.054 A 
ATOM      3  C3  IND d   1      -0.244  -0.343   1.563  0.00  0.00    -0.031 A 
ATOM      4  C4  IND d   1      -0.329  -2.889   1.186  0.00  0.00     0.051 A 
ATOM      5  C5  IND d   1      -0.244  -3.836   0.205  0.00  0.00    -0.031 A 
ATOM      6  C6  IND d   1       0.020  -3.503  -1.108  0.00  0.00     0.015 A 
ATOM      7  C7  IND d   1       0.222  -2.207  -1.488  0.00  0.00    -0.016 A 
ATOM      8  C8  IND d   1       0.129  -1.242  -0.495  0.00  0.00    -0.047 A 
ATOM      9  C9  IND d   1      -0.181  -1.569   0.831  0.00  0.00    -0.096 A 
ATOM     10  HN1 IND d   1       0.438   0.583  -1.268  0.00  0.00     0.298 HD
ENDROOT
TORSDOF 0
ENDMDL
