MODEL 1
REMARK minimizedAffinity -2.87256145
REMARK minimizedRMSD -1
REMARK  0 active torsions:
REMARK  status: ('A' for Active; 'I' for Inactive)
ROOT
ATOM      1  N1  IND d   1       0.587  -2.569  -0.291  0.00  0.00    -0.196 N 
ATOM      2  C2  IND d   1      -0.252  -3.296   0.507  0.00  0.00     0.054 A 
ATOM      3  C3  IND d   1      -1.061  -2.473   1.212  0.00  0.00    -0.031 A 
ATOM      4  C4  IND d   1      -1.249   0.093   1.137  0.00  0.00     0.051 A 
ATOM      5  C5  IND d   1      -0.665   1.200   0.588  0.00  0.00    -0.031 A 
ATOM      6  C6  IND d   1       0.385   1.106  -0.302  0.00  0.00     0.015 A 
ATOM      7  C7  IND d   1       0.885  -0.106  -0.687  0.00  0.00    -0.016 A 
ATOM      8  C8  IND d   1       0.300  -1.232  -0.126  0.00  0.00    -0.047 A 
ATOM      9  C9  IND d   1      -0.738  -1.141   0.811  0.00  0.00    -0.096 A 
ATOM     10  HN1 IND d   1       1.193  -2.893  -0.808  0.00  0.00     0.298 HD
ENDROOT
TORSDOF 0
ENDMDL
