MODEL 1
REMARK minimizedAffinity -2.75948024
REMARK minimizedRMSD -1
REMARK  0 active torsions:
REMARK  status: ('A' for Active; 'I' for Inactive)
ROOT
ATOM      1  N1  IND d   1      -0.178   1.035  -1.776  0.00  0.00    -0.196 N 
ATOM      2  C2  IND d   1       0.432   0.376  -2.807  0.00  0.00     0.054 A 
ATOM      3  C3  IND d   1       0.815  -0.859  -2.415  0.00  0.00    -0.031 A 
ATOM      4  C4  IND d   1       0.452  -2.045  -0.158  0.00  0.00     0.051 A 
ATOM      5  C5  IND d   1      -0.024  -1.833   1.105  0.00  0.00    -0.031 A 
ATOM      6  C6  IND d   1      -0.590  -0.631   1.480  0.00  0.00     0.015 A 
ATOM      7  C7  IND d   1      -0.711   0.405   0.597  0.00  0.00    -0.016 A 
ATOM      8  C8  IND d   1      -0.222   0.196  -0.685  0.00  0.00    -0.047 A 
ATOM      9  C9  IND d   1       0.391  -1.007  -1.058  0.00  0.00    -0.096 A 
ATOM     10  HN1 IND d   1      -0.482   1.839  -1.805  0.00  0.00     0.298 HD
ENDROOT
TORSDOF 0
ENDMDL
