MODEL 1
REMARK minimizedAffinity -2.26843286
REMARK minimizedRMSD -1
REMARK  0 active torsions:
REMARK  status: ('A' for Active; 'I' for Inactive)
ROOT
ATOM      1  N1  IND d   1      -1.085   0.274   0.755  0.00  0.00    -0.196 N 
ATOM      2  C2  IND d   1      -0.319   1.242   0.168  0.00  0.00     0.054 A 
ATOM      3  C3  IND d   1       0.749   0.687  -0.450  0.00  0.00    -0.031 A 
ATOM      4  C4  IND d   1       1.380  -1.796  -0.708  0.00  0.00     0.051 A 
ATOM      5  C5  IND d   1       1.006  -3.049  -0.312  0.00  0.00    -0.031 A 
ATOM      6  C6  IND d   1      -0.108  -3.263   0.474  0.00  0.00     0.015 A 
ATOM      7  C7  IND d   1      -0.900  -2.228   0.885  0.00  0.00    -0.016 A 
ATOM      8  C8  IND d   1      -0.519  -0.954   0.491  0.00  0.00    -0.047 A 
ATOM      9  C9  IND d   1       0.634  -0.726  -0.271  0.00  0.00    -0.096 A 
ATOM     10  HN1 IND d   1      -1.799   0.410   1.214  0.00  0.00     0.298 HD
ENDROOT
TORSDOF 0
ENDMDL
