MODEL 1
REMARK minimizedAffinity -1.09587121
REMARK minimizedRMSD -1
REMARK  0 active torsions:
REMARK  status: ('A' for Active; 'I' for Inactive)
ROOT
ATOM      1  N1  IND d   1      -1.841   0.296   0.779  0.00  0.00    -0.196 N 
ATOM      2  C2  IND d   1      -2.299   0.025   2.039  0.00  0.00     0.054 A 
ATOM      3  C3  IND d   1      -1.892  -1.203   2.433  0.00  0.00    -0.031 A 
ATOM      4  C4  IND d   1      -0.385  -2.896   1.213  0.00  0.00     0.051 A 
ATOM      5  C5  IND d   1       0.249  -3.112   0.021  0.00  0.00    -0.031 A 
ATOM      6  C6  IND d   1       0.220  -2.182  -0.999  0.00  0.00     0.015 A 
ATOM      7  C7  IND d   1      -0.437  -0.992  -0.859  0.00  0.00    -0.016 A 
ATOM      8  C8  IND d   1      -1.088  -0.773   0.347  0.00  0.00    -0.047 A 
ATOM      9  C9  IND d   1      -1.097  -1.731   1.369  0.00  0.00    -0.096 A 
ATOM     10  HN1 IND d   1      -1.997   1.014   0.333  0.00  0.00     0.298 HD
ENDROOT
TORSDOF 0
ENDMDL
