MODEL 1
REMARK minimizedAffinity -4.51995564
REMARK minimizedRMSD -1
REMARK  0 active torsions:
REMARK  status: ('A' for Active; 'I' for Inactive)
ROOT
ATOM      1  N1  IND d   1       0.681  -2.617  -0.220  0.00  0.00    -0.196 N 
ATOM      2  C2  IND d   1      -0.070  -3.249   0.731  0.00  0.00     0.054 A 
ATOM      3  C3  IND d   1      -0.822  -2.353   1.409  0.00  0.00    -0.031 A 
ATOM      4  C4  IND d   1      -1.054   0.186   1.056  0.00  0.00     0.051 A 
ATOM      5  C5  IND d   1      -0.541   1.224   0.330  0.00  0.00    -0.031 A 
ATOM      6  C6  IND d   1       0.423   1.031  -0.638  0.00  0.00     0.015 A 
ATOM      7  C7  IND d   1       0.904  -0.215  -0.925  0.00  0.00    -0.016 A 
ATOM      8  C8  IND d   1       0.390  -1.271  -0.185  0.00  0.00    -0.047 A 
ATOM      9  C9  IND d   1      -0.557  -1.075   0.828  0.00  0.00    -0.096 A 
ATOM     10  HN1 IND d   1       1.241  -2.996  -0.752  0.00  0.00     0.298 HD
ENDROOT
TORSDOF 0
ENDMDL
