MODEL 1
REMARK minimizedAffinity -4.83403635
REMARK minimizedRMSD -1
REMARK  0 active torsions:
REMARK  status: ('A' for Active; 'I' for Inactive)
ROOT
ATOM      1  N1  IND d   1      -0.109   0.329  -0.870  0.00  0.00    -0.196 N 
ATOM      2  C2  IND d   1      -0.308   0.866   0.372  0.00  0.00     0.054 A 
ATOM      3  C3  IND d   1      -0.298  -0.106   1.312  0.00  0.00    -0.031 A 
ATOM      4  C4  IND d   1       0.131  -2.631   1.049  0.00  0.00     0.051 A 
ATOM      5  C5  IND d   1       0.326  -3.598   0.103  0.00  0.00    -0.031 A 
ATOM      6  C6  IND d   1       0.390  -3.299  -1.243  0.00  0.00     0.015 A 
ATOM      7  C7  IND d   1       0.272  -2.014  -1.693  0.00  0.00    -0.016 A 
ATOM      8  C8  IND d   1       0.067  -1.031  -0.736  0.00  0.00    -0.047 A 
ATOM      9  C9  IND d   1      -0.041  -1.333   0.627  0.00  0.00    -0.096 A 
ATOM     10  HN1 IND d   1      -0.096   0.767  -1.609  0.00  0.00     0.298 HD
ENDROOT
TORSDOF 0
ENDMDL
