MODEL 1
REMARK minimizedAffinity -4.33074903
REMARK minimizedRMSD -1
REMARK  0 active torsions:
REMARK  status: ('A' for Active; 'I' for Inactive)
ROOT
ATOM      1  N1  IND d   1       0.235   0.309  -0.469  0.00  0.00    -0.196 N 
ATOM      2  C2  IND d   1      -0.136   0.441   0.840  0.00  0.00     0.054 A 
ATOM      3  C3  IND d   1      -0.644  -0.723   1.304  0.00  0.00    -0.031 A 
ATOM      4  C4  IND d   1      -0.867  -2.998   0.120  0.00  0.00     0.051 A 
ATOM      5  C5  IND d   1      -0.697  -3.601  -1.095  0.00  0.00    -0.031 A 
ATOM      6  C6  IND d   1      -0.195  -2.919  -2.184  0.00  0.00     0.015 A 
ATOM      7  C7  IND d   1       0.168  -1.604  -2.096  0.00  0.00    -0.016 A 
ATOM      8  C8  IND d   1      -0.010  -0.987  -0.866  0.00  0.00    -0.047 A 
ATOM      9  C9  IND d   1      -0.559  -1.663   0.231  0.00  0.00    -0.096 A 
ATOM     10  HN1 IND d   1       0.565   0.932  -0.962  0.00  0.00     0.298 HD
ENDROOT
TORSDOF 0
ENDMDL
