MODEL 1
REMARK minimizedAffinity -3.21406102
REMARK minimizedRMSD -1
REMARK  0 active torsions:
REMARK  status: ('A' for Active; 'I' for Inactive)
ROOT
ATOM      1  N1  IND d   1       0.115  -0.227  -2.135  0.00  0.00    -0.196 N 
ATOM      2  C2  IND d   1       0.156  -1.375  -2.876  0.00  0.00     0.054 A 
ATOM      3  C3  IND d   1      -0.267  -2.426  -2.139  0.00  0.00    -0.031 A 
ATOM      4  C4  IND d   1      -1.169  -2.476   0.272  0.00  0.00     0.051 A 
ATOM      5  C5  IND d   1      -1.363  -1.680   1.366  0.00  0.00    -0.031 A 
ATOM      6  C6  IND d   1      -1.070  -0.332   1.348  0.00  0.00     0.015 A 
ATOM      7  C7  IND d   1      -0.581   0.276   0.227  0.00  0.00    -0.016 A 
ATOM      8  C8  IND d   1      -0.377  -0.530  -0.884  0.00  0.00    -0.047 A 
ATOM      9  C9  IND d   1      -0.632  -1.907  -0.859  0.00  0.00    -0.096 A 
ATOM     10  HN1 IND d   1       0.357   0.553  -2.404  0.00  0.00     0.298 HD
ENDROOT
TORSDOF 0
ENDMDL
