MODEL 1
REMARK minimizedAffinity -2.88975668
REMARK minimizedRMSD -1
REMARK  0 active torsions:
REMARK  status: ('A' for Active; 'I' for Inactive)
ROOT
ATOM      1  N1  IND d   1       0.469  -0.491  -1.647  0.00  0.00    -0.196 N 
ATOM      2  C2  IND d   1       0.252   0.825  -1.345  0.00  0.00     0.054 A 
ATOM      3  C3  IND d   1      -0.252   0.944  -0.096  0.00  0.00    -0.031 A 
ATOM      4  C4  IND d   1      -0.704  -0.878   1.666  0.00  0.00     0.051 A 
ATOM      5  C5  IND d   1      -0.696  -2.234   1.840  0.00  0.00    -0.031 A 
ATOM      6  C6  IND d   1      -0.288  -3.095   0.842  0.00  0.00     0.015 A 
ATOM      7  C7  IND d   1       0.139  -2.630  -0.370  0.00  0.00    -0.016 A 
ATOM      8  C8  IND d   1       0.126  -1.254  -0.552  0.00  0.00    -0.047 A 
ATOM      9  C9  IND d   1      -0.327  -0.378   0.442  0.00  0.00    -0.096 A 
ATOM     10  HN1 IND d   1       0.770  -0.791  -2.394  0.00  0.00     0.298 HD
ENDROOT
TORSDOF 0
ENDMDL
