MODEL 1
REMARK minimizedAffinity -5.9981184
REMARK minimizedRMSD -1
REMARK  0 active torsions:
REMARK  status: ('A' for Active; 'I' for Inactive)
ROOT
ATOM      1  N1  IND d   1       0.257   0.583  -0.833  0.00  0.00    -0.196 N 
ATOM      2  C2  IND d   1      -0.125   1.062   0.389  0.00  0.00     0.054 A 
ATOM      3  C3  IND d   1      -0.474   0.043   1.206  0.00  0.00    -0.031 A 
ATOM      4  C4  IND d   1      -0.400  -2.495   0.778  0.00  0.00     0.051 A 
ATOM      5  C5  IND d   1      -0.156  -3.415  -0.202  0.00  0.00    -0.031 A 
ATOM      6  C6  IND d   1       0.250  -3.043  -1.467  0.00  0.00     0.015 A 
ATOM      7  C7  IND d   1       0.437  -1.731  -1.798  0.00  0.00    -0.016 A 
ATOM      8  C8  IND d   1       0.183  -0.793  -0.807  0.00  0.00    -0.047 A 
ATOM      9  C9  IND d   1      -0.269  -1.162   0.466  0.00  0.00    -0.096 A 
ATOM     10  HN1 IND d   1       0.501   1.060  -1.505  0.00  0.00     0.298 HD
ENDROOT
TORSDOF 0
ENDMDL
