MODEL 1
REMARK minimizedAffinity -4.17912817
REMARK minimizedRMSD -1
REMARK  0 active torsions:
REMARK  status: ('A' for Active; 'I' for Inactive)
ROOT
ATOM      1  N1  IND d   1       0.451  -0.469  -2.103  0.00  0.00    -0.196 N 
ATOM      2  C2  IND d   1       0.492  -1.578  -2.901  0.00  0.00     0.054 A 
ATOM      3  C3  IND d   1       0.012  -2.653  -2.236  0.00  0.00    -0.031 A 
ATOM      4  C4  IND d   1      -0.988  -2.799   0.132  0.00  0.00     0.051 A 
ATOM      5  C5  IND d   1      -1.204  -2.055   1.258  0.00  0.00    -0.031 A 
ATOM      6  C6  IND d   1      -0.876  -0.716   1.321  0.00  0.00     0.015 A 
ATOM      7  C7  IND d   1      -0.327  -0.066   0.252  0.00  0.00    -0.016 A 
ATOM      8  C8  IND d   1      -0.099  -0.821  -0.890  0.00  0.00    -0.047 A 
ATOM      9  C9  IND d   1      -0.391  -2.190  -0.946  0.00  0.00    -0.096 A 
ATOM     10  HN1 IND d   1       0.724   0.317  -2.322  0.00  0.00     0.298 HD
ENDROOT
TORSDOF 0
ENDMDL
