MODEL 1
REMARK minimizedAffinity -5.37994528
REMARK minimizedRMSD -1
REMARK  0 active torsions:
REMARK  status: ('A' for Active; 'I' for Inactive)
ROOT
ATOM      1  N1  IND d   1       0.198  -1.210  -2.583  0.00  0.00    -0.196 N 
ATOM      2  C2  IND d   1       0.201  -2.574  -2.679  0.00  0.00     0.054 A 
ATOM      3  C3  IND d   1      -0.050  -3.131  -1.472  0.00  0.00    -0.031 A 
ATOM      4  C4  IND d   1      -0.596  -1.994   0.772  0.00  0.00     0.051 A 
ATOM      5  C5  IND d   1      -0.680  -0.766   1.365  0.00  0.00    -0.031 A 
ATOM      6  C6  IND d   1      -0.473   0.401   0.657  0.00  0.00     0.015 A 
ATOM      7  C7  IND d   1      -0.186   0.383  -0.678  0.00  0.00    -0.016 A 
ATOM      8  C8  IND d   1      -0.093  -0.863  -1.282  0.00  0.00    -0.047 A 
ATOM      9  C9  IND d   1      -0.260  -2.052  -0.560  0.00  0.00    -0.096 A 
ATOM     10  HN1 IND d   1       0.352  -0.662  -3.227  0.00  0.00     0.298 HD
ENDROOT
TORSDOF 0
ENDMDL
