MODEL 1
REMARK minimizedAffinity -3.98270512
REMARK minimizedRMSD -1
REMARK  0 active torsions:
REMARK  status: ('A' for Active; 'I' for Inactive)
ROOT
ATOM      1  N1  IND d   1       0.212   0.598  -0.868  0.00  0.00    -0.196 N 
ATOM      2  C2  IND d   1       0.037   1.121   0.383  0.00  0.00     0.054 A 
ATOM      3  C3  IND d   1      -0.115   0.130   1.290  0.00  0.00    -0.031 A 
ATOM      4  C4  IND d   1      -0.008  -2.420   0.959  0.00  0.00     0.051 A 
ATOM      5  C5  IND d   1       0.095  -3.377  -0.011  0.00  0.00    -0.031 A 
ATOM      6  C6  IND d   1       0.249  -3.051  -1.343  0.00  0.00     0.015 A 
ATOM      7  C7  IND d   1       0.317  -1.750  -1.755  0.00  0.00    -0.016 A 
ATOM      8  C8  IND d   1       0.205  -0.776  -0.773  0.00  0.00    -0.047 A 
ATOM      9  C9  IND d   1       0.006  -1.100   0.575  0.00  0.00    -0.096 A 
ATOM     10  HN1 IND d   1       0.311   1.052  -1.592  0.00  0.00     0.298 HD
ENDROOT
TORSDOF 0
ENDMDL
