MODEL 1
REMARK minimizedAffinity 1.34834516
REMARK minimizedRMSD -1
REMARK  0 active torsions:
REMARK  status: ('A' for Active; 'I' for Inactive)
ROOT
ATOM      1  N1  IND d   1       0.741   2.844  -0.539  0.00  0.00    -0.196 N 
ATOM      2  C2  IND d   1       1.680   3.217   0.382  0.00  0.00     0.054 A 
ATOM      3  C3  IND d   1       1.867   2.231   1.288  0.00  0.00    -0.031 A 
ATOM      4  C4  IND d   1       0.815  -0.116   1.393  0.00  0.00     0.051 A 
ATOM      5  C5  IND d   1      -0.126  -0.902   0.790  0.00  0.00    -0.031 A 
ATOM      6  C6  IND d   1      -0.839  -0.472  -0.311  0.00  0.00     0.015 A 
ATOM      7  C7  IND d   1      -0.628   0.761  -0.859  0.00  0.00    -0.016 A 
ATOM      8  C8  IND d   1       0.322   1.565  -0.245  0.00  0.00    -0.047 A 
ATOM      9  C9  IND d   1       1.018   1.151   0.898  0.00  0.00    -0.096 A 
ATOM     10  HN1 IND d   1       0.460   3.327  -1.192  0.00  0.00     0.298 HD
ENDROOT
TORSDOF 0
ENDMDL
