MODEL 1
REMARK minimizedAffinity -6.6871419
REMARK minimizedRMSD -1
REMARK  0 active torsions:
REMARK  status: ('A' for Active; 'I' for Inactive)
ROOT
ATOM      1  N1  IND d   1       0.326  -1.109  -2.866  0.00  0.00    -0.196 N 
ATOM      2  C2  IND d   1       0.603   0.161  -2.444  0.00  0.00     0.054 A 
ATOM      3  C3  IND d   1       0.706   0.197  -1.096  0.00  0.00    -0.031 A 
ATOM      4  C4  IND d   1       0.558  -1.728   0.607  0.00  0.00     0.051 A 
ATOM      5  C5  IND d   1       0.283  -3.063   0.703  0.00  0.00    -0.031 A 
ATOM      6  C6  IND d   1       0.005  -3.831  -0.409  0.00  0.00     0.015 A 
ATOM      7  C7  IND d   1       0.003  -3.293  -1.665  0.00  0.00    -0.016 A 
ATOM      8  C8  IND d   1       0.275  -1.936  -1.765  0.00  0.00    -0.047 A 
ATOM      9  C9  IND d   1       0.516  -1.142  -0.636  0.00  0.00    -0.096 A 
ATOM     10  HN1 IND d   1       0.204  -1.352  -3.682  0.00  0.00     0.298 HD
ENDROOT
TORSDOF 0
ENDMDL
