MODEL 1
REMARK minimizedAffinity -5.4984026
REMARK minimizedRMSD -1
REMARK  0 active torsions:
REMARK  status: ('A' for Active; 'I' for Inactive)
ROOT
ATOM      1  N1  IND d   1      -0.023  -0.394  -1.970  0.00  0.00    -0.196 N 
ATOM      2  C2  IND d   1       0.275  -1.466  -2.764  0.00  0.00     0.054 A 
ATOM      3  C3  IND d   1       0.205  -2.613  -2.051  0.00  0.00    -0.031 A 
ATOM      4  C4  IND d   1      -0.478  -2.973   0.405  0.00  0.00     0.051 A 
ATOM      5  C5  IND d   1      -0.803  -2.290   1.544  0.00  0.00    -0.031 A 
ATOM      6  C6  IND d   1      -0.888  -0.913   1.569  0.00  0.00     0.015 A 
ATOM      7  C7  IND d   1      -0.663  -0.165   0.449  0.00  0.00    -0.016 A 
ATOM      8  C8  IND d   1      -0.326  -0.854  -0.708  0.00  0.00    -0.047 A 
ATOM      9  C9  IND d   1      -0.196  -2.248  -0.729  0.00  0.00    -0.096 A 
ATOM     10  HN1 IND d   1      -0.022   0.429  -2.218  0.00  0.00     0.298 HD
ENDROOT
TORSDOF 0
ENDMDL
