MODEL 1
REMARK minimizedAffinity 6.90863848
REMARK minimizedRMSD -1
REMARK  0 active torsions:
REMARK  status: ('A' for Active; 'I' for Inactive)
ROOT
ATOM      1  C   UNL d   1       2.118  -0.362   3.167  0.00  0.00     0.020 A 
ATOM      2  C1  UNL d   1       1.468  -1.588   3.026  0.00  0.00     0.020 A 
ATOM      3  C2  UNL d   1       0.101  -1.624   2.740  0.00  0.00     0.034 A 
ATOM      4  C3  UNL d   1      -0.619  -0.433   2.595  0.00  0.00     0.017 A 
ATOM      5  C4  UNL d   1       0.034   0.796   2.737  0.00  0.00     0.017 A 
ATOM      6  C5  UNL d   1       1.403   0.827   3.023  0.00  0.00     0.034 A 
ATOM      7 Cl   UNL d   1      -0.788   2.308   2.572  0.00  0.00    -0.070 Cl
ATOM      8 Cl1  UNL d   1      -2.306  -0.553   2.242  0.00  0.00    -0.070 Cl
ENDROOT
TORSDOF 0
ENDMDL
