MODEL 1
REMARK minimizedAffinity -3.59877682
REMARK minimizedRMSD -1
REMARK  0 active torsions:
REMARK  status: ('A' for Active; 'I' for Inactive)
ROOT
ATOM      1  C   UNL d   1       1.847  -1.524   0.002  0.00  0.00     0.020 A 
ATOM      2  C1  UNL d   1       1.326  -2.234  -1.078  0.00  0.00     0.020 A 
ATOM      3  C2  UNL d   1      -0.004  -2.046  -1.461  0.00  0.00     0.034 A 
ATOM      4  C3  UNL d   1      -0.816  -1.144  -0.764  0.00  0.00     0.017 A 
ATOM      5  C4  UNL d   1      -0.292  -0.431   0.320  0.00  0.00     0.017 A 
ATOM      6  C5  UNL d   1       1.040  -0.624   0.700  0.00  0.00     0.034 A 
ATOM      7 Cl   UNL d   1      -1.232   0.699   1.229  0.00  0.00    -0.070 Cl
ATOM      8 Cl1  UNL d   1      -2.451  -0.960  -1.293  0.00  0.00    -0.070 Cl
ENDROOT
TORSDOF 0
ENDMDL
