MODEL 1
REMARK minimizedAffinity 6.47118235
REMARK minimizedRMSD -1
REMARK  0 active torsions:
REMARK  status: ('A' for Active; 'I' for Inactive)
ROOT
ATOM      1  C   UNL d   1       4.635   3.327   4.127  0.00  0.00     0.020 A 
ATOM      2  C1  UNL d   1       4.956   4.681   4.042  0.00  0.00     0.020 A 
ATOM      3  C2  UNL d   1       4.518   5.434   2.951  0.00  0.00     0.034 A 
ATOM      4  C3  UNL d   1       3.758   4.834   1.940  0.00  0.00     0.017 A 
ATOM      5  C4  UNL d   1       3.436   3.475   2.027  0.00  0.00     0.017 A 
ATOM      6  C5  UNL d   1       3.877   2.725   3.122  0.00  0.00     0.034 A 
ATOM      7 Cl   UNL d   1       2.502   2.665   0.820  0.00  0.00    -0.070 Cl
ATOM      8 Cl1  UNL d   1       3.250   5.827   0.620  0.00  0.00    -0.070 Cl
ENDROOT
TORSDOF 0
ENDMDL
