MODEL 1
REMARK minimizedAffinity 6.60064125
REMARK minimizedRMSD -1
REMARK  0 active torsions:
REMARK  status: ('A' for Active; 'I' for Inactive)
ROOT
ATOM      1  C   UNL d   1      -0.137  -2.191  -5.715  0.00  0.00     0.020 A 
ATOM      2  C1  UNL d   1      -1.122  -1.204  -5.715  0.00  0.00     0.020 A 
ATOM      3  C2  UNL d   1      -2.469  -1.562  -5.804  0.00  0.00     0.034 A 
ATOM      4  C3  UNL d   1      -2.835  -2.910  -5.892  0.00  0.00     0.017 A 
ATOM      5  C4  UNL d   1      -1.845  -3.900  -5.891  0.00  0.00     0.017 A 
ATOM      6  C5  UNL d   1      -0.498  -3.536  -5.803  0.00  0.00     0.034 A 
ATOM      7 Cl   UNL d   1      -2.219  -5.584  -5.997  0.00  0.00    -0.070 Cl
ATOM      8 Cl1  UNL d   1      -4.519  -3.281  -5.998  0.00  0.00    -0.070 Cl
ENDROOT
TORSDOF 0
ENDMDL
