MODEL 1
REMARK minimizedAffinity -2.5975585
REMARK minimizedRMSD -1
REMARK  0 active torsions:
REMARK  status: ('A' for Active; 'I' for Inactive)
ROOT
ATOM      1  O1  BZF d   1       1.313   0.665  -0.508  0.00  0.00    -0.204 OA
ATOM      2  C2  BZF d   1      -0.028   0.352  -0.402  0.00  0.00     0.174 A 
ATOM      3  C3  BZF d   1      -0.659   1.219   0.416  0.00  0.00    -0.012 A 
ATOM      4  C3A BZF d   1       0.333   2.186   0.776  0.00  0.00    -0.107 A 
ATOM      5  C4  BZF d   1       0.312   3.306   1.556  0.00  0.00     0.055 A 
ATOM      6  C5  BZF d   1       1.469   3.989   1.763  0.00  0.00    -0.016 A 
ATOM      7  C6  BZF d   1       2.664   3.577   1.210  0.00  0.00     0.022 A 
ATOM      8  C7  BZF d   1       2.733   2.475   0.425  0.00  0.00     0.029 A 
ATOM      9  C7A BZF d   1       1.560   1.801   0.187  0.00  0.00     0.058 A 
ENDROOT
TORSDOF 0
ENDMDL
