MODEL 1
REMARK minimizedAffinity -2.53173375
REMARK minimizedRMSD -1
REMARK  0 active torsions:
REMARK  status: ('A' for Active; 'I' for Inactive)
ROOT
ATOM      1  O1  BZF d   1      -0.916  -2.311   0.097  0.00  0.00    -0.204 OA
ATOM      2  C2  BZF d   1      -1.023  -1.990   1.437  0.00  0.00     0.174 A 
ATOM      3  C3  BZF d   1      -0.525  -0.760   1.675  0.00  0.00    -0.012 A 
ATOM      4  C3A BZF d   1      -0.163  -0.245   0.389  0.00  0.00    -0.107 A 
ATOM      5  C4  BZF d   1       0.372   0.939  -0.031  0.00  0.00     0.055 A 
ATOM      6  C5  BZF d   1       0.672   1.098  -1.347  0.00  0.00    -0.016 A 
ATOM      7  C6  BZF d   1       0.455   0.093  -2.267  0.00  0.00     0.022 A 
ATOM      8  C7  BZF d   1      -0.078  -1.097  -1.898  0.00  0.00     0.029 A 
ATOM      9  C7A BZF d   1      -0.413  -1.248  -0.575  0.00  0.00     0.058 A 
ENDROOT
TORSDOF 0
ENDMDL
