MODEL 1
REMARK minimizedAffinity 1.88256574
REMARK minimizedRMSD -1
REMARK  0 active torsions:
REMARK  status: ('A' for Active; 'I' for Inactive)
ROOT
ATOM      1  O1  BZF d   1      -0.145  -1.422  -2.065  0.00  0.00    -0.204 OA
ATOM      2  C2  BZF d   1       0.244  -0.179  -2.524  0.00  0.00     0.174 A 
ATOM      3  C3  BZF d   1      -0.044   0.778  -1.618  0.00  0.00    -0.012 A 
ATOM      4  C3A BZF d   1      -0.568   0.077  -0.485  0.00  0.00    -0.107 A 
ATOM      5  C4  BZF d   1      -1.019   0.478   0.740  0.00  0.00     0.055 A 
ATOM      6  C5  BZF d   1      -1.532  -0.450   1.590  0.00  0.00    -0.016 A 
ATOM      7  C6  BZF d   1      -1.615  -1.783   1.246  0.00  0.00     0.022 A 
ATOM      8  C7  BZF d   1      -1.175  -2.229   0.044  0.00  0.00     0.029 A 
ATOM      9  C7A BZF d   1      -0.626  -1.299  -0.804  0.00  0.00     0.058 A 
ENDROOT
TORSDOF 0
ENDMDL
