MODEL 1
REMARK minimizedAffinity 7.19631052
REMARK minimizedRMSD -1
REMARK  0 active torsions:
REMARK  status: ('A' for Active; 'I' for Inactive)
ROOT
ATOM      1  O1  BZF d   1      -0.078   1.134  -1.126  0.00  0.00    -0.204 OA
ATOM      2  C2  BZF d   1       1.009   0.353  -1.467  0.00  0.00     0.174 A 
ATOM      3  C3  BZF d   1       1.097  -0.723  -0.659  0.00  0.00    -0.012 A 
ATOM      4  C3A BZF d   1      -0.056  -0.655   0.185  0.00  0.00    -0.107 A 
ATOM      5  C4  BZF d   1      -0.536  -1.452   1.186  0.00  0.00     0.055 A 
ATOM      6  C5  BZF d   1      -1.651  -1.066   1.860  0.00  0.00    -0.016 A 
ATOM      7  C6  BZF d   1      -2.307   0.110   1.564  0.00  0.00     0.022 A 
ATOM      8  C7  BZF d   1      -1.873   0.930   0.577  0.00  0.00     0.029 A 
ATOM      9  C7A BZF d   1      -0.765   0.527  -0.129  0.00  0.00     0.058 A 
ENDROOT
TORSDOF 0
ENDMDL
