MODEL 1
REMARK minimizedAffinity -0.090813376
REMARK minimizedRMSD -1
REMARK  0 active torsions:
REMARK  status: ('A' for Active; 'I' for Inactive)
ROOT
ATOM      1  O1  BZF d   1      -1.908   0.575  -0.001  0.00  0.00    -0.204 OA
ATOM      2  C2  BZF d   1      -2.135   0.411   1.352  0.00  0.00     0.174 A 
ATOM      3  C3  BZF d   1      -1.063  -0.146   1.952  0.00  0.00    -0.012 A 
ATOM      4  C3A BZF d   1      -0.073  -0.259   0.926  0.00  0.00    -0.107 A 
ATOM      5  C4  BZF d   1       1.211  -0.722   0.907  0.00  0.00     0.055 A 
ATOM      6  C5  BZF d   1       1.882  -0.762  -0.275  0.00  0.00    -0.016 A 
ATOM      7  C6  BZF d   1       1.298  -0.351  -1.455  0.00  0.00     0.022 A 
ATOM      8  C7  BZF d   1       0.028   0.122  -1.485  0.00  0.00     0.029 A 
ATOM      9  C7A BZF d   1      -0.641   0.194  -0.288  0.00  0.00     0.058 A 
ENDROOT
TORSDOF 0
ENDMDL
