MODEL 1
REMARK minimizedAffinity 5.98024702
REMARK minimizedRMSD -1
REMARK  0 active torsions:
REMARK  status: ('A' for Active; 'I' for Inactive)
ROOT
ATOM      1  O1  BZF d   1      -0.884   0.236  -1.197  0.00  0.00    -0.204 OA
ATOM      2  C2  BZF d   1       0.436  -0.056  -1.480  0.00  0.00     0.174 A 
ATOM      3  C3  BZF d   1       1.108  -0.371  -0.353  0.00  0.00    -0.012 A 
ATOM      4  C3A BZF d   1       0.125  -0.358   0.687  0.00  0.00    -0.107 A 
ATOM      5  C4  BZF d   1       0.175  -0.607   2.029  0.00  0.00     0.055 A 
ATOM      6  C5  BZF d   1      -0.948  -0.436   2.774  0.00  0.00    -0.016 A 
ATOM      7  C6  BZF d   1      -2.136  -0.015   2.212  0.00  0.00     0.022 A 
ATOM      8  C7  BZF d   1      -2.235   0.239   0.885  0.00  0.00     0.029 A 
ATOM      9  C7A BZF d   1      -1.110   0.036   0.123  0.00  0.00     0.058 A 
ENDROOT
TORSDOF 0
ENDMDL
