MODEL 1
REMARK minimizedAffinity 0.0396375917
REMARK minimizedRMSD -1
REMARK  0 active torsions:
REMARK  status: ('A' for Active; 'I' for Inactive)
ROOT
ATOM      1  O1  BZF d   1      -0.066   3.480   0.582  0.00  0.00    -0.204 OA
ATOM      2  C2  BZF d   1       1.256   3.858   0.451  0.00  0.00     0.174 A 
ATOM      3  C3  BZF d   1       2.059   2.776   0.397  0.00  0.00    -0.012 A 
ATOM      4  C3A BZF d   1       1.176   1.650   0.408  0.00  0.00    -0.107 A 
ATOM      5  C4  BZF d   1       1.375   0.300   0.357  0.00  0.00     0.055 A 
ATOM      6  C5  BZF d   1       0.304  -0.529   0.462  0.00  0.00    -0.016 A 
ATOM      7  C6  BZF d   1      -0.977  -0.044   0.623  0.00  0.00     0.022 A 
ATOM      8  C7  BZF d   1      -1.225   1.287   0.673  0.00  0.00     0.029 A 
ATOM      9  C7A BZF d   1      -0.148   2.129   0.535  0.00  0.00     0.058 A 
ENDROOT
TORSDOF 0
ENDMDL
