MODEL 1
REMARK minimizedAffinity -2.16272664
REMARK minimizedRMSD -1
REMARK  0 active torsions:
REMARK  status: ('A' for Active; 'I' for Inactive)
ROOT
ATOM      1  O1  BZF d   1      -0.329  -0.356  -1.659  0.00  0.00    -0.204 OA
ATOM      2  C2  BZF d   1       0.028   0.975  -1.555  0.00  0.00     0.174 A 
ATOM      3  C3  BZF d   1      -0.099   1.407  -0.284  0.00  0.00    -0.012 A 
ATOM      4  C3A BZF d   1      -0.476   0.251   0.470  0.00  0.00    -0.107 A 
ATOM      5  C4  BZF d   1      -0.735   0.037   1.794  0.00  0.00     0.055 A 
ATOM      6  C5  BZF d   1      -1.149  -1.194   2.195  0.00  0.00    -0.016 A 
ATOM      7  C6  BZF d   1      -1.321  -2.230   1.301  0.00  0.00     0.022 A 
ATOM      8  C7  BZF d   1      -1.072  -2.067  -0.021  0.00  0.00     0.029 A 
ATOM      9  C7A BZF d   1      -0.621  -0.834  -0.425  0.00  0.00     0.058 A 
ENDROOT
TORSDOF 0
ENDMDL
