MODEL 1
REMARK minimizedAffinity -2.44618392
REMARK minimizedRMSD -1
REMARK  0 active torsions:
REMARK  status: ('A' for Active; 'I' for Inactive)
ROOT
ATOM      1  O1  BZF d   1       1.237   0.235  -0.469  0.00  0.00    -0.204 OA
ATOM      2  C2  BZF d   1      -0.022  -0.223  -0.134  0.00  0.00     0.174 A 
ATOM      3  C3  BZF d   1      -0.770   0.771   0.387  0.00  0.00    -0.012 A 
ATOM      4  C3A BZF d   1       0.044   1.944   0.291  0.00  0.00    -0.107 A 
ATOM      5  C4  BZF d   1      -0.151   3.252   0.630  0.00  0.00     0.055 A 
ATOM      6  C5  BZF d   1       0.871   4.134   0.475  0.00  0.00    -0.016 A 
ATOM      7  C6  BZF d   1       2.101   3.742  -0.012  0.00  0.00     0.022 A 
ATOM      8  C7  BZF d   1       2.340   2.456  -0.366  0.00  0.00     0.029 A 
ATOM      9  C7A BZF d   1       1.299   1.568  -0.241  0.00  0.00     0.058 A 
ENDROOT
TORSDOF 0
ENDMDL
