MODEL 1
REMARK minimizedAffinity -5.12299633
REMARK minimizedRMSD -1
REMARK  0 active torsions:
REMARK  status: ('A' for Active; 'I' for Inactive)
ROOT
ATOM      1  O1  BZF d   1       0.046  -1.702  -2.784  0.00  0.00    -0.204 OA
ATOM      2  C2  BZF d   1      -0.069  -3.077  -2.841  0.00  0.00     0.174 A 
ATOM      3  C3  BZF d   1      -0.429  -3.577  -1.642  0.00  0.00    -0.012 A 
ATOM      4  C3A BZF d   1      -0.636  -2.435  -0.805  0.00  0.00    -0.107 A 
ATOM      5  C4  BZF d   1      -1.020  -2.282   0.497  0.00  0.00     0.055 A 
ATOM      6  C5  BZF d   1      -1.054  -1.034   1.033  0.00  0.00    -0.016 A 
ATOM      7  C6  BZF d   1      -0.706   0.081   0.300  0.00  0.00     0.022 A 
ATOM      8  C7  BZF d   1      -0.322  -0.020  -0.996  0.00  0.00     0.029 A 
ATOM      9  C7A BZF d   1      -0.319  -1.276  -1.551  0.00  0.00     0.058 A 
ENDROOT
TORSDOF 0
ENDMDL
