MODEL 1
REMARK minimizedAffinity -1.12903965
REMARK minimizedRMSD -1
REMARK  0 active torsions:
REMARK  status: ('A' for Active; 'I' for Inactive)
ROOT
ATOM      1  O1  BZF d   1       0.930   0.323  -0.399  0.00  0.00    -0.204 OA
ATOM      2  C2  BZF d   1      -0.338  -0.003   0.040  0.00  0.00     0.174 A 
ATOM      3  C3  BZF d   1      -0.814   0.943   0.875  0.00  0.00    -0.012 A 
ATOM      4  C3A BZF d   1       0.185   1.967   0.891  0.00  0.00    -0.107 A 
ATOM      5  C4  BZF d   1       0.283   3.174   1.524  0.00  0.00     0.055 A 
ATOM      6  C5  BZF d   1       1.422   3.901   1.386  0.00  0.00    -0.016 A 
ATOM      7  C6  BZF d   1       2.484   3.451   0.630  0.00  0.00     0.022 A 
ATOM      8  C7  BZF d   1       2.432   2.263  -0.021  0.00  0.00     0.029 A 
ATOM      9  C7A BZF d   1       1.269   1.541   0.090  0.00  0.00     0.058 A 
ENDROOT
TORSDOF 0
ENDMDL
