MODEL 1
REMARK minimizedAffinity -0.637504458
REMARK minimizedRMSD -1
REMARK  0 active torsions:
REMARK  status: ('A' for Active; 'I' for Inactive)
ROOT
ATOM      1  O1  BZF d   1      -1.927  -0.310  -0.048  0.00  0.00    -0.204 OA
ATOM      2  C2  BZF d   1      -1.839   0.024   1.290  0.00  0.00     0.174 A 
ATOM      3  C3  BZF d   1      -0.606   0.480   1.590  0.00  0.00    -0.012 A 
ATOM      4  C3A BZF d   1       0.096   0.515   0.343  0.00  0.00    -0.107 A 
ATOM      5  C4  BZF d   1       1.359   0.892  -0.013  0.00  0.00     0.055 A 
ATOM      6  C5  BZF d   1       1.757   0.734  -1.302  0.00  0.00    -0.016 A 
ATOM      7  C6  BZF d   1       0.920   0.199  -2.260  0.00  0.00     0.022 A 
ATOM      8  C7  BZF d   1      -0.343  -0.185  -1.956  0.00  0.00     0.029 A 
ATOM      9  C7A BZF d   1      -0.759   0.003  -0.660  0.00  0.00     0.058 A 
ENDROOT
TORSDOF 0
ENDMDL
