MODEL 1
REMARK minimizedAffinity 1.27659655
REMARK minimizedRMSD -1
REMARK  0 active torsions:
REMARK  status: ('A' for Active; 'I' for Inactive)
ROOT
ATOM      1  O1  BZF d   1       2.087   3.044   0.891  0.00  0.00    -0.204 OA
ATOM      2  C2  BZF d   1       1.077   3.798   1.456  0.00  0.00     0.174 A 
ATOM      3  C3  BZF d   1      -0.133   3.333   1.085  0.00  0.00    -0.012 A 
ATOM      4  C3A BZF d   1       0.136   2.162   0.308  0.00  0.00    -0.107 A 
ATOM      5  C4  BZF d   1      -0.661   1.252  -0.325  0.00  0.00     0.055 A 
ATOM      6  C5  BZF d   1      -0.082   0.265  -1.059  0.00  0.00    -0.016 A 
ATOM      7  C6  BZF d   1       1.288   0.161  -1.184  0.00  0.00     0.022 A 
ATOM      8  C7  BZF d   1       2.119   1.037  -0.570  0.00  0.00     0.029 A 
ATOM      9  C7A BZF d   1       1.539   2.016   0.199  0.00  0.00     0.058 A 
ENDROOT
TORSDOF 0
ENDMDL
