MODEL 1
REMARK minimizedAffinity -4.65003633
REMARK minimizedRMSD -1
REMARK  0 active torsions:
REMARK  status: ('A' for Active; 'I' for Inactive)
ROOT
ATOM      1  O1  BZF d   1      -0.439  -2.359  -1.502  0.00  0.00    -0.204 OA
ATOM      2  C2  BZF d   1      -0.932  -3.001  -0.382  0.00  0.00     0.174 A 
ATOM      3  C3  BZF d   1      -1.038  -2.143   0.653  0.00  0.00    -0.012 A 
ATOM      4  C3A BZF d   1      -0.671  -0.866   0.122  0.00  0.00    -0.107 A 
ATOM      5  C4  BZF d   1      -0.594   0.387   0.660  0.00  0.00     0.055 A 
ATOM      6  C5  BZF d   1      -0.130   1.408  -0.108  0.00  0.00    -0.016 A 
ATOM      7  C6  BZF d   1       0.271   1.210  -1.413  0.00  0.00     0.022 A 
ATOM      8  C7  BZF d   1       0.208  -0.014  -1.992  0.00  0.00     0.029 A 
ATOM      9  C7A BZF d   1      -0.292  -1.041  -1.229  0.00  0.00     0.058 A 
ENDROOT
TORSDOF 0
ENDMDL
