MODEL 1
REMARK minimizedAffinity -4.15034628
REMARK minimizedRMSD -1
REMARK  0 active torsions:
REMARK  status: ('A' for Active; 'I' for Inactive)
ROOT
ATOM      1  O1  BZF d   1       0.176   0.279  -1.106  0.00  0.00    -0.204 OA
ATOM      2  C2  BZF d   1       0.064   1.646  -0.939  0.00  0.00     0.174 A 
ATOM      3  C3  BZF d   1      -0.549   1.937   0.226  0.00  0.00    -0.012 A 
ATOM      4  C3A BZF d   1      -0.754   0.675   0.869  0.00  0.00    -0.107 A 
ATOM      5  C4  BZF d   1      -1.304   0.309   2.064  0.00  0.00     0.055 A 
ATOM      6  C5  BZF d   1      -1.420  -1.013   2.360  0.00  0.00    -0.016 A 
ATOM      7  C6  BZF d   1      -1.002  -1.993   1.483  0.00  0.00     0.022 A 
ATOM      8  C7  BZF d   1      -0.446  -1.678   0.288  0.00  0.00     0.029 A 
ATOM      9  C7A BZF d   1      -0.297  -0.343   0.000  0.00  0.00     0.058 A 
ENDROOT
TORSDOF 0
ENDMDL
