MODEL 1
REMARK minimizedAffinity -5.78453016
REMARK minimizedRMSD -1
REMARK  0 active torsions:
REMARK  status: ('A' for Active; 'I' for Inactive)
ROOT
ATOM      1  O1  BZF d   1       0.066   0.376  -1.395  0.00  0.00    -0.204 OA
ATOM      2  C2  BZF d   1      -0.109   1.130  -0.251  0.00  0.00     0.174 A 
ATOM      3  C3  BZF d   1      -0.264   0.334   0.827  0.00  0.00    -0.012 A 
ATOM      4  C3A BZF d   1      -0.088  -0.999   0.339  0.00  0.00    -0.107 A 
ATOM      5  C4  BZF d   1      -0.109  -2.227   0.936  0.00  0.00     0.055 A 
ATOM      6  C5  BZF d   1       0.025  -3.338   0.165  0.00  0.00    -0.016 A 
ATOM      7  C6  BZF d   1       0.177  -3.258  -1.204  0.00  0.00     0.022 A 
ATOM      8  C7  BZF d   1       0.209  -2.062  -1.840  0.00  0.00     0.029 A 
ATOM      9  C7A BZF d   1       0.107  -0.936  -1.060  0.00  0.00     0.058 A 
ENDROOT
TORSDOF 0
ENDMDL
