MODEL 1
REMARK minimizedAffinity -2.4276557
REMARK minimizedRMSD -1
REMARK  0 active torsions:
REMARK  status: ('A' for Active; 'I' for Inactive)
ROOT
ATOM      1  O1  BZF d   1       0.652   0.157  -1.412  0.00  0.00    -0.204 OA
ATOM      2  C2  BZF d   1       0.523   1.372  -0.767  0.00  0.00     0.174 A 
ATOM      3  C3  BZF d   1      -0.106   1.222   0.416  0.00  0.00    -0.012 A 
ATOM      4  C3A BZF d   1      -0.307  -0.187   0.559  0.00  0.00    -0.107 A 
ATOM      5  C4  BZF d   1      -0.867  -0.962   1.534  0.00  0.00     0.055 A 
ATOM      6  C5  BZF d   1      -0.973  -2.301   1.334  0.00  0.00    -0.016 A 
ATOM      7  C6  BZF d   1      -0.535  -2.899   0.171  0.00  0.00     0.022 A 
ATOM      8  C7  BZF d   1       0.033  -2.173  -0.823  0.00  0.00     0.029 A 
ATOM      9  C7A BZF d   1       0.171  -0.823  -0.610  0.00  0.00     0.058 A 
ENDROOT
TORSDOF 0
ENDMDL
