MODEL 1
REMARK minimizedAffinity -4.72638321
REMARK minimizedRMSD -1
REMARK  0 active torsions:
REMARK  status: ('A' for Active; 'I' for Inactive)
ROOT
ATOM      1  O1  BZF d   1       1.930   1.887   0.023  0.00  0.00    -0.204 OA
ATOM      2  C2  BZF d   1       1.372   3.151   0.057  0.00  0.00     0.174 A 
ATOM      3  C3  BZF d   1       0.040   3.080   0.255  0.00  0.00    -0.012 A 
ATOM      4  C3A BZF d   1      -0.240   1.690   0.443  0.00  0.00    -0.107 A 
ATOM      5  C4  BZF d   1      -1.384   0.988   0.696  0.00  0.00     0.055 A 
ATOM      6  C5  BZF d   1      -1.328  -0.369   0.751  0.00  0.00    -0.016 A 
ATOM      7  C6  BZF d   1      -0.147  -1.055   0.553  0.00  0.00     0.022 A 
ATOM      8  C7  BZF d   1       1.014  -0.402   0.304  0.00  0.00     0.029 A 
ATOM      9  C7A BZF d   1       0.967   0.970   0.280  0.00  0.00     0.058 A 
ENDROOT
TORSDOF 0
ENDMDL
