MODEL 1
REMARK minimizedAffinity -1.6620965
REMARK minimizedRMSD -1
REMARK  0 active torsions:
REMARK  status: ('A' for Active; 'I' for Inactive)
ROOT
ATOM      1  O1  BZF d   1      -0.283  -2.027  -2.485  0.00  0.00    -0.204 OA
ATOM      2  C2  BZF d   1      -0.657  -3.321  -2.176  0.00  0.00     0.174 A 
ATOM      3  C3  BZF d   1      -0.968  -3.430  -0.868  0.00  0.00    -0.012 A 
ATOM      4  C3A BZF d   1      -0.866  -2.102  -0.345  0.00  0.00    -0.107 A 
ATOM      5  C4  BZF d   1      -1.070  -1.562   0.893  0.00  0.00     0.055 A 
ATOM      6  C5  BZF d   1      -0.813  -0.242   1.088  0.00  0.00    -0.016 A 
ATOM      7  C6  BZF d   1      -0.347   0.565   0.071  0.00  0.00     0.022 A 
ATOM      8  C7  BZF d   1      -0.135   0.076  -1.175  0.00  0.00     0.029 A 
ATOM      9  C7A BZF d   1      -0.425  -1.250  -1.384  0.00  0.00     0.058 A 
ENDROOT
TORSDOF 0
ENDMDL
