MODEL 1
REMARK minimizedAffinity -5.66823578
REMARK minimizedRMSD -1
REMARK  0 active torsions:
REMARK  status: ('A' for Active; 'I' for Inactive)
ROOT
ATOM      1  O1  BZF d   1       0.100  -0.057  -2.201  0.00  0.00    -0.204 OA
ATOM      2  C2  BZF d   1      -0.156   1.112  -1.511  0.00  0.00     0.174 A 
ATOM      3  C3  BZF d   1      -0.240   0.877  -0.185  0.00  0.00    -0.012 A 
ATOM      4  C3A BZF d   1       0.069  -0.512  -0.029  0.00  0.00    -0.107 A 
ATOM      5  C4  BZF d   1       0.163  -1.336   1.055  0.00  0.00     0.055 A 
ATOM      6  C5  BZF d   1       0.411  -2.658   0.860  0.00  0.00    -0.016 A 
ATOM      7  C6  BZF d   1       0.564  -3.189  -0.404  0.00  0.00     0.022 A 
ATOM      8  C7  BZF d   1       0.484  -2.410  -1.510  0.00  0.00     0.029 A 
ATOM      9  C7A BZF d   1       0.266  -1.068  -1.314  0.00  0.00     0.058 A 
ENDROOT
TORSDOF 0
ENDMDL
