MODEL 1
REMARK minimizedAffinity 10.6657095
REMARK minimizedRMSD -1
REMARK  1 active torsions:
REMARK  status: ('A' for Active; 'I' for Inactive)
REMARK    1  A    between atoms: C1_2  and  C2_3 
ROOT
ATOM      1  C2  UNL d   1       0.801   4.065  -3.241  0.00  0.00    -0.077 A 
ATOM      2  C3  UNL d   1      -0.476   4.061  -3.821  0.00  0.00     0.002 A 
ATOM      3  C4  UNL d   1      -0.820   5.018  -4.778  0.00  0.00     0.002 A 
ATOM      4  C5  UNL d   1       0.108   5.981  -5.168  0.00  0.00    -0.004 A 
ATOM      5  C6  UNL d   1       1.380   5.995  -4.596  0.00  0.00     0.002 A 
ATOM      6  C7  UNL d   1       1.725   5.041  -3.638  0.00  0.00     0.002 A 
ENDROOT
BRANCH   1   7
ATOM      7  C1  UNL d   1       1.190   3.005  -2.245  0.00  0.00     0.055 C 
ATOM      8  C   UNL d   1       0.859   3.434  -0.823  0.00  0.00     0.019 C 
ENDBRANCH   1   7
TORSDOF 1
ENDMDL
