MODEL 1
REMARK minimizedAffinity 10.1958294
REMARK minimizedRMSD -1
REMARK  1 active torsions:
REMARK  status: ('A' for Active; 'I' for Inactive)
REMARK    1  A    between atoms: C1_2  and  C2_3 
ROOT
ATOM      1  C2  UNL d   1       1.478  -2.794  -3.588  0.00  0.00    -0.077 A 
ATOM      2  C3  UNL d   1       0.977  -3.328  -4.783  0.00  0.00     0.002 A 
ATOM      3  C4  UNL d   1       1.103  -2.620  -5.980  0.00  0.00     0.002 A 
ATOM      4  C5  UNL d   1       1.732  -1.377  -5.994  0.00  0.00    -0.004 A 
ATOM      5  C6  UNL d   1       2.232  -0.837  -4.810  0.00  0.00     0.002 A 
ATOM      6  C7  UNL d   1       2.106  -1.542  -3.612  0.00  0.00     0.002 A 
ENDROOT
BRANCH   1   7
ATOM      7  C1  UNL d   1       1.388  -3.577  -2.304  0.00  0.00     0.055 C 
ATOM      8  C   UNL d   1       1.455  -2.662  -1.091  0.00  0.00     0.019 C 
ENDBRANCH   1   7
TORSDOF 1
ENDMDL
