MODEL 1
REMARK minimizedAffinity 10.461916
REMARK minimizedRMSD -1
REMARK  1 active torsions:
REMARK  status: ('A' for Active; 'I' for Inactive)
REMARK    1  A    between atoms: C1_2  and  C2_3 
ROOT
ATOM      1  C2  UNL d   1       0.049   3.019   0.081  0.00  0.00    -0.077 A 
ATOM      2  C3  UNL d   1      -1.353   2.990   0.075  0.00  0.00     0.002 A 
ATOM      3  C4  UNL d   1      -2.049   2.294   1.065  0.00  0.00     0.002 A 
ATOM      4  C5  UNL d   1      -1.352   1.626   2.071  0.00  0.00    -0.004 A 
ATOM      5  C6  UNL d   1       0.042   1.648   2.084  0.00  0.00     0.002 A 
ATOM      6  C7  UNL d   1       0.739   2.342   1.094  0.00  0.00     0.002 A 
ENDROOT
BRANCH   1   7
ATOM      7  C1  UNL d   1       0.800   3.810  -0.958  0.00  0.00     0.055 C 
ATOM      8  C   UNL d   1       1.055   2.980  -2.208  0.00  0.00     0.019 C 
ENDBRANCH   1   7
TORSDOF 1
ENDMDL
