MODEL 1
REMARK minimizedAffinity 7.37973928
REMARK minimizedRMSD -1
REMARK  1 active torsions:
REMARK  status: ('A' for Active; 'I' for Inactive)
REMARK    1  A    between atoms: C1_2  and  C2_3 
ROOT
ATOM      1  C2  UNL d   1       1.337  -2.686  -3.528  0.00  0.00    -0.077 A 
ATOM      2  C3  UNL d   1       0.926  -3.305  -4.717  0.00  0.00     0.002 A 
ATOM      3  C4  UNL d   1       1.121  -2.673  -5.947  0.00  0.00     0.002 A 
ATOM      4  C5  UNL d   1       1.732  -1.422  -6.000  0.00  0.00    -0.004 A 
ATOM      5  C6  UNL d   1       2.142  -0.797  -4.823  0.00  0.00     0.002 A 
ATOM      6  C7  UNL d   1       1.946  -1.426  -3.593  0.00  0.00     0.002 A 
ENDROOT
BRANCH   1   7
ATOM      7  C1  UNL d   1       1.171  -3.387  -2.206  0.00  0.00     0.055 C 
ATOM      8  C   UNL d   1       1.575  -2.487  -1.047  0.00  0.00     0.019 C 
ENDBRANCH   1   7
TORSDOF 1
ENDMDL
