MODEL 1
REMARK minimizedAffinity 20.2225437
REMARK minimizedRMSD -1
REMARK  1 active torsions:
REMARK  status: ('A' for Active; 'I' for Inactive)
REMARK    1  A    between atoms: C1_2  and  C2_3 
ROOT
ATOM      1  C2  UNL d   1      -5.180   5.847   0.993  0.00  0.00    -0.077 A 
ATOM      2  C3  UNL d   1      -3.790   5.764   0.829  0.00  0.00     0.002 A 
ATOM      3  C4  UNL d   1      -3.227   5.784  -0.449  0.00  0.00     0.002 A 
ATOM      4  C5  UNL d   1      -4.046   5.890  -1.571  0.00  0.00    -0.004 A 
ATOM      5  C6  UNL d   1      -5.430   5.971  -1.418  0.00  0.00     0.002 A 
ATOM      6  C7  UNL d   1      -5.994   5.951  -0.142  0.00  0.00     0.002 A 
ENDROOT
BRANCH   1   7
ATOM      7  C1  UNL d   1      -5.785   5.876   2.372  0.00  0.00     0.055 C 
ATOM      8  C   UNL d   1      -4.710   5.892   3.449  0.00  0.00     0.019 C 
ENDBRANCH   1   7
TORSDOF 1
ENDMDL
