MODEL 1
REMARK minimizedAffinity 5.35917091
REMARK minimizedRMSD -1
REMARK  1 active torsions:
REMARK  status: ('A' for Active; 'I' for Inactive)
REMARK    1  A    between atoms: C1_2  and  C2_3 
ROOT
ATOM      1  C2  UNL d   1      -5.082   5.961   2.628  0.00  0.00    -0.077 A 
ATOM      2  C3  UNL d   1      -3.689   5.990   2.467  0.00  0.00     0.002 A 
ATOM      3  C4  UNL d   1      -3.127   6.000   1.189  0.00  0.00     0.002 A 
ATOM      4  C5  UNL d   1      -3.948   5.986   0.064  0.00  0.00    -0.004 A 
ATOM      5  C6  UNL d   1      -5.334   5.956   0.214  0.00  0.00     0.002 A 
ATOM      6  C7  UNL d   1      -5.898   5.944   1.490  0.00  0.00     0.002 A 
ENDROOT
BRANCH   1   7
ATOM      7  C1  UNL d   1      -5.692   6.000   4.005  0.00  0.00     0.055 C 
ATOM      8  C   UNL d   1      -4.621   5.961   5.086  0.00  0.00     0.019 C 
ENDBRANCH   1   7
TORSDOF 1
ENDMDL
