MODEL 1
REMARK minimizedAffinity 10.0383387
REMARK minimizedRMSD -1
REMARK  1 active torsions:
REMARK  status: ('A' for Active; 'I' for Inactive)
REMARK    1  A    between atoms: C1_2  and  C2_3 
ROOT
ATOM      1  C2  UNL d   1      -5.280   5.864   1.301  0.00  0.00    -0.077 A 
ATOM      2  C3  UNL d   1      -3.892   5.672   1.247  0.00  0.00     0.002 A 
ATOM      3  C4  UNL d   1      -3.238   5.592   0.017  0.00  0.00     0.002 A 
ATOM      4  C5  UNL d   1      -3.962   5.707  -1.168  0.00  0.00    -0.004 A 
ATOM      5  C6  UNL d   1      -5.342   5.896  -1.125  0.00  0.00     0.002 A 
ATOM      6  C7  UNL d   1      -5.999   5.975   0.104  0.00  0.00     0.002 A 
ENDROOT
BRANCH   1   7
ATOM      7  C1  UNL d   1      -5.981   5.999   2.628  0.00  0.00     0.055 C 
ATOM      8  C   UNL d   1      -4.989   5.995   3.781  0.00  0.00     0.019 C 
ENDBRANCH   1   7
TORSDOF 1
ENDMDL
