MODEL 1
REMARK minimizedAffinity 8.67841911
REMARK minimizedRMSD -1
REMARK  1 active torsions:
REMARK  status: ('A' for Active; 'I' for Inactive)
REMARK    1  A    between atoms: C1_2  and  C2_3 
ROOT
ATOM      1  C2  UNL d   1       1.313  -2.692  -3.290  0.00  0.00    -0.077 A 
ATOM      2  C3  UNL d   1       0.727  -3.482  -4.290  0.00  0.00     0.002 A 
ATOM      3  C4  UNL d   1       0.897  -3.156  -5.637  0.00  0.00     0.002 A 
ATOM      4  C5  UNL d   1       1.655  -2.044  -5.997  0.00  0.00    -0.004 A 
ATOM      5  C6  UNL d   1       2.239  -1.251  -5.010  0.00  0.00     0.002 A 
ATOM      6  C7  UNL d   1       2.070  -1.574  -3.663  0.00  0.00     0.002 A 
ENDROOT
BRANCH   1   7
ATOM      7  C1  UNL d   1       1.172  -3.070  -1.839  0.00  0.00     0.055 C 
ATOM      8  C   UNL d   1       1.598  -4.511  -1.598  0.00  0.00     0.019 C 
ENDBRANCH   1   7
TORSDOF 1
ENDMDL
