MODEL 1
REMARK minimizedAffinity 12.0231161
REMARK minimizedRMSD -1
REMARK  1 active torsions:
REMARK  status: ('A' for Active; 'I' for Inactive)
REMARK    1  A    between atoms: C1_2  and  C2_3 
ROOT
ATOM      1  C2  UNL d   1       1.036   3.764   1.853  0.00  0.00    -0.077 A 
ATOM      2  C3  UNL d   1       0.710   3.012   2.990  0.00  0.00     0.002 A 
ATOM      3  C4  UNL d   1      -0.188   1.947   2.899  0.00  0.00     0.002 A 
ATOM      4  C5  UNL d   1      -0.764   1.622   1.672  0.00  0.00    -0.004 A 
ATOM      5  C6  UNL d   1      -0.447   2.366   0.536  0.00  0.00     0.002 A 
ATOM      6  C7  UNL d   1       0.449   3.431   0.626  0.00  0.00     0.002 A 
ENDROOT
BRANCH   1   7
ATOM      7  C1  UNL d   1       2.042   4.882   1.941  0.00  0.00     0.055 C 
ATOM      8  C   UNL d   1       1.714   6.000   0.961  0.00  0.00     0.019 C 
ENDBRANCH   1   7
TORSDOF 1
ENDMDL
