MODEL 1
REMARK minimizedAffinity 14.1599588
REMARK minimizedRMSD -1
REMARK  1 active torsions:
REMARK  status: ('A' for Active; 'I' for Inactive)
REMARK    1  A    between atoms: C1_2  and  C2_3 
ROOT
ATOM      1  C2  UNL d   1      -5.127   5.874   1.746  0.00  0.00    -0.077 A 
ATOM      2  C3  UNL d   1      -5.993   5.890   0.644  0.00  0.00     0.002 A 
ATOM      3  C4  UNL d   1      -5.489   5.763  -0.652  0.00  0.00     0.002 A 
ATOM      4  C5  UNL d   1      -4.119   5.616  -0.857  0.00  0.00    -0.004 A 
ATOM      5  C6  UNL d   1      -3.249   5.600   0.232  0.00  0.00     0.002 A 
ATOM      6  C7  UNL d   1      -3.751   5.728   1.528  0.00  0.00     0.002 A 
ENDROOT
BRANCH   1   7
ATOM      7  C1  UNL d   1      -5.673   5.961   3.148  0.00  0.00     0.055 C 
ATOM      8  C   UNL d   1      -4.554   5.956   4.179  0.00  0.00     0.019 C 
ENDBRANCH   1   7
TORSDOF 1
ENDMDL
