MODEL 1
REMARK minimizedAffinity 11.7706633
REMARK minimizedRMSD -1
REMARK  1 active torsions:
REMARK  status: ('A' for Active; 'I' for Inactive)
REMARK    1  A    between atoms: C1_2  and  C2_3 
ROOT
ATOM      1  C2  UNL d   1      -0.398   4.295  -2.041  0.00  0.00    -0.077 A 
ATOM      2  C3  UNL d   1      -0.090   3.197  -1.225  0.00  0.00     0.002 A 
ATOM      3  C4  UNL d   1       0.383   3.393   0.073  0.00  0.00     0.002 A 
ATOM      4  C5  UNL d   1       0.548   4.685   0.569  0.00  0.00    -0.004 A 
ATOM      5  C6  UNL d   1       0.246   5.783  -0.235  0.00  0.00     0.002 A 
ATOM      6  C7  UNL d   1      -0.226   5.589  -1.534  0.00  0.00     0.002 A 
ENDROOT
BRANCH   1   7
ATOM      7  C1  UNL d   1      -0.955   4.085  -3.425  0.00  0.00     0.055 C 
ATOM      8  C   UNL d   1      -2.152   3.145  -3.404  0.00  0.00     0.019 C 
ENDBRANCH   1   7
TORSDOF 1
ENDMDL
