MODEL 1
REMARK minimizedAffinity 10.3146172
REMARK minimizedRMSD -1
REMARK  1 active torsions:
REMARK  status: ('A' for Active; 'I' for Inactive)
REMARK    1  A    between atoms: C1_2  and  C2_3 
ROOT
ATOM      1  C2  UNL d   1       1.549  -2.666  -1.481  0.00  0.00    -0.077 A 
ATOM      2  C3  UNL d   1       1.752  -3.793  -0.672  0.00  0.00     0.002 A 
ATOM      3  C4  UNL d   1       2.051  -3.644   0.684  0.00  0.00     0.002 A 
ATOM      4  C5  UNL d   1       2.147  -2.371   1.242  0.00  0.00    -0.004 A 
ATOM      5  C6  UNL d   1       1.949  -1.244   0.445  0.00  0.00     0.002 A 
ATOM      6  C7  UNL d   1       1.651  -1.391  -0.910  0.00  0.00     0.002 A 
ENDROOT
BRANCH   1   7
ATOM      7  C1  UNL d   1       1.178  -2.826  -2.932  0.00  0.00     0.055 C 
ATOM      8  C   UNL d   1       2.213  -2.182  -3.843  0.00  0.00     0.019 C 
ENDBRANCH   1   7
TORSDOF 1
ENDMDL
