MODEL 1
REMARK minimizedAffinity 8.91325283
REMARK minimizedRMSD -1
REMARK  1 active torsions:
REMARK  status: ('A' for Active; 'I' for Inactive)
REMARK    1  A    between atoms: C1_2  and  C2_3 
ROOT
ATOM      1  C2  UNL d   1      -0.086   3.098  -0.295  0.00  0.00    -0.077 A 
ATOM      2  C3  UNL d   1      -0.373   4.224   0.489  0.00  0.00     0.002 A 
ATOM      3  C4  UNL d   1      -0.154   5.509  -0.013  0.00  0.00     0.002 A 
ATOM      4  C5  UNL d   1       0.350   5.679  -1.301  0.00  0.00    -0.004 A 
ATOM      5  C6  UNL d   1       0.640   4.565  -2.087  0.00  0.00     0.002 A 
ATOM      6  C7  UNL d   1       0.423   3.281  -1.587  0.00  0.00     0.002 A 
ENDROOT
BRANCH   1   7
ATOM      7  C1  UNL d   1      -0.368   1.713   0.226  0.00  0.00     0.055 C 
ATOM      8  C   UNL d   1      -0.317   1.673   1.746  0.00  0.00     0.019 C 
ENDBRANCH   1   7
TORSDOF 1
ENDMDL
