MODEL 1
REMARK minimizedAffinity 7.02404213
REMARK minimizedRMSD -1
REMARK  1 active torsions:
REMARK  status: ('A' for Active; 'I' for Inactive)
REMARK    1  A    between atoms: C1_2  and  C2_3 
ROOT
ATOM      1  C2  UNL d   1      -1.101   2.323  -0.260  0.00  0.00    -0.077 A 
ATOM      2  C3  UNL d   1      -1.575   3.205  -1.241  0.00  0.00     0.002 A 
ATOM      3  C4  UNL d   1      -0.710   4.118  -1.847  0.00  0.00     0.002 A 
ATOM      4  C5  UNL d   1       0.634   4.155  -1.482  0.00  0.00    -0.004 A 
ATOM      5  C6  UNL d   1       1.115   3.284  -0.506  0.00  0.00     0.002 A 
ATOM      6  C7  UNL d   1       0.251   2.371   0.102  0.00  0.00     0.002 A 
ENDROOT
BRANCH   1   7
ATOM      7  C1  UNL d   1      -2.021   1.304   0.359  0.00  0.00     0.055 C 
ATOM      8  C   UNL d   1      -2.610   0.377  -0.694  0.00  0.00     0.019 C 
ENDBRANCH   1   7
TORSDOF 1
ENDMDL
