MODEL 1
REMARK minimizedAffinity 1.75693023
REMARK minimizedRMSD -1
REMARK  0 active torsions:
REMARK  status: ('A' for Active; 'I' for Inactive)
ROOT
ATOM      1  C   UNL d   1      -2.873   1.914  -0.045  0.00  0.00     0.172 C 
ATOM      2  N   UNL d   1      -3.131   3.325   0.122  0.00  0.00    -0.070 N 
ATOM      3  C1  UNL d   1      -2.724   4.091   1.182  0.00  0.00    -0.004 A 
ATOM      4  C2  UNL d   1      -3.166   5.378   0.967  0.00  0.00    -0.047 A 
ATOM      5  C3  UNL d   1      -3.864   5.386  -0.264  0.00  0.00    -0.047 A 
ATOM      6  C4  UNL d   1      -3.827   4.102  -0.766  0.00  0.00    -0.004 A 
ENDROOT
TORSDOF 0
ENDMDL
