MODEL 1
REMARK minimizedAffinity 13.1753645
REMARK minimizedRMSD -1
REMARK  0 active torsions:
REMARK  status: ('A' for Active; 'I' for Inactive)
ROOT
ATOM      1  C   UNL d   1       3.484  -1.309  -3.756  0.00  0.00     0.172 C 
ATOM      2  N   UNL d   1       4.149  -0.211  -4.417  0.00  0.00    -0.070 N 
ATOM      3  C1  UNL d   1       4.517   0.970  -3.829  0.00  0.00    -0.004 A 
ATOM      4  C2  UNL d   1       5.122   1.750  -4.790  0.00  0.00    -0.047 A 
ATOM      5  C3  UNL d   1       5.117   1.013  -5.998  0.00  0.00    -0.047 A 
ATOM      6  C4  UNL d   1       4.509  -0.197  -5.739  0.00  0.00    -0.004 A 
ENDROOT
TORSDOF 0
ENDMDL
