MODEL 1
REMARK minimizedAffinity 8.00664234
REMARK minimizedRMSD -1
REMARK  0 active torsions:
REMARK  status: ('A' for Active; 'I' for Inactive)
ROOT
ATOM      1  C   UNL d   1       5.999  -3.238  -1.211  0.00  0.00     0.172 C 
ATOM      2  N   UNL d   1       5.042  -3.361  -2.286  0.00  0.00    -0.070 N 
ATOM      3  C1  UNL d   1       4.843  -4.477  -3.053  0.00  0.00    -0.004 A 
ATOM      4  C2  UNL d   1       3.849  -4.191  -3.964  0.00  0.00    -0.047 A 
ATOM      5  C3  UNL d   1       3.437  -2.857  -3.737  0.00  0.00    -0.047 A 
ATOM      6  C4  UNL d   1       4.192  -2.366  -2.692  0.00  0.00    -0.004 A 
ENDROOT
TORSDOF 0
ENDMDL
