MODEL 1
REMARK minimizedAffinity 5.36649275
REMARK minimizedRMSD -1
REMARK  0 active torsions:
REMARK  status: ('A' for Active; 'I' for Inactive)
ROOT
ATOM      1  C   UNL d   1       5.989   4.128  -3.257  0.00  0.00     0.172 C 
ATOM      2  N   UNL d   1       5.862   3.003  -4.153  0.00  0.00    -0.070 N 
ATOM      3  C1  UNL d   1       6.000   3.047  -5.514  0.00  0.00    -0.004 A 
ATOM      4  C2  UNL d   1       5.806   1.771  -5.999  0.00  0.00    -0.047 A 
ATOM      5  C3  UNL d   1       5.542   0.932  -4.891  0.00  0.00    -0.047 A 
ATOM      6  C4  UNL d   1       5.583   1.720  -3.760  0.00  0.00    -0.004 A 
ENDROOT
TORSDOF 0
ENDMDL
