MODEL 1
REMARK minimizedAffinity 2.71550107
REMARK minimizedRMSD -1
REMARK  0 active torsions:
REMARK  status: ('A' for Active; 'I' for Inactive)
ROOT
ATOM      1  C   UNL d   1       4.143  -5.464   5.999  0.00  0.00     0.172 C 
ATOM      2  N   UNL d   1       4.633  -4.106   5.982  0.00  0.00    -0.070 N 
ATOM      3  C1  UNL d   1       5.951  -3.733   5.997  0.00  0.00    -0.004 A 
ATOM      4  C2  UNL d   1       5.999  -2.356   5.972  0.00  0.00    -0.047 A 
ATOM      5  C3  UNL d   1       4.665  -1.885   5.942  0.00  0.00    -0.047 A 
ATOM      6  C4  UNL d   1       3.840  -2.990   5.949  0.00  0.00    -0.004 A 
ENDROOT
TORSDOF 0
ENDMDL
