MODEL 1
REMARK minimizedAffinity 6.03799582
REMARK minimizedRMSD -1
REMARK  0 active torsions:
REMARK  status: ('A' for Active; 'I' for Inactive)
ROOT
ATOM      1  C   UNL d   1       5.981   4.283  -5.095  0.00  0.00     0.172 C 
ATOM      2  N   UNL d   1       5.952   4.703  -3.714  0.00  0.00    -0.070 N 
ATOM      3  C1  UNL d   1       5.927   6.000  -3.274  0.00  0.00    -0.004 A 
ATOM      4  C2  UNL d   1       5.903   5.978  -1.896  0.00  0.00    -0.047 A 
ATOM      5  C3  UNL d   1       5.916   4.622  -1.494  0.00  0.00    -0.047 A 
ATOM      6  C4  UNL d   1       5.946   3.854  -2.639  0.00  0.00    -0.004 A 
ENDROOT
TORSDOF 0
ENDMDL
