MODEL 1
REMARK minimizedAffinity 5.99996471
REMARK minimizedRMSD -1
REMARK  0 active torsions:
REMARK  status: ('A' for Active; 'I' for Inactive)
ROOT
ATOM      1  C   UNL d   1      -5.428  -0.330   6.000  0.00  0.00     0.172 C 
ATOM      2  N   UNL d   1      -3.988  -0.370   5.891  0.00  0.00    -0.070 N 
ATOM      3  C1  UNL d   1      -3.210  -1.492   5.999  0.00  0.00    -0.004 A 
ATOM      4  C2  UNL d   1      -1.896  -1.111   5.836  0.00  0.00    -0.047 A 
ATOM      5  C3  UNL d   1      -1.883   0.288   5.624  0.00  0.00    -0.047 A 
ATOM      6  C4  UNL d   1      -3.192   0.721   5.663  0.00  0.00    -0.004 A 
ENDROOT
TORSDOF 0
ENDMDL
