MODEL 1
REMARK minimizedAffinity 9.74756718
REMARK minimizedRMSD -1
REMARK  0 active torsions:
REMARK  status: ('A' for Active; 'I' for Inactive)
ROOT
ATOM      1  C   UNL d   1      -3.133  -1.935  -1.271  0.00  0.00     0.172 C 
ATOM      2  N   UNL d   1      -1.758  -2.126  -0.877  0.00  0.00    -0.070 N 
ATOM      3  C1  UNL d   1      -0.672  -2.066  -1.710  0.00  0.00    -0.004 A 
ATOM      4  C2  UNL d   1       0.455  -2.303  -0.953  0.00  0.00    -0.047 A 
ATOM      5  C3  UNL d   1       0.032  -2.514   0.381  0.00  0.00    -0.047 A 
ATOM      6  C4  UNL d   1      -1.342  -2.399   0.400  0.00  0.00    -0.004 A 
ENDROOT
TORSDOF 0
ENDMDL
