MODEL 1
REMARK minimizedAffinity 10.8148403
REMARK minimizedRMSD -1
REMARK  0 active torsions:
REMARK  status: ('A' for Active; 'I' for Inactive)
ROOT
ATOM      1  C   UNL d   1      -2.437  -5.510  -5.135  0.00  0.00     0.172 C 
ATOM      2  N   UNL d   1      -3.824  -5.181  -5.366  0.00  0.00    -0.070 N 
ATOM      3  C1  UNL d   1      -4.749  -5.998  -5.959  0.00  0.00    -0.004 A 
ATOM      4  C2  UNL d   1      -5.949  -5.322  -5.992  0.00  0.00    -0.047 A 
ATOM      5  C3  UNL d   1      -5.738  -4.054  -5.399  0.00  0.00    -0.047 A 
ATOM      6  C4  UNL d   1      -4.413  -3.994  -5.021  0.00  0.00    -0.004 A 
ENDROOT
TORSDOF 0
ENDMDL
