MODEL 1
REMARK minimizedAffinity 7.82332468
REMARK minimizedRMSD -1
REMARK  0 active torsions:
REMARK  status: ('A' for Active; 'I' for Inactive)
ROOT
ATOM      1  C   UNL d   1       2.471  -2.287  -4.068  0.00  0.00     0.172 C 
ATOM      2  N   UNL d   1       1.091  -2.097  -3.688  0.00  0.00    -0.070 N 
ATOM      3  C1  UNL d   1       0.634  -1.899  -2.412  0.00  0.00    -0.004 A 
ATOM      4  C2  UNL d   1      -0.736  -1.761  -2.471  0.00  0.00    -0.047 A 
ATOM      5  C3  UNL d   1      -1.115  -1.880  -3.829  0.00  0.00    -0.047 A 
ATOM      6  C4  UNL d   1       0.035  -2.088  -4.560  0.00  0.00    -0.004 A 
ENDROOT
TORSDOF 0
ENDMDL
