MODEL 1
REMARK minimizedAffinity 12.2070246
REMARK minimizedRMSD -1
REMARK  0 active torsions:
REMARK  status: ('A' for Active; 'I' for Inactive)
ROOT
ATOM      1  C   UNL d   1       4.217   2.407  -4.189  0.00  0.00     0.172 C 
ATOM      2  N   UNL d   1       3.454   3.616  -3.986  0.00  0.00    -0.070 N 
ATOM      3  C1  UNL d   1       2.408   3.763  -3.114  0.00  0.00    -0.004 A 
ATOM      4  C2  UNL d   1       1.951   5.059  -3.217  0.00  0.00    -0.047 A 
ATOM      5  C3  UNL d   1       2.750   5.714  -4.184  0.00  0.00    -0.047 A 
ATOM      6  C4  UNL d   1       3.672   4.798  -4.644  0.00  0.00    -0.004 A 
ENDROOT
TORSDOF 0
ENDMDL
