MODEL 1
REMARK minimizedAffinity 7.19978666
REMARK minimizedRMSD -1
REMARK  0 active torsions:
REMARK  status: ('A' for Active; 'I' for Inactive)
ROOT
ATOM      1  C   UNL d   1       3.004  -1.430  -2.988  0.00  0.00     0.172 C 
ATOM      2  N   UNL d   1       1.738  -1.560  -2.304  0.00  0.00    -0.070 N 
ATOM      3  C1  UNL d   1       0.538  -1.071  -2.746  0.00  0.00    -0.004 A 
ATOM      4  C2  UNL d   1      -0.422  -1.402  -1.815  0.00  0.00    -0.047 A 
ATOM      5  C3  UNL d   1       0.224  -2.113  -0.776  0.00  0.00    -0.047 A 
ATOM      6  C4  UNL d   1       1.561  -2.197  -1.104  0.00  0.00    -0.004 A 
ENDROOT
TORSDOF 0
ENDMDL
