MODEL 1
REMARK minimizedAffinity 10.7334442
REMARK minimizedRMSD -1
REMARK  0 active torsions:
REMARK  status: ('A' for Active; 'I' for Inactive)
ROOT
ATOM      1  C   UNL d   1      -1.543  -0.727  -0.177  0.00  0.00     0.172 C 
ATOM      2  N   UNL d   1      -0.582  -1.176  -1.157  0.00  0.00    -0.070 N 
ATOM      3  C1  UNL d   1      -0.838  -1.394  -2.484  0.00  0.00    -0.004 A 
ATOM      4  C2  UNL d   1       0.333  -1.813  -3.077  0.00  0.00    -0.047 A 
ATOM      5  C3  UNL d   1       1.327  -1.851  -2.070  0.00  0.00    -0.047 A 
ATOM      6  C4  UNL d   1       0.733  -1.452  -0.892  0.00  0.00    -0.004 A 
ENDROOT
TORSDOF 0
ENDMDL
