MODEL 1
REMARK minimizedAffinity 9.78230667
REMARK minimizedRMSD -1
REMARK  0 active torsions:
REMARK  status: ('A' for Active; 'I' for Inactive)
ROOT
ATOM      1  C   UNL d   1       5.948   4.382   0.962  0.00  0.00     0.172 C 
ATOM      2  N   UNL d   1       5.962   4.711  -0.444  0.00  0.00    -0.070 N 
ATOM      3  C1  UNL d   1       5.994   3.809  -1.474  0.00  0.00    -0.004 A 
ATOM      4  C2  UNL d   1       5.998   4.518  -2.656  0.00  0.00    -0.047 A 
ATOM      5  C3  UNL d   1       5.969   5.893  -2.324  0.00  0.00    -0.047 A 
ATOM      6  C4  UNL d   1       5.947   5.984  -0.949  0.00  0.00    -0.004 A 
ENDROOT
TORSDOF 0
ENDMDL
