MODEL 1
REMARK minimizedAffinity 15.8289309
REMARK minimizedRMSD -1
REMARK  0 active torsions:
REMARK  status: ('A' for Active; 'I' for Inactive)
ROOT
ATOM      1  C   UNL d   1       4.701   0.028   1.733  0.00  0.00     0.124 A 
ATOM      2  C1  UNL d   1       4.974   1.207   2.413  0.00  0.00     0.062 A 
ATOM      3  C2  UNL d   1       4.186   2.335   2.202  0.00  0.00     0.162 A 
ATOM      4  C3  UNL d   1       3.117   2.290   1.308  0.00  0.00    -0.034 A 
ATOM      5  C4  UNL d   1       2.849   1.101   0.627  0.00  0.00     0.162 A 
ATOM      6  C5  UNL d   1       3.639  -0.024   0.841  0.00  0.00     0.062 A 
ATOM      7  F   UNL d   1       3.374  -1.162   0.184  0.00  0.00    -0.097 F 
ATOM      8  F1  UNL d   1       1.828   1.022  -0.240  0.00  0.00    -0.096 F 
ATOM      9  I   UNL d   1       1.936   3.974   0.989  0.00  0.00    -0.060 I 
ATOM     10  F2  UNL d   1       4.473   3.461   2.872  0.00  0.00    -0.096 F 
ATOM     11  F3  UNL d   1       5.999   1.261   3.275  0.00  0.00    -0.097 F 
ATOM     12  F4  UNL d   1       5.461  -1.055   1.937  0.00  0.00    -0.092 F 
ENDROOT
TORSDOF 0
ENDMDL
