MODEL 1
REMARK minimizedAffinity 18.1858997
REMARK minimizedRMSD -1
REMARK  0 active torsions:
REMARK  status: ('A' for Active; 'I' for Inactive)
ROOT
ATOM      1  C   UNL d   1      -4.497   0.010   4.150  0.00  0.00     0.124 A 
ATOM      2  C1  UNL d   1      -4.316  -0.630   2.932  0.00  0.00     0.062 A 
ATOM      3  C2  UNL d   1      -3.041  -0.747   2.386  0.00  0.00     0.162 A 
ATOM      4  C3  UNL d   1      -1.937  -0.223   3.057  0.00  0.00    -0.034 A 
ATOM      5  C4  UNL d   1      -2.127   0.421   4.281  0.00  0.00     0.162 A 
ATOM      6  C5  UNL d   1      -3.403   0.535   4.823  0.00  0.00     0.062 A 
ATOM      7  F   UNL d   1      -3.577   1.154   6.000  0.00  0.00    -0.097 F 
ATOM      8  F1  UNL d   1      -1.087   0.936   4.954  0.00  0.00    -0.096 F 
ATOM      9  I   UNL d   1      -0.029  -0.396   2.244  0.00  0.00    -0.060 I 
ATOM     10  F2  UNL d   1      -2.895  -1.371   1.207  0.00  0.00    -0.096 F 
ATOM     11  F3  UNL d   1      -5.371  -1.138   2.279  0.00  0.00    -0.097 F 
ATOM     12  F4  UNL d   1      -5.725   0.122   4.672  0.00  0.00    -0.092 F 
ENDROOT
TORSDOF 0
ENDMDL
