MODEL 1
REMARK minimizedAffinity 25.4121418
REMARK minimizedRMSD -1
REMARK  0 active torsions:
REMARK  status: ('A' for Active; 'I' for Inactive)
ROOT
ATOM      1  C   UNL d   1       2.193   4.204  -3.589  0.00  0.00     0.124 A 
ATOM      2  C1  UNL d   1       1.563   4.470  -4.797  0.00  0.00     0.062 A 
ATOM      3  C2  UNL d   1       0.257   4.951  -4.814  0.00  0.00     0.162 A 
ATOM      4  C3  UNL d   1      -0.428   5.169  -3.619  0.00  0.00    -0.034 A 
ATOM      5  C4  UNL d   1       0.211   4.898  -2.409  0.00  0.00     0.162 A 
ATOM      6  C5  UNL d   1       1.517   4.418  -2.397  0.00  0.00     0.062 A 
ATOM      7  F   UNL d   1       2.124   4.161  -1.229  0.00  0.00    -0.097 F 
ATOM      8  F1  UNL d   1      -0.418   5.097  -1.241  0.00  0.00    -0.096 F 
ATOM      9  I   UNL d   1      -2.382   5.888  -3.641  0.00  0.00    -0.060 I 
ATOM     10  F2  UNL d   1      -0.327   5.199  -5.996  0.00  0.00    -0.096 F 
ATOM     11  F3  UNL d   1       2.214   4.263  -5.951  0.00  0.00    -0.097 F 
ATOM     12  F4  UNL d   1       3.449   3.741  -3.576  0.00  0.00    -0.092 F 
ENDROOT
TORSDOF 0
ENDMDL
