MODEL 1
REMARK minimizedAffinity 20.6451302
REMARK minimizedRMSD -1
REMARK  0 active torsions:
REMARK  status: ('A' for Active; 'I' for Inactive)
ROOT
ATOM      1  C   UNL d   1       1.838   4.016  -2.389  0.00  0.00     0.124 A 
ATOM      2  C1  UNL d   1       2.138   3.693  -3.705  0.00  0.00     0.062 A 
ATOM      3  C2  UNL d   1       1.311   4.125  -4.738  0.00  0.00     0.162 A 
ATOM      4  C3  UNL d   1       0.176   4.887  -4.458  0.00  0.00    -0.034 A 
ATOM      5  C4  UNL d   1      -0.120   5.207  -3.132  0.00  0.00     0.162 A 
ATOM      6  C5  UNL d   1       0.710   4.773  -2.104  0.00  0.00     0.062 A 
ATOM      7  F   UNL d   1       0.419   5.086  -0.833  0.00  0.00    -0.097 F 
ATOM      8  F1  UNL d   1      -1.203   5.938  -2.828  0.00  0.00    -0.096 F 
ATOM      9  I   UNL d   1      -1.063   5.535  -6.000  0.00  0.00    -0.060 I 
ATOM     10  F2  UNL d   1       1.625   3.798  -6.000  0.00  0.00    -0.096 F 
ATOM     11  F3  UNL d   1       3.227   2.962  -3.983  0.00  0.00    -0.097 F 
ATOM     12  F4  UNL d   1       2.635   3.598  -1.397  0.00  0.00    -0.092 F 
ENDROOT
TORSDOF 0
ENDMDL
