MODEL 1
REMARK minimizedAffinity 19.3163528
REMARK minimizedRMSD -1
REMARK  0 active torsions:
REMARK  status: ('A' for Active; 'I' for Inactive)
ROOT
ATOM      1  C   UNL d   1      -2.498  -3.144   0.228  0.00  0.00     0.124 A 
ATOM      2  C1  UNL d   1      -2.561  -1.985   0.988  0.00  0.00     0.062 A 
ATOM      3  C2  UNL d   1      -1.394  -1.400   1.472  0.00  0.00     0.162 A 
ATOM      4  C3  UNL d   1      -0.153  -1.974   1.196  0.00  0.00    -0.034 A 
ATOM      5  C4  UNL d   1      -0.097  -3.140   0.432  0.00  0.00     0.162 A 
ATOM      6  C5  UNL d   1      -1.266  -3.721  -0.050  0.00  0.00     0.062 A 
ATOM      7  F   UNL d   1      -1.203  -4.841  -0.784  0.00  0.00    -0.097 F 
ATOM      8  F1  UNL d   1       1.080  -3.718   0.148  0.00  0.00    -0.096 F 
ATOM      9  I   UNL d   1       1.594  -1.103   1.918  0.00  0.00    -0.060 I 
ATOM     10  F2  UNL d   1      -1.486  -0.280   2.204  0.00  0.00    -0.096 F 
ATOM     11  F3  UNL d   1      -3.750  -1.426   1.258  0.00  0.00    -0.097 F 
ATOM     12  F4  UNL d   1      -3.622  -3.705  -0.236  0.00  0.00    -0.092 F 
ENDROOT
TORSDOF 0
ENDMDL
