MODEL 1
REMARK minimizedAffinity 21.5220871
REMARK minimizedRMSD -1
REMARK  0 active torsions:
REMARK  status: ('A' for Active; 'I' for Inactive)
ROOT
ATOM      1  C   UNL d   1       1.877   2.385  -0.558  0.00  0.00     0.124 A 
ATOM      2  C1  UNL d   1       1.626   2.034  -1.877  0.00  0.00     0.062 A 
ATOM      3  C2  UNL d   1       1.415   3.020  -2.836  0.00  0.00     0.162 A 
ATOM      4  C3  UNL d   1       1.455   4.368  -2.480  0.00  0.00    -0.034 A 
ATOM      5  C4  UNL d   1       1.707   4.714  -1.151  0.00  0.00     0.162 A 
ATOM      6  C5  UNL d   1       1.917   3.724  -0.196  0.00  0.00     0.062 A 
ATOM      7  F   UNL d   1       2.159   4.065   1.078  0.00  0.00    -0.097 F 
ATOM      8  F1  UNL d   1       1.752   6.000  -0.773  0.00  0.00    -0.096 F 
ATOM      9  I   UNL d   1       1.140   5.847  -3.910  0.00  0.00    -0.060 I 
ATOM     10  F2  UNL d   1       1.174   2.652  -4.103  0.00  0.00    -0.096 F 
ATOM     11  F3  UNL d   1       1.585   0.741  -2.229  0.00  0.00    -0.097 F 
ATOM     12  F4  UNL d   1       2.078   1.433   0.363  0.00  0.00    -0.092 F 
ENDROOT
TORSDOF 0
ENDMDL
