MODEL 1
REMARK minimizedAffinity 15.7012644
REMARK minimizedRMSD -1
REMARK  0 active torsions:
REMARK  status: ('A' for Active; 'I' for Inactive)
ROOT
ATOM      1  C   UNL d   1       3.848   3.390   2.179  0.00  0.00     0.124 A 
ATOM      2  C1  UNL d   1       4.938   2.657   2.626  0.00  0.00     0.062 A 
ATOM      3  C2  UNL d   1       4.932   1.268   2.535  0.00  0.00     0.162 A 
ATOM      4  C3  UNL d   1       3.833   0.603   1.992  0.00  0.00    -0.034 A 
ATOM      5  C4  UNL d   1       2.740   1.348   1.545  0.00  0.00     0.162 A 
ATOM      6  C5  UNL d   1       2.750   2.735   1.639  0.00  0.00     0.062 A 
ATOM      7  F   UNL d   1       1.696   3.443   1.206  0.00  0.00    -0.097 F 
ATOM      8  F1  UNL d   1       1.666   0.740   1.018  0.00  0.00    -0.096 F 
ATOM      9  I   UNL d   1       3.820  -1.474   1.853  0.00  0.00    -0.060 I 
ATOM     10  F2  UNL d   1       5.999   0.584   2.975  0.00  0.00    -0.096 F 
ATOM     11  F3  UNL d   1       6.000   3.287   3.149  0.00  0.00    -0.097 F 
ATOM     12  F4  UNL d   1       3.856   4.727   2.269  0.00  0.00    -0.092 F 
ENDROOT
TORSDOF 0
ENDMDL
