MODEL 1
REMARK minimizedAffinity 15.6567831
REMARK minimizedRMSD -1
REMARK  0 active torsions:
REMARK  status: ('A' for Active; 'I' for Inactive)
ROOT
ATOM      1  C   UNL d   1       0.862  -2.865   0.508  0.00  0.00     0.124 A 
ATOM      2  C1  UNL d   1       0.233  -2.077   1.462  0.00  0.00     0.062 A 
ATOM      3  C2  UNL d   1      -1.142  -2.171   1.652  0.00  0.00     0.162 A 
ATOM      4  C3  UNL d   1      -1.900  -3.057   0.886  0.00  0.00    -0.034 A 
ATOM      5  C4  UNL d   1      -1.261  -3.845  -0.073  0.00  0.00     0.162 A 
ATOM      6  C5  UNL d   1       0.114  -3.748  -0.258  0.00  0.00     0.062 A 
ATOM      7  F   UNL d   1       0.720  -4.510  -1.181  0.00  0.00    -0.097 F 
ATOM      8  F1  UNL d   1      -1.959  -4.708  -0.826  0.00  0.00    -0.096 F 
ATOM      9  I   UNL d   1      -3.957  -3.200   1.166  0.00  0.00    -0.060 I 
ATOM     10  F2  UNL d   1      -1.723  -1.397   2.581  0.00  0.00    -0.096 F 
ATOM     11  F3  UNL d   1       0.953  -1.222   2.204  0.00  0.00    -0.097 F 
ATOM     12  F4  UNL d   1       2.185  -2.772   0.327  0.00  0.00    -0.092 F 
ENDROOT
TORSDOF 0
ENDMDL
