MODEL 1
REMARK minimizedAffinity 12.1658421
REMARK minimizedRMSD -1
REMARK  0 active torsions:
REMARK  status: ('A' for Active; 'I' for Inactive)
ROOT
ATOM      1  C   UNL d   1      -1.829  -2.951   0.909  0.00  0.00     0.124 A 
ATOM      2  C1  UNL d   1      -0.734  -3.400   0.183  0.00  0.00     0.062 A 
ATOM      3  C2  UNL d   1       0.555  -3.053   0.574  0.00  0.00     0.162 A 
ATOM      4  C3  UNL d   1       0.758  -2.253   1.698  0.00  0.00    -0.034 A 
ATOM      5  C4  UNL d   1      -0.347  -1.804   2.423  0.00  0.00     0.162 A 
ATOM      6  C5  UNL d   1      -1.634  -2.153   2.028  0.00  0.00     0.062 A 
ATOM      7  F   UNL d   1      -2.690  -1.718   2.731  0.00  0.00    -0.097 F 
ATOM      8  F1  UNL d   1      -0.188  -1.033   3.509  0.00  0.00    -0.096 F 
ATOM      9  I   UNL d   1       2.686  -1.731   2.287  0.00  0.00    -0.060 I 
ATOM     10  F2  UNL d   1       1.594  -3.501  -0.146  0.00  0.00    -0.096 F 
ATOM     11  F3  UNL d   1      -0.920  -4.170  -0.899  0.00  0.00    -0.097 F 
ATOM     12  F4  UNL d   1      -3.069  -3.286   0.530  0.00  0.00    -0.092 F 
ENDROOT
TORSDOF 0
ENDMDL
