MODEL 1
REMARK minimizedAffinity 21.1576653
REMARK minimizedRMSD -1
REMARK  0 active torsions:
REMARK  status: ('A' for Active; 'I' for Inactive)
ROOT
ATOM      1  C   UNL d   1       3.910  -1.623   2.605  0.00  0.00     0.124 A 
ATOM      2  C1  UNL d   1       2.970  -2.300   3.370  0.00  0.00     0.062 A 
ATOM      3  C2  UNL d   1       1.619  -1.989   3.256  0.00  0.00     0.162 A 
ATOM      4  C3  UNL d   1       1.197  -0.996   2.371  0.00  0.00    -0.034 A 
ATOM      5  C4  UNL d   1       2.148  -0.319   1.606  0.00  0.00     0.162 A 
ATOM      6  C5  UNL d   1       3.498  -0.634   1.724  0.00  0.00     0.062 A 
ATOM      7  F   UNL d   1       4.404   0.022   0.983  0.00  0.00    -0.097 F 
ATOM      8  F1  UNL d   1       1.778   0.642   0.746  0.00  0.00    -0.096 F 
ATOM      9  I   UNL d   1      -0.823  -0.527   2.197  0.00  0.00    -0.060 I 
ATOM     10  F2  UNL d   1       0.733  -2.659   4.007  0.00  0.00    -0.096 F 
ATOM     11  F3  UNL d   1       3.366  -3.257   4.223  0.00  0.00    -0.097 F 
ATOM     12  F4  UNL d   1       5.210  -1.924   2.717  0.00  0.00    -0.092 F 
ENDROOT
TORSDOF 0
ENDMDL
