MODEL 1
REMARK minimizedAffinity 13.1524286
REMARK minimizedRMSD -1
REMARK  0 active torsions:
REMARK  status: ('A' for Active; 'I' for Inactive)
ROOT
ATOM      1  C   UNL d   1       2.865   2.704   2.402  0.00  0.00     0.124 A 
ATOM      2  C1  UNL d   1       2.290   1.535   1.922  0.00  0.00     0.062 A 
ATOM      3  C2  UNL d   1       2.961   0.322   2.046  0.00  0.00     0.162 A 
ATOM      4  C3  UNL d   1       4.216   0.271   2.654  0.00  0.00    -0.034 A 
ATOM      5  C4  UNL d   1       4.788   1.451   3.133  0.00  0.00     0.162 A 
ATOM      6  C5  UNL d   1       4.113   2.661   3.006  0.00  0.00     0.062 A 
ATOM      7  F   UNL d   1       4.670   3.789   3.470  0.00  0.00    -0.097 F 
ATOM      8  F1  UNL d   1       5.993   1.438   3.722  0.00  0.00    -0.096 F 
ATOM      9  I   UNL d   1       5.224  -1.540   2.841  0.00  0.00    -0.060 I 
ATOM     10  F2  UNL d   1       2.382  -0.791   1.574  0.00  0.00    -0.096 F 
ATOM     11  F3  UNL d   1       1.084   1.574   1.337  0.00  0.00    -0.097 F 
ATOM     12  F4  UNL d   1       2.217   3.869   2.280  0.00  0.00    -0.092 F 
ENDROOT
TORSDOF 0
ENDMDL
