MODEL 1
REMARK minimizedAffinity 25.3964252
REMARK minimizedRMSD -1
REMARK  0 active torsions:
REMARK  status: ('A' for Active; 'I' for Inactive)
ROOT
ATOM      1  C   UNL d   1      -4.605   5.379  -3.396  0.00  0.00     0.124 A 
ATOM      2  C1  UNL d   1      -3.991   5.635  -4.615  0.00  0.00     0.062 A 
ATOM      3  C2  UNL d   1      -2.603   5.637  -4.712  0.00  0.00     0.162 A 
ATOM      4  C3  UNL d   1      -1.818   5.383  -3.588  0.00  0.00    -0.034 A 
ATOM      5  C4  UNL d   1      -2.442   5.128  -2.365  0.00  0.00     0.162 A 
ATOM      6  C5  UNL d   1      -3.830   5.126  -2.273  0.00  0.00     0.062 A 
ATOM      7  F   UNL d   1      -4.421   4.879  -1.095  0.00  0.00    -0.097 F 
ATOM      8  F1  UNL d   1      -1.717   4.879  -1.264  0.00  0.00    -0.096 F 
ATOM      9  I   UNL d   1       0.259   5.386  -3.730  0.00  0.00    -0.060 I 
ATOM     10  F2  UNL d   1      -2.037   5.887  -5.902  0.00  0.00    -0.096 F 
ATOM     11  F3  UNL d   1      -4.738   5.881  -5.701  0.00  0.00    -0.097 F 
ATOM     12  F4  UNL d   1      -5.941   5.379  -3.305  0.00  0.00    -0.092 F 
ENDROOT
TORSDOF 0
ENDMDL
