MODEL 1
REMARK minimizedAffinity 21.970747
REMARK minimizedRMSD -1
REMARK  0 active torsions:
REMARK  status: ('A' for Active; 'I' for Inactive)
ROOT
ATOM      1  C   UNL d   1      -5.712   1.522  -1.173  0.00  0.00     0.124 A 
ATOM      2  C1  UNL d   1      -5.652   1.731  -2.543  0.00  0.00     0.062 A 
ATOM      3  C2  UNL d   1      -5.368   2.998  -3.046  0.00  0.00     0.162 A 
ATOM      4  C3  UNL d   1      -5.141   4.065  -2.177  0.00  0.00    -0.034 A 
ATOM      5  C4  UNL d   1      -5.204   3.847  -0.800  0.00  0.00     0.162 A 
ATOM      6  C5  UNL d   1      -5.489   2.579  -0.302  0.00  0.00     0.062 A 
ATOM      7  F   UNL d   1      -5.546   2.378   1.022  0.00  0.00    -0.097 F 
ATOM      8  F1  UNL d   1      -4.991   4.851   0.064  0.00  0.00    -0.096 F 
ATOM      9  I   UNL d   1      -4.716   5.960  -2.925  0.00  0.00    -0.060 I 
ATOM     10  F2  UNL d   1      -5.317   3.171  -4.375  0.00  0.00    -0.096 F 
ATOM     11  F3  UNL d   1      -5.869   0.711  -3.386  0.00  0.00    -0.097 F 
ATOM     12  F4  UNL d   1      -5.987   0.302  -0.692  0.00  0.00    -0.092 F 
ENDROOT
TORSDOF 0
ENDMDL
