MODEL 1
REMARK minimizedAffinity 12.3736124
REMARK minimizedRMSD -1
REMARK  0 active torsions:
REMARK  status: ('A' for Active; 'I' for Inactive)
ROOT
ATOM      1  C   UNL d   1      -4.011   1.238   0.009  0.00  0.00     0.124 A 
ATOM      2  C1  UNL d   1      -3.481   0.964   1.262  0.00  0.00     0.062 A 
ATOM      3  C2  UNL d   1      -2.677  -0.157   1.451  0.00  0.00     0.162 A 
ATOM      4  C3  UNL d   1      -2.399  -1.012   0.385  0.00  0.00    -0.034 A 
ATOM      5  C4  UNL d   1      -2.937  -0.729  -0.872  0.00  0.00     0.162 A 
ATOM      6  C5  UNL d   1      -3.739   0.392  -1.056  0.00  0.00     0.062 A 
ATOM      7  F   UNL d   1      -4.251   0.656  -2.267  0.00  0.00    -0.097 F 
ATOM      8  F1  UNL d   1      -2.689  -1.530  -1.920  0.00  0.00    -0.096 F 
ATOM      9  I   UNL d   1      -1.198  -2.689   0.664  0.00  0.00    -0.060 I 
ATOM     10  F2  UNL d   1      -2.178  -0.398   2.673  0.00  0.00    -0.096 F 
ATOM     11  F3  UNL d   1      -3.743   1.779   2.293  0.00  0.00    -0.097 F 
ATOM     12  F4  UNL d   1      -4.785   2.317  -0.170  0.00  0.00    -0.092 F 
ENDROOT
TORSDOF 0
ENDMDL
