MODEL 1
REMARK minimizedAffinity 17.815958
REMARK minimizedRMSD -1
REMARK  0 active torsions:
REMARK  status: ('A' for Active; 'I' for Inactive)
ROOT
ATOM      1  C   UNL d   1      -1.534  -3.132  -3.688  0.00  0.00     0.124 A 
ATOM      2  C1  UNL d   1      -1.245  -4.241  -4.472  0.00  0.00     0.062 A 
ATOM      3  C2  UNL d   1      -2.266  -4.917  -5.132  0.00  0.00     0.162 A 
ATOM      4  C3  UNL d   1      -3.588  -4.486  -5.013  0.00  0.00    -0.034 A 
ATOM      5  C4  UNL d   1      -3.871  -3.371  -4.222  0.00  0.00     0.162 A 
ATOM      6  C5  UNL d   1      -2.846  -2.699  -3.564  0.00  0.00     0.062 A 
ATOM      7  F   UNL d   1      -3.127  -1.628  -2.808  0.00  0.00    -0.097 F 
ATOM      8  F1  UNL d   1      -5.130  -2.930  -4.085  0.00  0.00    -0.096 F 
ATOM      9  I   UNL d   1      -5.118  -5.495  -5.998  0.00  0.00    -0.060 I 
ATOM     10  F2  UNL d   1      -1.958  -5.986  -5.882  0.00  0.00    -0.096 F 
ATOM     11  F3  UNL d   1       0.022  -4.663  -4.593  0.00  0.00    -0.097 F 
ATOM     12  F4  UNL d   1      -0.549  -2.484  -3.053  0.00  0.00    -0.092 F 
ENDROOT
TORSDOF 0
ENDMDL
