MODEL 1
REMARK minimizedAffinity 22.3910122
REMARK minimizedRMSD -1
REMARK  0 active torsions:
REMARK  status: ('A' for Active; 'I' for Inactive)
ROOT
ATOM      1  C   UNL d   1      -3.804   1.162  -0.453  0.00  0.00     0.124 A 
ATOM      2  C1  UNL d   1      -3.400   0.799   0.824  0.00  0.00     0.062 A 
ATOM      3  C2  UNL d   1      -2.617  -0.335   1.015  0.00  0.00     0.162 A 
ATOM      4  C3  UNL d   1      -2.231  -1.115  -0.075  0.00  0.00    -0.034 A 
ATOM      5  C4  UNL d   1      -2.642  -0.745  -1.357  0.00  0.00     0.162 A 
ATOM      6  C5  UNL d   1      -3.425   0.390  -1.542  0.00  0.00     0.062 A 
ATOM      7  F   UNL d   1      -3.814   0.739  -2.777  0.00  0.00    -0.097 F 
ATOM      8  F1  UNL d   1      -2.289  -1.472  -2.427  0.00  0.00    -0.096 F 
ATOM      9  I   UNL d   1      -1.059  -2.812   0.205  0.00  0.00    -0.060 I 
ATOM     10  F2  UNL d   1      -2.241  -0.662   2.260  0.00  0.00    -0.096 F 
ATOM     11  F3  UNL d   1      -3.766   1.543   1.878  0.00  0.00    -0.097 F 
ATOM     12  F4  UNL d   1      -4.559   2.254  -0.634  0.00  0.00    -0.092 F 
ENDROOT
TORSDOF 0
ENDMDL
