MODEL 1
REMARK minimizedAffinity 13.7104807
REMARK minimizedRMSD -1
REMARK  0 active torsions:
REMARK  status: ('A' for Active; 'I' for Inactive)
ROOT
ATOM      1  C   UNL d   1      -3.819   1.297  -0.044  0.00  0.00     0.124 A 
ATOM      2  C1  UNL d   1      -3.394   1.064   1.256  0.00  0.00     0.062 A 
ATOM      3  C2  UNL d   1      -2.597  -0.040   1.545  0.00  0.00     0.162 A 
ATOM      4  C3  UNL d   1      -2.217  -0.919   0.531  0.00  0.00    -0.034 A 
ATOM      5  C4  UNL d   1      -2.649  -0.678  -0.775  0.00  0.00     0.162 A 
ATOM      6  C5  UNL d   1      -3.446   0.426  -1.058  0.00  0.00     0.062 A 
ATOM      7  F   UNL d   1      -3.855   0.650  -2.316  0.00  0.00    -0.097 F 
ATOM      8  F1  UNL d   1      -2.303  -1.503  -1.774  0.00  0.00    -0.096 F 
ATOM      9  I   UNL d   1      -1.025  -2.570   0.959  0.00  0.00    -0.060 I 
ATOM     10  F2  UNL d   1      -2.201  -0.240   2.811  0.00  0.00    -0.096 F 
ATOM     11  F3  UNL d   1      -3.753   1.904   2.238  0.00  0.00    -0.097 F 
ATOM     12  F4  UNL d   1      -4.587   2.359  -0.319  0.00  0.00    -0.092 F 
ENDROOT
TORSDOF 0
ENDMDL
