MODEL 1
REMARK minimizedAffinity -4.73743963
REMARK minimizedRMSD -1
REMARK  2 active torsions:
REMARK  status: ('A' for Active; 'I' for Inactive)
REMARK    1  A    between atoms: C1_2  and  C2_3 
REMARK    2  A    between atoms: C2_3  and  C3_4 
ROOT
ATOM      1  C3  UNL d   1       0.568  -0.692   1.841  0.00  0.00    -0.075 A 
ATOM      2  C4  UNL d   1      -0.631  -0.545   2.554  0.00  0.00     0.002 A 
ATOM      3  C5  UNL d   1      -1.809  -0.193   1.895  0.00  0.00     0.002 A 
ATOM      4  C6  UNL d   1      -1.803   0.025   0.519  0.00  0.00    -0.004 A 
ATOM      5  C7  UNL d   1      -0.614  -0.102  -0.197  0.00  0.00     0.002 A 
ATOM      6  C8  UNL d   1       0.565  -0.458   0.459  0.00  0.00     0.002 A 
ENDROOT
BRANCH   1   7
ATOM      7  C2  UNL d   1       1.840  -1.101   2.544  0.00  0.00     0.056 C 
BRANCH   7   8
ATOM      8  C1  UNL d   1       2.466  -2.390   2.001  0.00  0.00     0.007 C 
ATOM      9  C   UNL d   1       2.997  -2.247   0.580  0.00  0.00     0.009 C 
ENDBRANCH   7   8
ENDBRANCH   1   7
TORSDOF 2
ENDMDL
