MODEL 1
REMARK minimizedAffinity -6.42069721
REMARK minimizedRMSD -1
REMARK  2 active torsions:
REMARK  status: ('A' for Active; 'I' for Inactive)
REMARK    1  A    between atoms: C1_2  and  C2_3 
REMARK    2  A    between atoms: C2_3  and  C3_4 
ROOT
ATOM      1  C3  UNL d   1       1.217  -0.964   0.013  0.00  0.00    -0.075 A 
ATOM      2  C4  UNL d   1       2.416  -1.690   0.058  0.00  0.00     0.002 A 
ATOM      3  C5  UNL d   1       3.024  -1.980   1.280  0.00  0.00     0.002 A 
ATOM      4  C6  UNL d   1       2.447  -1.540   2.470  0.00  0.00    -0.004 A 
ATOM      5  C7  UNL d   1       1.265  -0.804   2.436  0.00  0.00     0.002 A 
ATOM      6  C8  UNL d   1       0.652  -0.517   1.215  0.00  0.00     0.002 A 
ENDROOT
BRANCH   1   7
ATOM      7  C2  UNL d   1       0.539  -0.673  -1.304  0.00  0.00     0.056 C 
BRANCH   7   8
ATOM      8  C1  UNL d   1      -0.643   0.296  -1.196  0.00  0.00     0.007 C 
ATOM      9  C   UNL d   1      -0.471   1.549  -2.045  0.00  0.00     0.009 C 
ENDBRANCH   7   8
ENDBRANCH   1   7
TORSDOF 2
ENDMDL
