MODEL 1
REMARK minimizedAffinity -4.69152212
REMARK minimizedRMSD -1
REMARK  2 active torsions:
REMARK  status: ('A' for Active; 'I' for Inactive)
REMARK    1  A    between atoms: C1_2  and  C2_3 
REMARK    2  A    between atoms: C2_3  and  C3_4 
ROOT
ATOM      1  C3  UNL d   1       0.020  -0.368   0.234  0.00  0.00    -0.075 A 
ATOM      2  C4  UNL d   1      -1.309  -0.374   0.683  0.00  0.00     0.002 A 
ATOM      3  C5  UNL d   1      -1.606  -0.676   2.012  0.00  0.00     0.002 A 
ATOM      4  C6  UNL d   1      -0.582  -0.985   2.905  0.00  0.00    -0.004 A 
ATOM      5  C7  UNL d   1       0.740  -0.998   2.465  0.00  0.00     0.002 A 
ATOM      6  C8  UNL d   1       1.040  -0.692   1.137  0.00  0.00     0.002 A 
ENDROOT
BRANCH   1   7
ATOM      7  C2  UNL d   1       0.350  -0.012  -1.196  0.00  0.00     0.056 C 
BRANCH   7   8
ATOM      8  C1  UNL d   1      -0.814   0.620  -1.967  0.00  0.00     0.007 C 
ATOM      9  C   UNL d   1      -0.450   1.946  -2.622  0.00  0.00     0.009 C 
ENDBRANCH   7   8
ENDBRANCH   1   7
TORSDOF 2
ENDMDL
