MODEL 1
REMARK minimizedAffinity -1.29088116
REMARK minimizedRMSD -1
REMARK  2 active torsions:
REMARK  status: ('A' for Active; 'I' for Inactive)
REMARK    1  A    between atoms: C1_2  and  C2_3 
REMARK    2  A    between atoms: C2_3  and  C3_4 
ROOT
ATOM      1  C3  UNL d   1      -0.501   0.853  -1.947  0.00  0.00    -0.075 A 
ATOM      2  C4  UNL d   1       0.577   1.419  -2.644  0.00  0.00     0.002 A 
ATOM      3  C5  UNL d   1       0.419   2.618  -3.340  0.00  0.00     0.002 A 
ATOM      4  C6  UNL d   1      -0.818   3.260  -3.356  0.00  0.00    -0.004 A 
ATOM      5  C7  UNL d   1      -1.899   2.698  -2.680  0.00  0.00     0.002 A 
ATOM      6  C8  UNL d   1      -1.743   1.501  -1.980  0.00  0.00     0.002 A 
ENDROOT
BRANCH   1   7
ATOM      7  C2  UNL d   1      -0.329  -0.429  -1.167  0.00  0.00     0.056 C 
BRANCH   7   8
ATOM      8  C1  UNL d   1       0.050  -0.219   0.302  0.00  0.00     0.007 C 
ATOM      9  C   UNL d   1      -1.097  -0.499   1.264  0.00  0.00     0.009 C 
ENDBRANCH   7   8
ENDBRANCH   1   7
TORSDOF 2
ENDMDL
