MODEL 1
REMARK minimizedAffinity -5.38345957
REMARK minimizedRMSD -1
REMARK  2 active torsions:
REMARK  status: ('A' for Active; 'I' for Inactive)
REMARK    1  A    between atoms: C1_2  and  C2_3 
REMARK    2  A    between atoms: C2_3  and  C3_4 
ROOT
ATOM      1  C3  UNL d   1       1.142  -0.739   0.880  0.00  0.00    -0.075 A 
ATOM      2  C4  UNL d   1       2.124  -1.510   1.518  0.00  0.00     0.002 A 
ATOM      3  C5  UNL d   1       1.874  -2.084   2.765  0.00  0.00     0.002 A 
ATOM      4  C6  UNL d   1       0.646  -1.887   3.393  0.00  0.00    -0.004 A 
ATOM      5  C7  UNL d   1      -0.331  -1.108   2.775  0.00  0.00     0.002 A 
ATOM      6  C8  UNL d   1      -0.085  -0.536   1.526  0.00  0.00     0.002 A 
ENDROOT
BRANCH   1   7
ATOM      7  C2  UNL d   1       1.396  -0.139  -0.483  0.00  0.00     0.056 C 
BRANCH   7   8
ATOM      8  C1  UNL d   1       0.125   0.293  -1.220  0.00  0.00     0.007 C 
ATOM      9  C   UNL d   1       0.115  -0.111  -2.689  0.00  0.00     0.009 C 
ENDBRANCH   7   8
ENDBRANCH   1   7
TORSDOF 2
ENDMDL
