MODEL 1
REMARK minimizedAffinity -4.66908169
REMARK minimizedRMSD -1
REMARK  2 active torsions:
REMARK  status: ('A' for Active; 'I' for Inactive)
REMARK    1  A    between atoms: C1_2  and  C2_3 
REMARK    2  A    between atoms: C2_3  and  C3_4 
ROOT
ATOM      1  C3  UNL d   1      -2.021   2.227  -1.843  0.00  0.00    -0.075 A 
ATOM      2  C4  UNL d   1      -1.767   0.897  -1.477  0.00  0.00     0.002 A 
ATOM      3  C5  UNL d   1      -0.683   0.207  -2.022  0.00  0.00     0.002 A 
ATOM      4  C6  UNL d   1       0.152   0.832  -2.944  0.00  0.00    -0.004 A 
ATOM      5  C7  UNL d   1      -0.100   2.148  -3.328  0.00  0.00     0.002 A 
ATOM      6  C8  UNL d   1      -1.181   2.842  -2.781  0.00  0.00     0.002 A 
ENDROOT
BRANCH   1   7
ATOM      7  C2  UNL d   1      -3.174   2.988  -1.235  0.00  0.00     0.056 C 
BRANCH   7   8
ATOM      8  C1  UNL d   1      -4.299   3.311  -2.225  0.00  0.00     0.007 C 
ATOM      9  C   UNL d   1      -5.453   2.319  -2.167  0.00  0.00     0.009 C 
ENDBRANCH   7   8
ENDBRANCH   1   7
TORSDOF 2
ENDMDL
