MODEL 1
REMARK minimizedAffinity -3.0075841
REMARK minimizedRMSD -1
REMARK  2 active torsions:
REMARK  status: ('A' for Active; 'I' for Inactive)
REMARK    1  A    between atoms: C1_2  and  C2_3 
REMARK    2  A    between atoms: C2_3  and  C3_4 
ROOT
ATOM      1  C3  UNL d   1      -0.719  -0.087  -0.240  0.00  0.00    -0.075 A 
ATOM      2  C4  UNL d   1       0.351  -0.137   0.666  0.00  0.00     0.002 A 
ATOM      3  C5  UNL d   1       0.148  -0.566   1.978  0.00  0.00     0.002 A 
ATOM      4  C6  UNL d   1      -1.124  -0.939   2.403  0.00  0.00    -0.004 A 
ATOM      5  C7  UNL d   1      -2.197  -0.878   1.517  0.00  0.00     0.002 A 
ATOM      6  C8  UNL d   1      -1.997  -0.454   0.202  0.00  0.00     0.002 A 
ENDROOT
BRANCH   1   7
ATOM      7  C2  UNL d   1      -0.501   0.348  -1.670  0.00  0.00     0.056 C 
BRANCH   7   8
ATOM      8  C1  UNL d   1      -1.424   1.483  -2.124  0.00  0.00     0.007 C 
ATOM      9  C   UNL d   1      -0.696   2.579  -2.890  0.00  0.00     0.009 C 
ENDBRANCH   7   8
ENDBRANCH   1   7
TORSDOF 2
ENDMDL
