MODEL 1
REMARK minimizedAffinity -5.45485544
REMARK minimizedRMSD -1
REMARK  2 active torsions:
REMARK  status: ('A' for Active; 'I' for Inactive)
REMARK    1  A    between atoms: C1_2  and  C2_3 
REMARK    2  A    between atoms: C2_3  and  C3_4 
ROOT
ATOM      1  C3  UNL d   1      -0.099   0.154  -0.129  0.00  0.00    -0.075 A 
ATOM      2  C4  UNL d   1       1.280   0.061   0.106  0.00  0.00     0.002 A 
ATOM      3  C5  UNL d   1       1.762  -0.259   1.376  0.00  0.00     0.002 A 
ATOM      4  C6  UNL d   1       0.873  -0.480   2.426  0.00  0.00    -0.004 A 
ATOM      5  C7  UNL d   1      -0.498  -0.374   2.207  0.00  0.00     0.002 A 
ATOM      6  C8  UNL d   1      -0.983  -0.058   0.937  0.00  0.00     0.002 A 
ENDROOT
BRANCH   1   7
ATOM      7  C2  UNL d   1      -0.627   0.471  -1.508  0.00  0.00     0.056 C 
BRANCH   7   8
ATOM      8  C1  UNL d   1       0.157   1.565  -2.240  0.00  0.00     0.007 C 
ATOM      9  C   UNL d   1      -0.693   2.778  -2.595  0.00  0.00     0.009 C 
ENDBRANCH   7   8
ENDBRANCH   1   7
TORSDOF 2
ENDMDL
