MODEL 1
REMARK minimizedAffinity 6.7501893
REMARK minimizedRMSD -1
REMARK  2 active torsions:
REMARK  status: ('A' for Active; 'I' for Inactive)
REMARK    1  A    between atoms: C2'_3  and  C1'_4 
REMARK    2  A    between atoms: C1'_4  and  C1_5 
ROOT
ATOM      1  C1  I4B d   1       0.988   1.983   0.166  0.00  0.00    -0.075 A 
ATOM      2  C2  I4B d   1       2.235   1.766  -0.366  0.00  0.00     0.003 A 
ATOM      3  C3  I4B d   1       3.232   1.110   0.397  0.00  0.00     0.002 A 
ATOM      4  C4  I4B d   1       2.957   0.736   1.696  0.00  0.00    -0.004 A 
ATOM      5  C5  I4B d   1       1.685   0.935   2.226  0.00  0.00     0.002 A 
ATOM      6  C6  I4B d   1       0.691   1.551   1.452  0.00  0.00     0.003 A 
ENDROOT
BRANCH   1   7
ATOM      7  C1' I4B d   1      -0.030   2.707  -0.655  0.00  0.00     0.060 C 
BRANCH   7   8
ATOM      8  C2' I4B d   1       0.112   4.189  -0.374  0.00  0.00    -0.013 C 
ATOM      9  C4' I4B d   1      -0.797   4.622   0.746  0.00  0.00     0.013 C 
ATOM     10  C3' I4B d   1       1.549   4.461  -0.041  0.00  0.00     0.013 C 
ENDBRANCH   7   8
ENDBRANCH   1   7
TORSDOF 2
ENDMDL
