MODEL 1
REMARK minimizedAffinity 1.39179397
REMARK minimizedRMSD -1
REMARK  2 active torsions:
REMARK  status: ('A' for Active; 'I' for Inactive)
REMARK    1  A    between atoms: C2'_3  and  C1'_4 
REMARK    2  A    between atoms: C1'_4  and  C1_5 
ROOT
ATOM      1  C1  I4B d   1      -4.093   0.442  -3.577  0.00  0.00    -0.075 A 
ATOM      2  C2  I4B d   1      -2.777   0.595  -3.936  0.00  0.00     0.003 A 
ATOM      3  C3  I4B d   1      -1.761  -0.095  -3.231  0.00  0.00     0.002 A 
ATOM      4  C4  I4B d   1      -2.100  -0.882  -2.149  0.00  0.00    -0.004 A 
ATOM      5  C5  I4B d   1      -3.436  -1.054  -1.801  0.00  0.00     0.002 A 
ATOM      6  C6  I4B d   1      -4.441  -0.398  -2.527  0.00  0.00     0.003 A 
ENDROOT
BRANCH   1   7
ATOM      7  C1' I4B d   1      -5.137   1.211  -4.322  0.00  0.00     0.060 C 
BRANCH   7   8
ATOM      8  C2' I4B d   1      -5.362   2.521  -3.594  0.00  0.00    -0.013 C 
ATOM      9  C4' I4B d   1      -5.955   2.290  -2.229  0.00  0.00     0.013 C 
ATOM     10  C3' I4B d   1      -4.044   3.229  -3.499  0.00  0.00     0.013 C 
ENDBRANCH   7   8
ENDBRANCH   1   7
TORSDOF 2
ENDMDL
