MODEL 1
REMARK minimizedAffinity 2.99764204
REMARK minimizedRMSD -1
REMARK  2 active torsions:
REMARK  status: ('A' for Active; 'I' for Inactive)
REMARK    1  A    between atoms: C2'_3  and  C1'_4 
REMARK    2  A    between atoms: C1'_4  and  C1_5 
ROOT
ATOM      1  C1  I4B d   1      -5.046   1.524  -4.135  0.00  0.00    -0.075 A 
ATOM      2  C2  I4B d   1      -5.936   2.500  -3.762  0.00  0.00     0.003 A 
ATOM      3  C3  I4B d   1      -5.485   3.820  -3.519  0.00  0.00     0.002 A 
ATOM      4  C4  I4B d   1      -4.138   4.106  -3.610  0.00  0.00    -0.004 A 
ATOM      5  C5  I4B d   1      -3.240   3.121  -4.011  0.00  0.00     0.002 A 
ATOM      6  C6  I4B d   1      -3.698   1.824  -4.287  0.00  0.00     0.003 A 
ENDROOT
BRANCH   1   7
ATOM      7  C1' I4B d   1      -5.551   0.132  -4.352  0.00  0.00     0.060 C 
BRANCH   7   8
ATOM      8  C2' I4B d   1      -5.316  -0.653  -3.078  0.00  0.00    -0.013 C 
ATOM      9  C4' I4B d   1      -3.845  -0.825  -2.806  0.00  0.00     0.013 C 
ATOM     10  C3' I4B d   1      -5.993   0.073  -1.955  0.00  0.00     0.013 C 
ENDBRANCH   7   8
ENDBRANCH   1   7
TORSDOF 2
ENDMDL
