MODEL 1
REMARK minimizedAffinity 7.79603481
REMARK minimizedRMSD -1
REMARK  2 active torsions:
REMARK  status: ('A' for Active; 'I' for Inactive)
REMARK    1  A    between atoms: C2'_3  and  C1'_4 
REMARK    2  A    between atoms: C1'_4  and  C1_5 
ROOT
ATOM      1  C1  I4B d   1       1.814   1.483   1.139  0.00  0.00    -0.075 A 
ATOM      2  C2  I4B d   1       2.348   2.061   2.264  0.00  0.00     0.003 A 
ATOM      3  C3  I4B d   1       1.797   1.784   3.538  0.00  0.00     0.002 A 
ATOM      4  C4  I4B d   1       0.688   0.969   3.636  0.00  0.00    -0.004 A 
ATOM      5  C5  I4B d   1       0.162   0.366   2.498  0.00  0.00     0.002 A 
ATOM      6  C6  I4B d   1       0.736   0.615   1.242  0.00  0.00     0.003 A 
ENDROOT
BRANCH   1   7
ATOM      7  C1' I4B d   1       2.401   1.824  -0.194  0.00  0.00     0.060 C 
BRANCH   7   8
ATOM      8  C2' I4B d   1       3.653   0.991  -0.379  0.00  0.00    -0.013 C 
ATOM      9  C4' I4B d   1       3.676   0.336  -1.735  0.00  0.00     0.013 C 
ATOM     10  C3' I4B d   1       4.839   1.890  -0.192  0.00  0.00     0.013 C 
ENDBRANCH   7   8
ENDBRANCH   1   7
TORSDOF 2
ENDMDL
