MODEL 1
REMARK minimizedAffinity 5.34912586
REMARK minimizedRMSD -1
REMARK  2 active torsions:
REMARK  status: ('A' for Active; 'I' for Inactive)
REMARK    1  A    between atoms: C2'_3  and  C1'_4 
REMARK    2  A    between atoms: C1'_4  and  C1_5 
ROOT
ATOM      1  C1  I4B d   1      -3.540   1.881  -3.299  0.00  0.00    -0.075 A 
ATOM      2  C2  I4B d   1      -4.010   1.049  -4.285  0.00  0.00     0.003 A 
ATOM      3  C3  I4B d   1      -5.247   1.322  -4.918  0.00  0.00     0.002 A 
ATOM      4  C4  I4B d   1      -5.999   2.402  -4.503  0.00  0.00    -0.004 A 
ATOM      5  C5  I4B d   1      -5.511   3.257  -3.519  0.00  0.00     0.002 A 
ATOM      6  C6  I4B d   1      -4.267   3.002  -2.922  0.00  0.00     0.003 A 
ENDROOT
BRANCH   1   7
ATOM      7  C1' I4B d   1      -2.246   1.544  -2.629  0.00  0.00     0.060 C 
BRANCH   7   8
ATOM      8  C2' I4B d   1      -2.510   0.431  -1.635  0.00  0.00    -0.013 C 
ATOM      9  C4' I4B d   1      -3.963   0.389  -1.238  0.00  0.00     0.013 C 
ATOM     10  C3' I4B d   1      -2.083  -0.862  -2.264  0.00  0.00     0.013 C 
ENDBRANCH   7   8
ENDBRANCH   1   7
TORSDOF 2
ENDMDL
