MODEL 1
REMARK minimizedAffinity -0.31774351
REMARK minimizedRMSD -1
REMARK  0 active torsions:
REMARK  status: ('A' for Active; 'I' for Inactive)
ROOT
ATOM      1  C1  BNZ d   1      -5.657  -0.060   0.403  0.00  0.00     0.000 A 
ATOM      2  C2  BNZ d   1      -5.266   0.545   1.568  0.00  0.00     0.000 A 
ATOM      3  C3  BNZ d   1      -4.033   1.125   1.675  0.00  0.00     0.000 A 
ATOM      4  C4  BNZ d   1      -3.179   1.065   0.633  0.00  0.00     0.000 A 
ATOM      5  C5  BNZ d   1      -3.555   0.451  -0.544  0.00  0.00     0.000 A 
ATOM      6  C6  BNZ d   1      -4.811  -0.098  -0.662  0.00  0.00     0.000 A 
ENDROOT
TORSDOF 0
ENDMDL
