MODEL 1
REMARK minimizedAffinity -0.021080967
REMARK minimizedRMSD -1
REMARK  0 active torsions:
REMARK  status: ('A' for Active; 'I' for Inactive)
ROOT
ATOM      1  C1  BNZ d   1      -1.359  -0.331  -2.052  0.00  0.00     0.000 A 
ATOM      2  C2  BNZ d   1      -1.226   0.470  -0.949  0.00  0.00     0.000 A 
ATOM      3  C3  BNZ d   1      -0.464   0.075   0.115  0.00  0.00     0.000 A 
ATOM      4  C4  BNZ d   1       0.131  -1.135   0.091  0.00  0.00     0.000 A 
ATOM      5  C5  BNZ d   1      -0.001  -1.958  -1.010  0.00  0.00     0.000 A 
ATOM      6  C6  BNZ d   1      -0.737  -1.540  -2.095  0.00  0.00     0.000 A 
ENDROOT
TORSDOF 0
ENDMDL
