MODEL 1
REMARK minimizedAffinity -0.948213696
REMARK minimizedRMSD -1
REMARK  0 active torsions:
REMARK  status: ('A' for Active; 'I' for Inactive)
ROOT
ATOM      1  C1  BNZ d   1       1.799   0.266   0.710  0.00  0.00     0.000 A 
ATOM      2  C2  BNZ d   1       0.856  -0.724   0.627  0.00  0.00     0.000 A 
ATOM      3  C3  BNZ d   1      -0.403  -0.454   0.169  0.00  0.00     0.000 A 
ATOM      4  C4  BNZ d   1      -0.730   0.811  -0.166  0.00  0.00     0.000 A 
ATOM      5  C5  BNZ d   1       0.207   1.821  -0.080  0.00  0.00     0.000 A 
ATOM      6  C6  BNZ d   1       1.485   1.539   0.344  0.00  0.00     0.000 A 
ENDROOT
TORSDOF 0
ENDMDL
