MODEL 1
REMARK minimizedAffinity -2.25027514
REMARK minimizedRMSD -1
REMARK  0 active torsions:
REMARK  status: ('A' for Active; 'I' for Inactive)
ROOT
ATOM      1  C1  BNZ d   1       1.157  -0.357   1.207  0.00  0.00     0.000 A 
ATOM      2  C2  BNZ d   1       2.284  -1.049   0.849  0.00  0.00     0.000 A 
ATOM      3  C3  BNZ d   1       2.298  -1.831  -0.272  0.00  0.00     0.000 A 
ATOM      4  C4  BNZ d   1       1.176  -1.952  -1.010  0.00  0.00     0.000 A 
ATOM      5  C5  BNZ d   1       0.029  -1.268  -0.658  0.00  0.00     0.000 A 
ATOM      6  C6  BNZ d   1       0.030  -0.451   0.450  0.00  0.00     0.000 A 
ENDROOT
TORSDOF 0
ENDMDL
