MODEL 1
REMARK minimizedAffinity -2.40380073
REMARK minimizedRMSD -1
REMARK  0 active torsions:
REMARK  status: ('A' for Active; 'I' for Inactive)
ROOT
ATOM      1  C1  BNZ d   1       2.183  -1.974  -0.265  0.00  0.00     0.000 A 
ATOM      2  C2  BNZ d   1       3.022  -1.884   0.814  0.00  0.00     0.000 A 
ATOM      3  C3  BNZ d   1       2.820  -0.938   1.780  0.00  0.00     0.000 A 
ATOM      4  C4  BNZ d   1       1.806  -0.059   1.646  0.00  0.00     0.000 A 
ATOM      5  C5  BNZ d   1       0.957  -0.131   0.560  0.00  0.00     0.000 A 
ATOM      6  C6  BNZ d   1       1.139  -1.109  -0.391  0.00  0.00     0.000 A 
ENDROOT
TORSDOF 0
ENDMDL
