MODEL 1
REMARK minimizedAffinity -4.41811275
REMARK minimizedRMSD -1
REMARK  0 active torsions:
REMARK  status: ('A' for Active; 'I' for Inactive)
ROOT
ATOM      1  C1  BNZ d   1       1.513   0.068   1.739  0.00  0.00     0.000 A 
ATOM      2  C2  BNZ d   1       0.294  -0.129   1.146  0.00  0.00     0.000 A 
ATOM      3  C3  BNZ d   1      -0.167   0.732   0.189  0.00  0.00     0.000 A 
ATOM      4  C4  BNZ d   1       0.573   1.809  -0.145  0.00  0.00     0.000 A 
ATOM      5  C5  BNZ d   1       1.800   2.026   0.450  0.00  0.00     0.000 A 
ATOM      6  C6  BNZ d   1       2.278   1.136   1.385  0.00  0.00     0.000 A 
ENDROOT
TORSDOF 0
ENDMDL
