MODEL 1
REMARK minimizedAffinity 2.9562397
REMARK minimizedRMSD -1
REMARK  0 active torsions:
REMARK  status: ('A' for Active; 'I' for Inactive)
ROOT
ATOM      1  C1  BNZ d   1       2.044  -0.204   1.561  0.00  0.00     0.000 A 
ATOM      2  C2  BNZ d   1       0.755  -0.455   1.173  0.00  0.00     0.000 A 
ATOM      3  C3  BNZ d   1       0.066   0.445   0.410  0.00  0.00     0.000 A 
ATOM      4  C4  BNZ d   1       0.651   1.611   0.069  0.00  0.00     0.000 A 
ATOM      5  C5  BNZ d   1       1.947   1.883   0.460  0.00  0.00     0.000 A 
ATOM      6  C6  BNZ d   1       2.651   0.958   1.196  0.00  0.00     0.000 A 
ENDROOT
TORSDOF 0
ENDMDL
