MODEL 1
REMARK minimizedAffinity -4.90378904
REMARK minimizedRMSD -1
REMARK  0 active torsions:
REMARK  status: ('A' for Active; 'I' for Inactive)
ROOT
ATOM      1  C   UNL d   1       0.623  -1.110  -0.914  0.00  0.00     0.078 C 
ATOM      2  C1  UNL d   1       0.090   0.031  -0.101  0.00  0.00    -0.077 A 
ATOM      3  C2  UNL d   1       0.297   0.089   1.283  0.00  0.00    -0.001 A 
ATOM      4  C3  UNL d   1      -0.212   1.153   2.029  0.00  0.00     0.003 A 
ATOM      5  C4  UNL d   1      -0.934   2.166   1.400  0.00  0.00    -0.005 A 
ATOM      6  C5  UNL d   1      -1.147   2.116   0.024  0.00  0.00     0.003 A 
ATOM      7  C6  UNL d   1      -0.638   1.053  -0.723  0.00  0.00    -0.001 A 
ENDROOT
TORSDOF 0
ENDMDL
