MODEL 1
REMARK minimizedAffinity 2.38016725
REMARK minimizedRMSD -1
REMARK  0 active torsions:
REMARK  status: ('A' for Active; 'I' for Inactive)
ROOT
ATOM      1  C   UNL d   1      -2.529  -0.451   2.023  0.00  0.00     0.078 C 
ATOM      2  C1  UNL d   1      -1.094  -0.350   1.600  0.00  0.00    -0.077 A 
ATOM      3  C2  UNL d   1      -0.176   0.408   2.338  0.00  0.00    -0.001 A 
ATOM      4  C3  UNL d   1       1.154   0.501   1.928  0.00  0.00     0.003 A 
ATOM      5  C4  UNL d   1       1.580  -0.162   0.778  0.00  0.00    -0.005 A 
ATOM      6  C5  UNL d   1       0.674  -0.917   0.036  0.00  0.00     0.003 A 
ATOM      7  C6  UNL d   1      -0.658  -1.011   0.445  0.00  0.00    -0.001 A 
ENDROOT
TORSDOF 0
ENDMDL
