MODEL 1
REMARK minimizedAffinity 3.63023973
REMARK minimizedRMSD -1
REMARK  0 active torsions:
REMARK  status: ('A' for Active; 'I' for Inactive)
ROOT
ATOM      1  C   UNL d   1       5.264  -5.949   3.026  0.00  0.00     0.078 C 
ATOM      2  C1  UNL d   1       4.821  -5.831   1.598  0.00  0.00    -0.077 A 
ATOM      3  C2  UNL d   1       3.484  -5.566   1.277  0.00  0.00    -0.001 A 
ATOM      4  C3  UNL d   1       3.084  -5.468  -0.057  0.00  0.00     0.003 A 
ATOM      5  C4  UNL d   1       4.015  -5.636  -1.080  0.00  0.00    -0.005 A 
ATOM      6  C5  UNL d   1       5.347  -5.902  -0.771  0.00  0.00     0.003 A 
ATOM      7  C6  UNL d   1       5.749  -6.000   0.562  0.00  0.00    -0.001 A 
ENDROOT
TORSDOF 0
ENDMDL
