MODEL 1
REMARK minimizedAffinity -3.78975344
REMARK minimizedRMSD -1
REMARK  0 active torsions:
REMARK  status: ('A' for Active; 'I' for Inactive)
ROOT
ATOM      1  C   UNL d   1      -0.399   1.751   1.920  0.00  0.00     0.078 C 
ATOM      2  C1  UNL d   1      -0.279   0.617   0.945  0.00  0.00    -0.077 A 
ATOM      3  C2  UNL d   1      -0.780  -0.654   1.252  0.00  0.00    -0.001 A 
ATOM      4  C3  UNL d   1      -0.653  -1.702   0.340  0.00  0.00     0.003 A 
ATOM      5  C4  UNL d   1      -0.024  -1.491  -0.885  0.00  0.00    -0.005 A 
ATOM      6  C5  UNL d   1       0.480  -0.230  -1.199  0.00  0.00     0.003 A 
ATOM      7  C6  UNL d   1       0.354   0.820  -0.288  0.00  0.00    -0.001 A 
ENDROOT
TORSDOF 0
ENDMDL
