MODEL 1
REMARK minimizedAffinity -2.48601151
REMARK minimizedRMSD -1
REMARK  0 active torsions:
REMARK  status: ('A' for Active; 'I' for Inactive)
ROOT
ATOM      1  C   UNL d   1       0.774  -0.497  -1.131  0.00  0.00     0.078 C 
ATOM      2  C1  UNL d   1       0.371  -1.928  -1.332  0.00  0.00    -0.077 A 
ATOM      3  C2  UNL d   1       1.033  -2.964  -0.662  0.00  0.00    -0.001 A 
ATOM      4  C3  UNL d   1       0.654  -4.292  -0.866  0.00  0.00     0.003 A 
ATOM      5  C4  UNL d   1      -0.389  -4.596  -1.739  0.00  0.00    -0.005 A 
ATOM      6  C5  UNL d   1      -1.052  -3.571  -2.412  0.00  0.00     0.003 A 
ATOM      7  C6  UNL d   1      -0.674  -2.243  -2.209  0.00  0.00    -0.001 A 
ENDROOT
TORSDOF 0
ENDMDL
