MODEL 1
REMARK minimizedAffinity -2.48634481
REMARK minimizedRMSD -1
REMARK  0 active torsions:
REMARK  status: ('A' for Active; 'I' for Inactive)
ROOT
ATOM      1  C   UNL d   1      -0.944   3.137   1.051  0.00  0.00     0.078 C 
ATOM      2  C1  UNL d   1      -0.484   2.012   0.174  0.00  0.00    -0.077 A 
ATOM      3  C2  UNL d   1       0.193   0.910   0.710  0.00  0.00    -0.001 A 
ATOM      4  C3  UNL d   1       0.624  -0.126  -0.120  0.00  0.00     0.003 A 
ATOM      5  C4  UNL d   1       0.384  -0.070  -1.492  0.00  0.00    -0.005 A 
ATOM      6  C5  UNL d   1      -0.287   1.024  -2.035  0.00  0.00     0.003 A 
ATOM      7  C6  UNL d   1      -0.719   2.061  -1.206  0.00  0.00    -0.001 A 
ENDROOT
TORSDOF 0
ENDMDL
