MODEL 1
REMARK minimizedAffinity -2.45150685
REMARK minimizedRMSD -1
REMARK  0 active torsions:
REMARK  status: ('A' for Active; 'I' for Inactive)
ROOT
ATOM      1  C   UNL d   1      -0.125   1.455  -2.367  0.00  0.00     0.078 C 
ATOM      2  C1  UNL d   1       0.141   0.771  -1.060  0.00  0.00    -0.077 A 
ATOM      3  C2  UNL d   1       0.451  -0.594  -1.011  0.00  0.00    -0.001 A 
ATOM      4  C3  UNL d   1       0.687  -1.220   0.214  0.00  0.00     0.003 A 
ATOM      5  C4  UNL d   1       0.615  -0.490   1.399  0.00  0.00    -0.005 A 
ATOM      6  C5  UNL d   1       0.305   0.867   1.360  0.00  0.00     0.003 A 
ATOM      7  C6  UNL d   1       0.069   1.496   0.136  0.00  0.00    -0.001 A 
ENDROOT
TORSDOF 0
ENDMDL
