MODEL 1
REMARK minimizedAffinity -4.97620535
REMARK minimizedRMSD -1
REMARK  0 active torsions:
REMARK  status: ('A' for Active; 'I' for Inactive)
ROOT
ATOM      1  C   UNL d   1       0.571  -0.947  -0.991  0.00  0.00     0.078 C 
ATOM      2  C1  UNL d   1       0.069   0.223  -0.199  0.00  0.00    -0.077 A 
ATOM      3  C2  UNL d   1      -0.446   1.358  -0.837  0.00  0.00    -0.001 A 
ATOM      4  C3  UNL d   1      -0.901   2.443  -0.087  0.00  0.00     0.003 A 
ATOM      5  C4  UNL d   1      -0.844   2.405   1.305  0.00  0.00    -0.005 A 
ATOM      6  C5  UNL d   1      -0.331   1.281   1.948  0.00  0.00     0.003 A 
ATOM      7  C6  UNL d   1       0.124   0.194   1.200  0.00  0.00    -0.001 A 
ENDROOT
TORSDOF 0
ENDMDL
