MODEL 1
REMARK minimizedAffinity -5.69316483
REMARK minimizedRMSD -1
REMARK  0 active torsions:
REMARK  status: ('A' for Active; 'I' for Inactive)
ROOT
ATOM      1  C   UNL d   1       0.302  -0.184   1.178  0.00  0.00     0.078 C 
ATOM      2  C1  UNL d   1      -0.128   1.161   0.676  0.00  0.00    -0.077 A 
ATOM      3  C2  UNL d   1      -0.271   1.408  -0.695  0.00  0.00    -0.001 A 
ATOM      4  C3  UNL d   1      -0.663   2.669  -1.148  0.00  0.00     0.003 A 
ATOM      5  C4  UNL d   1      -0.914   3.693  -0.237  0.00  0.00    -0.005 A 
ATOM      6  C5  UNL d   1      -0.773   3.458   1.129  0.00  0.00     0.003 A 
ATOM      7  C6  UNL d   1      -0.381   2.198   1.584  0.00  0.00    -0.001 A 
ENDROOT
TORSDOF 0
ENDMDL
