MODEL 1
REMARK minimizedAffinity -5.63987827
REMARK minimizedRMSD -1
REMARK  0 active torsions:
REMARK  status: ('A' for Active; 'I' for Inactive)
ROOT
ATOM      1  C   UNL d   1       0.414  -0.555  -0.652  0.00  0.00     0.078 C 
ATOM      2  C1  UNL d   1      -0.233   0.690  -0.123  0.00  0.00    -0.077 A 
ATOM      3  C2  UNL d   1      -0.435   1.804  -0.946  0.00  0.00    -0.001 A 
ATOM      4  C3  UNL d   1      -1.030   2.959  -0.438  0.00  0.00     0.003 A 
ATOM      5  C4  UNL d   1      -1.427   3.013   0.897  0.00  0.00    -0.005 A 
ATOM      6  C5  UNL d   1      -1.228   1.910   1.725  0.00  0.00     0.003 A 
ATOM      7  C6  UNL d   1      -0.634   0.753   1.218  0.00  0.00    -0.001 A 
ENDROOT
TORSDOF 0
ENDMDL
