MODEL 1
REMARK minimizedAffinity -1.46639514
REMARK minimizedRMSD -1
REMARK  0 active torsions:
REMARK  status: ('A' for Active; 'I' for Inactive)
ROOT
ATOM      1  C   UNL d   1      -2.427  -4.130  -2.264  0.00  0.00    -0.002 A 
ATOM      2  C1  UNL d   1      -2.773  -3.127  -3.159  0.00  0.00     0.010 A 
ATOM      3  C2  UNL d   1      -2.611  -1.783  -2.818  0.00  0.00     0.041 A 
ATOM      4  C3  UNL d   1      -2.087  -1.461  -1.551  0.00  0.00    -0.075 A 
ATOM      5  S   UNL d   1      -1.800   0.116  -0.916  0.00  0.00     0.015 SA
ATOM      6  C4  UNL d   1      -1.210  -0.504   0.558  0.00  0.00     0.022 A 
ATOM      7  C5  UNL d   1      -1.225  -1.878   0.583  0.00  0.00     0.026 A 
ATOM      8  C6  UNL d   1      -1.731  -2.452  -0.633  0.00  0.00    -0.082 A 
ATOM      9  C7  UNL d   1      -1.909  -3.806  -1.008  0.00  0.00     0.045 A 
ENDROOT
TORSDOF 0
ENDMDL
