MODEL 1
REMARK minimizedAffinity -3.36968565
REMARK minimizedRMSD -1
REMARK  0 active torsions:
REMARK  status: ('A' for Active; 'I' for Inactive)
ROOT
ATOM      1  C   UNL d   1      -5.264   4.814   1.521  0.00  0.00    -0.002 A 
ATOM      2  C1  UNL d   1      -5.823   5.937   2.114  0.00  0.00     0.010 A 
ATOM      3  C2  UNL d   1      -5.991   6.000   3.498  0.00  0.00     0.041 A 
ATOM      4  C3  UNL d   1      -5.582   4.905   4.285  0.00  0.00    -0.075 A 
ATOM      5  S   UNL d   1      -5.690   4.759   6.000  0.00  0.00     0.015 SA
ATOM      6  C4  UNL d   1      -4.995   3.202   5.985  0.00  0.00     0.022 A 
ATOM      7  C5  UNL d   1      -4.683   2.788   4.712  0.00  0.00     0.026 A 
ATOM      8  C6  UNL d   1      -5.016   3.763   3.711  0.00  0.00    -0.082 A 
ATOM      9  C7  UNL d   1      -4.860   3.729   2.304  0.00  0.00     0.045 A 
ENDROOT
TORSDOF 0
ENDMDL
