MODEL 1
REMARK minimizedAffinity 10.3230495
REMARK minimizedRMSD -1
REMARK  0 active torsions:
REMARK  status: ('A' for Active; 'I' for Inactive)
ROOT
ATOM      1  C   UNL d   1      -3.659  -0.120   5.644  0.00  0.00    -0.002 A 
ATOM      2  C1  UNL d   1      -3.212  -1.412   5.409  0.00  0.00     0.010 A 
ATOM      3  C2  UNL d   1      -2.649  -1.756   4.178  0.00  0.00     0.041 A 
ATOM      4  C3  UNL d   1      -2.541  -0.769   3.179  0.00  0.00    -0.075 A 
ATOM      5  S   UNL d   1      -1.885  -0.960   1.596  0.00  0.00     0.015 SA
ATOM      6  C4  UNL d   1      -2.183   0.670   1.195  0.00  0.00     0.022 A 
ATOM      7  C5  UNL d   1      -2.768   1.357   2.232  0.00  0.00     0.026 A 
ATOM      8  C6  UNL d   1      -2.984   0.540   3.392  0.00  0.00    -0.082 A 
ATOM      9  C7  UNL d   1      -3.550   0.856   4.650  0.00  0.00     0.045 A 
ENDROOT
TORSDOF 0
ENDMDL
