MODEL 1
REMARK minimizedAffinity 3.97156453
REMARK minimizedRMSD -1
REMARK  0 active torsions:
REMARK  status: ('A' for Active; 'I' for Inactive)
ROOT
ATOM      1  C   UNL d   1       2.456   2.788   2.587  0.00  0.00    -0.002 A 
ATOM      2  C1  UNL d   1       3.387   3.671   3.116  0.00  0.00     0.010 A 
ATOM      3  C2  UNL d   1       4.207   4.426   2.275  0.00  0.00     0.041 A 
ATOM      4  C3  UNL d   1       4.073   4.279   0.880  0.00  0.00    -0.075 A 
ATOM      5  S   UNL d   1       4.970   5.100  -0.342  0.00  0.00     0.015 SA
ATOM      6  C4  UNL d   1       4.137   4.299  -1.595  0.00  0.00     0.022 A 
ATOM      7  C5  UNL d   1       3.195   3.423  -1.111  0.00  0.00     0.026 A 
ATOM      8  C6  UNL d   1       3.143   3.397   0.324  0.00  0.00    -0.082 A 
ATOM      9  C7  UNL d   1       2.326   2.645   1.203  0.00  0.00     0.045 A 
ENDROOT
TORSDOF 0
ENDMDL
