MODEL 1
REMARK minimizedAffinity 5.0116992
REMARK minimizedRMSD -1
REMARK  0 active torsions:
REMARK  status: ('A' for Active; 'I' for Inactive)
ROOT
ATOM      1  C   UNL d   1      -4.402   4.543   4.603  0.00  0.00    -0.002 A 
ATOM      2  C1  UNL d   1      -5.415   5.490   4.644  0.00  0.00     0.010 A 
ATOM      3  C2  UNL d   1      -5.965   5.995   3.464  0.00  0.00     0.041 A 
ATOM      4  C3  UNL d   1      -5.476   5.525   2.229  0.00  0.00    -0.075 A 
ATOM      5  S   UNL d   1      -5.999   5.998   0.656  0.00  0.00     0.015 SA
ATOM      6  C4  UNL d   1      -4.891   4.954  -0.108  0.00  0.00     0.022 A 
ATOM      7  C5  UNL d   1      -4.132   4.253   0.799  0.00  0.00     0.026 A 
ATOM      8  C6  UNL d   1      -4.457   4.570   2.162  0.00  0.00    -0.082 A 
ATOM      9  C7  UNL d   1      -3.920   4.079   3.376  0.00  0.00     0.045 A 
ENDROOT
TORSDOF 0
ENDMDL
