MODEL 1
REMARK minimizedAffinity 4.77717447
REMARK minimizedRMSD -1
REMARK  0 active torsions:
REMARK  status: ('A' for Active; 'I' for Inactive)
ROOT
ATOM      1  C   UNL d   1      -4.813   4.860   1.124  0.00  0.00    -0.002 A 
ATOM      2  C1  UNL d   1      -5.883   5.617   1.580  0.00  0.00     0.010 A 
ATOM      3  C2  UNL d   1      -5.962   6.000   2.921  0.00  0.00     0.041 A 
ATOM      4  C3  UNL d   1      -4.937   5.607   3.803  0.00  0.00    -0.075 A 
ATOM      5  S   UNL d   1      -4.822   5.961   5.487  0.00  0.00     0.015 SA
ATOM      6  C4  UNL d   1      -3.350   5.116   5.640  0.00  0.00     0.022 A 
ATOM      7  C5  UNL d   1      -2.942   4.571   4.446  0.00  0.00     0.026 A 
ATOM      8  C6  UNL d   1      -3.849   4.845   3.368  0.00  0.00    -0.082 A 
ATOM      9  C7  UNL d   1      -3.798   4.472   2.003  0.00  0.00     0.045 A 
ENDROOT
TORSDOF 0
ENDMDL
