MODEL 1
REMARK minimizedAffinity 8.48984623
REMARK minimizedRMSD -1
REMARK  0 active torsions:
REMARK  status: ('A' for Active; 'I' for Inactive)
ROOT
ATOM      1  C   UNL d   1       1.895   1.725   5.242  0.00  0.00    -0.002 A 
ATOM      2  C1  UNL d   1       0.822   1.215   4.525  0.00  0.00     0.010 A 
ATOM      3  C2  UNL d   1       0.727   1.419   3.147  0.00  0.00     0.041 A 
ATOM      4  C3  UNL d   1       1.740   2.150   2.495  0.00  0.00    -0.075 A 
ATOM      5  S   UNL d   1       1.834   2.523   0.814  0.00  0.00     0.015 SA
ATOM      6  C4  UNL d   1       3.302   3.368   1.008  0.00  0.00     0.022 A 
ATOM      7  C5  UNL d   1       3.724   3.375   2.316  0.00  0.00     0.026 A 
ATOM      8  C6  UNL d   1       2.831   2.672   3.195  0.00  0.00    -0.082 A 
ATOM      9  C7  UNL d   1       2.898   2.449   4.591  0.00  0.00     0.045 A 
ENDROOT
TORSDOF 0
ENDMDL
