MODEL 1
REMARK minimizedAffinity 6.39527369
REMARK minimizedRMSD -1
REMARK  0 active torsions:
REMARK  status: ('A' for Active; 'I' for Inactive)
ROOT
ATOM      1  C   UNL d   1      -3.017  -3.236  -4.122  0.00  0.00    -0.002 A 
ATOM      2  C1  UNL d   1      -3.356  -2.227  -3.232  0.00  0.00     0.010 A 
ATOM      3  C2  UNL d   1      -4.258  -2.469  -2.193  0.00  0.00     0.041 A 
ATOM      4  C3  UNL d   1      -4.816  -3.756  -2.062  0.00  0.00    -0.075 A 
ATOM      5  S   UNL d   1      -5.940  -4.284  -0.866  0.00  0.00     0.015 SA
ATOM      6  C4  UNL d   1      -5.996  -5.862  -1.509  0.00  0.00     0.022 A 
ATOM      7  C5  UNL d   1      -5.183  -6.000  -2.609  0.00  0.00     0.026 A 
ATOM      8  C6  UNL d   1      -4.489  -4.789  -2.945  0.00  0.00    -0.082 A 
ATOM      9  C7  UNL d   1      -3.573  -4.511  -3.989  0.00  0.00     0.045 A 
ENDROOT
TORSDOF 0
ENDMDL
