MODEL 1
REMARK minimizedAffinity 14.9389544
REMARK minimizedRMSD -1
REMARK  0 active torsions:
REMARK  status: ('A' for Active; 'I' for Inactive)
ROOT
ATOM      1  C2' OXE d   1      -4.378   1.508  -0.006  0.00  0.00     0.078 C 
ATOM      2  C1' OXE d   1      -4.481  -1.146   0.904  0.00  0.00     0.078 C 
ATOM      3  C1  OXE d   1      -3.302  -0.304   1.323  0.00  0.00    -0.078 A 
ATOM      4  C2  OXE d   1      -3.236   0.979   0.835  0.00  0.00    -0.078 A 
ATOM      5  C3  OXE d   1      -2.198   1.816   1.234  0.00  0.00     0.003 A 
ATOM      6  C4  OXE d   1      -1.140   1.316   2.003  0.00  0.00    -0.002 A 
ATOM      7  C5  OXE d   1      -1.168   0.000   2.478  0.00  0.00    -0.002 A 
ATOM      8  C6  OXE d   1      -2.260  -0.808   2.183  0.00  0.00     0.003 A 
ENDROOT
TORSDOF 0
ENDMDL
