MODEL 1
REMARK minimizedAffinity 9.4317646
REMARK minimizedRMSD -1
REMARK  0 active torsions:
REMARK  status: ('A' for Active; 'I' for Inactive)
ROOT
ATOM      1  C2' OXE d   1      -2.150   3.628   2.219  0.00  0.00     0.078 C 
ATOM      2  C1' OXE d   1       0.356   2.479   2.748  0.00  0.00     0.078 C 
ATOM      3  C1  OXE d   1      -0.738   1.576   2.235  0.00  0.00    -0.078 A 
ATOM      4  C2  OXE d   1      -1.974   2.138   2.024  0.00  0.00    -0.078 A 
ATOM      5  C3  OXE d   1      -3.004   1.362   1.499  0.00  0.00     0.003 A 
ATOM      6  C4  OXE d   1      -2.836  -0.018   1.330  0.00  0.00    -0.002 A 
ATOM      7  C5  OXE d   1      -1.597  -0.618   1.577  0.00  0.00    -0.002 A 
ATOM      8  C6  OXE d   1      -0.528   0.171   1.989  0.00  0.00     0.003 A 
ENDROOT
TORSDOF 0
ENDMDL
