MODEL 1
REMARK minimizedAffinity 7.08508682
REMARK minimizedRMSD -1
REMARK  0 active torsions:
REMARK  status: ('A' for Active; 'I' for Inactive)
ROOT
ATOM      1  C2' OXE d   1      -5.996  -2.405   0.537  0.00  0.00     0.078 C 
ATOM      2  C1' OXE d   1      -3.201  -2.542   0.764  0.00  0.00     0.078 C 
ATOM      3  C1  OXE d   1      -3.919  -3.734   0.181  0.00  0.00    -0.078 A 
ATOM      4  C2  OXE d   1      -5.290  -3.677   0.117  0.00  0.00    -0.078 A 
ATOM      5  C3  OXE d   1      -5.998  -4.726  -0.463  0.00  0.00     0.003 A 
ATOM      6  C4  OXE d   1      -5.338  -5.902  -0.841  0.00  0.00    -0.002 A 
ATOM      7  C5  OXE d   1      -3.946  -5.997  -0.747  0.00  0.00    -0.002 A 
ATOM      8  C6  OXE d   1      -3.219  -4.908  -0.279  0.00  0.00     0.003 A 
ENDROOT
TORSDOF 0
ENDMDL
