MODEL 1
REMARK minimizedAffinity 12.941474
REMARK minimizedRMSD -1
REMARK  0 active torsions:
REMARK  status: ('A' for Active; 'I' for Inactive)
ROOT
ATOM      1  C2' OXE d   1      -5.972  -4.785   1.847  0.00  0.00     0.078 C 
ATOM      2  C1' OXE d   1      -5.778  -2.343   0.476  0.00  0.00     0.078 C 
ATOM      3  C1  OXE d   1      -5.398  -3.599  -0.267  0.00  0.00    -0.078 A 
ATOM      4  C2  OXE d   1      -5.452  -4.785   0.426  0.00  0.00    -0.078 A 
ATOM      5  C3  OXE d   1      -5.165  -5.979  -0.228  0.00  0.00     0.003 A 
ATOM      6  C4  OXE d   1      -4.675  -5.970  -1.540  0.00  0.00    -0.002 A 
ATOM      7  C5  OXE d   1      -4.575  -4.769  -2.251  0.00  0.00    -0.002 A 
ATOM      8  C6  OXE d   1      -4.972  -3.583  -1.645  0.00  0.00     0.003 A 
ENDROOT
TORSDOF 0
ENDMDL
