MODEL 1
REMARK minimizedAffinity -4.36843014
REMARK minimizedRMSD -1
REMARK  0 active torsions:
REMARK  status: ('A' for Active; 'I' for Inactive)
ROOT
ATOM      1  C2' OXE d   1      -1.412  -3.986  -3.065  0.00  0.00     0.078 C 
ATOM      2  C1' OXE d   1       0.328  -1.938  -3.877  0.00  0.00     0.078 C 
ATOM      3  C1  OXE d   1      -0.766  -1.586  -2.901  0.00  0.00    -0.078 A 
ATOM      4  C2  OXE d   1      -1.642  -2.583  -2.545  0.00  0.00    -0.078 A 
ATOM      5  C3  OXE d   1      -2.636  -2.325  -1.606  0.00  0.00     0.003 A 
ATOM      6  C4  OXE d   1      -2.848  -1.023  -1.138  0.00  0.00    -0.002 A 
ATOM      7  C5  OXE d   1      -1.992   0.016  -1.518  0.00  0.00    -0.002 A 
ATOM      8  C6  OXE d   1      -0.923  -0.257  -2.364  0.00  0.00     0.003 A 
ENDROOT
TORSDOF 0
ENDMDL
