MODEL 1
REMARK minimizedAffinity -4.67817497
REMARK minimizedRMSD -1
REMARK  0 active torsions:
REMARK  status: ('A' for Active; 'I' for Inactive)
ROOT
ATOM      1  C2' OXE d   1       1.953   0.910   0.711  0.00  0.00     0.078 C 
ATOM      2  C1' OXE d   1       0.124   0.272   2.742  0.00  0.00     0.078 C 
ATOM      3  C1  OXE d   1      -0.205  -0.165   1.337  0.00  0.00    -0.078 A 
ATOM      4  C2  OXE d   1       0.673   0.192   0.342  0.00  0.00    -0.078 A 
ATOM      5  C3  OXE d   1       0.445  -0.233  -0.964  0.00  0.00     0.003 A 
ATOM      6  C4  OXE d   1      -0.747  -0.888  -1.298  0.00  0.00    -0.002 A 
ATOM      7  C5  OXE d   1      -1.673  -1.227  -0.306  0.00  0.00    -0.002 A 
ATOM      8  C6  OXE d   1      -1.398  -0.911   1.019  0.00  0.00     0.003 A 
ENDROOT
TORSDOF 0
ENDMDL
