MODEL 1
REMARK minimizedAffinity -0.254376143
REMARK minimizedRMSD -1
REMARK  0 active torsions:
REMARK  status: ('A' for Active; 'I' for Inactive)
ROOT
ATOM      1  C2' OXE d   1      -1.297  -1.508  -1.547  0.00  0.00     0.078 C 
ATOM      2  C1' OXE d   1       0.308   0.590  -0.597  0.00  0.00     0.078 C 
ATOM      3  C1  OXE d   1       0.883  -0.307  -1.665  0.00  0.00    -0.078 A 
ATOM      4  C2  OXE d   1       0.108  -1.360  -2.090  0.00  0.00    -0.078 A 
ATOM      5  C3  OXE d   1       0.568  -2.186  -3.112  0.00  0.00     0.003 A 
ATOM      6  C4  OXE d   1       1.873  -2.048  -3.601  0.00  0.00    -0.002 A 
ATOM      7  C5  OXE d   1       2.693  -1.007  -3.153  0.00  0.00    -0.002 A 
ATOM      8  C6  OXE d   1       2.199  -0.104  -2.218  0.00  0.00     0.003 A 
ENDROOT
TORSDOF 0
ENDMDL
