MODEL 1
REMARK minimizedAffinity -4.71265221
REMARK minimizedRMSD -1
REMARK  0 active torsions:
REMARK  status: ('A' for Active; 'I' for Inactive)
ROOT
ATOM      1  C2' OXE d   1      -2.062   0.076  -0.900  0.00  0.00     0.078 C 
ATOM      2  C1' OXE d   1      -1.971  -2.290  -2.407  0.00  0.00     0.078 C 
ATOM      3  C1  OXE d   1      -0.780  -1.368  -2.474  0.00  0.00    -0.078 A 
ATOM      4  C2  OXE d   1      -0.852  -0.190  -1.770  0.00  0.00    -0.078 A 
ATOM      5  C3  OXE d   1       0.241   0.671  -1.753  0.00  0.00     0.003 A 
ATOM      6  C4  OXE d   1       1.352   0.423  -2.568  0.00  0.00    -0.002 A 
ATOM      7  C5  OXE d   1       1.429  -0.751  -3.324  0.00  0.00    -0.002 A 
ATOM      8  C6  OXE d   1       0.393  -1.675  -3.255  0.00  0.00     0.003 A 
ENDROOT
TORSDOF 0
ENDMDL
