MODEL 1
REMARK minimizedAffinity 4.07444048
REMARK minimizedRMSD -1
REMARK  0 active torsions:
REMARK  status: ('A' for Active; 'I' for Inactive)
ROOT
ATOM      1  C2' OXE d   1       1.820  -2.197  -4.018  0.00  0.00     0.078 C 
ATOM      2  C1' OXE d   1       3.238   0.137  -3.368  0.00  0.00     0.078 C 
ATOM      3  C1  OXE d   1       2.030  -0.208  -2.533  0.00  0.00    -0.078 A 
ATOM      4  C2  OXE d   1       1.315  -1.327  -2.887  0.00  0.00    -0.078 A 
ATOM      5  C3  OXE d   1       0.225  -1.721  -2.117  0.00  0.00     0.003 A 
ATOM      6  C4  OXE d   1      -0.241  -0.905  -1.079  0.00  0.00    -0.002 A 
ATOM      7  C5  OXE d   1       0.449   0.260  -0.727  0.00  0.00    -0.002 A 
ATOM      8  C6  OXE d   1       1.608   0.599  -1.415  0.00  0.00     0.003 A 
ENDROOT
TORSDOF 0
ENDMDL
