MODEL 1
REMARK minimizedAffinity -5.91154814
REMARK minimizedRMSD -1
REMARK  0 active torsions:
REMARK  status: ('A' for Active; 'I' for Inactive)
ROOT
ATOM      1  C2' OXE d   1       1.756   0.193   1.335  0.00  0.00     0.078 C 
ATOM      2  C1' OXE d   1      -0.511  -0.976   2.508  0.00  0.00     0.078 C 
ATOM      3  C1  OXE d   1      -0.604  -0.556   1.063  0.00  0.00    -0.078 A 
ATOM      4  C2  OXE d   1       0.494   0.057   0.510  0.00  0.00    -0.078 A 
ATOM      5  C3  OXE d   1       0.480   0.415  -0.835  0.00  0.00     0.003 A 
ATOM      6  C4  OXE d   1      -0.694   0.295  -1.588  0.00  0.00    -0.002 A 
ATOM      7  C5  OXE d   1      -1.837  -0.291  -1.033  0.00  0.00    -0.002 A 
ATOM      8  C6  OXE d   1      -1.795  -0.759   0.275  0.00  0.00     0.003 A 
ENDROOT
TORSDOF 0
ENDMDL
