MODEL 1
REMARK minimizedAffinity -1.51741338
REMARK minimizedRMSD -1
REMARK  0 active torsions:
REMARK  status: ('A' for Active; 'I' for Inactive)
ROOT
ATOM      1  C2' OXE d   1       1.285   0.314  -2.479  0.00  0.00     0.078 C 
ATOM      2  C1' OXE d   1       1.794   0.590   0.267  0.00  0.00     0.078 C 
ATOM      3  C1  OXE d   1       0.363   0.394  -0.167  0.00  0.00    -0.078 A 
ATOM      4  C2  OXE d   1       0.118   0.307  -1.516  0.00  0.00    -0.078 A 
ATOM      5  C3  OXE d   1      -1.177   0.071  -1.967  0.00  0.00     0.003 A 
ATOM      6  C4  OXE d   1      -2.252   0.076  -1.070  0.00  0.00    -0.002 A 
ATOM      7  C5  OXE d   1      -2.029   0.203   0.305  0.00  0.00    -0.002 A 
ATOM      8  C6  OXE d   1      -0.726   0.320   0.776  0.00  0.00     0.003 A 
ENDROOT
TORSDOF 0
ENDMDL
