MODEL 1
REMARK minimizedAffinity -3.30056643
REMARK minimizedRMSD -1
REMARK  0 active torsions:
REMARK  status: ('A' for Active; 'I' for Inactive)
ROOT
ATOM      1  C2' OXE d   1       0.099   0.024  -1.082  0.00  0.00     0.078 C 
ATOM      2  C1' OXE d   1      -0.002  -2.081  -2.936  0.00  0.00     0.078 C 
ATOM      3  C1  OXE d   1      -1.309  -1.479  -2.483  0.00  0.00    -0.078 A 
ATOM      4  C2  OXE d   1      -1.252  -0.481  -1.540  0.00  0.00    -0.078 A 
ATOM      5  C3  OXE d   1      -2.425   0.146  -1.129  0.00  0.00     0.003 A 
ATOM      6  C4  OXE d   1      -3.671  -0.334  -1.550  0.00  0.00    -0.002 A 
ATOM      7  C5  OXE d   1      -3.753  -1.376  -2.480  0.00  0.00    -0.002 A 
ATOM      8  C6  OXE d   1      -2.583  -1.930  -2.988  0.00  0.00     0.003 A 
ENDROOT
TORSDOF 0
ENDMDL
