MODEL 1
REMARK minimizedAffinity -5.2738328
REMARK minimizedRMSD -1
REMARK  0 active torsions:
REMARK  status: ('A' for Active; 'I' for Inactive)
ROOT
ATOM      1  C2' OXE d   1      -2.275   0.522  -1.195  0.00  0.00     0.078 C 
ATOM      2  C1' OXE d   1       0.517   0.614  -0.915  0.00  0.00     0.078 C 
ATOM      3  C1  OXE d   1      -0.049  -0.191  -2.058  0.00  0.00    -0.078 A 
ATOM      4  C2  OXE d   1      -1.418  -0.269  -2.160  0.00  0.00    -0.078 A 
ATOM      5  C3  OXE d   1      -1.992  -0.953  -3.228  0.00  0.00     0.003 A 
ATOM      6  C4  OXE d   1      -1.192  -1.689  -4.110  0.00  0.00    -0.002 A 
ATOM      7  C5  OXE d   1       0.202  -1.656  -4.000  0.00  0.00    -0.002 A 
ATOM      8  C6  OXE d   1       0.790  -0.879  -3.008  0.00  0.00     0.003 A 
ENDROOT
TORSDOF 0
ENDMDL
