MODEL 1
REMARK minimizedAffinity -4.92354155
REMARK minimizedRMSD -1
REMARK  0 active torsions:
REMARK  status: ('A' for Active; 'I' for Inactive)
ROOT
ATOM      1  C2' OXE d   1       0.348   0.475  -1.413  0.00  0.00     0.078 C 
ATOM      2  C1' OXE d   1      -2.227  -0.420  -0.743  0.00  0.00     0.078 C 
ATOM      3  C1  OXE d   1      -1.314   0.003   0.381  0.00  0.00    -0.078 A 
ATOM      4  C2  OXE d   1      -0.040   0.395   0.047  0.00  0.00    -0.078 A 
ATOM      5  C3  OXE d   1       0.824   0.847   1.040  0.00  0.00     0.003 A 
ATOM      6  C4  OXE d   1       0.461   0.761   2.390  0.00  0.00    -0.002 A 
ATOM      7  C5  OXE d   1      -0.818   0.326   2.754  0.00  0.00    -0.002 A 
ATOM      8  C6  OXE d   1      -1.730  -0.015   1.762  0.00  0.00     0.003 A 
ENDROOT
TORSDOF 0
ENDMDL
