MODEL 1
REMARK minimizedAffinity -6.30358505
REMARK minimizedRMSD -1
REMARK  0 active torsions:
REMARK  status: ('A' for Active; 'I' for Inactive)
ROOT
ATOM      1  C2' OXE d   1      -3.406  -0.971   0.485  0.00  0.00     0.078 C 
ATOM      2  C1' OXE d   1      -1.727   0.250  -1.405  0.00  0.00     0.078 C 
ATOM      3  C1  OXE d   1      -1.167  -0.006  -0.028  0.00  0.00    -0.078 A 
ATOM      4  C2  OXE d   1      -2.011  -0.561   0.905  0.00  0.00    -0.078 A 
ATOM      5  C3  OXE d   1      -1.529  -0.868   2.174  0.00  0.00     0.003 A 
ATOM      6  C4  OXE d   1      -0.240  -0.477   2.557  0.00  0.00    -0.002 A 
ATOM      7  C5  OXE d   1       0.622   0.126   1.634  0.00  0.00    -0.002 A 
ATOM      8  C6  OXE d   1       0.189   0.329   0.329  0.00  0.00     0.003 A 
ENDROOT
TORSDOF 0
ENDMDL
