MODEL 1
REMARK minimizedAffinity -5.78302383
REMARK minimizedRMSD -1
REMARK  0 active torsions:
REMARK  status: ('A' for Active; 'I' for Inactive)
ROOT
ATOM      1  C2' OXE d   1       0.511   0.687  -1.669  0.00  0.00     0.078 C 
ATOM      2  C1' OXE d   1      -2.207   0.002  -1.509  0.00  0.00     0.078 C 
ATOM      3  C1  OXE d   1      -1.416   0.049  -0.225  0.00  0.00    -0.078 A 
ATOM      4  C2  OXE d   1      -0.077   0.339  -0.318  0.00  0.00    -0.078 A 
ATOM      5  C3  OXE d   1       0.687   0.449   0.841  0.00  0.00     0.003 A 
ATOM      6  C4  OXE d   1       0.138   0.115   2.085  0.00  0.00    -0.002 A 
ATOM      7  C5  OXE d   1      -1.215  -0.222   2.197  0.00  0.00    -0.002 A 
ATOM      8  C6  OXE d   1      -2.014  -0.218   1.060  0.00  0.00     0.003 A 
ENDROOT
TORSDOF 0
ENDMDL
