MODEL 1
REMARK minimizedAffinity -2.90228343
REMARK minimizedRMSD -1
REMARK  0 active torsions:
REMARK  status: ('A' for Active; 'I' for Inactive)
ROOT
ATOM      1  C2' OXE d   1      -2.174  -0.068  -0.573  0.00  0.00     0.078 C 
ATOM      2  C1' OXE d   1      -2.341  -2.284  -2.288  0.00  0.00     0.078 C 
ATOM      3  C1  OXE d   1      -1.035  -1.532  -2.236  0.00  0.00    -0.078 A 
ATOM      4  C2  OXE d   1      -0.977  -0.421  -1.429  0.00  0.00    -0.078 A 
ATOM      5  C3  OXE d   1       0.220   0.278  -1.303  0.00  0.00     0.003 A 
ATOM      6  C4  OXE d   1       1.320  -0.049  -2.106  0.00  0.00    -0.002 A 
ATOM      7  C5  OXE d   1       1.269  -1.153  -2.964  0.00  0.00    -0.002 A 
ATOM      8  C6  OXE d   1       0.116  -1.928  -3.009  0.00  0.00     0.003 A 
ENDROOT
TORSDOF 0
ENDMDL
