MODEL 1
REMARK minimizedAffinity 5.5522213
REMARK minimizedRMSD -1
REMARK  0 active torsions:
REMARK  status: ('A' for Active; 'I' for Inactive)
ROOT
ATOM      1  O1  BZF d   1      -1.742  -3.228  -1.087  0.00  0.00    -0.204 OA
ATOM      2  C2  BZF d   1      -1.739  -2.404  -2.196  0.00  0.00     0.174 A 
ATOM      3  C3  BZF d   1      -2.071  -1.142  -1.855  0.00  0.00    -0.012 A 
ATOM      4  C3A BZF d   1      -2.206  -1.160  -0.431  0.00  0.00    -0.107 A 
ATOM      5  C4  BZF d   1      -2.509  -0.204   0.496  0.00  0.00     0.055 A 
ATOM      6  C5  BZF d   1      -2.633  -0.564   1.800  0.00  0.00    -0.016 A 
ATOM      7  C6  BZF d   1      -2.468  -1.871   2.212  0.00  0.00     0.022 A 
ATOM      8  C7  BZF d   1      -2.163  -2.853   1.330  0.00  0.00     0.029 A 
ATOM      9  C7A BZF d   1      -2.004  -2.487   0.016  0.00  0.00     0.058 A 
ENDROOT
TORSDOF 0
ENDMDL
