MODEL 1
REMARK minimizedAffinity 4.39595222
REMARK minimizedRMSD -1
REMARK  0 active torsions:
REMARK  status: ('A' for Active; 'I' for Inactive)
ROOT
ATOM      1  O1  BZF d   1      -4.460   0.186   1.560  0.00  0.00    -0.204 OA
ATOM      2  C2  BZF d   1      -3.320   0.211   2.338  0.00  0.00     0.174 A 
ATOM      3  C3  BZF d   1      -2.242  -0.169   1.621  0.00  0.00    -0.012 A 
ATOM      4  C3A BZF d   1      -2.726  -0.359   0.288  0.00  0.00    -0.107 A 
ATOM      5  C4  BZF d   1      -2.128  -0.723  -0.884  0.00  0.00     0.055 A 
ATOM      6  C5  BZF d   1      -2.895  -0.890  -1.993  0.00  0.00    -0.016 A 
ATOM      7  C6  BZF d   1      -4.262  -0.706  -1.965  0.00  0.00     0.022 A 
ATOM      8  C7  BZF d   1      -4.900  -0.339  -0.826  0.00  0.00     0.029 A 
ATOM      9  C7A BZF d   1      -4.122  -0.138   0.288  0.00  0.00     0.058 A 
ENDROOT
TORSDOF 0
ENDMDL
