MODEL 1
REMARK minimizedAffinity 14.6626101
REMARK minimizedRMSD -1
REMARK  0 active torsions:
REMARK  status: ('A' for Active; 'I' for Inactive)
ROOT
ATOM      1  O1  BZF d   1      -0.881  -5.119  -1.428  0.00  0.00    -0.204 OA
ATOM      2  C2  BZF d   1      -0.830  -6.000  -0.365  0.00  0.00     0.174 A 
ATOM      3  C3  BZF d   1      -1.172  -5.383   0.784  0.00  0.00    -0.012 A 
ATOM      4  C3A BZF d   1      -1.544  -4.055   0.403  0.00  0.00    -0.107 A 
ATOM      5  C4  BZF d   1      -1.992  -2.969   1.099  0.00  0.00     0.055 A 
ATOM      6  C5  BZF d   1      -2.194  -1.799   0.439  0.00  0.00    -0.016 A 
ATOM      7  C6  BZF d   1      -1.954  -1.678  -0.914  0.00  0.00     0.022 A 
ATOM      8  C7  BZF d   1      -1.513  -2.728  -1.648  0.00  0.00     0.029 A 
ATOM      9  C7A BZF d   1      -1.340  -3.921  -0.990  0.00  0.00     0.058 A 
ENDROOT
TORSDOF 0
ENDMDL
