MODEL 1
REMARK minimizedAffinity 18.7476063
REMARK minimizedRMSD -1
REMARK  0 active torsions:
REMARK  status: ('A' for Active; 'I' for Inactive)
ROOT
ATOM      1  O1  BZF d   1      -4.761  -1.119  -2.423  0.00  0.00    -0.204 OA
ATOM      2  C2  BZF d   1      -5.998  -1.136  -1.809  0.00  0.00     0.174 A 
ATOM      3  C3  BZF d   1      -5.884  -0.853  -0.495  0.00  0.00    -0.012 A 
ATOM      4  C3A BZF d   1      -4.500  -0.554  -0.293  0.00  0.00    -0.107 A 
ATOM      5  C4  BZF d   1      -3.769  -0.184   0.799  0.00  0.00     0.055 A 
ATOM      6  C5  BZF d   1      -2.423  -0.040   0.676  0.00  0.00    -0.016 A 
ATOM      7  C6  BZF d   1      -1.776  -0.263  -0.522  0.00  0.00     0.022 A 
ATOM      8  C7  BZF d   1      -2.459  -0.627  -1.634  0.00  0.00     0.029 A 
ATOM      9  C7A BZF d   1      -3.823  -0.741  -1.521  0.00  0.00     0.058 A 
ENDROOT
TORSDOF 0
ENDMDL
