MODEL 1
REMARK minimizedAffinity 11.4803782
REMARK minimizedRMSD -1
REMARK  0 active torsions:
REMARK  status: ('A' for Active; 'I' for Inactive)
ROOT
ATOM      1  O1  BZF d   1       3.366   0.048  -0.295  0.00  0.00    -0.204 OA
ATOM      2  C2  BZF d   1       3.758   0.752  -1.417  0.00  0.00     0.174 A 
ATOM      3  C3  BZF d   1       4.763   1.601  -1.123  0.00  0.00    -0.012 A 
ATOM      4  C3A BZF d   1       5.077   1.350   0.251  0.00  0.00    -0.107 A 
ATOM      5  C4  BZF d   1       6.000   1.870   1.113  0.00  0.00     0.055 A 
ATOM      6  C5  BZF d   1       5.998   1.460   2.408  0.00  0.00    -0.016 A 
ATOM      7  C6  BZF d   1       5.085   0.537   2.877  0.00  0.00     0.022 A 
ATOM      8  C7  BZF d   1       4.154  -0.010   2.058  0.00  0.00     0.029 A 
ATOM      9  C7A BZF d   1       4.175   0.377   0.740  0.00  0.00     0.058 A 
ENDROOT
TORSDOF 0
ENDMDL
