MODEL 1
REMARK minimizedAffinity 20.4705391
REMARK minimizedRMSD -1
REMARK  0 active torsions:
REMARK  status: ('A' for Active; 'I' for Inactive)
ROOT
ATOM      1  O1  BZF d   1      -5.994   5.923  -0.462  0.00  0.00    -0.204 OA
ATOM      2  C2  BZF d   1      -5.700   5.095   0.604  0.00  0.00     0.174 A 
ATOM      3  C3  BZF d   1      -5.384   3.856   0.174  0.00  0.00    -0.012 A 
ATOM      4  C3A BZF d   1      -5.398   3.939  -1.255  0.00  0.00    -0.107 A 
ATOM      5  C4  BZF d   1      -5.149   3.037  -2.250  0.00  0.00     0.055 A 
ATOM      6  C5  BZF d   1      -5.321   3.417  -3.543  0.00  0.00    -0.016 A 
ATOM      7  C6  BZF d   1      -5.744   4.687  -3.877  0.00  0.00     0.022 A 
ATOM      8  C7  BZF d   1      -5.998   5.617  -2.925  0.00  0.00     0.029 A 
ATOM      9  C7A BZF d   1      -5.794   5.247  -1.618  0.00  0.00     0.058 A 
ENDROOT
TORSDOF 0
ENDMDL
