MODEL 1
REMARK minimizedAffinity 8.80088139
REMARK minimizedRMSD -1
REMARK  0 active torsions:
REMARK  status: ('A' for Active; 'I' for Inactive)
ROOT
ATOM      1  O1  BZF d   1       5.988   2.034   2.026  0.00  0.00    -0.204 OA
ATOM      2  C2  BZF d   1       5.300   1.228   2.912  0.00  0.00     0.174 A 
ATOM      3  C3  BZF d   1       4.422   0.439   2.259  0.00  0.00    -0.012 A 
ATOM      4  C3A BZF d   1       4.637   0.707   0.870  0.00  0.00    -0.107 A 
ATOM      5  C4  BZF d   1       4.079   0.221  -0.278  0.00  0.00     0.055 A 
ATOM      6  C5  BZF d   1       4.462   0.745  -1.472  0.00  0.00    -0.016 A 
ATOM      7  C6  BZF d   1       5.394   1.758  -1.555  0.00  0.00     0.022 A 
ATOM      8  C7  BZF d   1       5.979   2.270  -0.445  0.00  0.00     0.029 A 
ATOM      9  C7A BZF d   1       5.619   1.720   0.761  0.00  0.00     0.058 A 
ENDROOT
TORSDOF 0
ENDMDL
