MODEL 1
REMARK minimizedAffinity 20.1668568
REMARK minimizedRMSD -1
REMARK  0 active torsions:
REMARK  status: ('A' for Active; 'I' for Inactive)
ROOT
ATOM      1  O1  BZF d   1      -0.019  -0.210   6.000  0.00  0.00    -0.204 OA
ATOM      2  C2  BZF d   1      -0.180  -1.479   5.480  0.00  0.00     0.174 A 
ATOM      3  C3  BZF d   1      -0.143  -1.453   4.132  0.00  0.00    -0.012 A 
ATOM      4  C3A BZF d   1       0.146  -0.093   3.790  0.00  0.00    -0.107 A 
ATOM      5  C4  BZF d   1       0.324   0.559   2.604  0.00  0.00     0.055 A 
ATOM      6  C5  BZF d   1       0.520   1.904   2.613  0.00  0.00    -0.016 A 
ATOM      7  C6  BZF d   1       0.539   2.627   3.787  0.00  0.00     0.022 A 
ATOM      8  C7  BZF d   1       0.372   2.023   4.989  0.00  0.00     0.029 A 
ATOM      9  C7A BZF d   1       0.207   0.660   4.986  0.00  0.00     0.058 A 
ENDROOT
TORSDOF 0
ENDMDL
