MODEL 1
REMARK minimizedAffinity 10.0690727
REMARK minimizedRMSD -1
REMARK  0 active torsions:
REMARK  status: ('A' for Active; 'I' for Inactive)
ROOT
ATOM      1  O1  BZF d   1       4.651  -0.206   2.347  0.00  0.00    -0.204 OA
ATOM      2  C2  BZF d   1       5.902   0.299   2.051  0.00  0.00     0.174 A 
ATOM      3  C3  BZF d   1       6.000   1.589   2.433  0.00  0.00    -0.012 A 
ATOM      4  C3A BZF d   1       4.761   1.883   3.087  0.00  0.00    -0.107 A 
ATOM      5  C4  BZF d   1       4.263   2.999   3.696  0.00  0.00     0.055 A 
ATOM      6  C5  BZF d   1       2.990   2.979   4.171  0.00  0.00    -0.016 A 
ATOM      7  C6  BZF d   1       2.187   1.864   4.049  0.00  0.00     0.022 A 
ATOM      8  C7  BZF d   1       2.639   0.732   3.457  0.00  0.00     0.029 A 
ATOM      9  C7A BZF d   1       3.936   0.738   3.006  0.00  0.00     0.058 A 
ENDROOT
TORSDOF 0
ENDMDL
