MODEL 1
REMARK minimizedAffinity -0.746577561
REMARK minimizedRMSD -1
REMARK  0 active torsions:
REMARK  status: ('A' for Active; 'I' for Inactive)
ROOT
ATOM      1  C1  DEN d   1      -0.378  -3.099  -3.153  0.00  0.00     0.130 A 
ATOM      2  C2  DEN d   1      -0.660  -2.635  -1.797  0.00  0.00    -0.031 A 
ATOM      3  C3  DEN d   1      -0.880  -1.176  -1.851  0.00  0.00     0.027 A 
ATOM      4  C4  DEN d   1      -0.816   0.401  -3.891  0.00  0.00     0.027 A 
ATOM      5  C5  DEN d   1      -0.605   0.470  -5.251  0.00  0.00    -0.003 A 
ATOM      6  C6  DEN d   1      -0.273  -0.631  -5.995  0.00  0.00     0.001 A 
ATOM      7  C7  DEN d   1      -0.186  -1.858  -5.390  0.00  0.00     0.017 A 
ATOM      8  C8  DEN d   1      -0.390  -1.934  -4.019  0.00  0.00    -0.094 A 
ATOM      9  C9  DEN d   1      -0.737  -0.811  -3.286  0.00  0.00    -0.072 A 
ENDROOT
TORSDOF 0
ENDMDL
