MODEL 1
REMARK minimizedAffinity 5.87637711
REMARK minimizedRMSD -1
REMARK  0 active torsions:
REMARK  status: ('A' for Active; 'I' for Inactive)
ROOT
ATOM      1  C1  DEN d   1      -0.268   1.024  -4.608  0.00  0.00     0.130 A 
ATOM      2  C2  DEN d   1       0.283   0.735  -5.929  0.00  0.00    -0.031 A 
ATOM      3  C3  DEN d   1       0.568  -0.712  -5.998  0.00  0.00     0.027 A 
ATOM      4  C4  DEN d   1       0.208  -2.524  -4.198  0.00  0.00     0.027 A 
ATOM      5  C5  DEN d   1      -0.225  -2.759  -2.912  0.00  0.00    -0.003 A 
ATOM      6  C6  DEN d   1      -0.666  -1.751  -2.095  0.00  0.00     0.001 A 
ATOM      7  C7  DEN d   1      -0.728  -0.469  -2.572  0.00  0.00     0.017 A 
ATOM      8  C8  DEN d   1      -0.287  -0.224  -3.866  0.00  0.00    -0.094 A 
ATOM      9  C9  DEN d   1       0.145  -1.257  -4.680  0.00  0.00    -0.072 A 
ENDROOT
TORSDOF 0
ENDMDL
