MODEL 1
REMARK minimizedAffinity -0.70998323
REMARK minimizedRMSD -1
REMARK  0 active torsions:
REMARK  status: ('A' for Active; 'I' for Inactive)
ROOT
ATOM      1  C1  DEN d   1      -4.172   1.247   0.549  0.00  0.00     0.130 A 
ATOM      2  C2  DEN d   1      -4.442   0.513  -0.685  0.00  0.00    -0.031 A 
ATOM      3  C3  DEN d   1      -3.464  -0.589  -0.784  0.00  0.00     0.027 A 
ATOM      4  C4  DEN d   1      -1.571  -1.230   0.846  0.00  0.00     0.027 A 
ATOM      5  C5  DEN d   1      -0.944  -0.895   2.025  0.00  0.00    -0.003 A 
ATOM      6  C6  DEN d   1      -1.324   0.189   2.772  0.00  0.00     0.001 A 
ATOM      7  C7  DEN d   1      -2.389   0.950   2.370  0.00  0.00     0.017 A 
ATOM      8  C8  DEN d   1      -3.022   0.623   1.178  0.00  0.00    -0.094 A 
ATOM      9  C9  DEN d   1      -2.630  -0.484   0.443  0.00  0.00    -0.072 A 
ENDROOT
TORSDOF 0
ENDMDL
