MODEL 1
REMARK minimizedAffinity -2.56124401
REMARK minimizedRMSD -1
REMARK  0 active torsions:
REMARK  status: ('A' for Active; 'I' for Inactive)
ROOT
ATOM      1  C1  DEN d   1      -0.912  -0.805  -2.533  0.00  0.00     0.130 A 
ATOM      2  C2  DEN d   1      -0.159  -1.944  -2.014  0.00  0.00    -0.031 A 
ATOM      3  C3  DEN d   1       0.951  -2.221  -2.948  0.00  0.00     0.027 A 
ATOM      4  C4  DEN d   1       1.577  -1.000  -5.132  0.00  0.00     0.027 A 
ATOM      5  C5  DEN d   1       1.226   0.020  -5.988  0.00  0.00    -0.003 A 
ATOM      6  C6  DEN d   1       0.128   0.809  -5.772  0.00  0.00     0.001 A 
ATOM      7  C7  DEN d   1      -0.634   0.619  -4.649  0.00  0.00     0.017 A 
ATOM      8  C8  DEN d   1      -0.291  -0.412  -3.786  0.00  0.00    -0.094 A 
ATOM      9  C9  DEN d   1       0.831  -1.191  -4.015  0.00  0.00    -0.072 A 
ENDROOT
TORSDOF 0
ENDMDL
