MODEL 1
REMARK minimizedAffinity 3.21123481
REMARK minimizedRMSD -1
REMARK  0 active torsions:
REMARK  status: ('A' for Active; 'I' for Inactive)
ROOT
ATOM      1  C1  DEN d   1       4.977   3.794   1.260  0.00  0.00     0.130 A 
ATOM      2  C2  DEN d   1       5.510   5.119   1.568  0.00  0.00    -0.031 A 
ATOM      3  C3  DEN d   1       5.716   5.200   3.028  0.00  0.00     0.027 A 
ATOM      4  C4  DEN d   1       5.269   3.411   4.832  0.00  0.00     0.027 A 
ATOM      5  C5  DEN d   1       4.807   2.133   5.055  0.00  0.00    -0.003 A 
ATOM      6  C6  DEN d   1       4.340   1.338   4.042  0.00  0.00     0.001 A 
ATOM      7  C7  DEN d   1       4.369   1.797   2.751  0.00  0.00     0.017 A 
ATOM      8  C8  DEN d   1       4.827   3.087   2.519  0.00  0.00    -0.094 A 
ATOM      9  C9  DEN d   1       5.305   3.871   3.555  0.00  0.00    -0.072 A 
ENDROOT
TORSDOF 0
ENDMDL
