MODEL 1
REMARK minimizedAffinity -1.03814209
REMARK minimizedRMSD -1
REMARK  0 active torsions:
REMARK  status: ('A' for Active; 'I' for Inactive)
ROOT
ATOM      1  C1  DEN d   1      -1.634   0.827  -3.815  0.00  0.00     0.130 A 
ATOM      2  C2  DEN d   1      -1.754   1.155  -5.233  0.00  0.00    -0.031 A 
ATOM      3  C3  DEN d   1      -0.980   0.157  -5.999  0.00  0.00     0.027 A 
ATOM      4  C4  DEN d   1       0.381  -1.855  -5.132  0.00  0.00     0.027 A 
ATOM      5  C5  DEN d   1       0.788  -2.532  -4.004  0.00  0.00    -0.003 A 
ATOM      6  C6  DEN d   1       0.447  -2.121  -2.743  0.00  0.00     0.001 A 
ATOM      7  C7  DEN d   1      -0.361  -1.027  -2.581  0.00  0.00     0.017 A 
ATOM      8  C8  DEN d   1      -0.769  -0.335  -3.713  0.00  0.00    -0.094 A 
ATOM      9  C9  DEN d   1      -0.424  -0.773  -4.980  0.00  0.00    -0.072 A 
ENDROOT
TORSDOF 0
ENDMDL
