MODEL 1
REMARK minimizedAffinity 2.55815411
REMARK minimizedRMSD -1
REMARK  0 active torsions:
REMARK  status: ('A' for Active; 'I' for Inactive)
ROOT
ATOM      1  C1  DEN d   1       0.359  -2.346   4.249  0.00  0.00     0.130 A 
ATOM      2  C2  DEN d   1       1.141  -1.439   3.414  0.00  0.00    -0.031 A 
ATOM      3  C3  DEN d   1       0.228  -0.409   2.879  0.00  0.00     0.027 A 
ATOM      4  C4  DEN d   1      -2.307  -0.129   3.266  0.00  0.00     0.027 A 
ATOM      5  C5  DEN d   1      -3.413  -0.662   3.892  0.00  0.00    -0.003 A 
ATOM      6  C6  DEN d   1      -3.346  -1.803   4.646  0.00  0.00     0.001 A 
ATOM      7  C7  DEN d   1      -2.139  -2.424   4.832  0.00  0.00     0.017 A 
ATOM      8  C8  DEN d   1      -1.021  -1.897   4.198  0.00  0.00    -0.094 A 
ATOM      9  C9  DEN d   1      -1.107  -0.736   3.450  0.00  0.00    -0.072 A 
ENDROOT
TORSDOF 0
ENDMDL
