MODEL 1
REMARK minimizedAffinity 7.86498404
REMARK minimizedRMSD -1
REMARK  0 active torsions:
REMARK  status: ('A' for Active; 'I' for Inactive)
ROOT
ATOM      1  C1  DEN d   1      -4.310   0.378  -5.867  0.00  0.00     0.130 A 
ATOM      2  C2  DEN d   1      -5.099  -0.415  -4.929  0.00  0.00    -0.031 A 
ATOM      3  C3  DEN d   1      -4.184  -0.946  -3.899  0.00  0.00     0.027 A 
ATOM      4  C4  DEN d   1      -1.637  -0.616  -3.664  0.00  0.00     0.027 A 
ATOM      5  C5  DEN d   1      -0.524  -0.031  -4.227  0.00  0.00    -0.003 A 
ATOM      6  C6  DEN d   1      -0.589   0.697  -5.386  0.00  0.00     0.001 A 
ATOM      7  C7  DEN d   1      -1.800   0.897  -5.995  0.00  0.00     0.017 A 
ATOM      8  C8  DEN d   1      -2.925   0.304  -5.437  0.00  0.00    -0.094 A 
ATOM      9  C9  DEN d   1      -2.841  -0.418  -4.258  0.00  0.00    -0.072 A 
ENDROOT
TORSDOF 0
ENDMDL
