MODEL 1
REMARK minimizedAffinity 3.21677589
REMARK minimizedRMSD -1
REMARK  0 active torsions:
REMARK  status: ('A' for Active; 'I' for Inactive)
ROOT
ATOM      1  C1  DEN d   1      -4.133  -1.465  -4.406  0.00  0.00     0.130 A 
ATOM      2  C2  DEN d   1      -5.082  -0.379  -4.637  0.00  0.00    -0.031 A 
ATOM      3  C3  DEN d   1      -4.361   0.724  -5.302  0.00  0.00     0.027 A 
ATOM      4  C4  DEN d   1      -1.881   0.856  -5.997  0.00  0.00     0.027 A 
ATOM      5  C5  DEN d   1      -0.678   0.184  -5.998  0.00  0.00    -0.003 A 
ATOM      6  C6  DEN d   1      -0.536  -1.060  -5.443  0.00  0.00     0.001 A 
ATOM      7  C7  DEN d   1      -1.626  -1.691  -4.903  0.00  0.00     0.017 A 
ATOM      8  C8  DEN d   1      -2.840  -1.017  -4.891  0.00  0.00    -0.094 A 
ATOM      9  C9  DEN d   1      -2.966   0.235  -5.469  0.00  0.00    -0.072 A 
ENDROOT
TORSDOF 0
ENDMDL
