MODEL 1
REMARK minimizedAffinity 7.81900167
REMARK minimizedRMSD -1
REMARK  0 active torsions:
REMARK  status: ('A' for Active; 'I' for Inactive)
ROOT
ATOM      1  C1  DEN d   1       4.130   3.312   2.860  0.00  0.00     0.130 A 
ATOM      2  C2  DEN d   1       4.200   2.564   1.607  0.00  0.00    -0.031 A 
ATOM      3  C3  DEN d   1       4.877   1.280   1.879  0.00  0.00     0.027 A 
ATOM      4  C4  DEN d   1       5.814   0.380   4.108  0.00  0.00     0.027 A 
ATOM      5  C5  DEN d   1       5.998   0.662   5.443  0.00  0.00    -0.003 A 
ATOM      6  C6  DEN d   1       5.606   1.850   6.000  0.00  0.00     0.001 A 
ATOM      7  C7  DEN d   1       4.968   2.784   5.227  0.00  0.00     0.017 A 
ATOM      8  C8  DEN d   1       4.786   2.511   3.877  0.00  0.00    -0.094 A 
ATOM      9  C9  DEN d   1       5.179   1.298   3.336  0.00  0.00    -0.072 A 
ENDROOT
TORSDOF 0
ENDMDL
