MODEL 1
REMARK minimizedAffinity 13.4567728
REMARK minimizedRMSD -1
REMARK  0 active torsions:
REMARK  status: ('A' for Active; 'I' for Inactive)
ROOT
ATOM      1  C1  DEN d   1       3.409  -0.289  -0.602  0.00  0.00     0.130 A 
ATOM      2  C2  DEN d   1       3.627   0.470  -1.830  0.00  0.00    -0.031 A 
ATOM      3  C3  DEN d   1       3.027   1.808  -1.651  0.00  0.00     0.027 A 
ATOM      4  C4  DEN d   1       1.794   2.773   0.398  0.00  0.00     0.027 A 
ATOM      5  C5  DEN d   1       1.352   2.500   1.674  0.00  0.00    -0.003 A 
ATOM      6  C6  DEN d   1       1.534   1.276   2.263  0.00  0.00     0.001 A 
ATOM      7  C7  DEN d   1       2.214   0.294   1.592  0.00  0.00     0.017 A 
ATOM      8  C8  DEN d   1       2.655   0.560   0.303  0.00  0.00    -0.094 A 
ATOM      9  C9  DEN d   1       2.473   1.807  -0.271  0.00  0.00    -0.072 A 
ENDROOT
TORSDOF 0
ENDMDL
