MODEL 1
REMARK minimizedAffinity 17.1568489
REMARK minimizedRMSD -1
REMARK  0 active torsions:
REMARK  status: ('A' for Active; 'I' for Inactive)
ROOT
ATOM      1  C1  DEN d   1      -5.263  -0.020   3.775  0.00  0.00     0.130 A 
ATOM      2  C2  DEN d   1      -5.925  -0.634   4.923  0.00  0.00    -0.031 A 
ATOM      3  C3  DEN d   1      -6.000   0.374   6.000  0.00  0.00     0.027 A 
ATOM      4  C4  DEN d   1      -5.164   2.814   6.000  0.00  0.00     0.027 A 
ATOM      5  C5  DEN d   1      -4.526   3.782   5.256  0.00  0.00    -0.003 A 
ATOM      6  C6  DEN d   1      -4.063   3.542   3.989  0.00  0.00     0.001 A 
ATOM      7  C7  DEN d   1      -4.271   2.318   3.411  0.00  0.00     0.017 A 
ATOM      8  C8  DEN d   1      -4.907   1.335   4.157  0.00  0.00    -0.094 A 
ATOM      9  C9  DEN d   1      -5.379   1.600   5.432  0.00  0.00    -0.072 A 
ENDROOT
TORSDOF 0
ENDMDL
