MODEL 1
REMARK minimizedAffinity 12.6802492
REMARK minimizedRMSD -1
REMARK  0 active torsions:
REMARK  status: ('A' for Active; 'I' for Inactive)
ROOT
ATOM      1  C1  DEN d   1      -4.340   3.061   4.547  0.00  0.00     0.130 A 
ATOM      2  C2  DEN d   1      -3.697   2.985   3.237  0.00  0.00    -0.031 A 
ATOM      3  C3  DEN d   1      -3.875   1.613   2.721  0.00  0.00     0.027 A 
ATOM      4  C4  DEN d   1      -5.079  -0.389   3.814  0.00  0.00     0.027 A 
ATOM      5  C5  DEN d   1      -5.769  -0.812   4.929  0.00  0.00    -0.003 A 
ATOM      6  C6  DEN d   1      -6.000   0.010   6.000  0.00  0.00     0.001 A 
ATOM      7  C7  DEN d   1      -5.575   1.312   5.960  0.00  0.00     0.017 A 
ATOM      8  C8  DEN d   1      -4.872   1.743   4.843  0.00  0.00    -0.094 A 
ATOM      9  C9  DEN d   1      -4.660   0.900   3.765  0.00  0.00    -0.072 A 
ENDROOT
TORSDOF 0
ENDMDL
