MODEL 1
REMARK minimizedAffinity 2.10669661
REMARK minimizedRMSD -1
REMARK  0 active torsions:
REMARK  status: ('A' for Active; 'I' for Inactive)
ROOT
ATOM      1  C1  DEN d   1       6.000   2.497  -3.782  0.00  0.00     0.130 A 
ATOM      2  C2  DEN d   1       4.920   1.641  -3.298  0.00  0.00    -0.031 A 
ATOM      3  C3  DEN d   1       3.646   2.171  -3.824  0.00  0.00     0.027 A 
ATOM      4  C4  DEN d   1       3.244   4.222  -5.337  0.00  0.00     0.027 A 
ATOM      5  C5  DEN d   1       3.852   5.266  -5.996  0.00  0.00    -0.003 A 
ATOM      6  C6  DEN d   1       5.204   5.479  -5.937  0.00  0.00     0.001 A 
ATOM      7  C7  DEN d   1       5.998   4.609  -5.239  0.00  0.00     0.017 A 
ATOM      8  C8  DEN d   1       5.391   3.557  -4.565  0.00  0.00    -0.094 A 
ATOM      9  C9  DEN d   1       4.025   3.352  -4.647  0.00  0.00    -0.072 A 
ENDROOT
TORSDOF 0
ENDMDL
