MODEL 1
REMARK minimizedAffinity 19.0808716
REMARK minimizedRMSD -1
REMARK  0 active torsions:
REMARK  status: ('A' for Active; 'I' for Inactive)
ROOT
ATOM      1  C1  DEN d   1      -4.390   2.980   2.057  0.00  0.00     0.130 A 
ATOM      2  C2  DEN d   1      -3.770   2.487   3.284  0.00  0.00    -0.031 A 
ATOM      3  C3  DEN d   1      -2.314   2.717   3.184  0.00  0.00     0.027 A 
ATOM      4  C4  DEN d   1      -0.969   3.788   1.261  0.00  0.00     0.027 A 
ATOM      5  C5  DEN d   1      -1.057   4.349   0.006  0.00  0.00    -0.003 A 
ATOM      6  C6  DEN d   1      -2.247   4.461  -0.662  0.00  0.00     0.001 A 
ATOM      7  C7  DEN d   1      -3.406   4.046  -0.059  0.00  0.00     0.017 A 
ATOM      8  C8  DEN d   1      -3.324   3.473   1.203  0.00  0.00    -0.094 A 
ATOM      9  C9  DEN d   1      -2.113   3.380   1.867  0.00  0.00    -0.072 A 
ENDROOT
TORSDOF 0
ENDMDL
