MODEL 1
REMARK minimizedAffinity 14.4020662
REMARK minimizedRMSD -1
REMARK  0 active torsions:
REMARK  status: ('A' for Active; 'I' for Inactive)
ROOT
ATOM      1  C1  DEN d   1       3.425   1.780  -5.231  0.00  0.00     0.130 A 
ATOM      2  C2  DEN d   1       3.729   1.243  -3.908  0.00  0.00    -0.031 A 
ATOM      3  C3  DEN d   1       3.428   2.289  -2.910  0.00  0.00     0.027 A 
ATOM      4  C4  DEN d   1       2.519   4.673  -3.283  0.00  0.00     0.027 A 
ATOM      5  C5  DEN d   1       2.119   5.586  -4.234  0.00  0.00    -0.003 A 
ATOM      6  C6  DEN d   1       2.158   5.309  -5.574  0.00  0.00     0.001 A 
ATOM      7  C7  DEN d   1       2.564   4.071  -6.000  0.00  0.00     0.017 A 
ATOM      8  C8  DEN d   1       2.976   3.148  -5.048  0.00  0.00    -0.094 A 
ATOM      9  C9  DEN d   1       2.918   3.444  -3.696  0.00  0.00    -0.072 A 
ENDROOT
TORSDOF 0
ENDMDL
