MODEL 1
REMARK minimizedAffinity 17.9146156
REMARK minimizedRMSD -1
REMARK  0 active torsions:
REMARK  status: ('A' for Active; 'I' for Inactive)
ROOT
ATOM      1  C1  DEN d   1      -2.667  -4.498  -1.470  0.00  0.00     0.130 A 
ATOM      2  C2  DEN d   1      -3.827  -5.272  -1.901  0.00  0.00    -0.031 A 
ATOM      3  C3  DEN d   1      -4.352  -6.000  -0.728  0.00  0.00     0.027 A 
ATOM      4  C4  DEN d   1      -3.488  -5.999   1.702  0.00  0.00     0.027 A 
ATOM      5  C5  DEN d   1      -2.522  -5.503   2.550  0.00  0.00    -0.003 A 
ATOM      6  C6  DEN d   1      -1.525  -4.672   2.114  0.00  0.00     0.001 A 
ATOM      7  C7  DEN d   1      -1.497  -4.274   0.803  0.00  0.00     0.017 A 
ATOM      8  C8  DEN d   1      -2.463  -4.776  -0.059  0.00  0.00    -0.094 A 
ATOM      9  C9  DEN d   1      -3.470  -5.606   0.403  0.00  0.00    -0.072 A 
ENDROOT
TORSDOF 0
ENDMDL
