MODEL 1
REMARK minimizedAffinity 21.6703663
REMARK minimizedRMSD -1
REMARK  0 active torsions:
REMARK  status: ('A' for Active; 'I' for Inactive)
ROOT
ATOM      1  C1  DEN d   1       2.166   3.448  -5.270  0.00  0.00     0.130 A 
ATOM      2  C2  DEN d   1       1.657   4.187  -4.118  0.00  0.00    -0.031 A 
ATOM      3  C3  DEN d   1       2.253   3.601  -2.900  0.00  0.00     0.027 A 
ATOM      4  C4  DEN d   1       3.912   1.637  -2.689  0.00  0.00     0.027 A 
ATOM      5  C5  DEN d   1       4.623   0.688  -3.390  0.00  0.00    -0.003 A 
ATOM      6  C6  DEN d   1       4.539   0.572  -4.752  0.00  0.00     0.001 A 
ATOM      7  C7  DEN d   1       3.761   1.448  -5.462  0.00  0.00     0.017 A 
ATOM      8  C8  DEN d   1       3.035   2.403  -4.762  0.00  0.00    -0.094 A 
ATOM      9  C9  DEN d   1       3.143   2.512  -3.386  0.00  0.00    -0.072 A 
ENDROOT
TORSDOF 0
ENDMDL
