MODEL 1
REMARK minimizedAffinity 15.4288492
REMARK minimizedRMSD -1
REMARK  0 active torsions:
REMARK  status: ('A' for Active; 'I' for Inactive)
ROOT
ATOM      1  C1  DEN d   1      -3.283  -3.414  -2.163  0.00  0.00     0.130 A 
ATOM      2  C2  DEN d   1      -2.737  -2.835  -3.387  0.00  0.00    -0.031 A 
ATOM      3  C3  DEN d   1      -1.538  -2.052  -3.026  0.00  0.00     0.027 A 
ATOM      4  C4  DEN d   1      -0.478  -1.686  -0.704  0.00  0.00     0.027 A 
ATOM      5  C5  DEN d   1      -0.592  -1.967   0.640  0.00  0.00    -0.003 A 
ATOM      6  C6  DEN d   1      -1.622  -2.717   1.143  0.00  0.00     0.001 A 
ATOM      7  C7  DEN d   1      -2.554  -3.248   0.292  0.00  0.00     0.017 A 
ATOM      8  C8  DEN d   1      -2.450  -2.963  -1.063  0.00  0.00    -0.094 A 
ATOM      9  C9  DEN d   1      -1.394  -2.213  -1.554  0.00  0.00    -0.072 A 
ENDROOT
TORSDOF 0
ENDMDL
