MODEL 1
REMARK minimizedAffinity 7.66199589
REMARK minimizedRMSD -1
REMARK  0 active torsions:
REMARK  status: ('A' for Active; 'I' for Inactive)
ROOT
ATOM      1  C1  DEN d   1       0.082   2.867   2.637  0.00  0.00     0.130 A 
ATOM      2  C2  DEN d   1       1.039   3.654   1.864  0.00  0.00    -0.031 A 
ATOM      3  C3  DEN d   1       2.380   3.069   2.067  0.00  0.00     0.027 A 
ATOM      4  C4  DEN d   1       3.062   1.030   3.492  0.00  0.00     0.027 A 
ATOM      5  C5  DEN d   1       2.600   0.048   4.339  0.00  0.00    -0.003 A 
ATOM      6  C6  DEN d   1       1.282  -0.043   4.702  0.00  0.00     0.001 A 
ATOM      7  C7  DEN d   1       0.372   0.839   4.181  0.00  0.00     0.017 A 
ATOM      8  C8  DEN d   1       0.832   1.837   3.332  0.00  0.00    -0.094 A 
ATOM      9  C9  DEN d   1       2.166   1.904   2.967  0.00  0.00    -0.072 A 
ENDROOT
TORSDOF 0
ENDMDL
