MODEL 1
REMARK minimizedAffinity 9.24025822
REMARK minimizedRMSD -1
REMARK  0 active torsions:
REMARK  status: ('A' for Active; 'I' for Inactive)
ROOT
ATOM      1  C1  DEN d   1      -2.889  -2.339   0.401  0.00  0.00     0.130 A 
ATOM      2  C2  DEN d   1      -1.809  -1.406   0.707  0.00  0.00    -0.031 A 
ATOM      3  C3  DEN d   1      -0.692  -2.176   1.291  0.00  0.00     0.027 A 
ATOM      4  C4  DEN d   1      -0.530  -4.710   1.743  0.00  0.00     0.027 A 
ATOM      5  C5  DEN d   1      -1.200  -5.910   1.660  0.00  0.00    -0.003 A 
ATOM      6  C6  DEN d   1      -2.483  -5.999   1.187  0.00  0.00     0.001 A 
ATOM      7  C7  DEN d   1      -3.119  -4.873   0.736  0.00  0.00     0.017 A 
ATOM      8  C8  DEN d   1      -2.453  -3.658   0.823  0.00  0.00    -0.094 A 
ATOM      9  C9  DEN d   1      -1.152  -3.591   1.293  0.00  0.00    -0.072 A 
ENDROOT
TORSDOF 0
ENDMDL
