MODEL 1
REMARK minimizedAffinity 7.27939701
REMARK minimizedRMSD -1
REMARK  0 active torsions:
REMARK  status: ('A' for Active; 'I' for Inactive)
ROOT
ATOM      1  C1  DEN d   1      -1.416  -2.519  -4.127  0.00  0.00     0.130 A 
ATOM      2  C2  DEN d   1      -0.221  -2.989  -4.822  0.00  0.00    -0.031 A 
ATOM      3  C3  DEN d   1       0.787  -3.348  -3.804  0.00  0.00     0.027 A 
ATOM      4  C4  DEN d   1       0.613  -3.227  -1.234  0.00  0.00     0.027 A 
ATOM      5  C5  DEN d   1      -0.203  -2.881  -0.179  0.00  0.00    -0.003 A 
ATOM      6  C6  DEN d   1      -1.457  -2.363  -0.365  0.00  0.00     0.001 A 
ATOM      7  C7  DEN d   1      -1.950  -2.217  -1.635  0.00  0.00     0.017 A 
ATOM      8  C8  DEN d   1      -1.130  -2.557  -2.704  0.00  0.00    -0.094 A 
ATOM      9  C9  DEN d   1       0.130  -3.091  -2.495  0.00  0.00    -0.072 A 
ENDROOT
TORSDOF 0
ENDMDL
