MODEL 1
REMARK minimizedAffinity 19.8152924
REMARK minimizedRMSD -1
REMARK  0 active torsions:
REMARK  status: ('A' for Active; 'I' for Inactive)
ROOT
ATOM      1  C1  DEN d   1      -2.979  -2.604  -0.185  0.00  0.00     0.130 A 
ATOM      2  C2  DEN d   1      -1.772  -1.797  -0.024  0.00  0.00    -0.031 A 
ATOM      3  C3  DEN d   1      -0.814  -2.567   0.794  0.00  0.00     0.027 A 
ATOM      4  C4  DEN d   1      -1.078  -4.919   1.819  0.00  0.00     0.027 A 
ATOM      5  C5  DEN d   1      -1.931  -5.990   1.965  0.00  0.00    -0.003 A 
ATOM      6  C6  DEN d   1      -3.195  -5.995   1.437  0.00  0.00     0.001 A 
ATOM      7  C7  DEN d   1      -3.626  -4.923   0.700  0.00  0.00     0.017 A 
ATOM      8  C8  DEN d   1      -2.775  -3.836   0.555  0.00  0.00    -0.094 A 
ATOM      9  C9  DEN d   1      -1.496  -3.856   1.086  0.00  0.00    -0.072 A 
ENDROOT
TORSDOF 0
ENDMDL
