MODEL 1
REMARK minimizedAffinity 14.565588
REMARK minimizedRMSD -1
REMARK  0 active torsions:
REMARK  status: ('A' for Active; 'I' for Inactive)
ROOT
ATOM      1  C1  DEN d   1       1.660   0.111   4.214  0.00  0.00     0.130 A 
ATOM      2  C2  DEN d   1       0.552   0.710   4.953  0.00  0.00    -0.031 A 
ATOM      3  C3  DEN d   1       0.071   1.878   4.188  0.00  0.00     0.027 A 
ATOM      4  C4  DEN d   1       0.927   2.809   1.940  0.00  0.00     0.027 A 
ATOM      5  C5  DEN d   1       1.857   2.644   0.938  0.00  0.00    -0.003 A 
ATOM      6  C6  DEN d   1       2.801   1.653   0.974  0.00  0.00     0.001 A 
ATOM      7  C7  DEN d   1       2.807   0.759   2.012  0.00  0.00     0.017 A 
ATOM      8  C8  DEN d   1       1.877   0.923   3.030  0.00  0.00    -0.094 A 
ATOM      9  C9  DEN d   1       0.923   1.925   2.969  0.00  0.00    -0.072 A 
ENDROOT
TORSDOF 0
ENDMDL
