MODEL 1
REMARK minimizedAffinity 4.50734901
REMARK minimizedRMSD -1
REMARK  0 active torsions:
REMARK  status: ('A' for Active; 'I' for Inactive)
ROOT
ATOM      1  C1  DEN d   1       3.006   2.272  -5.937  0.00  0.00     0.130 A 
ATOM      2  C2  DEN d   1       4.089   1.293  -5.967  0.00  0.00    -0.031 A 
ATOM      3  C3  DEN d   1       5.369   2.028  -5.998  0.00  0.00     0.027 A 
ATOM      4  C4  DEN d   1       5.778   4.575  -5.997  0.00  0.00     0.027 A 
ATOM      5  C5  DEN d   1       5.168   5.810  -5.989  0.00  0.00    -0.003 A 
ATOM      6  C6  DEN d   1       3.805   5.951  -5.997  0.00  0.00     0.001 A 
ATOM      7  C7  DEN d   1       3.007   4.838  -5.968  0.00  0.00     0.017 A 
ATOM      8  C8  DEN d   1       3.615   3.590  -5.984  0.00  0.00    -0.094 A 
ATOM      9  C9  DEN d   1       4.994   3.468  -5.963  0.00  0.00    -0.072 A 
ENDROOT
TORSDOF 0
ENDMDL
