MODEL 1
REMARK minimizedAffinity -3.42988682
REMARK minimizedRMSD -1
REMARK  0 active torsions:
REMARK  status: ('A' for Active; 'I' for Inactive)
ROOT
ATOM      1  C4' PXY d   1      -0.024  -2.771  -0.719  0.00  0.00     0.077 C 
ATOM      2  C1' PXY d   1       1.717   2.537   0.768  0.00  0.00     0.077 C 
ATOM      3  C1  PXY d   1       1.248   1.149   0.377  0.00  0.00    -0.082 A 
ATOM      4  C2  PXY d   1       1.978   0.096   0.706  0.00  0.00     0.003 A 
ATOM      5  C3  PXY d   1       1.585  -1.164   0.333  0.00  0.00     0.003 A 
ATOM      6  C4  PXY d   1       0.406  -1.352  -0.337  0.00  0.00    -0.082 A 
ATOM      7  C5  PXY d   1      -0.350  -0.283  -0.667  0.00  0.00     0.003 A 
ATOM      8  C6  PXY d   1       0.087   0.991  -0.315  0.00  0.00     0.003 A 
ENDROOT
TORSDOF 0
ENDMDL
