MODEL 1
REMARK minimizedAffinity -0.159845427
REMARK minimizedRMSD -1
REMARK  0 active torsions:
REMARK  status: ('A' for Active; 'I' for Inactive)
ROOT
ATOM      1  C4' PXY d   1      -1.921   1.461  -0.439  0.00  0.00     0.077 C 
ATOM      2  C1' PXY d   1       2.828  -1.810  -0.041  0.00  0.00     0.077 C 
ATOM      3  C1  PXY d   1       1.587  -0.944  -0.137  0.00  0.00    -0.082 A 
ATOM      4  C2  PXY d   1       0.453  -1.472  -0.568  0.00  0.00     0.003 A 
ATOM      5  C3  PXY d   1      -0.670  -0.695  -0.690  0.00  0.00     0.003 A 
ATOM      6  C4  PXY d   1      -0.646   0.622  -0.318  0.00  0.00    -0.082 A 
ATOM      7  C5  PXY d   1       0.505   1.165   0.133  0.00  0.00     0.003 A 
ATOM      8  C6  PXY d   1       1.644   0.370   0.211  0.00  0.00     0.003 A 
ENDROOT
TORSDOF 0
ENDMDL
