MODEL 1
REMARK minimizedAffinity -2.89455056
REMARK minimizedRMSD -1
REMARK  0 active torsions:
REMARK  status: ('A' for Active; 'I' for Inactive)
ROOT
ATOM      1  C4' PXY d   1      -2.714   0.584   0.161  0.00  0.00     0.077 C 
ATOM      2  C1' PXY d   1       2.740  -1.070  -0.806  0.00  0.00     0.077 C 
ATOM      3  C1  PXY d   1       1.314  -0.624  -0.549  0.00  0.00    -0.082 A 
ATOM      4  C2  PXY d   1       0.393  -1.524  -0.244  0.00  0.00     0.003 A 
ATOM      5  C3  PXY d   1      -0.908  -1.142  -0.040  0.00  0.00     0.003 A 
ATOM      6  C4  PXY d   1      -1.259   0.180  -0.097  0.00  0.00    -0.082 A 
ATOM      7  C5  PXY d   1      -0.323   1.105  -0.397  0.00  0.00     0.003 A 
ATOM      8  C6  PXY d   1       0.984   0.692  -0.641  0.00  0.00     0.003 A 
ENDROOT
TORSDOF 0
ENDMDL
