MODEL 1
REMARK minimizedAffinity -0.410149604
REMARK minimizedRMSD -1
REMARK  0 active torsions:
REMARK  status: ('A' for Active; 'I' for Inactive)
ROOT
ATOM      1  C4' PXY d   1      -1.836   0.872  -0.136  0.00  0.00     0.077 C 
ATOM      2  C1' PXY d   1       3.332  -1.702  -0.423  0.00  0.00     0.077 C 
ATOM      3  C1  PXY d   1       1.982  -1.016  -0.342  0.00  0.00    -0.082 A 
ATOM      4  C2  PXY d   1       0.876  -1.742  -0.387  0.00  0.00     0.003 A 
ATOM      5  C3  PXY d   1      -0.353  -1.136  -0.346  0.00  0.00     0.003 A 
ATOM      6  C4  PXY d   1      -0.452   0.222  -0.206  0.00  0.00    -0.082 A 
ATOM      7  C5  PXY d   1       0.672   0.969  -0.148  0.00  0.00     0.003 A 
ATOM      8  C6  PXY d   1       1.910   0.338  -0.232  0.00  0.00     0.003 A 
ENDROOT
TORSDOF 0
ENDMDL
