MODEL 1
REMARK minimizedAffinity -4.70359755
REMARK minimizedRMSD -1
REMARK  0 active torsions:
REMARK  status: ('A' for Active; 'I' for Inactive)
ROOT
ATOM      1  C4' PXY d   1      -1.721   0.409  -0.230  0.00  0.00     0.077 C 
ATOM      2  C1' PXY d   1       3.781  -1.131   0.652  0.00  0.00     0.077 C 
ATOM      3  C1  PXY d   1       2.336  -0.737   0.412  0.00  0.00    -0.082 A 
ATOM      4  C2  PXY d   1       1.961   0.518   0.597  0.00  0.00     0.003 A 
ATOM      5  C3  PXY d   1       0.652   0.885   0.416  0.00  0.00     0.003 A 
ATOM      6  C4  PXY d   1      -0.271  -0.032  -0.010  0.00  0.00    -0.082 A 
ATOM      7  C5  PXY d   1       0.106  -1.312  -0.211  0.00  0.00     0.003 A 
ATOM      8  C6  PXY d   1       1.431  -1.673   0.018  0.00  0.00     0.003 A 
ENDROOT
TORSDOF 0
ENDMDL
