MODEL 1
REMARK minimizedAffinity -4.65528536
REMARK minimizedRMSD -1
REMARK  0 active torsions:
REMARK  status: ('A' for Active; 'I' for Inactive)
ROOT
ATOM      1  C4' PXY d   1      -1.503   1.234  -0.486  0.00  0.00     0.077 C 
ATOM      2  C1' PXY d   1       3.425  -1.429   0.943  0.00  0.00     0.077 C 
ATOM      3  C1  PXY d   1       2.137  -0.720   0.575  0.00  0.00    -0.082 A 
ATOM      4  C2  PXY d   1       1.066  -1.431   0.261  0.00  0.00     0.003 A 
ATOM      5  C3  PXY d   1      -0.098  -0.806  -0.105  0.00  0.00     0.003 A 
ATOM      6  C4  PXY d   1      -0.183   0.561  -0.099  0.00  0.00    -0.082 A 
ATOM      7  C5  PXY d   1       0.902   1.293   0.231  0.00  0.00     0.003 A 
ATOM      8  C6  PXY d   1       2.087   0.640   0.560  0.00  0.00     0.003 A 
ENDROOT
TORSDOF 0
ENDMDL
