MODEL 1
REMARK minimizedAffinity -3.11038852
REMARK minimizedRMSD -1
REMARK  0 active torsions:
REMARK  status: ('A' for Active; 'I' for Inactive)
ROOT
ATOM      1  C4' PXY d   1       3.002   2.472  -0.219  0.00  0.00     0.077 C 
ATOM      2  C1' PXY d   1       0.435  -2.700  -0.492  0.00  0.00     0.077 C 
ATOM      3  C1  PXY d   1       1.120  -1.349  -0.416  0.00  0.00    -0.082 A 
ATOM      4  C2  PXY d   1       0.390  -0.253  -0.282  0.00  0.00     0.003 A 
ATOM      5  C3  PXY d   1       0.991   0.979  -0.244  0.00  0.00     0.003 A 
ATOM      6  C4  PXY d   1       2.355   1.086  -0.290  0.00  0.00    -0.082 A 
ATOM      7  C5  PXY d   1       3.107  -0.028  -0.416  0.00  0.00     0.003 A 
ATOM      8  C6  PXY d   1       2.476  -1.266  -0.494  0.00  0.00     0.003 A 
ENDROOT
TORSDOF 0
ENDMDL
