MODEL 1
REMARK minimizedAffinity -4.15814829
REMARK minimizedRMSD -1
REMARK  0 active torsions:
REMARK  status: ('A' for Active; 'I' for Inactive)
ROOT
ATOM      1  C4' PXY d   1      -1.889   0.804  -0.284  0.00  0.00     0.077 C 
ATOM      2  C1' PXY d   1       3.221  -1.786   0.490  0.00  0.00     0.077 C 
ATOM      3  C1  PXY d   1       1.885  -1.096   0.294  0.00  0.00    -0.082 A 
ATOM      4  C2  PXY d   1       0.796  -1.822   0.104  0.00  0.00     0.003 A 
ATOM      5  C3  PXY d   1      -0.415  -1.214  -0.107  0.00  0.00     0.003 A 
ATOM      6  C4  PXY d   1      -0.520   0.150  -0.072  0.00  0.00    -0.082 A 
ATOM      7  C5  PXY d   1       0.585   0.898   0.132  0.00  0.00     0.003 A 
ATOM      8  C6  PXY d   1       1.811   0.263   0.303  0.00  0.00     0.003 A 
ENDROOT
TORSDOF 0
ENDMDL
