MODEL 1
REMARK minimizedAffinity -3.97726345
REMARK minimizedRMSD -1
REMARK  1 active torsions:
REMARK  status: ('A' for Active; 'I' for Inactive)
REMARK    1  A    between atoms: C1_2  and  C2_3 
ROOT
ATOM      1  C2  UNL d   1       0.955  -0.482   0.408  0.00  0.00    -0.076 A 
ATOM      2  C3  UNL d   1      -0.141   0.397   0.365  0.00  0.00     0.004 A 
ATOM      3  C4  UNL d   1       0.047   1.778   0.350  0.00  0.00    -0.003 A 
ATOM      4  C5  UNL d   1       1.335   2.302   0.376  0.00  0.00     0.000 A 
ATOM      5  C6  UNL d   1       2.434   1.444   0.401  0.00  0.00     0.000 A 
ATOM      6  C7  UNL d   1       2.262   0.050   0.400  0.00  0.00    -0.073 A 
ATOM      7  C8  UNL d   1       3.483  -0.829   0.434  0.00  0.00     0.078 C 
ENDROOT
BRANCH   1   8
ATOM      8  C1  UNL d   1       0.688  -1.970   0.451  0.00  0.00     0.053 C 
ATOM      9  C   UNL d   1      -0.599  -2.310   1.185  0.00  0.00     0.018 C 
ENDBRANCH   1   8
TORSDOF 1
ENDMDL
