MODEL 1
REMARK minimizedAffinity -5.75332642
REMARK minimizedRMSD -1
REMARK  1 active torsions:
REMARK  status: ('A' for Active; 'I' for Inactive)
REMARK    1  A    between atoms: C1_2  and  C2_3 
ROOT
ATOM      1  C2  UNL d   1       0.147   0.036   0.102  0.00  0.00    -0.076 A 
ATOM      2  C3  UNL d   1       0.414  -1.307   0.418  0.00  0.00     0.004 A 
ATOM      3  C4  UNL d   1       1.702  -1.724   0.751  0.00  0.00    -0.003 A 
ATOM      4  C5  UNL d   1       2.744  -0.804   0.773  0.00  0.00     0.000 A 
ATOM      5  C6  UNL d   1       2.495   0.536   0.479  0.00  0.00     0.000 A 
ATOM      6  C7  UNL d   1       1.199   0.976   0.158  0.00  0.00    -0.073 A 
ATOM      7  C8  UNL d   1       0.988   2.432  -0.157  0.00  0.00     0.078 C 
ENDROOT
BRANCH   1   8
ATOM      8  C1  UNL d   1      -1.264   0.425  -0.277  0.00  0.00     0.053 C 
ATOM      9  C   UNL d   1      -1.655  -0.077  -1.659  0.00  0.00     0.018 C 
ENDBRANCH   1   8
TORSDOF 1
ENDMDL
