MODEL 1
REMARK minimizedAffinity -6.39599276
REMARK minimizedRMSD -1
REMARK  1 active torsions:
REMARK  status: ('A' for Active; 'I' for Inactive)
REMARK    1  A    between atoms: C1_2  and  C2_3 
ROOT
ATOM      1  C2  UNL d   1       0.449  -0.391   0.538  0.00  0.00    -0.076 A 
ATOM      2  C3  UNL d   1       1.047   0.842   0.228  0.00  0.00     0.004 A 
ATOM      3  C4  UNL d   1       2.395   1.073   0.498  0.00  0.00    -0.003 A 
ATOM      4  C5  UNL d   1       3.167   0.074   1.082  0.00  0.00     0.000 A 
ATOM      5  C6  UNL d   1       2.593  -1.162   1.380  0.00  0.00     0.000 A 
ATOM      6  C7  UNL d   1       1.240  -1.417   1.099  0.00  0.00    -0.073 A 
ATOM      7  C8  UNL d   1       0.672  -2.765   1.448  0.00  0.00     0.078 C 
ENDROOT
BRANCH   1   8
ATOM      8  C1  UNL d   1      -1.024  -0.575   0.248  0.00  0.00     0.053 C 
ATOM      9  C   UNL d   1      -1.385  -0.209  -1.183  0.00  0.00     0.018 C 
ENDBRANCH   1   8
TORSDOF 1
ENDMDL
