MODEL 1
REMARK minimizedAffinity -0.992196202
REMARK minimizedRMSD -1
REMARK  1 active torsions:
REMARK  status: ('A' for Active; 'I' for Inactive)
REMARK    1  A    between atoms: C1_2  and  C2_3 
ROOT
ATOM      1  C2  UNL d   1       1.433  -0.714   0.505  0.00  0.00    -0.076 A 
ATOM      2  C3  UNL d   1       1.014   0.627   0.441  0.00  0.00     0.004 A 
ATOM      3  C4  UNL d   1      -0.337   0.961   0.519  0.00  0.00    -0.003 A 
ATOM      4  C5  UNL d   1      -1.291  -0.040   0.664  0.00  0.00     0.000 A 
ATOM      5  C6  UNL d   1      -0.892  -1.373   0.748  0.00  0.00     0.000 A 
ATOM      6  C7  UNL d   1       0.467  -1.726   0.687  0.00  0.00    -0.073 A 
ATOM      7  C8  UNL d   1       0.840  -3.181   0.776  0.00  0.00     0.078 C 
ENDROOT
BRANCH   1   8
ATOM      8  C1  UNL d   1       2.909  -1.018   0.387  0.00  0.00     0.053 C 
ATOM      9  C   UNL d   1       3.722  -0.406   1.517  0.00  0.00     0.018 C 
ENDBRANCH   1   8
TORSDOF 1
ENDMDL
