MODEL 1
REMARK minimizedAffinity -3.57188535
REMARK minimizedRMSD -1
REMARK  0 active torsions:
REMARK  status: ('A' for Active; 'I' for Inactive)
ROOT
ATOM      1  N1  IND d   1       1.712  -1.012   1.806  0.00  0.00    -0.196 N 
ATOM      2  C2  IND d   1       1.652  -0.734   3.143  0.00  0.00     0.054 A 
ATOM      3  C3  IND d   1       0.489  -0.112   3.442  0.00  0.00    -0.031 A 
ATOM      4  C4  IND d   1      -1.502   0.457   1.913  0.00  0.00     0.051 A 
ATOM      5  C5  IND d   1      -1.897   0.431   0.605  0.00  0.00    -0.031 A 
ATOM      6  C6  IND d   1      -1.095  -0.091  -0.389  0.00  0.00     0.015 A 
ATOM      7  C7  IND d   1       0.134  -0.618  -0.109  0.00  0.00    -0.016 A 
ATOM      8  C8  IND d   1       0.542  -0.587   1.217  0.00  0.00    -0.047 A 
ATOM      9  C9  IND d   1      -0.250  -0.020   2.223  0.00  0.00    -0.096 A 
ATOM     10  HN1 IND d   1       2.370  -1.389   1.401  0.00  0.00     0.298 HD
ENDROOT
TORSDOF 0
ENDMDL
