MODEL 1
REMARK minimizedAffinity -3.75046802
REMARK minimizedRMSD -1
REMARK  0 active torsions:
REMARK  status: ('A' for Active; 'I' for Inactive)
ROOT
ATOM      1  N1  IND d   1      -0.836  -0.238   0.550  0.00  0.00    -0.196 N 
ATOM      2  C2  IND d   1      -1.633   0.872   0.599  0.00  0.00     0.054 A 
ATOM      3  C3  IND d   1      -1.476   1.614  -0.520  0.00  0.00    -0.031 A 
ATOM      4  C4  IND d   1      -0.042   1.144  -2.606  0.00  0.00     0.051 A 
ATOM      5  C5  IND d   1       0.887   0.272  -3.101  0.00  0.00    -0.031 A 
ATOM      6  C6  IND d   1       1.295  -0.838  -2.390  0.00  0.00     0.015 A 
ATOM      7  C7  IND d   1       0.779  -1.125  -1.158  0.00  0.00    -0.016 A 
ATOM      8  C8  IND d   1      -0.159  -0.238  -0.650  0.00  0.00    -0.047 A 
ATOM      9  C9  IND d   1      -0.546   0.913  -1.348  0.00  0.00    -0.096 A 
ATOM     10  HN1 IND d   1      -0.769  -0.835   1.165  0.00  0.00     0.298 HD
ENDROOT
TORSDOF 0
ENDMDL
