MODEL 1
REMARK minimizedAffinity -2.5572021
REMARK minimizedRMSD -1
REMARK  0 active torsions:
REMARK  status: ('A' for Active; 'I' for Inactive)
ROOT
ATOM      1  N1  IND d   1       0.119   0.671   2.534  0.00  0.00    -0.196 N 
ATOM      2  C2  IND d   1      -1.077   0.579   3.189  0.00  0.00     0.054 A 
ATOM      3  C3  IND d   1      -2.072   0.303   2.317  0.00  0.00    -0.031 A 
ATOM      4  C4  IND d   1      -1.950  -0.140  -0.216  0.00  0.00     0.051 A 
ATOM      5  C5  IND d   1      -1.080  -0.132  -1.270  0.00  0.00    -0.031 A 
ATOM      6  C6  IND d   1       0.262   0.147  -1.107  0.00  0.00     0.015 A 
ATOM      7  C7  IND d   1       0.788   0.418   0.125  0.00  0.00    -0.016 A 
ATOM      8  C8  IND d   1      -0.094   0.418   1.196  0.00  0.00    -0.047 A 
ATOM      9  C9  IND d   1      -1.464   0.178   1.030  0.00  0.00    -0.096 A 
ATOM     10  HN1 IND d   1       0.876   0.855   2.896  0.00  0.00     0.298 HD
ENDROOT
TORSDOF 0
ENDMDL
