MODEL 1
REMARK minimizedAffinity -3.57625079
REMARK minimizedRMSD -1
REMARK  0 active torsions:
REMARK  status: ('A' for Active; 'I' for Inactive)
ROOT
ATOM      1  N1  IND d   1      -0.387   1.128  -3.074  0.00  0.00    -0.196 N 
ATOM      2  C2  IND d   1       0.627   0.610  -3.831  0.00  0.00     0.054 A 
ATOM      3  C3  IND d   1       1.389  -0.224  -3.089  0.00  0.00    -0.031 A 
ATOM      4  C4  IND d   1       1.094  -0.965  -0.641  0.00  0.00     0.051 A 
ATOM      5  C5  IND d   1       0.334  -0.733   0.471  0.00  0.00    -0.031 A 
ATOM      6  C6  IND d   1      -0.729   0.147   0.457  0.00  0.00     0.015 A 
ATOM      7  C7  IND d   1      -1.079   0.823  -0.678  0.00  0.00    -0.016 A 
ATOM      8  C8  IND d   1      -0.305   0.595  -1.807  0.00  0.00    -0.047 A 
ATOM      9  C9  IND d   1       0.801  -0.265  -1.787  0.00  0.00    -0.096 A 
ATOM     10  HN1 IND d   1      -0.977   1.693  -3.344  0.00  0.00     0.298 HD
ENDROOT
TORSDOF 0
ENDMDL
