MODEL 1
REMARK minimizedAffinity -3.82935381
REMARK minimizedRMSD -1
REMARK  0 active torsions:
REMARK  status: ('A' for Active; 'I' for Inactive)
ROOT
ATOM      1  N1  IND d   1      -1.127  -0.703   0.294  0.00  0.00    -0.196 N 
ATOM      2  C2  IND d   1      -1.506   0.573   0.607  0.00  0.00     0.054 A 
ATOM      3  C3  IND d   1      -0.987   1.449  -0.283  0.00  0.00    -0.031 A 
ATOM      4  C4  IND d   1       0.424   0.999  -2.389  0.00  0.00     0.051 A 
ATOM      5  C5  IND d   1       1.055  -0.006  -3.069  0.00  0.00    -0.031 A 
ATOM      6  C6  IND d   1       0.986  -1.321  -2.656  0.00  0.00     0.015 A 
ATOM      7  C7  IND d   1       0.272  -1.683  -1.549  0.00  0.00    -0.016 A 
ATOM      8  C8  IND d   1      -0.363  -0.665  -0.852  0.00  0.00    -0.047 A 
ATOM      9  C9  IND d   1      -0.262   0.676  -1.242  0.00  0.00    -0.096 A 
ATOM     10  HN1 IND d   1      -1.332  -1.410   0.738  0.00  0.00     0.298 HD
ENDROOT
TORSDOF 0
ENDMDL
