MODEL 1
REMARK minimizedAffinity 2.4190383
REMARK minimizedRMSD -1
REMARK  0 active torsions:
REMARK  status: ('A' for Active; 'I' for Inactive)
ROOT
ATOM      1  N1  IND d   1       1.305  -0.545  -2.383  0.00  0.00    -0.196 N 
ATOM      2  C2  IND d   1       0.924  -0.039  -3.595  0.00  0.00     0.054 A 
ATOM      3  C3  IND d   1      -0.266   0.593  -3.487  0.00  0.00    -0.031 A 
ATOM      4  C4  IND d   1      -1.715   1.008  -1.400  0.00  0.00     0.051 A 
ATOM      5  C5  IND d   1      -1.799   0.706  -0.070  0.00  0.00    -0.031 A 
ATOM      6  C6  IND d   1      -0.832  -0.041   0.571  0.00  0.00     0.015 A 
ATOM      7  C7  IND d   1       0.266  -0.507  -0.096  0.00  0.00    -0.016 A 
ATOM      8  C8  IND d   1       0.351  -0.208  -1.448  0.00  0.00    -0.047 A 
ATOM      9  C9  IND d   1      -0.648   0.514  -2.113  0.00  0.00    -0.096 A 
ATOM     10  HN1 IND d   1       2.020  -0.997  -2.231  0.00  0.00     0.298 HD
ENDROOT
TORSDOF 0
ENDMDL
