MODEL 1
REMARK minimizedAffinity -3.5413115
REMARK minimizedRMSD -1
REMARK  0 active torsions:
REMARK  status: ('A' for Active; 'I' for Inactive)
ROOT
ATOM      1  N1  IND d   1       0.726   1.318  -1.863  0.00  0.00    -0.196 N 
ATOM      2  C2  IND d   1       1.279   0.151  -2.310  0.00  0.00     0.054 A 
ATOM      3  C3  IND d   1       0.734  -0.905  -1.664  0.00  0.00    -0.031 A 
ATOM      4  C4  IND d   1      -1.150  -0.956   0.089  0.00  0.00     0.051 A 
ATOM      5  C5  IND d   1      -1.944  -0.136   0.841  0.00  0.00    -0.031 A 
ATOM      6  C6  IND d   1      -1.889   1.238   0.727  0.00  0.00     0.015 A 
ATOM      7  C7  IND d   1      -1.043   1.846  -0.157  0.00  0.00    -0.016 A 
ATOM      8  C8  IND d   1      -0.230   1.017  -0.918  0.00  0.00    -0.047 A 
ATOM      9  C9  IND d   1      -0.251  -0.376  -0.775  0.00  0.00    -0.096 A 
ATOM     10  HN1 IND d   1       0.939   2.108  -2.127  0.00  0.00     0.298 HD
ENDROOT
TORSDOF 0
ENDMDL
