MODEL 1
REMARK minimizedAffinity -0.281566948
REMARK minimizedRMSD -1
REMARK  0 active torsions:
REMARK  status: ('A' for Active; 'I' for Inactive)
ROOT
ATOM      1  N1  IND d   1       1.318  -0.480  -3.678  0.00  0.00    -0.196 N 
ATOM      2  C2  IND d   1       0.927   0.661  -4.322  0.00  0.00     0.054 A 
ATOM      3  C3  IND d   1       0.190   1.438  -3.497  0.00  0.00    -0.031 A 
ATOM      4  C4  IND d   1      -0.412   1.081  -1.020  0.00  0.00     0.051 A 
ATOM      5  C5  IND d   1      -0.311   0.168  -0.007  0.00  0.00    -0.031 A 
ATOM      6  C6  IND d   1       0.353  -1.030  -0.169  0.00  0.00     0.015 A 
ATOM      7  C7  IND d   1       0.955  -1.357  -1.352  0.00  0.00    -0.016 A 
ATOM      8  C8  IND d   1       0.848  -0.436  -2.384  0.00  0.00    -0.047 A 
ATOM      9  C9  IND d   1       0.138   0.763  -2.239  0.00  0.00    -0.096 A 
ATOM     10  HN1 IND d   1       1.779  -1.118  -4.024  0.00  0.00     0.298 HD
ENDROOT
TORSDOF 0
ENDMDL
