MODEL 1
REMARK minimizedAffinity -3.28477454
REMARK minimizedRMSD -1
REMARK  0 active torsions:
REMARK  status: ('A' for Active; 'I' for Inactive)
ROOT
ATOM      1  N1  IND d   1      -0.614  -0.282   0.606  0.00  0.00    -0.196 N 
ATOM      2  C2  IND d   1      -1.433   0.808   0.698  0.00  0.00     0.054 A 
ATOM      3  C3  IND d   1      -1.375   1.538  -0.438  0.00  0.00    -0.031 A 
ATOM      4  C4  IND d   1      -0.082   1.075  -2.615  0.00  0.00     0.051 A 
ATOM      5  C5  IND d   1       0.831   0.219  -3.165  0.00  0.00    -0.031 A 
ATOM      6  C6  IND d   1       1.317  -0.872  -2.472  0.00  0.00     0.015 A 
ATOM      7  C7  IND d   1       0.897  -1.154  -1.203  0.00  0.00    -0.016 A 
ATOM      8  C8  IND d   1      -0.024  -0.283  -0.640  0.00  0.00    -0.047 A 
ATOM      9  C9  IND d   1      -0.489   0.849  -1.322  0.00  0.00    -0.096 A 
ATOM     10  HN1 IND d   1      -0.488  -0.869   1.222  0.00  0.00     0.298 HD
ENDROOT
TORSDOF 0
ENDMDL
