MODEL 1
REMARK minimizedAffinity -3.66696382
REMARK minimizedRMSD -1
REMARK  0 active torsions:
REMARK  status: ('A' for Active; 'I' for Inactive)
ROOT
ATOM      1  N1  IND d   1      -1.897   0.396   0.668  0.00  0.00    -0.196 N 
ATOM      2  C2  IND d   1      -2.044   0.866   1.943  0.00  0.00     0.054 A 
ATOM      3  C3  IND d   1      -0.979   0.515   2.699  0.00  0.00    -0.031 A 
ATOM      4  C4  IND d   1       1.165  -0.739   2.021  0.00  0.00     0.051 A 
ATOM      5  C5  IND d   1       1.741  -1.399   0.972  0.00  0.00    -0.031 A 
ATOM      6  C6  IND d   1       1.122  -1.494  -0.258  0.00  0.00     0.015 A 
ATOM      7  C7  IND d   1      -0.096  -0.920  -0.488  0.00  0.00    -0.016 A 
ATOM      8  C8  IND d   1      -0.687  -0.255   0.576  0.00  0.00    -0.047 A 
ATOM      9  C9  IND d   1      -0.083  -0.192   1.839  0.00  0.00    -0.096 A 
ATOM     10  HN1 IND d   1      -2.466   0.492   0.030  0.00  0.00     0.298 HD
ENDROOT
TORSDOF 0
ENDMDL
