MODEL 1
REMARK minimizedAffinity 6.15402699
REMARK minimizedRMSD -1
REMARK  0 active torsions:
REMARK  status: ('A' for Active; 'I' for Inactive)
ROOT
ATOM      1  C   UNL d   1      -0.131  -3.730  -2.440  0.00  0.00     0.077 C 
ATOM      2  C1  UNL d   1       1.135  -3.271  -3.101  0.00  0.00    -0.074 A 
ATOM      3  C2  UNL d   1       1.206  -3.119  -4.489  0.00  0.00    -0.005 A 
ATOM      4  C3  UNL d   1       2.387  -2.682  -5.089  0.00  0.00     0.006 A 
ATOM      5  C4  UNL d   1       3.507  -2.394  -4.308  0.00  0.00    -0.005 A 
ATOM      6  C5  UNL d   1       3.454  -2.539  -2.918  0.00  0.00    -0.074 A 
ATOM      7  C6  UNL d   1       4.645  -2.225  -2.063  0.00  0.00     0.077 C 
ATOM      8  C7  UNL d   1       2.261  -2.972  -2.322  0.00  0.00    -0.001 A 
ENDROOT
TORSDOF 0
ENDMDL
