MODEL 1
REMARK minimizedAffinity -1.26159048
REMARK minimizedRMSD -1
REMARK  0 active torsions:
REMARK  status: ('A' for Active; 'I' for Inactive)
ROOT
ATOM      1  C   UNL d   1       1.525   4.749  -5.995  0.00  0.00     0.077 C 
ATOM      2  C1  UNL d   1       0.084   4.333  -6.000  0.00  0.00    -0.074 A 
ATOM      3  C2  UNL d   1      -0.273   2.981  -5.995  0.00  0.00    -0.005 A 
ATOM      4  C3  UNL d   1      -1.617   2.608  -5.991  0.00  0.00     0.006 A 
ATOM      5  C4  UNL d   1      -2.616   3.583  -5.990  0.00  0.00    -0.005 A 
ATOM      6  C5  UNL d   1      -2.278   4.940  -5.993  0.00  0.00    -0.074 A 
ATOM      7  C6  UNL d   1      -3.339   5.999  -5.983  0.00  0.00     0.077 C 
ATOM      8  C7  UNL d   1      -0.925   5.306  -5.991  0.00  0.00    -0.001 A 
ENDROOT
TORSDOF 0
ENDMDL
