MODEL 1
REMARK minimizedAffinity 1.84083641
REMARK minimizedRMSD -1
REMARK  0 active torsions:
REMARK  status: ('A' for Active; 'I' for Inactive)
ROOT
ATOM      1  C   UNL d   1       5.213   2.163  -2.667  0.00  0.00     0.077 C 
ATOM      2  C1  UNL d   1       4.301   2.988  -1.809  0.00  0.00    -0.074 A 
ATOM      3  C2  UNL d   1       2.913   2.925  -1.968  0.00  0.00    -0.005 A 
ATOM      4  C3  UNL d   1       2.077   3.692  -1.157  0.00  0.00     0.006 A 
ATOM      5  C4  UNL d   1       2.619   4.528  -0.180  0.00  0.00    -0.005 A 
ATOM      6  C5  UNL d   1       4.004   4.603  -0.006  0.00  0.00    -0.074 A 
ATOM      7  C6  UNL d   1       4.603   5.489   1.046  0.00  0.00     0.077 C 
ATOM      8  C7  UNL d   1       4.838   3.825  -0.820  0.00  0.00    -0.001 A 
ENDROOT
TORSDOF 0
ENDMDL
