MODEL 1
REMARK minimizedAffinity 0.819470227
REMARK minimizedRMSD -1
REMARK  0 active torsions:
REMARK  status: ('A' for Active; 'I' for Inactive)
ROOT
ATOM      1  C   UNL d   1      -3.202   5.985  -5.888  0.00  0.00     0.077 C 
ATOM      2  C1  UNL d   1      -1.965   5.138  -5.919  0.00  0.00    -0.074 A 
ATOM      3  C2  UNL d   1      -2.050   3.742  -5.948  0.00  0.00    -0.005 A 
ATOM      4  C3  UNL d   1      -0.891   2.968  -5.987  0.00  0.00     0.006 A 
ATOM      5  C4  UNL d   1       0.363   3.579  -5.998  0.00  0.00    -0.005 A 
ATOM      6  C5  UNL d   1       0.468   4.974  -5.971  0.00  0.00    -0.074 A 
ATOM      7  C6  UNL d   1       1.808   5.648  -5.992  0.00  0.00     0.077 C 
ATOM      8  C7  UNL d   1      -0.702   5.745  -5.939  0.00  0.00    -0.001 A 
ENDROOT
TORSDOF 0
ENDMDL
