MODEL 1
REMARK minimizedAffinity -2.92319322
REMARK minimizedRMSD -1
REMARK  0 active torsions:
REMARK  status: ('A' for Active; 'I' for Inactive)
ROOT
ATOM      1  C   UNL d   1      -3.382   5.964  -5.996  0.00  0.00     0.077 C 
ATOM      2  C1  UNL d   1      -2.456   4.785  -5.989  0.00  0.00    -0.074 A 
ATOM      3  C2  UNL d   1      -2.956   3.478  -5.993  0.00  0.00    -0.005 A 
ATOM      4  C3  UNL d   1      -2.082   2.391  -5.996  0.00  0.00     0.006 A 
ATOM      5  C4  UNL d   1      -0.702   2.598  -5.995  0.00  0.00    -0.005 A 
ATOM      6  C5  UNL d   1      -0.184   3.897  -5.991  0.00  0.00    -0.074 A 
ATOM      7  C6  UNL d   1       1.296   4.138  -6.000  0.00  0.00     0.077 C 
ATOM      8  C7  UNL d   1      -1.068   4.985  -5.996  0.00  0.00    -0.001 A 
ENDROOT
TORSDOF 0
ENDMDL
