MODEL 1
REMARK minimizedAffinity 2.96841145
REMARK minimizedRMSD -1
REMARK  0 active torsions:
REMARK  status: ('A' for Active; 'I' for Inactive)
ROOT
ATOM      1  C   UNL d   1      -2.746  -3.926  -1.416  0.00  0.00     0.077 C 
ATOM      2  C1  UNL d   1      -1.597  -3.158  -1.998  0.00  0.00    -0.074 A 
ATOM      3  C2  UNL d   1      -1.448  -1.789  -1.752  0.00  0.00    -0.005 A 
ATOM      4  C3  UNL d   1      -0.369  -1.091  -2.292  0.00  0.00     0.006 A 
ATOM      5  C4  UNL d   1       0.572  -1.752  -3.083  0.00  0.00    -0.005 A 
ATOM      6  C5  UNL d   1       0.441  -3.121  -3.339  0.00  0.00    -0.074 A 
ATOM      7  C6  UNL d   1       1.448  -3.849  -4.178  0.00  0.00     0.077 C 
ATOM      8  C7  UNL d   1      -0.643  -3.817  -2.787  0.00  0.00    -0.001 A 
ENDROOT
TORSDOF 0
ENDMDL
