MODEL 1
REMARK minimizedAffinity -0.706826985
REMARK minimizedRMSD -1
REMARK  0 active torsions:
REMARK  status: ('A' for Active; 'I' for Inactive)
ROOT
ATOM      1  C   UNL d   1       0.801   2.746  -5.929  0.00  0.00     0.077 C 
ATOM      2  C1  UNL d   1      -0.337   3.724  -5.947  0.00  0.00    -0.074 A 
ATOM      3  C2  UNL d   1      -0.099   5.102  -5.973  0.00  0.00    -0.005 A 
ATOM      4  C3  UNL d   1      -1.167   5.999  -5.999  0.00  0.00     0.006 A 
ATOM      5  C4  UNL d   1      -2.480   5.528  -6.000  0.00  0.00    -0.005 A 
ATOM      6  C5  UNL d   1      -2.737   4.153  -5.975  0.00  0.00    -0.074 A 
ATOM      7  C6  UNL d   1      -4.143   3.630  -5.985  0.00  0.00     0.077 C 
ATOM      8  C7  UNL d   1      -1.659   3.258  -5.956  0.00  0.00    -0.001 A 
ENDROOT
TORSDOF 0
ENDMDL
