MODEL 1
REMARK minimizedAffinity 7.16958618
REMARK minimizedRMSD -1
REMARK  0 active torsions:
REMARK  status: ('A' for Active; 'I' for Inactive)
ROOT
ATOM      1  C   UNL d   1      -0.850  -4.216  -2.429  0.00  0.00     0.077 C 
ATOM      2  C1  UNL d   1       0.513  -3.905  -2.973  0.00  0.00    -0.074 A 
ATOM      3  C2  UNL d   1       1.108  -4.728  -3.934  0.00  0.00    -0.005 A 
ATOM      4  C3  UNL d   1       2.372  -4.421  -4.437  0.00  0.00     0.006 A 
ATOM      5  C4  UNL d   1       3.053  -3.289  -3.985  0.00  0.00    -0.005 A 
ATOM      6  C5  UNL d   1       2.472  -2.454  -3.025  0.00  0.00    -0.074 A 
ATOM      7  C6  UNL d   1       3.185  -1.229  -2.535  0.00  0.00     0.077 C 
ATOM      8  C7  UNL d   1       1.199  -2.766  -2.529  0.00  0.00    -0.001 A 
ENDROOT
TORSDOF 0
ENDMDL
