MODEL 1
REMARK minimizedAffinity 0.484001875
REMARK minimizedRMSD -1
REMARK  0 active torsions:
REMARK  status: ('A' for Active; 'I' for Inactive)
ROOT
ATOM      1  C   UNL d   1      -0.421   2.468  -5.982  0.00  0.00     0.077 C 
ATOM      2  C1  UNL d   1       0.668   3.498  -5.995  0.00  0.00    -0.074 A 
ATOM      3  C2  UNL d   1       0.367   4.864  -5.995  0.00  0.00    -0.005 A 
ATOM      4  C3  UNL d   1       1.391   5.810  -5.997  0.00  0.00     0.006 A 
ATOM      5  C4  UNL d   1       2.725   5.402  -5.999  0.00  0.00    -0.005 A 
ATOM      6  C5  UNL d   1       3.046   4.040  -5.997  0.00  0.00    -0.074 A 
ATOM      7  C6  UNL d   1       4.475   3.584  -5.989  0.00  0.00     0.077 C 
ATOM      8  C7  UNL d   1       2.011   3.095  -5.988  0.00  0.00    -0.001 A 
ENDROOT
TORSDOF 0
ENDMDL
