MODEL 1
REMARK minimizedAffinity -1.82804108
REMARK minimizedRMSD -1
REMARK  0 active torsions:
REMARK  status: ('A' for Active; 'I' for Inactive)
ROOT
ATOM      1  C   UNL d   1       0.030   5.578  -5.894  0.00  0.00     0.077 C 
ATOM      2  C1  UNL d   1       1.380   4.927  -5.924  0.00  0.00    -0.074 A 
ATOM      3  C2  UNL d   1       1.507   3.534  -5.958  0.00  0.00    -0.005 A 
ATOM      4  C3  UNL d   1       2.769   2.943  -5.995  0.00  0.00     0.006 A 
ATOM      5  C4  UNL d   1       3.917   3.737  -6.000  0.00  0.00    -0.005 A 
ATOM      6  C5  UNL d   1       3.810   5.131  -5.967  0.00  0.00    -0.074 A 
ATOM      7  C6  UNL d   1       5.034   5.999  -5.981  0.00  0.00     0.077 C 
ATOM      8  C7  UNL d   1       2.538   5.718  -5.937  0.00  0.00    -0.001 A 
ENDROOT
TORSDOF 0
ENDMDL
