MODEL 1
REMARK minimizedAffinity -2.86637855
REMARK minimizedRMSD -1
REMARK  0 active torsions:
REMARK  status: ('A' for Active; 'I' for Inactive)
ROOT
ATOM      1  C   UNL d   1       2.478   3.748  -5.919  0.00  0.00     0.077 C 
ATOM      2  C1  UNL d   1       1.024   3.383  -5.954  0.00  0.00    -0.074 A 
ATOM      3  C2  UNL d   1       0.618   2.045  -5.961  0.00  0.00    -0.005 A 
ATOM      4  C3  UNL d   1      -0.738   1.721  -5.984  0.00  0.00     0.006 A 
ATOM      5  C4  UNL d   1      -1.701   2.731  -6.000  0.00  0.00    -0.005 A 
ATOM      6  C5  UNL d   1      -1.315   4.075  -5.992  0.00  0.00    -0.074 A 
ATOM      7  C6  UNL d   1      -2.337   5.172  -5.999  0.00  0.00     0.077 C 
ATOM      8  C7  UNL d   1       0.050   4.392  -5.962  0.00  0.00    -0.001 A 
ENDROOT
TORSDOF 0
ENDMDL
