MODEL 1
REMARK minimizedAffinity 1.86483347
REMARK minimizedRMSD -1
REMARK  0 active torsions:
REMARK  status: ('A' for Active; 'I' for Inactive)
ROOT
ATOM      1  C   UNL d   1      -2.181   5.828  -5.771  0.00  0.00     0.077 C 
ATOM      2  C1  UNL d   1      -0.916   5.025  -5.844  0.00  0.00    -0.074 A 
ATOM      3  C2  UNL d   1      -0.954   3.627  -5.890  0.00  0.00    -0.005 A 
ATOM      4  C3  UNL d   1       0.230   2.894  -5.967  0.00  0.00     0.006 A 
ATOM      5  C4  UNL d   1       1.461   3.549  -6.000  0.00  0.00    -0.005 A 
ATOM      6  C5  UNL d   1       1.519   4.946  -5.956  0.00  0.00    -0.074 A 
ATOM      7  C6  UNL d   1       2.834   5.666  -6.000  0.00  0.00     0.077 C 
ATOM      8  C7  UNL d   1       0.325   5.676  -5.885  0.00  0.00    -0.001 A 
ENDROOT
TORSDOF 0
ENDMDL
