MODEL 1
REMARK minimizedAffinity -3.45558405
REMARK minimizedRMSD -1
REMARK  0 active torsions:
REMARK  status: ('A' for Active; 'I' for Inactive)
ROOT
ATOM      1  C   UNL d   1       1.746   4.171  -5.985  0.00  0.00     0.077 C 
ATOM      2  C1  UNL d   1       0.278   3.863  -5.994  0.00  0.00    -0.074 A 
ATOM      3  C2  UNL d   1      -0.179   2.541  -5.990  0.00  0.00    -0.005 A 
ATOM      4  C3  UNL d   1      -1.547   2.270  -5.988  0.00  0.00     0.006 A 
ATOM      5  C4  UNL d   1      -2.471   3.316  -5.991  0.00  0.00    -0.005 A 
ATOM      6  C5  UNL d   1      -2.033   4.644  -5.994  0.00  0.00    -0.074 A 
ATOM      7  C6  UNL d   1      -3.012   5.780  -5.987  0.00  0.00     0.077 C 
ATOM      8  C7  UNL d   1      -0.656   4.908  -5.988  0.00  0.00    -0.001 A 
ENDROOT
TORSDOF 0
ENDMDL
