MODEL 1
REMARK minimizedAffinity 0.0458986051
REMARK minimizedRMSD -1
REMARK  0 active torsions:
REMARK  status: ('A' for Active; 'I' for Inactive)
ROOT
ATOM      1  C   UNL d   1      -0.765   5.840  -5.989  0.00  0.00     0.077 C 
ATOM      2  C1  UNL d   1       0.452   4.964  -5.985  0.00  0.00    -0.074 A 
ATOM      3  C2  UNL d   1       0.335   3.570  -5.993  0.00  0.00    -0.005 A 
ATOM      4  C3  UNL d   1       1.476   2.768  -5.999  0.00  0.00     0.006 A 
ATOM      5  C4  UNL d   1       2.744   3.351  -5.997  0.00  0.00    -0.005 A 
ATOM      6  C5  UNL d   1       2.881   4.743  -5.989  0.00  0.00    -0.074 A 
ATOM      7  C6  UNL d   1       4.237   5.385  -5.997  0.00  0.00     0.077 C 
ATOM      8  C7  UNL d   1       1.730   5.541  -5.990  0.00  0.00    -0.001 A 
ENDROOT
TORSDOF 0
ENDMDL
