MODEL 1
REMARK minimizedAffinity -0.0407537334
REMARK minimizedRMSD -1
REMARK  0 active torsions:
REMARK  status: ('A' for Active; 'I' for Inactive)
ROOT
ATOM      1  C   UNL d   1       4.434   5.922  -5.980  0.00  0.00     0.077 C 
ATOM      2  C1  UNL d   1       3.223   5.037  -5.990  0.00  0.00    -0.074 A 
ATOM      3  C2  UNL d   1       3.351   3.644  -5.986  0.00  0.00    -0.005 A 
ATOM      4  C3  UNL d   1       2.215   2.834  -5.986  0.00  0.00     0.006 A 
ATOM      5  C4  UNL d   1       0.943   3.407  -5.988  0.00  0.00    -0.005 A 
ATOM      6  C5  UNL d   1       0.796   4.798  -5.991  0.00  0.00    -0.074 A 
ATOM      7  C6  UNL d   1      -0.564   5.430  -5.983  0.00  0.00     0.077 C 
ATOM      8  C7  UNL d   1       1.942   5.605  -5.984  0.00  0.00    -0.001 A 
ENDROOT
TORSDOF 0
ENDMDL
