MODEL 1
REMARK minimizedAffinity -2.48764992
REMARK minimizedRMSD -1
REMARK  0 active torsions:
REMARK  status: ('A' for Active; 'I' for Inactive)
ROOT
ATOM      1  C   UNL d   1       3.602   5.045  -5.997  0.00  0.00     0.077 C 
ATOM      2  C1  UNL d   1       2.432   4.106  -6.000  0.00  0.00    -0.074 A 
ATOM      3  C2  UNL d   1       2.623   2.720  -5.984  0.00  0.00    -0.005 A 
ATOM      4  C3  UNL d   1       1.525   1.860  -5.977  0.00  0.00     0.006 A 
ATOM      5  C4  UNL d   1       0.228   2.374  -5.985  0.00  0.00    -0.005 A 
ATOM      6  C5  UNL d   1       0.018   3.757  -5.999  0.00  0.00    -0.074 A 
ATOM      7  C6  UNL d   1      -1.369   4.327  -5.998  0.00  0.00     0.077 C 
ATOM      8  C7  UNL d   1       1.126   4.616  -6.000  0.00  0.00    -0.001 A 
ENDROOT
TORSDOF 0
ENDMDL
