MODEL 1
REMARK minimizedAffinity 1.5294888
REMARK minimizedRMSD -1
REMARK  0 active torsions:
REMARK  status: ('A' for Active; 'I' for Inactive)
ROOT
ATOM      1  C2' OXE d   1       1.843   2.119   0.484  0.00  0.00     0.078 C 
ATOM      2  C1' OXE d   1       3.967   0.879  -0.871  0.00  0.00     0.078 C 
ATOM      3  C1  OXE d   1       2.745   0.048  -0.567  0.00  0.00    -0.078 A 
ATOM      4  C2  OXE d   1       1.730   0.650   0.138  0.00  0.00    -0.078 A 
ATOM      5  C3  OXE d   1       0.558  -0.055   0.397  0.00  0.00     0.003 A 
ATOM      6  C4  OXE d   1       0.466  -1.416   0.082  0.00  0.00    -0.002 A 
ATOM      7  C5  OXE d   1       1.504  -2.059  -0.600  0.00  0.00    -0.002 A 
ATOM      8  C6  OXE d   1       2.631  -1.332  -0.969  0.00  0.00     0.003 A 
ENDROOT
TORSDOF 0
ENDMDL
