MODEL 1
REMARK minimizedAffinity 6.06620789
REMARK minimizedRMSD -1
REMARK  0 active torsions:
REMARK  status: ('A' for Active; 'I' for Inactive)
ROOT
ATOM      1  C2' OXE d   1       2.395  -1.725   0.226  0.00  0.00     0.078 C 
ATOM      2  C1' OXE d   1       4.588  -1.282   1.922  0.00  0.00     0.078 C 
ATOM      3  C1  OXE d   1       3.782  -0.084   1.487  0.00  0.00    -0.078 A 
ATOM      4  C2  OXE d   1       2.739  -0.305   0.619  0.00  0.00    -0.078 A 
ATOM      5  C3  OXE d   1       1.930   0.758   0.230  0.00  0.00     0.003 A 
ATOM      6  C4  OXE d   1       2.260   2.070   0.590  0.00  0.00    -0.002 A 
ATOM      7  C5  OXE d   1       3.342   2.321   1.441  0.00  0.00    -0.002 A 
ATOM      8  C6  OXE d   1       4.086   1.254   1.931  0.00  0.00     0.003 A 
ENDROOT
TORSDOF 0
ENDMDL
