MODEL 1
REMARK minimizedAffinity 5.07395935
REMARK minimizedRMSD -1
REMARK  0 active torsions:
REMARK  status: ('A' for Active; 'I' for Inactive)
ROOT
ATOM      1  C2' OXE d   1       1.142   3.745   0.708  0.00  0.00     0.078 C 
ATOM      2  C1' OXE d   1      -0.507   1.484   0.484  0.00  0.00     0.078 C 
ATOM      3  C1  OXE d   1       0.982   1.284   0.351  0.00  0.00    -0.078 A 
ATOM      4  C2  OXE d   1       1.778   2.403   0.416  0.00  0.00    -0.078 A 
ATOM      5  C3  OXE d   1       3.162   2.268   0.354  0.00  0.00     0.003 A 
ATOM      6  C4  OXE d   1       3.741   1.024   0.074  0.00  0.00    -0.002 A 
ATOM      7  C5  OXE d   1       2.946  -0.121  -0.035  0.00  0.00    -0.002 A 
ATOM      8  C6  OXE d   1       1.571  -0.015   0.143  0.00  0.00     0.003 A 
ENDROOT
TORSDOF 0
ENDMDL
