MODEL 1
REMARK minimizedAffinity 1.51492822
REMARK minimizedRMSD -1
REMARK  0 active torsions:
REMARK  status: ('A' for Active; 'I' for Inactive)
ROOT
ATOM      1  C2' OXE d   1       4.269   1.281   0.167  0.00  0.00     0.078 C 
ATOM      2  C1' OXE d   1       2.580  -0.941  -0.126  0.00  0.00     0.078 C 
ATOM      3  C1  OXE d   1       1.949   0.429  -0.146  0.00  0.00    -0.078 A 
ATOM      4  C2  OXE d   1       2.778   1.508   0.045  0.00  0.00    -0.078 A 
ATOM      5  C3  OXE d   1       2.256   2.797  -0.018  0.00  0.00     0.003 A 
ATOM      6  C4  OXE d   1       0.874   2.998  -0.121  0.00  0.00    -0.002 A 
ATOM      7  C5  OXE d   1       0.008   1.911  -0.277  0.00  0.00    -0.002 A 
ATOM      8  C6  OXE d   1       0.533   0.624  -0.334  0.00  0.00     0.003 A 
ENDROOT
TORSDOF 0
ENDMDL
