MODEL 1
REMARK minimizedAffinity -0.789593577
REMARK minimizedRMSD -1
REMARK  0 active torsions:
REMARK  status: ('A' for Active; 'I' for Inactive)
ROOT
ATOM      1  C2' OXE d   1       4.713   0.725  -2.245  0.00  0.00     0.078 C 
ATOM      2  C1' OXE d   1       3.849  -1.914  -2.658  0.00  0.00     0.078 C 
ATOM      3  C1  OXE d   1       3.596  -1.294  -1.306  0.00  0.00    -0.078 A 
ATOM      4  C2  OXE d   1       4.063  -0.018  -1.098  0.00  0.00    -0.078 A 
ATOM      5  C3  OXE d   1       3.808   0.620   0.112  0.00  0.00     0.003 A 
ATOM      6  C4  OXE d   1       3.215  -0.078   1.171  0.00  0.00    -0.002 A 
ATOM      7  C5  OXE d   1       2.767  -1.391   0.993  0.00  0.00    -0.002 A 
ATOM      8  C6  OXE d   1       2.911  -1.998  -0.250  0.00  0.00     0.003 A 
ENDROOT
TORSDOF 0
ENDMDL
