MODEL 1
REMARK minimizedAffinity 2.90143633
REMARK minimizedRMSD -1
REMARK  0 active torsions:
REMARK  status: ('A' for Active; 'I' for Inactive)
ROOT
ATOM      1  C2' OXE d   1       3.633   3.037   0.379  0.00  0.00     0.078 C 
ATOM      2  C1' OXE d   1       0.990   2.093   0.338  0.00  0.00     0.078 C 
ATOM      3  C1  OXE d   1       2.098   1.078   0.472  0.00  0.00    -0.078 A 
ATOM      4  C2  OXE d   1       3.390   1.545   0.444  0.00  0.00    -0.078 A 
ATOM      5  C3  OXE d   1       4.447   0.657   0.619  0.00  0.00     0.003 A 
ATOM      6  C4  OXE d   1       4.214  -0.723   0.668  0.00  0.00    -0.002 A 
ATOM      7  C5  OXE d   1       2.907  -1.223   0.658  0.00  0.00    -0.002 A 
ATOM      8  C6  OXE d   1       1.839  -0.335   0.603  0.00  0.00     0.003 A 
ENDROOT
TORSDOF 0
ENDMDL
