MODEL 1
REMARK minimizedAffinity 0.10451927
REMARK minimizedRMSD -1
REMARK  0 active torsions:
REMARK  status: ('A' for Active; 'I' for Inactive)
ROOT
ATOM      1  C2' OXE d   1       3.672  -0.035   0.753  0.00  0.00     0.078 C 
ATOM      2  C1' OXE d   1       3.472   2.380  -0.665  0.00  0.00     0.078 C 
ATOM      3  C1  OXE d   1       2.281   1.942   0.150  0.00  0.00    -0.078 A 
ATOM      4  C2  OXE d   1       2.371   0.737   0.804  0.00  0.00    -0.078 A 
ATOM      5  C3  OXE d   1       1.322   0.312   1.614  0.00  0.00     0.003 A 
ATOM      6  C4  OXE d   1       0.118   1.026   1.648  0.00  0.00    -0.002 A 
ATOM      7  C5  OXE d   1      -0.008   2.237   0.958  0.00  0.00    -0.002 A 
ATOM      8  C6  OXE d   1       1.076   2.729   0.240  0.00  0.00     0.003 A 
ENDROOT
TORSDOF 0
ENDMDL
