MODEL 1
REMARK minimizedAffinity 2.43697548
REMARK minimizedRMSD -1
REMARK  0 active torsions:
REMARK  status: ('A' for Active; 'I' for Inactive)
ROOT
ATOM      1  C2' OXE d   1       0.378  -1.210  -1.634  0.00  0.00     0.078 C 
ATOM      2  C1' OXE d   1       1.696  -3.385  -0.445  0.00  0.00     0.078 C 
ATOM      3  C1  OXE d   1       2.213  -2.000  -0.146  0.00  0.00    -0.078 A 
ATOM      4  C2  OXE d   1       1.591  -0.944  -0.769  0.00  0.00    -0.078 A 
ATOM      5  C3  OXE d   1       1.994   0.358  -0.486  0.00  0.00     0.003 A 
ATOM      6  C4  OXE d   1       3.123   0.594   0.307  0.00  0.00    -0.002 A 
ATOM      7  C5  OXE d   1       3.796  -0.469   0.920  0.00  0.00    -0.002 A 
ATOM      8  C6  OXE d   1       3.329  -1.766   0.738  0.00  0.00     0.003 A 
ENDROOT
TORSDOF 0
ENDMDL
