MODEL 1
REMARK minimizedAffinity 4.72238064
REMARK minimizedRMSD -1
REMARK  0 active torsions:
REMARK  status: ('A' for Active; 'I' for Inactive)
ROOT
ATOM      1  C2' OXE d   1       1.343   1.360  -0.453  0.00  0.00     0.078 C 
ATOM      2  C1' OXE d   1       3.736   0.216  -1.373  0.00  0.00     0.078 C 
ATOM      3  C1  OXE d   1       2.572  -0.705  -1.108  0.00  0.00    -0.078 A 
ATOM      4  C2  OXE d   1       1.420  -0.143  -0.614  0.00  0.00    -0.078 A 
ATOM      5  C3  OXE d   1       0.298  -0.941  -0.404  0.00  0.00     0.003 A 
ATOM      6  C4  OXE d   1       0.381  -2.331  -0.545  0.00  0.00    -0.002 A 
ATOM      7  C5  OXE d   1       1.557  -2.929  -1.009  0.00  0.00    -0.002 A 
ATOM      8  C6  OXE d   1       2.646  -2.128  -1.335  0.00  0.00     0.003 A 
ENDROOT
TORSDOF 0
ENDMDL
