MODEL 1
REMARK minimizedAffinity -2.37197709
REMARK minimizedRMSD -1
REMARK  0 active torsions:
REMARK  status: ('A' for Active; 'I' for Inactive)
ROOT
ATOM      1  C   UNL d   1       2.433  -3.625   0.043  0.00  0.00    -0.002 A 
ATOM      2  C1  UNL d   1       1.148  -4.117  -0.140  0.00  0.00     0.010 A 
ATOM      3  C2  UNL d   1       0.379  -3.707  -1.231  0.00  0.00     0.041 A 
ATOM      4  C3  UNL d   1       0.929  -2.787  -2.145  0.00  0.00    -0.075 A 
ATOM      5  S   UNL d   1       0.173  -2.143  -3.555  0.00  0.00     0.015 SA
ATOM      6  C4  UNL d   1       1.538  -1.201  -3.948  0.00  0.00     0.022 A 
ATOM      7  C5  UNL d   1       2.555  -1.361  -3.037  0.00  0.00     0.026 A 
ATOM      8  C6  UNL d   1       2.221  -2.278  -1.983  0.00  0.00    -0.082 A 
ATOM      9  C7  UNL d   1       2.975  -2.712  -0.866  0.00  0.00     0.045 A 
ENDROOT
TORSDOF 0
ENDMDL
