MODEL 1
REMARK minimizedAffinity 7.03761482
REMARK minimizedRMSD -1
REMARK  0 active torsions:
REMARK  status: ('A' for Active; 'I' for Inactive)
ROOT
ATOM      1  C   UNL d   1       5.163  -3.465  -0.258  0.00  0.00    -0.002 A 
ATOM      2  C1  UNL d   1       3.777  -3.440  -0.208  0.00  0.00     0.010 A 
ATOM      3  C2  UNL d   1       3.038  -2.885  -1.254  0.00  0.00     0.041 A 
ATOM      4  C3  UNL d   1       3.722  -2.350  -2.364  0.00  0.00    -0.075 A 
ATOM      5  S   UNL d   1       3.026  -1.620  -3.762  0.00  0.00     0.015 SA
ATOM      6  C4  UNL d   1       4.553  -1.324  -4.459  0.00  0.00     0.022 A 
ATOM      7  C5  UNL d   1       5.580  -1.765  -3.658  0.00  0.00     0.026 A 
ATOM      8  C6  UNL d   1       5.118  -2.364  -2.438  0.00  0.00    -0.082 A 
ATOM      9  C7  UNL d   1       5.839  -2.934  -1.360  0.00  0.00     0.045 A 
ENDROOT
TORSDOF 0
ENDMDL
