MODEL 1
REMARK minimizedAffinity 2.73890424
REMARK minimizedRMSD -1
REMARK  0 active torsions:
REMARK  status: ('A' for Active; 'I' for Inactive)
ROOT
ATOM      1  C   UNL d   1       4.883  -6.000  -2.206  0.00  0.00    -0.002 A 
ATOM      2  C1  UNL d   1       4.576  -5.476  -3.454  0.00  0.00     0.010 A 
ATOM      3  C2  UNL d   1       4.226  -4.132  -3.594  0.00  0.00     0.041 A 
ATOM      4  C3  UNL d   1       4.193  -3.314  -2.448  0.00  0.00    -0.075 A 
ATOM      5  S   UNL d   1       3.794  -1.638  -2.378  0.00  0.00     0.015 SA
ATOM      6  C4  UNL d   1       4.023  -1.577  -0.690  0.00  0.00     0.022 A 
ATOM      7  C5  UNL d   1       4.395  -2.797  -0.176  0.00  0.00     0.026 A 
ATOM      8  C6  UNL d   1       4.499  -3.818  -1.180  0.00  0.00    -0.082 A 
ATOM      9  C7  UNL d   1       4.849  -5.185  -1.072  0.00  0.00     0.045 A 
ENDROOT
TORSDOF 0
ENDMDL
