MODEL 1
REMARK minimizedAffinity 8.09623146
REMARK minimizedRMSD -1
REMARK  0 active torsions:
REMARK  status: ('A' for Active; 'I' for Inactive)
ROOT
ATOM      1  C   UNL d   1       4.289  -2.196  -0.762  0.00  0.00    -0.002 A 
ATOM      2  C1  UNL d   1       4.616  -2.624  -2.041  0.00  0.00     0.010 A 
ATOM      3  C2  UNL d   1       4.030  -3.772  -2.578  0.00  0.00     0.041 A 
ATOM      4  C3  UNL d   1       3.099  -4.489  -1.801  0.00  0.00    -0.075 A 
ATOM      5  S   UNL d   1       2.254  -5.922  -2.251  0.00  0.00     0.015 SA
ATOM      6  C4  UNL d   1       1.437  -6.000  -0.757  0.00  0.00     0.022 A 
ATOM      7  C5  UNL d   1       1.789  -4.965   0.077  0.00  0.00     0.026 A 
ATOM      8  C6  UNL d   1       2.752  -4.077  -0.511  0.00  0.00    -0.082 A 
ATOM      9  C7  UNL d   1       3.364  -2.910   0.005  0.00  0.00     0.045 A 
ENDROOT
TORSDOF 0
ENDMDL
