MODEL 1
REMARK minimizedAffinity 0.445890665
REMARK minimizedRMSD -1
REMARK  0 active torsions:
REMARK  status: ('A' for Active; 'I' for Inactive)
ROOT
ATOM      1  C   UNL d   1       5.394  -3.015  -0.347  0.00  0.00    -0.002 A 
ATOM      2  C1  UNL d   1       4.505  -2.061  -0.819  0.00  0.00     0.010 A 
ATOM      3  C2  UNL d   1       3.762  -2.293  -1.978  0.00  0.00     0.041 A 
ATOM      4  C3  UNL d   1       3.929  -3.514  -2.661  0.00  0.00    -0.075 A 
ATOM      5  S   UNL d   1       3.125  -4.019  -4.100  0.00  0.00     0.015 SA
ATOM      6  C4  UNL d   1       3.943  -5.514  -4.122  0.00  0.00     0.022 A 
ATOM      7  C5  UNL d   1       4.812  -5.642  -3.065  0.00  0.00     0.026 A 
ATOM      8  C6  UNL d   1       4.818  -4.492  -2.204  0.00  0.00    -0.082 A 
ATOM      9  C7  UNL d   1       5.557  -4.225  -1.027  0.00  0.00     0.045 A 
ENDROOT
TORSDOF 0
ENDMDL
