MODEL 1
REMARK minimizedAffinity 8.23491669
REMARK minimizedRMSD -1
REMARK  0 active torsions:
REMARK  status: ('A' for Active; 'I' for Inactive)
ROOT
ATOM      1  C   UNL d   1      -0.387   1.590  -0.887  0.00  0.00    -0.002 A 
ATOM      2  C1  UNL d   1      -0.252   2.162   0.370  0.00  0.00     0.010 A 
ATOM      3  C2  UNL d   1      -0.494   3.523   0.560  0.00  0.00     0.041 A 
ATOM      4  C3  UNL d   1      -0.880   4.308  -0.545  0.00  0.00    -0.075 A 
ATOM      5  S   UNL d   1      -1.230   5.996  -0.549  0.00  0.00     0.015 SA
ATOM      6  C4  UNL d   1      -1.568   5.998  -2.220  0.00  0.00     0.022 A 
ATOM      7  C5  UNL d   1      -1.422   4.749  -2.776  0.00  0.00     0.026 A 
ATOM      8  C6  UNL d   1      -1.023   3.755  -1.820  0.00  0.00    -0.082 A 
ATOM      9  C7  UNL d   1      -0.769   2.371  -1.981  0.00  0.00     0.045 A 
ENDROOT
TORSDOF 0
ENDMDL
