MODEL 1
REMARK minimizedAffinity 12.3456602
REMARK minimizedRMSD -1
REMARK  0 active torsions:
REMARK  status: ('A' for Active; 'I' for Inactive)
ROOT
ATOM      1  C   UNL d   1      -0.434   3.624  -1.277  0.00  0.00    -0.002 A 
ATOM      2  C1  UNL d   1      -0.132   2.791  -0.209  0.00  0.00     0.010 A 
ATOM      3  C2  UNL d   1      -0.935   1.685   0.078  0.00  0.00     0.041 A 
ATOM      4  C3  UNL d   1      -2.055   1.427  -0.736  0.00  0.00    -0.075 A 
ATOM      5  S   UNL d   1      -3.180   0.130  -0.576  0.00  0.00     0.015 SA
ATOM      6  C4  UNL d   1      -4.087   0.651  -1.922  0.00  0.00     0.022 A 
ATOM      7  C5  UNL d   1      -3.558   1.785  -2.491  0.00  0.00     0.026 A 
ATOM      8  C6  UNL d   1      -2.379   2.251  -1.818  0.00  0.00    -0.082 A 
ATOM      9  C7  UNL d   1      -1.546   3.365  -2.082  0.00  0.00     0.045 A 
ENDROOT
TORSDOF 0
ENDMDL
