MODEL 1
REMARK minimizedAffinity -3.83754206
REMARK minimizedRMSD -1
REMARK  1 active torsions:
REMARK  status: ('A' for Active; 'I' for Inactive)
REMARK    1  A    between atoms: C3_4  and  O_7 
ROOT
ATOM      1  C   UNL d   1      -2.295  -3.251   1.130  0.00  0.00    -0.033 A 
ATOM      2  C1  UNL d   1      -1.075  -3.057   1.780  0.00  0.00     0.039 A 
ATOM      3  C2  UNL d   1      -0.293  -1.939   1.482  0.00  0.00    -0.080 A 
ATOM      4  C3  UNL d   1      -0.742  -1.024   0.534  0.00  0.00     0.150 A 
ATOM      5  C4  UNL d   1      -1.958  -1.209  -0.115  0.00  0.00    -0.007 A 
ATOM      6  C5  UNL d   1      -2.737  -2.326   0.183  0.00  0.00     0.039 A 
ENDROOT
BRANCH   4   7
ATOM      7  O   UNL d   1      -0.011   0.079   0.206  0.00  0.00    -0.526 OA
ATOM      8  H5  UNL d   1       0.818   0.060   0.713  0.00  0.00     0.418 HD
ENDBRANCH   4   7
TORSDOF 1
ENDMDL
