MODEL 1
REMARK minimizedAffinity -5.56473017
REMARK minimizedRMSD -1
REMARK  1 active torsions:
REMARK  status: ('A' for Active; 'I' for Inactive)
REMARK    1  A    between atoms: C3_4  and  O_7 
ROOT
ATOM      1  C   UNL d   1      -3.094  -1.595   0.211  0.00  0.00    -0.033 A 
ATOM      2  C1  UNL d   1      -2.749  -0.833  -0.908  0.00  0.00     0.039 A 
ATOM      3  C2  UNL d   1      -1.431  -0.411  -1.088  0.00  0.00    -0.080 A 
ATOM      4  C3  UNL d   1      -0.468  -0.757  -0.144  0.00  0.00     0.150 A 
ATOM      5  C4  UNL d   1      -0.803  -1.519   0.971  0.00  0.00    -0.007 A 
ATOM      6  C5  UNL d   1      -2.120  -1.939   1.149  0.00  0.00     0.039 A 
ENDROOT
BRANCH   4   7
ATOM      7  O   UNL d   1       0.831  -0.363  -0.274  0.00  0.00    -0.526 OA
ATOM      8  H5  UNL d   1       0.909   0.180  -1.076  0.00  0.00     0.418 HD
ENDBRANCH   4   7
TORSDOF 1
ENDMDL
