MODEL 1
REMARK minimizedAffinity -4.56878185
REMARK minimizedRMSD -1
REMARK  1 active torsions:
REMARK  status: ('A' for Active; 'I' for Inactive)
REMARK    1  A    between atoms: C3_4  and  O_7 
ROOT
ATOM      1  C   UNL d   1       0.924   0.096  -0.767  0.00  0.00    -0.033 A 
ATOM      2  C1  UNL d   1       0.468  -0.377   0.466  0.00  0.00     0.039 A 
ATOM      3  C2  UNL d   1      -0.898  -0.570   0.679  0.00  0.00    -0.080 A 
ATOM      4  C3  UNL d   1      -1.797  -0.288  -0.346  0.00  0.00     0.150 A 
ATOM      5  C4  UNL d   1      -1.350   0.179  -1.577  0.00  0.00    -0.007 A 
ATOM      6  C5  UNL d   1       0.015   0.372  -1.789  0.00  0.00     0.039 A 
ENDROOT
BRANCH   4   7
ATOM      7  O   UNL d   1      -3.140  -0.457  -0.183  0.00  0.00    -0.526 OA
ATOM      8  H5  UNL d   1      -3.304  -0.757   0.727  0.00  0.00     0.418 HD
ENDBRANCH   4   7
TORSDOF 1
ENDMDL
