MODEL 1
REMARK minimizedAffinity -4.63522911
REMARK minimizedRMSD -1
REMARK  1 active torsions:
REMARK  status: ('A' for Active; 'I' for Inactive)
REMARK    1  A    between atoms: C3_4  and  O_7 
ROOT
ATOM      1  C   UNL d   1      -2.547  -1.769   1.003  0.00  0.00    -0.033 A 
ATOM      2  C1  UNL d   1      -1.516  -2.252   1.812  0.00  0.00     0.039 A 
ATOM      3  C2  UNL d   1      -0.239  -1.694   1.726  0.00  0.00    -0.080 A 
ATOM      4  C3  UNL d   1      -0.006  -0.655   0.829  0.00  0.00     0.150 A 
ATOM      5  C4  UNL d   1      -1.029  -0.167   0.022  0.00  0.00    -0.007 A 
ATOM      6  C5  UNL d   1      -2.304  -0.726   0.109  0.00  0.00     0.039 A 
ENDROOT
BRANCH   4   7
ATOM      7  O   UNL d   1       1.224  -0.082   0.706  0.00  0.00    -0.526 OA
ATOM      8  H5  UNL d   1       1.838  -0.540   1.304  0.00  0.00     0.418 HD
ENDBRANCH   4   7
TORSDOF 1
ENDMDL
