MODEL 1
REMARK minimizedAffinity -4.05867386
REMARK minimizedRMSD -1
REMARK  1 active torsions:
REMARK  status: ('A' for Active; 'I' for Inactive)
REMARK    1  A    between atoms: C3_4  and  O_7 
ROOT
ATOM      1  C   UNL d   1       0.375   0.104  -0.736  0.00  0.00    -0.033 A 
ATOM      2  C1  UNL d   1      -0.057  -0.199   0.557  0.00  0.00     0.039 A 
ATOM      3  C2  UNL d   1      -1.379  -0.589   0.779  0.00  0.00    -0.080 A 
ATOM      4  C3  UNL d   1      -2.257  -0.674  -0.298  0.00  0.00     0.150 A 
ATOM      5  C4  UNL d   1      -1.832  -0.377  -1.589  0.00  0.00    -0.007 A 
ATOM      6  C5  UNL d   1      -0.512   0.013  -1.809  0.00  0.00     0.039 A 
ENDROOT
BRANCH   4   7
ATOM      7  O   UNL d   1      -3.558  -1.045  -0.129  0.00  0.00    -0.526 OA
ATOM      8  H5  UNL d   1      -3.716  -1.191   0.818  0.00  0.00     0.418 HD
ENDBRANCH   4   7
TORSDOF 1
ENDMDL
