MODEL 1
REMARK minimizedAffinity -5.34429264
REMARK minimizedRMSD -1
REMARK  1 active torsions:
REMARK  status: ('A' for Active; 'I' for Inactive)
REMARK    1  A    between atoms: C3_4  and  O_7 
ROOT
ATOM      1  C   UNL d   1      -0.969  -2.332   1.780  0.00  0.00    -0.033 A 
ATOM      2  C1  UNL d   1      -2.103  -3.066   1.425  0.00  0.00     0.039 A 
ATOM      3  C2  UNL d   1      -3.006  -2.551   0.493  0.00  0.00    -0.080 A 
ATOM      4  C3  UNL d   1      -2.764  -1.303  -0.075  0.00  0.00     0.150 A 
ATOM      5  C4  UNL d   1      -1.635  -0.569   0.271  0.00  0.00    -0.007 A 
ATOM      6  C5  UNL d   1      -0.735  -1.084   1.202  0.00  0.00     0.039 A 
ENDROOT
BRANCH   4   7
ATOM      7  O   UNL d   1      -3.620  -0.757  -0.986  0.00  0.00    -0.526 OA
ATOM      8  H5  UNL d   1      -4.369  -1.364  -1.106  0.00  0.00     0.418 HD
ENDBRANCH   4   7
TORSDOF 1
ENDMDL
