MODEL 1
REMARK minimizedAffinity -5.66594362
REMARK minimizedRMSD -1
REMARK  1 active torsions:
REMARK  status: ('A' for Active; 'I' for Inactive)
REMARK    1  A    between atoms: C3_4  and  O_7 
ROOT
ATOM      1  C   UNL d   1      -2.962  -1.887   0.395  0.00  0.00    -0.033 A 
ATOM      2  C1  UNL d   1      -1.869  -2.367   1.120  0.00  0.00     0.039 A 
ATOM      3  C2  UNL d   1      -0.643  -1.702   1.059  0.00  0.00    -0.080 A 
ATOM      4  C3  UNL d   1      -0.522  -0.561   0.272  0.00  0.00     0.150 A 
ATOM      5  C4  UNL d   1      -1.607  -0.075  -0.451  0.00  0.00    -0.007 A 
ATOM      6  C5  UNL d   1      -2.831  -0.741  -0.390  0.00  0.00     0.039 A 
ENDROOT
BRANCH   4   7
ATOM      7  O   UNL d   1       0.656   0.119   0.177  0.00  0.00    -0.526 OA
ATOM      8  H5  UNL d   1       1.324  -0.348   0.707  0.00  0.00     0.418 HD
ENDBRANCH   4   7
TORSDOF 1
ENDMDL
