MODEL 1
REMARK minimizedAffinity -5.50232124
REMARK minimizedRMSD -1
REMARK  1 active torsions:
REMARK  status: ('A' for Active; 'I' for Inactive)
REMARK    1  A    between atoms: C3_4  and  O_7 
ROOT
ATOM      1  C   UNL d   1      -3.170  -1.844   0.717  0.00  0.00    -0.033 A 
ATOM      2  C1  UNL d   1      -2.067  -2.222   1.486  0.00  0.00     0.039 A 
ATOM      3  C2  UNL d   1      -0.893  -1.467   1.444  0.00  0.00    -0.080 A 
ATOM      4  C3  UNL d   1      -0.835  -0.338   0.631  0.00  0.00     0.150 A 
ATOM      5  C4  UNL d   1      -1.931   0.045  -0.135  0.00  0.00    -0.007 A 
ATOM      6  C5  UNL d   1      -3.102  -0.710  -0.093  0.00  0.00     0.039 A 
ENDROOT
BRANCH   4   7
ATOM      7  O   UNL d   1       0.290   0.427   0.553  0.00  0.00    -0.526 OA
ATOM      8  H5  UNL d   1       0.975   0.025   1.114  0.00  0.00     0.418 HD
ENDBRANCH   4   7
TORSDOF 1
ENDMDL
