MODEL 1
REMARK minimizedAffinity -5.69995356
REMARK minimizedRMSD -1
REMARK  1 active torsions:
REMARK  status: ('A' for Active; 'I' for Inactive)
REMARK    1  A    between atoms: C3_4  and  O_7 
ROOT
ATOM      1  C   UNL d   1      -3.059  -1.688   0.207  0.00  0.00    -0.033 A 
ATOM      2  C1  UNL d   1      -2.025  -2.241   0.965  0.00  0.00     0.039 A 
ATOM      3  C2  UNL d   1      -0.790  -1.596   1.040  0.00  0.00    -0.080 A 
ATOM      4  C3  UNL d   1      -0.602  -0.398   0.355  0.00  0.00     0.150 A 
ATOM      5  C4  UNL d   1      -1.629   0.161  -0.398  0.00  0.00    -0.007 A 
ATOM      6  C5  UNL d   1      -2.861  -0.486  -0.473  0.00  0.00     0.039 A 
ENDROOT
BRANCH   4   7
ATOM      7  O   UNL d   1       0.588   0.266   0.395  0.00  0.00    -0.526 OA
ATOM      8  H5  UNL d   1       1.212  -0.252   0.930  0.00  0.00     0.418 HD
ENDBRANCH   4   7
TORSDOF 1
ENDMDL
