MODEL 1
REMARK minimizedAffinity -5.28087711
REMARK minimizedRMSD -1
REMARK  1 active torsions:
REMARK  status: ('A' for Active; 'I' for Inactive)
REMARK    1  A    between atoms: C3_4  and  O_7 
ROOT
ATOM      1  C   UNL d   1      -3.186  -2.170   0.987  0.00  0.00    -0.033 A 
ATOM      2  C1  UNL d   1      -2.018  -2.508   1.674  0.00  0.00     0.039 A 
ATOM      3  C2  UNL d   1      -0.870  -1.726   1.528  0.00  0.00    -0.080 A 
ATOM      4  C3  UNL d   1      -0.903  -0.611   0.696  0.00  0.00     0.150 A 
ATOM      5  C4  UNL d   1      -2.064  -0.266   0.013  0.00  0.00    -0.007 A 
ATOM      6  C5  UNL d   1      -3.210  -1.048   0.158  0.00  0.00     0.039 A 
ENDROOT
BRANCH   4   7
ATOM      7  O   UNL d   1       0.194   0.179   0.519  0.00  0.00    -0.526 OA
ATOM      8  H5  UNL d   1       0.929  -0.197   1.031  0.00  0.00     0.418 HD
ENDBRANCH   4   7
TORSDOF 1
ENDMDL
