MODEL 1
REMARK minimizedAffinity -4.56502295
REMARK minimizedRMSD -1
REMARK  1 active torsions:
REMARK  status: ('A' for Active; 'I' for Inactive)
REMARK    1  A    between atoms: C3_4  and  O_7 
ROOT
ATOM      1  C   UNL d   1      -3.092  -1.794   0.032  0.00  0.00    -0.033 A 
ATOM      2  C1  UNL d   1      -2.245  -2.344   0.996  0.00  0.00     0.039 A 
ATOM      3  C2  UNL d   1      -0.984  -1.788   1.218  0.00  0.00    -0.080 A 
ATOM      4  C3  UNL d   1      -0.583  -0.684   0.472  0.00  0.00     0.150 A 
ATOM      5  C4  UNL d   1      -1.423  -0.128  -0.487  0.00  0.00    -0.007 A 
ATOM      6  C5  UNL d   1      -2.682  -0.685  -0.709  0.00  0.00     0.039 A 
ENDROOT
BRANCH   4   7
ATOM      7  O   UNL d   1       0.641  -0.110   0.650  0.00  0.00    -0.526 OA
ATOM      8  H5  UNL d   1       1.124  -0.617   1.324  0.00  0.00     0.418 HD
ENDBRANCH   4   7
TORSDOF 1
ENDMDL
