MODEL 1
REMARK minimizedAffinity -5.36689997
REMARK minimizedRMSD -1
REMARK  1 active torsions:
REMARK  status: ('A' for Active; 'I' for Inactive)
REMARK    1  A    between atoms: C3_4  and  O_7 
ROOT
ATOM      1  C   UNL d   1      -3.227  -1.422  -0.011  0.00  0.00    -0.033 A 
ATOM      2  C1  UNL d   1      -2.375  -2.033   0.912  0.00  0.00     0.039 A 
ATOM      3  C2  UNL d   1      -1.056  -1.593   1.044  0.00  0.00    -0.080 A 
ATOM      4  C3  UNL d   1      -0.603  -0.544   0.250  0.00  0.00     0.150 A 
ATOM      5  C4  UNL d   1      -1.447   0.072  -0.668  0.00  0.00    -0.007 A 
ATOM      6  C5  UNL d   1      -2.763  -0.369  -0.800  0.00  0.00     0.039 A 
ENDROOT
BRANCH   4   7
ATOM      7  O   UNL d   1       0.677  -0.083   0.341  0.00  0.00    -0.526 OA
ATOM      8  H5  UNL d   1       1.152  -0.622   0.995  0.00  0.00     0.418 HD
ENDBRANCH   4   7
TORSDOF 1
ENDMDL
