MODEL 1
REMARK minimizedAffinity -5.66423941
REMARK minimizedRMSD -1
REMARK  1 active torsions:
REMARK  status: ('A' for Active; 'I' for Inactive)
REMARK    1  A    between atoms: C3_4  and  O_7 
ROOT
ATOM      1  C   UNL d   1      -0.369  -1.528   1.051  0.00  0.00    -0.033 A 
ATOM      2  C1  UNL d   1      -1.341  -2.462   1.412  0.00  0.00     0.039 A 
ATOM      3  C2  UNL d   1      -2.651  -2.325   0.948  0.00  0.00    -0.080 A 
ATOM      4  C3  UNL d   1      -2.974  -1.252   0.123  0.00  0.00     0.150 A 
ATOM      5  C4  UNL d   1      -2.010  -0.319  -0.245  0.00  0.00    -0.007 A 
ATOM      6  C5  UNL d   1      -0.703  -0.457   0.221  0.00  0.00     0.039 A 
ENDROOT
BRANCH   4   7
ATOM      7  O   UNL d   1      -4.240  -1.074  -0.352  0.00  0.00    -0.526 OA
ATOM      8  H5  UNL d   1      -4.805  -1.778   0.007  0.00  0.00     0.418 HD
ENDBRANCH   4   7
TORSDOF 1
ENDMDL
