MODEL 1
REMARK minimizedAffinity -5.12885809
REMARK minimizedRMSD -1
REMARK  1 active torsions:
REMARK  status: ('A' for Active; 'I' for Inactive)
REMARK    1  A    between atoms: C3_4  and  O_7 
ROOT
ATOM      1  C   UNL d   1      -3.017  -1.351  -0.487  0.00  0.00    -0.033 A 
ATOM      2  C1  UNL d   1      -2.275  -0.769  -1.517  0.00  0.00     0.039 A 
ATOM      3  C2  UNL d   1      -1.019  -0.220  -1.250  0.00  0.00    -0.080 A 
ATOM      4  C3  UNL d   1      -0.517  -0.261   0.048  0.00  0.00     0.150 A 
ATOM      5  C4  UNL d   1      -1.250  -0.843   1.078  0.00  0.00    -0.007 A 
ATOM      6  C5  UNL d   1      -2.504  -1.389   0.810  0.00  0.00     0.039 A 
ENDROOT
BRANCH   4   7
ATOM      7  O   UNL d   1       0.701   0.266   0.358  0.00  0.00    -0.526 OA
ATOM      8  H5  UNL d   1       1.080   0.659  -0.446  0.00  0.00     0.418 HD
ENDBRANCH   4   7
TORSDOF 1
ENDMDL
