MODEL 1
REMARK minimizedAffinity -4.09594297
REMARK minimizedRMSD -1
REMARK  1 active torsions:
REMARK  status: ('A' for Active; 'I' for Inactive)
REMARK    1  A    between atoms: C3_4  and  O_7 
ROOT
ATOM      1  C   UNL d   1      -3.181  -1.317   0.001  0.00  0.00    -0.033 A 
ATOM      2  C1  UNL d   1      -2.687  -0.434  -0.961  0.00  0.00     0.039 A 
ATOM      3  C2  UNL d   1      -1.353  -0.025  -0.917  0.00  0.00    -0.080 A 
ATOM      4  C3  UNL d   1      -0.523  -0.508   0.091  0.00  0.00     0.150 A 
ATOM      5  C4  UNL d   1      -1.007  -1.391   1.050  0.00  0.00    -0.007 A 
ATOM      6  C5  UNL d   1      -2.340  -1.797   1.006  0.00  0.00     0.039 A 
ENDROOT
BRANCH   4   7
ATOM      7  O   UNL d   1       0.785  -0.134   0.178  0.00  0.00    -0.526 OA
ATOM      8  H5  UNL d   1       0.971   0.501  -0.533  0.00  0.00     0.418 HD
ENDBRANCH   4   7
TORSDOF 1
ENDMDL
