MODEL 1
REMARK minimizedAffinity -1.79521811
REMARK minimizedRMSD -1
REMARK  0 active torsions:
REMARK  status: ('A' for Active; 'I' for Inactive)
ROOT
ATOM      1  C   UNL d   1      -2.203   1.733   0.581  0.00  0.00     0.023 A 
ATOM      2  C1  UNL d   1      -1.477   1.560  -0.597  0.00  0.00     0.003 A 
ATOM      3  C2  UNL d   1      -0.697   0.416  -0.777  0.00  0.00     0.048 A 
ATOM      4  C3  UNL d   1      -0.648  -0.552   0.226  0.00  0.00     0.023 A 
ATOM      5  C4  UNL d   1      -1.373  -0.383   1.407  0.00  0.00     0.048 A 
ATOM      6  C5  UNL d   1      -2.151   0.763   1.582  0.00  0.00     0.003 A 
ATOM      7  I   UNL d   1       0.512  -2.256  -0.039  0.00  0.00    -0.146 I 
ENDROOT
TORSDOF 0
ENDMDL
