MODEL 1
REMARK minimizedAffinity -2.69416738
REMARK minimizedRMSD -1
REMARK  0 active torsions:
REMARK  status: ('A' for Active; 'I' for Inactive)
ROOT
ATOM      1  C   UNL d   1      -1.261   1.727   2.352  0.00  0.00     0.023 A 
ATOM      2  C1  UNL d   1      -1.545   0.603   1.576  0.00  0.00     0.003 A 
ATOM      3  C2  UNL d   1      -2.431  -0.367   2.049  0.00  0.00     0.048 A 
ATOM      4  C3  UNL d   1      -3.030  -0.207   3.298  0.00  0.00     0.023 A 
ATOM      5  C4  UNL d   1      -2.750   0.917   4.077  0.00  0.00     0.048 A 
ATOM      6  C5  UNL d   1      -1.862   1.884   3.601  0.00  0.00     0.003 A 
ATOM      7  I   UNL d   1      -4.349  -1.650   4.004  0.00  0.00    -0.146 I 
ENDROOT
TORSDOF 0
ENDMDL
