MODEL 1
REMARK minimizedAffinity 0.126354262
REMARK minimizedRMSD -1
REMARK  0 active torsions:
REMARK  status: ('A' for Active; 'I' for Inactive)
ROOT
ATOM      1  C   UNL d   1       5.235   2.654   4.110  0.00  0.00     0.023 A 
ATOM      2  C1  UNL d   1       5.615   2.515   5.446  0.00  0.00     0.003 A 
ATOM      3  C2  UNL d   1       5.808   1.243   5.989  0.00  0.00     0.048 A 
ATOM      4  C3  UNL d   1       5.621   0.115   5.192  0.00  0.00     0.023 A 
ATOM      5  C4  UNL d   1       5.242   0.249   3.855  0.00  0.00     0.048 A 
ATOM      6  C5  UNL d   1       5.049   1.522   3.316  0.00  0.00     0.003 A 
ATOM      7  I   UNL d   1       5.908  -1.779   5.999  0.00  0.00    -0.146 I 
ENDROOT
TORSDOF 0
ENDMDL
