MODEL 1
REMARK minimizedAffinity -2.57846498
REMARK minimizedRMSD -1
REMARK  0 active torsions:
REMARK  status: ('A' for Active; 'I' for Inactive)
ROOT
ATOM      1  C   UNL d   1       1.647  -1.151  -1.198  0.00  0.00     0.023 A 
ATOM      2  C1  UNL d   1       1.132   0.140  -1.319  0.00  0.00     0.003 A 
ATOM      3  C2  UNL d   1       0.152   0.588  -0.432  0.00  0.00     0.048 A 
ATOM      4  C3  UNL d   1      -0.308  -0.259   0.576  0.00  0.00     0.023 A 
ATOM      5  C4  UNL d   1       0.204  -1.552   0.701  0.00  0.00     0.048 A 
ATOM      6  C5  UNL d   1       1.183  -1.996  -0.190  0.00  0.00     0.003 A 
ATOM      7  I   UNL d   1      -1.767   0.405   1.898  0.00  0.00    -0.146 I 
ENDROOT
TORSDOF 0
ENDMDL
