MODEL 1
REMARK minimizedAffinity -2.7710948
REMARK minimizedRMSD -1
REMARK  0 active torsions:
REMARK  status: ('A' for Active; 'I' for Inactive)
ROOT
ATOM      1  C   UNL d   1       1.217  -0.514  -1.058  0.00  0.00     0.023 A 
ATOM      2  C1  UNL d   1       0.023   0.093  -1.448  0.00  0.00     0.003 A 
ATOM      3  C2  UNL d   1      -0.937   0.427  -0.490  0.00  0.00     0.048 A 
ATOM      4  C3  UNL d   1      -0.696   0.152   0.856  0.00  0.00     0.023 A 
ATOM      5  C4  UNL d   1       0.498  -0.454   1.251  0.00  0.00     0.048 A 
ATOM      6  C5  UNL d   1       1.454  -0.787   0.290  0.00  0.00     0.003 A 
ATOM      7  I   UNL d   1      -2.123   0.649   2.282  0.00  0.00    -0.146 I 
ENDROOT
TORSDOF 0
ENDMDL
