MODEL 1
REMARK minimizedAffinity -3.7764101
REMARK minimizedRMSD -1
REMARK  0 active torsions:
REMARK  status: ('A' for Active; 'I' for Inactive)
ROOT
ATOM      1  C   UNL d   1       1.915  -1.478  -0.936  0.00  0.00     0.023 A 
ATOM      2  C1  UNL d   1       1.060  -2.287  -0.187  0.00  0.00     0.003 A 
ATOM      3  C2  UNL d   1      -0.016  -1.720   0.500  0.00  0.00     0.048 A 
ATOM      4  C3  UNL d   1      -0.232  -0.344   0.432  0.00  0.00     0.023 A 
ATOM      5  C4  UNL d   1       0.620   0.469  -0.318  0.00  0.00     0.048 A 
ATOM      6  C5  UNL d   1       1.695  -0.102  -1.002  0.00  0.00     0.003 A 
ATOM      7  I   UNL d   1      -1.832   0.502   1.452  0.00  0.00    -0.146 I 
ENDROOT
TORSDOF 0
ENDMDL
