MODEL 1
REMARK minimizedAffinity -3.54576898
REMARK minimizedRMSD -1
REMARK  0 active torsions:
REMARK  status: ('A' for Active; 'I' for Inactive)
ROOT
ATOM      1  C   UNL d   1      -1.825   0.261   0.099  0.00  0.00     0.023 A 
ATOM      2  C1  UNL d   1      -1.092   1.314  -0.448  0.00  0.00     0.003 A 
ATOM      3  C2  UNL d   1       0.231   1.112  -0.848  0.00  0.00     0.048 A 
ATOM      4  C3  UNL d   1       0.814  -0.146  -0.700  0.00  0.00     0.023 A 
ATOM      5  C4  UNL d   1       0.084  -1.203  -0.154  0.00  0.00     0.048 A 
ATOM      6  C5  UNL d   1      -1.238  -0.996   0.245  0.00  0.00     0.003 A 
ATOM      7  I   UNL d   1       2.782  -0.449  -1.295  0.00  0.00    -0.146 I 
ENDROOT
TORSDOF 0
ENDMDL
