MODEL 1
REMARK minimizedAffinity -4.00668383
REMARK minimizedRMSD -1
REMARK  0 active torsions:
REMARK  status: ('A' for Active; 'I' for Inactive)
ROOT
ATOM      1  C   UNL d   1      -1.749   2.043   2.062  0.00  0.00     0.023 A 
ATOM      2  C1  UNL d   1      -1.930   0.871   1.327  0.00  0.00     0.003 A 
ATOM      3  C2  UNL d   1      -2.694  -0.173   1.852  0.00  0.00     0.048 A 
ATOM      4  C3  UNL d   1      -3.275  -0.039   3.113  0.00  0.00     0.023 A 
ATOM      5  C4  UNL d   1      -3.097   1.132   3.852  0.00  0.00     0.048 A 
ATOM      6  C5  UNL d   1      -2.332   2.173   3.323  0.00  0.00     0.003 A 
ATOM      7  I   UNL d   1      -4.412  -1.592   3.896  0.00  0.00    -0.146 I 
ENDROOT
TORSDOF 0
ENDMDL
