MODEL 1
REMARK minimizedAffinity -3.52360702
REMARK minimizedRMSD -1
REMARK  0 active torsions:
REMARK  status: ('A' for Active; 'I' for Inactive)
ROOT
ATOM      1  C   UNL d   1       2.153  -0.773  -1.285  0.00  0.00     0.023 A 
ATOM      2  C1  UNL d   1       1.238  -1.735  -0.856  0.00  0.00     0.003 A 
ATOM      3  C2  UNL d   1       0.186  -1.372  -0.011  0.00  0.00     0.048 A 
ATOM      4  C3  UNL d   1       0.055  -0.046   0.399  0.00  0.00     0.023 A 
ATOM      5  C4  UNL d   1       0.967   0.920  -0.029  0.00  0.00     0.048 A 
ATOM      6  C5  UNL d   1       2.018   0.552  -0.872  0.00  0.00     0.003 A 
ATOM      7  I   UNL d   1      -1.509   0.496   1.655  0.00  0.00    -0.146 I 
ENDROOT
TORSDOF 0
ENDMDL
