MODEL 1
REMARK minimizedAffinity -3.53829312
REMARK minimizedRMSD -1
REMARK  0 active torsions:
REMARK  status: ('A' for Active; 'I' for Inactive)
ROOT
ATOM      1  C   UNL d   1      -1.230   1.594   1.693  0.00  0.00     0.023 A 
ATOM      2  C1  UNL d   1      -1.141   0.266   1.277  0.00  0.00     0.003 A 
ATOM      3  C2  UNL d   1      -1.989  -0.697   1.828  0.00  0.00     0.048 A 
ATOM      4  C3  UNL d   1      -2.924  -0.325   2.793  0.00  0.00     0.023 A 
ATOM      5  C4  UNL d   1      -3.017   1.004   3.211  0.00  0.00     0.048 A 
ATOM      6  C5  UNL d   1      -2.166   1.963   2.659  0.00  0.00     0.003 A 
ATOM      7  I   UNL d   1      -4.188  -1.756   3.614  0.00  0.00    -0.146 I 
ENDROOT
TORSDOF 0
ENDMDL
