MODEL 1
REMARK minimizedAffinity -0.6750893
REMARK minimizedRMSD -1
REMARK  0 active torsions:
REMARK  status: ('A' for Active; 'I' for Inactive)
ROOT
ATOM      1  C   UNL d   1       1.832  -1.532  -1.478  0.00  0.00     0.023 A 
ATOM      2  C1  UNL d   1       0.783  -2.246  -0.898  0.00  0.00     0.003 A 
ATOM      3  C2  UNL d   1      -0.115  -1.602  -0.045  0.00  0.00     0.048 A 
ATOM      4  C3  UNL d   1       0.041  -0.243   0.224  0.00  0.00     0.023 A 
ATOM      5  C4  UNL d   1       1.088   0.477  -0.355  0.00  0.00     0.048 A 
ATOM      6  C5  UNL d   1       1.984  -0.172  -1.206  0.00  0.00     0.003 A 
ATOM      7  I   UNL d   1      -1.295   0.719   1.494  0.00  0.00    -0.146 I 
ENDROOT
TORSDOF 0
ENDMDL
