MODEL 1
REMARK minimizedAffinity -2.933671
REMARK minimizedRMSD -1
REMARK  0 active torsions:
REMARK  status: ('A' for Active; 'I' for Inactive)
ROOT
ATOM      1  C   UNL d   1      -2.763   1.312   4.052  0.00  0.00     0.023 A 
ATOM      2  C1  UNL d   1      -1.562   1.905   3.662  0.00  0.00     0.003 A 
ATOM      3  C2  UNL d   1      -0.935   1.504   2.481  0.00  0.00     0.048 A 
ATOM      4  C3  UNL d   1      -1.514   0.509   1.694  0.00  0.00     0.023 A 
ATOM      5  C4  UNL d   1      -2.716  -0.086   2.079  0.00  0.00     0.048 A 
ATOM      6  C5  UNL d   1      -3.339   0.317   3.261  0.00  0.00     0.003 A 
ATOM      7  I   UNL d   1      -0.582  -0.090  -0.065  0.00  0.00    -0.146 I 
ENDROOT
TORSDOF 0
ENDMDL
