MODEL 1
REMARK minimizedAffinity 10.4744616
REMARK minimizedRMSD -1
REMARK  0 active torsions:
REMARK  status: ('A' for Active; 'I' for Inactive)
ROOT
ATOM      1  C   UNL d   1      -0.092   1.385  -0.298  0.00  0.00     0.023 A 
ATOM      2  C1  UNL d   1      -1.297   1.171   0.373  0.00  0.00     0.003 A 
ATOM      3  C2  UNL d   1      -1.918  -0.078   0.314  0.00  0.00     0.048 A 
ATOM      4  C3  UNL d   1      -1.329  -1.110  -0.416  0.00  0.00     0.023 A 
ATOM      5  C4  UNL d   1      -0.123  -0.901  -1.088  0.00  0.00     0.048 A 
ATOM      6  C5  UNL d   1       0.494   0.350  -1.027  0.00  0.00     0.003 A 
ATOM      7  I   UNL d   1      -2.252  -2.970  -0.505  0.00  0.00    -0.146 I 
ENDROOT
TORSDOF 0
ENDMDL
