MODEL 1
REMARK minimizedAffinity -3.40829992
REMARK minimizedRMSD -1
REMARK  0 active torsions:
REMARK  status: ('A' for Active; 'I' for Inactive)
ROOT
ATOM      1  C   UNL d   1       2.272  -1.137  -1.364  0.00  0.00     0.023 A 
ATOM      2  C1  UNL d   1       1.409  -2.058  -0.771  0.00  0.00     0.003 A 
ATOM      3  C2  UNL d   1       0.321  -1.613  -0.017  0.00  0.00     0.048 A 
ATOM      4  C3  UNL d   1       0.101  -0.244   0.137  0.00  0.00     0.023 A 
ATOM      5  C4  UNL d   1       0.962   0.681  -0.455  0.00  0.00     0.048 A 
ATOM      6  C5  UNL d   1       2.049   0.231  -1.207  0.00  0.00     0.003 A 
ATOM      7  I   UNL d   1      -1.517   0.422   1.258  0.00  0.00    -0.146 I 
ENDROOT
TORSDOF 0
ENDMDL
