MODEL 1
REMARK minimizedAffinity -1.15762675
REMARK minimizedRMSD -1
REMARK  0 active torsions:
REMARK  status: ('A' for Active; 'I' for Inactive)
ROOT
ATOM      1  C   UNL d   1       2.915   0.746  -2.770  0.00  0.00     0.023 A 
ATOM      2  C1  UNL d   1       2.949  -0.387  -1.957  0.00  0.00     0.003 A 
ATOM      3  C2  UNL d   1       1.979  -0.567  -0.968  0.00  0.00     0.048 A 
ATOM      4  C3  UNL d   1       0.979   0.389  -0.799  0.00  0.00     0.023 A 
ATOM      5  C4  UNL d   1       0.941   1.524  -1.611  0.00  0.00     0.048 A 
ATOM      6  C5  UNL d   1       1.913   1.700  -2.597  0.00  0.00     0.003 A 
ATOM      7  I   UNL d   1      -0.466   0.123   0.672  0.00  0.00    -0.146 I 
ENDROOT
TORSDOF 0
ENDMDL
