MODEL 1
REMARK minimizedAffinity -3.86909676
REMARK minimizedRMSD -1
REMARK  1 active torsions:
REMARK  status: ('A' for Active; 'I' for Inactive)
REMARK    1  A    between atoms: C1_2  and  C2_3 
ROOT
ATOM      1  C2  UNL d   1      -0.119  -0.371   0.399  0.00  0.00    -0.076 A 
ATOM      2  C3  UNL d   1      -0.133  -1.578  -0.321  0.00  0.00     0.004 A 
ATOM      3  C4  UNL d   1       0.387  -1.649  -1.613  0.00  0.00    -0.003 A 
ATOM      4  C5  UNL d   1       0.930  -0.514  -2.205  0.00  0.00     0.000 A 
ATOM      5  C6  UNL d   1       0.968   0.688  -1.498  0.00  0.00     0.000 A 
ATOM      6  C7  UNL d   1       0.463   0.773  -0.189  0.00  0.00    -0.073 A 
ATOM      7  C8  UNL d   1       0.524   2.095   0.524  0.00  0.00     0.078 C 
ENDROOT
BRANCH   1   8
ATOM      8  C1  UNL d   1      -0.721  -0.348   1.786  0.00  0.00     0.053 C 
ATOM      9  C   UNL d   1      -2.190   0.046   1.776  0.00  0.00     0.018 C 
ENDBRANCH   1   8
TORSDOF 1
ENDMDL
