MODEL 1
REMARK minimizedAffinity 0.521275103
REMARK minimizedRMSD -1
REMARK  1 active torsions:
REMARK  status: ('A' for Active; 'I' for Inactive)
REMARK    1  A    between atoms: C1_2  and  C2_3 
ROOT
ATOM      1  C2  UNL d   1       1.179   0.751  -0.682  0.00  0.00    -0.076 A 
ATOM      2  C3  UNL d   1       0.686   1.867   0.017  0.00  0.00     0.004 A 
ATOM      3  C4  UNL d   1      -0.276   1.720   1.015  0.00  0.00    -0.003 A 
ATOM      4  C5  UNL d   1      -0.760   0.455   1.330  0.00  0.00     0.000 A 
ATOM      5  C6  UNL d   1      -0.269  -0.664   0.658  0.00  0.00     0.000 A 
ATOM      6  C7  UNL d   1       0.713  -0.535  -0.339  0.00  0.00    -0.073 A 
ATOM      7  C8  UNL d   1       1.202  -1.776  -1.035  0.00  0.00     0.078 C 
ENDROOT
BRANCH   1   8
ATOM      8  C1  UNL d   1       2.202   0.975  -1.773  0.00  0.00     0.053 C 
ATOM      9  C   UNL d   1       3.619   1.086  -1.230  0.00  0.00     0.018 C 
ENDBRANCH   1   8
TORSDOF 1
ENDMDL
