MODEL 1
REMARK minimizedAffinity -4.90016699
REMARK minimizedRMSD -1
REMARK  1 active torsions:
REMARK  status: ('A' for Active; 'I' for Inactive)
REMARK    1  A    between atoms: C1_2  and  C2_3 
ROOT
ATOM      1  C2  UNL d   1      -0.005  -0.296   0.751  0.00  0.00    -0.076 A 
ATOM      2  C3  UNL d   1       0.247   0.756  -0.147  0.00  0.00     0.004 A 
ATOM      3  C4  UNL d   1       0.660   0.502  -1.454  0.00  0.00    -0.003 A 
ATOM      4  C5  UNL d   1       0.826  -0.810  -1.885  0.00  0.00     0.000 A 
ATOM      5  C6  UNL d   1       0.564  -1.867  -1.013  0.00  0.00     0.000 A 
ATOM      6  C7  UNL d   1       0.132  -1.627   0.303  0.00  0.00    -0.073 A 
ATOM      7  C8  UNL d   1      -0.131  -2.804   1.202  0.00  0.00     0.078 C 
ENDROOT
BRANCH   1   8
ATOM      8  C1  UNL d   1      -0.423   0.042   2.164  0.00  0.00     0.053 C 
ATOM      9  C   UNL d   1      -1.924   0.251   2.293  0.00  0.00     0.018 C 
ENDBRANCH   1   8
TORSDOF 1
ENDMDL
