MODEL 1
REMARK minimizedAffinity -3.65744734
REMARK minimizedRMSD -1
REMARK  1 active torsions:
REMARK  status: ('A' for Active; 'I' for Inactive)
REMARK    1  A    between atoms: C1_2  and  C2_3 
ROOT
ATOM      1  C2  UNL d   1      -4.653   2.527  -5.647  0.00  0.00    -0.076 A 
ATOM      2  C3  UNL d   1      -5.904   3.167  -5.661  0.00  0.00     0.004 A 
ATOM      3  C4  UNL d   1      -6.000   4.557  -5.627  0.00  0.00    -0.003 A 
ATOM      4  C5  UNL d   1      -4.845   5.330  -5.579  0.00  0.00     0.000 A 
ATOM      5  C6  UNL d   1      -3.595   4.713  -5.583  0.00  0.00     0.000 A 
ATOM      6  C7  UNL d   1      -3.481   3.313  -5.634  0.00  0.00    -0.073 A 
ATOM      7  C8  UNL d   1      -2.107   2.700  -5.629  0.00  0.00     0.078 C 
ENDROOT
BRANCH   1   8
ATOM      8  C1  UNL d   1      -4.612   1.016  -5.658  0.00  0.00     0.053 C 
ATOM      9  C   UNL d   1      -6.000   0.395  -5.685  0.00  0.00     0.018 C 
ENDBRANCH   1   8
TORSDOF 1
ENDMDL
