MODEL 1
REMARK minimizedAffinity 2.12103295
REMARK minimizedRMSD -1
REMARK  1 active torsions:
REMARK  status: ('A' for Active; 'I' for Inactive)
REMARK    1  A    between atoms: C1_2  and  C2_3 
ROOT
ATOM      1  C2  UNL d   1       0.929   0.671   1.029  0.00  0.00    -0.076 A 
ATOM      2  C3  UNL d   1       0.431  -0.337   0.186  0.00  0.00     0.004 A 
ATOM      3  C4  UNL d   1       1.115  -0.707  -0.971  0.00  0.00    -0.003 A 
ATOM      4  C5  UNL d   1       2.308  -0.074  -1.303  0.00  0.00     0.000 A 
ATOM      5  C6  UNL d   1       2.825   0.916  -0.469  0.00  0.00     0.000 A 
ATOM      6  C7  UNL d   1       2.157   1.289   0.710  0.00  0.00    -0.073 A 
ATOM      7  C8  UNL d   1       2.757   2.367   1.570  0.00  0.00     0.078 C 
ENDROOT
BRANCH   1   8
ATOM      8  C1  UNL d   1       0.130   1.048   2.256  0.00  0.00     0.053 C 
ATOM      9  C   UNL d   1      -1.316   1.388   1.928  0.00  0.00     0.018 C 
ENDBRANCH   1   8
TORSDOF 1
ENDMDL
