MODEL 1
REMARK minimizedAffinity 0.239704341
REMARK minimizedRMSD -1
REMARK  1 active torsions:
REMARK  status: ('A' for Active; 'I' for Inactive)
REMARK    1  A    between atoms: C1_2  and  C2_3 
ROOT
ATOM      1  C2  UNL d   1      -0.440  -0.327   0.473  0.00  0.00    -0.076 A 
ATOM      2  C3  UNL d   1      -0.637  -1.602  -0.084  0.00  0.00     0.004 A 
ATOM      3  C4  UNL d   1      -0.017  -1.967  -1.277  0.00  0.00    -0.003 A 
ATOM      4  C5  UNL d   1       0.812  -1.063  -1.933  0.00  0.00     0.000 A 
ATOM      5  C6  UNL d   1       1.033   0.200  -1.386  0.00  0.00     0.000 A 
ATOM      6  C7  UNL d   1       0.428   0.579  -0.175  0.00  0.00    -0.073 A 
ATOM      7  C8  UNL d   1       0.696   1.956   0.367  0.00  0.00     0.078 C 
ENDROOT
BRANCH   1   8
ATOM      8  C1  UNL d   1      -1.160   0.023   1.756  0.00  0.00     0.053 C 
ATOM      9  C   UNL d   1      -2.666   0.127   1.568  0.00  0.00     0.018 C 
ENDBRANCH   1   8
TORSDOF 1
ENDMDL
