MODEL 1
REMARK minimizedAffinity -0.94335103
REMARK minimizedRMSD -1
REMARK  1 active torsions:
REMARK  status: ('A' for Active; 'I' for Inactive)
REMARK    1  A    between atoms: C1_2  and  C2_3 
ROOT
ATOM      1  C2  UNL d   1       1.133   0.372  -0.825  0.00  0.00    -0.076 A 
ATOM      2  C3  UNL d   1       0.764  -0.983  -0.883  0.00  0.00     0.004 A 
ATOM      3  C4  UNL d   1      -0.052  -1.548   0.096  0.00  0.00    -0.003 A 
ATOM      4  C5  UNL d   1      -0.513  -0.766   1.149  0.00  0.00     0.000 A 
ATOM      5  C6  UNL d   1      -0.171   0.585   1.214  0.00  0.00     0.000 A 
ATOM      6  C7  UNL d   1       0.637   1.173   0.226  0.00  0.00    -0.073 A 
ATOM      7  C8  UNL d   1       0.979   2.633   0.348  0.00  0.00     0.078 C 
ENDROOT
BRANCH   1   8
ATOM      8  C1  UNL d   1       2.043   0.922  -1.900  0.00  0.00     0.053 C 
ATOM      9  C   UNL d   1       3.514   0.700  -1.588  0.00  0.00     0.018 C 
ENDBRANCH   1   8
TORSDOF 1
ENDMDL
