MODEL 1
REMARK minimizedAffinity -4.55230045
REMARK minimizedRMSD -1
REMARK  1 active torsions:
REMARK  status: ('A' for Active; 'I' for Inactive)
REMARK    1  A    between atoms: C1_2  and  C2_3 
ROOT
ATOM      1  C2  UNL d   1       0.976   0.242  -1.204  0.00  0.00    -0.076 A 
ATOM      2  C3  UNL d   1       0.399  -1.012  -1.470  0.00  0.00     0.004 A 
ATOM      3  C4  UNL d   1      -0.678  -1.479  -0.720  0.00  0.00    -0.003 A 
ATOM      4  C5  UNL d   1      -1.196  -0.700   0.309  0.00  0.00     0.000 A 
ATOM      5  C6  UNL d   1      -0.647   0.553   0.576  0.00  0.00     0.000 A 
ATOM      6  C7  UNL d   1       0.429   1.047  -0.182  0.00  0.00    -0.073 A 
ATOM      7  C8  UNL d   1       0.986   2.403   0.153  0.00  0.00     0.078 C 
ENDROOT
BRANCH   1   8
ATOM      8  C1  UNL d   1       2.160   0.685  -2.034  0.00  0.00     0.053 C 
ATOM      9  C   UNL d   1       3.490   0.363  -1.369  0.00  0.00     0.018 C 
ENDBRANCH   1   8
TORSDOF 1
ENDMDL
