MODEL 1
REMARK minimizedAffinity -4.65903997
REMARK minimizedRMSD -1
REMARK  1 active torsions:
REMARK  status: ('A' for Active; 'I' for Inactive)
REMARK    1  A    between atoms: C1_2  and  C2_3 
ROOT
ATOM      1  C2  UNL d   1       0.225  -0.085   0.145  0.00  0.00    -0.076 A 
ATOM      2  C3  UNL d   1       0.286  -1.088  -0.838  0.00  0.00     0.004 A 
ATOM      3  C4  UNL d   1       1.156  -0.979  -1.922  0.00  0.00    -0.003 A 
ATOM      4  C5  UNL d   1       1.979   0.136  -2.040  0.00  0.00     0.000 A 
ATOM      5  C6  UNL d   1       1.945   1.132  -1.065  0.00  0.00     0.000 A 
ATOM      6  C7  UNL d   1       1.086   1.029   0.042  0.00  0.00    -0.073 A 
ATOM      7  C8  UNL d   1       1.085   2.136   1.061  0.00  0.00     0.078 C 
ENDROOT
BRANCH   1   8
ATOM      8  C1  UNL d   1      -0.756  -0.245   1.284  0.00  0.00     0.053 C 
ATOM      9  C   UNL d   1      -2.117   0.358   0.969  0.00  0.00     0.018 C 
ENDBRANCH   1   8
TORSDOF 1
ENDMDL
