MODEL 1
REMARK minimizedAffinity 16.0980072
REMARK minimizedRMSD -1
REMARK  0 active torsions:
REMARK  status: ('A' for Active; 'I' for Inactive)
ROOT
ATOM      1  C   UNL d   1       0.718   4.567   1.371  0.00  0.00     0.077 C 
ATOM      2  C1  UNL d   1      -0.222   3.632   0.670  0.00  0.00    -0.074 A 
ATOM      3  C2  UNL d   1       0.163   2.324   0.359  0.00  0.00    -0.005 A 
ATOM      4  C3  UNL d   1      -0.726   1.464  -0.285  0.00  0.00     0.006 A 
ATOM      5  C4  UNL d   1      -2.007   1.901  -0.624  0.00  0.00    -0.005 A 
ATOM      6  C5  UNL d   1      -2.410   3.205  -0.320  0.00  0.00    -0.074 A 
ATOM      7  C6  UNL d   1      -3.787   3.689  -0.668  0.00  0.00     0.077 C 
ATOM      8  C7  UNL d   1      -1.514   4.062   0.334  0.00  0.00    -0.001 A 
ENDROOT
TORSDOF 0
ENDMDL
