MODEL 1
REMARK minimizedAffinity 16.9609642
REMARK minimizedRMSD -1
REMARK  0 active torsions:
REMARK  status: ('A' for Active; 'I' for Inactive)
ROOT
ATOM      1  C   UNL d   1      -5.949   0.800   6.000  0.00  0.00     0.077 C 
ATOM      2  C1  UNL d   1      -4.661   0.770   5.232  0.00  0.00    -0.074 A 
ATOM      3  C2  UNL d   1      -4.202   1.904   4.554  0.00  0.00    -0.005 A 
ATOM      4  C3  UNL d   1      -2.998   1.864   3.852  0.00  0.00     0.006 A 
ATOM      5  C4  UNL d   1      -2.241   0.692   3.821  0.00  0.00    -0.005 A 
ATOM      6  C5  UNL d   1      -2.684  -0.451   4.494  0.00  0.00    -0.074 A 
ATOM      7  C6  UNL d   1      -1.878  -1.716   4.479  0.00  0.00     0.077 C 
ATOM      8  C7  UNL d   1      -3.892  -0.401   5.203  0.00  0.00    -0.001 A 
ENDROOT
TORSDOF 0
ENDMDL
