MODEL 1
REMARK minimizedAffinity 9.55121708
REMARK minimizedRMSD -1
REMARK  0 active torsions:
REMARK  status: ('A' for Active; 'I' for Inactive)
ROOT
ATOM      1  C   UNL d   1      -2.614   0.376   4.487  0.00  0.00     0.077 C 
ATOM      2  C1  UNL d   1      -3.773   1.240   4.888  0.00  0.00    -0.074 A 
ATOM      3  C2  UNL d   1      -4.839   0.715   5.626  0.00  0.00    -0.005 A 
ATOM      4  C3  UNL d   1      -5.905   1.533   5.999  0.00  0.00     0.006 A 
ATOM      5  C4  UNL d   1      -5.916   2.881   5.639  0.00  0.00    -0.005 A 
ATOM      6  C5  UNL d   1      -4.859   3.423   4.901  0.00  0.00    -0.074 A 
ATOM      7  C6  UNL d   1      -4.851   4.872   4.514  0.00  0.00     0.077 C 
ATOM      8  C7  UNL d   1      -3.788   2.597   4.536  0.00  0.00    -0.001 A 
ENDROOT
TORSDOF 0
ENDMDL
