MODEL 1
REMARK minimizedAffinity -1.70794415
REMARK minimizedRMSD -1
REMARK  0 active torsions:
REMARK  status: ('A' for Active; 'I' for Inactive)
ROOT
ATOM      1  C   UNL d   1       2.186  -1.837   6.000  0.00  0.00     0.077 C 
ATOM      2  C1  UNL d   1       3.433  -2.366   5.357  0.00  0.00    -0.074 A 
ATOM      3  C2  UNL d   1       3.939  -1.790   4.187  0.00  0.00    -0.005 A 
ATOM      4  C3  UNL d   1       5.106  -2.287   3.606  0.00  0.00     0.006 A 
ATOM      5  C4  UNL d   1       5.776  -3.364   4.187  0.00  0.00    -0.005 A 
ATOM      6  C5  UNL d   1       5.285  -3.953   5.356  0.00  0.00    -0.074 A 
ATOM      7  C6  UNL d   1       5.999  -5.105   5.999  0.00  0.00     0.077 C 
ATOM      8  C7  UNL d   1       4.117  -3.443   5.938  0.00  0.00    -0.001 A 
ENDROOT
TORSDOF 0
ENDMDL
