MODEL 1
REMARK minimizedAffinity 5.53040648
REMARK minimizedRMSD -1
REMARK  0 active torsions:
REMARK  status: ('A' for Active; 'I' for Inactive)
ROOT
ATOM      1  C   UNL d   1      -3.498  -3.350   5.992  0.00  0.00     0.077 C 
ATOM      2  C1  UNL d   1      -3.329  -1.893   5.679  0.00  0.00    -0.074 A 
ATOM      3  C2  UNL d   1      -2.155  -1.417   5.085  0.00  0.00    -0.005 A 
ATOM      4  C3  UNL d   1      -2.016  -0.061   4.791  0.00  0.00     0.006 A 
ATOM      5  C4  UNL d   1      -3.046   0.832   5.088  0.00  0.00    -0.005 A 
ATOM      6  C5  UNL d   1      -4.227   0.375   5.681  0.00  0.00    -0.074 A 
ATOM      7  C6  UNL d   1      -5.348   1.319   5.998  0.00  0.00     0.077 C 
ATOM      8  C7  UNL d   1      -4.363  -0.991   5.967  0.00  0.00    -0.001 A 
ENDROOT
TORSDOF 0
ENDMDL
