MODEL 1
REMARK minimizedAffinity 10.4262238
REMARK minimizedRMSD -1
REMARK  0 active torsions:
REMARK  status: ('A' for Active; 'I' for Inactive)
ROOT
ATOM      1  C   UNL d   1      -5.648   0.003   5.994  0.00  0.00     0.077 C 
ATOM      2  C1  UNL d   1      -4.580  -1.050   5.971  0.00  0.00    -0.074 A 
ATOM      3  C2  UNL d   1      -3.226  -0.700   5.950  0.00  0.00    -0.005 A 
ATOM      4  C3  UNL d   1      -2.244  -1.690   5.939  0.00  0.00     0.006 A 
ATOM      5  C4  UNL d   1      -2.605  -3.038   5.949  0.00  0.00    -0.005 A 
ATOM      6  C5  UNL d   1      -3.953  -3.407   5.971  0.00  0.00    -0.074 A 
ATOM      7  C6  UNL d   1      -4.358  -4.851   5.993  0.00  0.00     0.077 C 
ATOM      8  C7  UNL d   1      -4.934  -2.406   5.989  0.00  0.00    -0.001 A 
ENDROOT
TORSDOF 0
ENDMDL
