MODEL 1
REMARK minimizedAffinity 13.1173992
REMARK minimizedRMSD -1
REMARK  0 active torsions:
REMARK  status: ('A' for Active; 'I' for Inactive)
ROOT
ATOM      1  C   UNL d   1       5.085  -5.273   6.000  0.00  0.00     0.077 C 
ATOM      2  C1  UNL d   1       4.447  -3.945   5.722  0.00  0.00    -0.074 A 
ATOM      3  C2  UNL d   1       3.140  -3.863   5.232  0.00  0.00    -0.005 A 
ATOM      4  C3  UNL d   1       2.557  -2.620   4.988  0.00  0.00     0.006 A 
ATOM      5  C4  UNL d   1       3.274  -1.447   5.231  0.00  0.00    -0.005 A 
ATOM      6  C5  UNL d   1       4.582  -1.509   5.722  0.00  0.00    -0.074 A 
ATOM      7  C6  UNL d   1       5.362  -0.259   5.998  0.00  0.00     0.077 C 
ATOM      8  C7  UNL d   1       5.158  -2.762   5.971  0.00  0.00    -0.001 A 
ENDROOT
TORSDOF 0
ENDMDL
