MODEL 1
REMARK minimizedAffinity 0.362735212
REMARK minimizedRMSD -1
REMARK  0 active torsions:
REMARK  status: ('A' for Active; 'I' for Inactive)
ROOT
ATOM      1  C   UNL d   1       5.998  -6.000  -5.857  0.00  0.00     0.077 C 
ATOM      2  C1  UNL d   1       5.411  -4.725  -5.328  0.00  0.00    -0.074 A 
ATOM      3  C2  UNL d   1       4.323  -4.116  -5.963  0.00  0.00    -0.005 A 
ATOM      4  C3  UNL d   1       3.782  -2.936  -5.454  0.00  0.00     0.006 A 
ATOM      5  C4  UNL d   1       4.322  -2.353  -4.307  0.00  0.00    -0.005 A 
ATOM      6  C5  UNL d   1       5.409  -2.948  -3.658  0.00  0.00    -0.074 A 
ATOM      7  C6  UNL d   1       5.995  -2.339  -2.418  0.00  0.00     0.077 C 
ATOM      8  C7  UNL d   1       5.942  -4.137  -4.172  0.00  0.00    -0.001 A 
ENDROOT
TORSDOF 0
ENDMDL
