MODEL 1
REMARK minimizedAffinity 5.6391077
REMARK minimizedRMSD -1
REMARK  0 active torsions:
REMARK  status: ('A' for Active; 'I' for Inactive)
ROOT
ATOM      1  C   UNL d   1       6.000  -5.558  -6.000  0.00  0.00     0.077 C 
ATOM      2  C1  UNL d   1       5.063  -4.461  -5.589  0.00  0.00    -0.074 A 
ATOM      3  C2  UNL d   1       3.706  -4.512  -5.922  0.00  0.00    -0.005 A 
ATOM      4  C3  UNL d   1       2.845  -3.489  -5.524  0.00  0.00     0.006 A 
ATOM      5  C4  UNL d   1       3.332  -2.407  -4.791  0.00  0.00    -0.005 A 
ATOM      6  C5  UNL d   1       4.686  -2.339  -4.447  0.00  0.00    -0.074 A 
ATOM      7  C6  UNL d   1       5.224  -1.187  -3.651  0.00  0.00     0.077 C 
ATOM      8  C7  UNL d   1       5.543  -3.374  -4.845  0.00  0.00    -0.001 A 
ENDROOT
TORSDOF 0
ENDMDL
