MODEL 1
REMARK minimizedAffinity 8.89599037
REMARK minimizedRMSD -1
REMARK  0 active torsions:
REMARK  status: ('A' for Active; 'I' for Inactive)
ROOT
ATOM      1  C   UNL d   1       5.999  -5.192  -5.988  0.00  0.00     0.077 C 
ATOM      2  C1  UNL d   1       5.286  -4.109  -5.234  0.00  0.00    -0.074 A 
ATOM      3  C2  UNL d   1       3.974  -3.751  -5.559  0.00  0.00    -0.005 A 
ATOM      4  C3  UNL d   1       3.320  -2.748  -4.843  0.00  0.00     0.006 A 
ATOM      5  C4  UNL d   1       3.971  -2.095  -3.796  0.00  0.00    -0.005 A 
ATOM      6  C5  UNL d   1       5.283  -2.440  -3.456  0.00  0.00    -0.074 A 
ATOM      7  C6  UNL d   1       5.993  -1.754  -2.327  0.00  0.00     0.077 C 
ATOM      8  C7  UNL d   1       5.930  -3.453  -4.176  0.00  0.00    -0.001 A 
ENDROOT
TORSDOF 0
ENDMDL
