MODEL 1
REMARK minimizedAffinity 23.3621693
REMARK minimizedRMSD -1
REMARK  0 active torsions:
REMARK  status: ('A' for Active; 'I' for Inactive)
ROOT
ATOM      1  C   UNL d   1      -3.484  -4.335   5.997  0.00  0.00     0.077 C 
ATOM      2  C1  UNL d   1      -3.480  -2.885   5.614  0.00  0.00    -0.074 A 
ATOM      3  C2  UNL d   1      -2.295  -2.243   5.241  0.00  0.00    -0.005 A 
ATOM      4  C3  UNL d   1      -2.309  -0.896   4.878  0.00  0.00     0.006 A 
ATOM      5  C4  UNL d   1      -3.506  -0.179   4.884  0.00  0.00    -0.005 A 
ATOM      6  C5  UNL d   1      -4.701  -0.805   5.253  0.00  0.00    -0.074 A 
ATOM      7  C6  UNL d   1      -5.998  -0.051   5.255  0.00  0.00     0.077 C 
ATOM      8  C7  UNL d   1      -4.680  -2.160   5.610  0.00  0.00    -0.001 A 
ENDROOT
TORSDOF 0
ENDMDL
