MODEL 1
REMARK minimizedAffinity 9.09968853
REMARK minimizedRMSD -1
REMARK  0 active torsions:
REMARK  status: ('A' for Active; 'I' for Inactive)
ROOT
ATOM      1  C   UNL d   1       2.239  -4.429   5.605  0.00  0.00     0.077 C 
ATOM      2  C1  UNL d   1       3.554  -3.713   5.508  0.00  0.00    -0.074 A 
ATOM      3  C2  UNL d   1       4.727  -4.294   6.000  0.00  0.00    -0.005 A 
ATOM      4  C3  UNL d   1       5.944  -3.620   5.894  0.00  0.00     0.006 A 
ATOM      5  C4  UNL d   1       5.999  -2.360   5.296  0.00  0.00    -0.005 A 
ATOM      6  C5  UNL d   1       4.836  -1.764   4.799  0.00  0.00    -0.074 A 
ATOM      7  C6  UNL d   1       4.880  -0.414   4.145  0.00  0.00     0.077 C 
ATOM      8  C7  UNL d   1       3.619  -2.450   4.902  0.00  0.00    -0.001 A 
ENDROOT
TORSDOF 0
ENDMDL
