MODEL 1
REMARK minimizedAffinity 13.6001797
REMARK minimizedRMSD -1
REMARK  0 active torsions:
REMARK  status: ('A' for Active; 'I' for Inactive)
ROOT
ATOM      1  C   UNL d   1      -3.751  -3.000   6.000  0.00  0.00     0.077 C 
ATOM      2  C1  UNL d   1      -3.173  -1.940   5.110  0.00  0.00    -0.074 A 
ATOM      3  C2  UNL d   1      -2.799  -0.694   5.625  0.00  0.00    -0.005 A 
ATOM      4  C3  UNL d   1      -2.253   0.278   4.787  0.00  0.00     0.006 A 
ATOM      5  C4  UNL d   1      -2.077   0.016   3.428  0.00  0.00    -0.005 A 
ATOM      6  C5  UNL d   1      -2.444  -1.224   2.896  0.00  0.00    -0.074 A 
ATOM      7  C6  UNL d   1      -2.252  -1.525   1.439  0.00  0.00     0.077 C 
ATOM      8  C7  UNL d   1      -2.985  -2.198   3.745  0.00  0.00    -0.001 A 
ENDROOT
TORSDOF 0
ENDMDL
