MODEL 1
REMARK minimizedAffinity 5.53895569
REMARK minimizedRMSD -1
REMARK  0 active torsions:
REMARK  status: ('A' for Active; 'I' for Inactive)
ROOT
ATOM      1  C   UNL d   1       2.188  -3.412   3.655  0.00  0.00     0.077 C 
ATOM      2  C1  UNL d   1       3.520  -3.350   4.341  0.00  0.00    -0.074 A 
ATOM      3  C2  UNL d   1       4.183  -2.131   4.515  0.00  0.00    -0.005 A 
ATOM      4  C3  UNL d   1       5.417  -2.087   5.163  0.00  0.00     0.006 A 
ATOM      5  C4  UNL d   1       6.000  -3.261   5.644  0.00  0.00    -0.005 A 
ATOM      6  C5  UNL d   1       5.351  -4.489   5.480  0.00  0.00    -0.074 A 
ATOM      7  C6  UNL d   1       5.959  -5.758   5.999  0.00  0.00     0.077 C 
ATOM      8  C7  UNL d   1       4.108  -4.523   4.833  0.00  0.00    -0.001 A 
ENDROOT
TORSDOF 0
ENDMDL
