MODEL 1
REMARK minimizedAffinity -0.0862404853
REMARK minimizedRMSD -1
REMARK  0 active torsions:
REMARK  status: ('A' for Active; 'I' for Inactive)
ROOT
ATOM      1  C   UNL d   1       5.999   5.872  -1.206  0.00  0.00     0.077 C 
ATOM      2  C1  UNL d   1       5.199   5.259  -2.317  0.00  0.00    -0.074 A 
ATOM      3  C2  UNL d   1       3.894   5.686  -2.583  0.00  0.00    -0.005 A 
ATOM      4  C3  UNL d   1       3.165   5.114  -3.625  0.00  0.00     0.006 A 
ATOM      5  C4  UNL d   1       3.733   4.110  -4.411  0.00  0.00    -0.005 A 
ATOM      6  C5  UNL d   1       5.037   3.671  -4.161  0.00  0.00    -0.074 A 
ATOM      7  C6  UNL d   1       5.666   2.600  -5.002  0.00  0.00     0.077 C 
ATOM      8  C7  UNL d   1       5.765   4.256  -3.116  0.00  0.00    -0.001 A 
ENDROOT
TORSDOF 0
ENDMDL
