MODEL 1
REMARK minimizedAffinity 2.10225058
REMARK minimizedRMSD -1
REMARK  0 active torsions:
REMARK  status: ('A' for Active; 'I' for Inactive)
ROOT
ATOM      1  C   UNL d   1       0.151  -4.854  -5.916  0.00  0.00     0.077 C 
ATOM      2  C1  UNL d   1       0.601  -4.059  -4.726  0.00  0.00    -0.074 A 
ATOM      3  C2  UNL d   1       1.946  -3.714  -4.560  0.00  0.00    -0.005 A 
ATOM      4  C3  UNL d   1       2.348  -2.966  -3.453  0.00  0.00     0.006 A 
ATOM      5  C4  UNL d   1       1.411  -2.558  -2.503  0.00  0.00    -0.005 A 
ATOM      6  C5  UNL d   1       0.062  -2.893  -2.653  0.00  0.00    -0.074 A 
ATOM      7  C6  UNL d   1      -0.960  -2.454  -1.646  0.00  0.00     0.077 C 
ATOM      8  C7  UNL d   1      -0.335  -3.639  -3.772  0.00  0.00    -0.001 A 
ENDROOT
TORSDOF 0
ENDMDL
