MODEL 1
REMARK minimizedAffinity -1.66382658
REMARK minimizedRMSD -1
REMARK  0 active torsions:
REMARK  status: ('A' for Active; 'I' for Inactive)
ROOT
ATOM      1  C   UNL d   1       1.441   1.158  -1.684  0.00  0.00     0.077 C 
ATOM      2  C1  UNL d   1       0.471   0.457  -0.781  0.00  0.00    -0.074 A 
ATOM      3  C2  UNL d   1      -0.416   1.182   0.022  0.00  0.00    -0.005 A 
ATOM      4  C3  UNL d   1      -1.319   0.516   0.850  0.00  0.00     0.006 A 
ATOM      5  C4  UNL d   1      -1.345  -0.878   0.884  0.00  0.00    -0.005 A 
ATOM      6  C5  UNL d   1      -0.467  -1.620   0.088  0.00  0.00    -0.074 A 
ATOM      7  C6  UNL d   1      -0.488  -3.119   0.105  0.00  0.00     0.077 C 
ATOM      8  C7  UNL d   1       0.433  -0.944  -0.747  0.00  0.00    -0.001 A 
ENDROOT
TORSDOF 0
ENDMDL
