MODEL 1
REMARK minimizedAffinity 4.76755428
REMARK minimizedRMSD -1
REMARK  0 active torsions:
REMARK  status: ('A' for Active; 'I' for Inactive)
ROOT
ATOM      1  C   UNL d   1      -2.812  -3.277  -2.491  0.00  0.00     0.077 C 
ATOM      2  C1  UNL d   1      -2.658  -4.234  -3.636  0.00  0.00    -0.074 A 
ATOM      3  C2  UNL d   1      -3.745  -4.981  -4.099  0.00  0.00    -0.005 A 
ATOM      4  C3  UNL d   1      -3.589  -5.860  -5.171  0.00  0.00     0.006 A 
ATOM      5  C4  UNL d   1      -2.345  -6.000  -5.789  0.00  0.00    -0.005 A 
ATOM      6  C5  UNL d   1      -1.247  -5.260  -5.340  0.00  0.00    -0.074 A 
ATOM      7  C6  UNL d   1       0.094  -5.391  -6.000  0.00  0.00     0.077 C 
ATOM      8  C7  UNL d   1      -1.414  -4.374  -4.267  0.00  0.00    -0.001 A 
ENDROOT
TORSDOF 0
ENDMDL
