MODEL 1
REMARK minimizedAffinity -2.36430597
REMARK minimizedRMSD -1
REMARK  0 active torsions:
REMARK  status: ('A' for Active; 'I' for Inactive)
ROOT
ATOM      1  C   UNL d   1      -0.008   0.562   2.888  0.00  0.00     0.124 A 
ATOM      2  C1  UNL d   1       1.175  -0.094   2.575  0.00  0.00     0.062 A 
ATOM      3  C2  UNL d   1       1.402  -0.548   1.278  0.00  0.00     0.162 A 
ATOM      4  C3  UNL d   1       0.444  -0.345   0.284  0.00  0.00    -0.034 A 
ATOM      5  C4  UNL d   1      -0.743   0.315   0.607  0.00  0.00     0.162 A 
ATOM      6  C5  UNL d   1      -0.965   0.766   1.904  0.00  0.00     0.062 A 
ATOM      7  F   UNL d   1      -2.108   1.400   2.205  0.00  0.00    -0.097 F 
ATOM      8  F1  UNL d   1      -1.685   0.526  -0.324  0.00  0.00    -0.096 F 
ATOM      9  I   UNL d   1       0.779  -1.022  -1.655  0.00  0.00    -0.060 I 
ATOM     10  F2  UNL d   1       2.553  -1.178   1.004  0.00  0.00    -0.096 F 
ATOM     11  F3  UNL d   1       2.101  -0.293   3.524  0.00  0.00    -0.097 F 
ATOM     12  F4  UNL d   1      -0.224   0.996   4.136  0.00  0.00    -0.092 F 
ENDROOT
TORSDOF 0
ENDMDL
