MODEL 1
REMARK minimizedAffinity -1.20292628
REMARK minimizedRMSD -1
REMARK  0 active torsions:
REMARK  status: ('A' for Active; 'I' for Inactive)
ROOT
ATOM      1  C   UNL d   1       0.290   0.118   3.123  0.00  0.00     0.124 A 
ATOM      2  C1  UNL d   1      -0.705   0.334   2.179  0.00  0.00     0.062 A 
ATOM      3  C2  UNL d   1      -0.485   0.009   0.844  0.00  0.00     0.162 A 
ATOM      4  C3  UNL d   1       0.735  -0.536   0.444  0.00  0.00    -0.034 A 
ATOM      5  C4  UNL d   1       1.731  -0.749   1.399  0.00  0.00     0.162 A 
ATOM      6  C5  UNL d   1       1.506  -0.423   2.732  0.00  0.00     0.062 A 
ATOM      7  F   UNL d   1       2.469  -0.632   3.642  0.00  0.00    -0.097 F 
ATOM      8  F1  UNL d   1       2.916  -1.271   1.048  0.00  0.00    -0.096 F 
ATOM      9  I   UNL d   1       1.068  -1.023  -1.552  0.00  0.00    -0.060 I 
ATOM     10  F2  UNL d   1      -1.464   0.228  -0.046  0.00  0.00    -0.096 F 
ATOM     11  F3  UNL d   1      -1.881   0.857   2.555  0.00  0.00    -0.097 F 
ATOM     12  F4  UNL d   1       0.076   0.433   4.407  0.00  0.00    -0.092 F 
ENDROOT
TORSDOF 0
ENDMDL
