MODEL 1
REMARK minimizedAffinity 2.63327599
REMARK minimizedRMSD -1
REMARK  0 active torsions:
REMARK  status: ('A' for Active; 'I' for Inactive)
ROOT
ATOM      1  C   UNL d   1       0.110   0.077   3.173  0.00  0.00     0.124 A 
ATOM      2  C1  UNL d   1      -0.920   0.435   2.314  0.00  0.00     0.062 A 
ATOM      3  C2  UNL d   1      -0.757   0.313   0.937  0.00  0.00     0.162 A 
ATOM      4  C3  UNL d   1       0.441  -0.171   0.411  0.00  0.00    -0.034 A 
ATOM      5  C4  UNL d   1       1.472  -0.528   1.281  0.00  0.00     0.162 A 
ATOM      6  C5  UNL d   1       1.304  -0.404   2.656  0.00  0.00     0.062 A 
ATOM      7  F   UNL d   1       2.300  -0.750   3.485  0.00  0.00    -0.097 F 
ATOM      8  F1  UNL d   1       2.637  -0.997   0.808  0.00  0.00    -0.096 F 
ATOM      9  I   UNL d   1       0.689  -0.356  -1.648  0.00  0.00    -0.060 I 
ATOM     10  F2  UNL d   1      -1.769   0.666   0.130  0.00  0.00    -0.096 F 
ATOM     11  F3  UNL d   1      -2.075   0.901   2.811  0.00  0.00    -0.097 F 
ATOM     12  F4  UNL d   1      -0.049   0.197   4.498  0.00  0.00    -0.092 F 
ENDROOT
TORSDOF 0
ENDMDL
