MODEL 1
REMARK minimizedAffinity -3.53341317
REMARK minimizedRMSD -1
REMARK  0 active torsions:
REMARK  status: ('A' for Active; 'I' for Inactive)
ROOT
ATOM      1  C   UNL d   1       0.279   0.256   2.543  0.00  0.00     0.124 A 
ATOM      2  C1  UNL d   1       1.294  -0.478   1.944  0.00  0.00     0.062 A 
ATOM      3  C2  UNL d   1       1.296  -0.674   0.566  0.00  0.00     0.162 A 
ATOM      4  C3  UNL d   1       0.279  -0.136  -0.223  0.00  0.00    -0.034 A 
ATOM      5  C4  UNL d   1      -0.739   0.600   0.387  0.00  0.00     0.162 A 
ATOM      6  C5  UNL d   1      -0.736   0.793   1.765  0.00  0.00     0.062 A 
ATOM      7  F   UNL d   1      -1.717   1.502   2.342  0.00  0.00    -0.097 F 
ATOM      8  F1  UNL d   1      -1.731   1.131  -0.341  0.00  0.00    -0.096 F 
ATOM      9  I   UNL d   1       0.278  -0.428  -2.284  0.00  0.00    -0.060 I 
ATOM     10  F2  UNL d   1       2.289  -1.387   0.014  0.00  0.00    -0.096 F 
ATOM     11  F3  UNL d   1       2.276  -0.999   2.694  0.00  0.00    -0.097 F 
ATOM     12  F4  UNL d   1       0.280   0.443   3.869  0.00  0.00    -0.092 F 
ENDROOT
TORSDOF 0
ENDMDL
