MODEL 1
REMARK minimizedAffinity -2.01846957
REMARK minimizedRMSD -1
REMARK  0 active torsions:
REMARK  status: ('A' for Active; 'I' for Inactive)
ROOT
ATOM      1  C   UNL d   1       0.593   0.505   2.877  0.00  0.00     0.124 A 
ATOM      2  C1  UNL d   1      -0.141   1.341   2.047  0.00  0.00     0.062 A 
ATOM      3  C2  UNL d   1      -0.160   1.123   0.673  0.00  0.00     0.162 A 
ATOM      4  C3  UNL d   1       0.557   0.062   0.119  0.00  0.00    -0.034 A 
ATOM      5  C4  UNL d   1       1.294  -0.774   0.959  0.00  0.00     0.162 A 
ATOM      6  C5  UNL d   1       1.310  -0.551   2.332  0.00  0.00     0.062 A 
ATOM      7  F   UNL d   1       2.020  -1.360   3.132  0.00  0.00    -0.097 F 
ATOM      8  F1  UNL d   1       1.995  -1.803   0.460  0.00  0.00    -0.096 F 
ATOM      9  I   UNL d   1       0.531  -0.268  -1.936  0.00  0.00    -0.060 I 
ATOM     10  F2  UNL d   1      -0.879   1.946  -0.105  0.00  0.00    -0.096 F 
ATOM     11  F3  UNL d   1      -0.834   2.363   2.570  0.00  0.00    -0.097 F 
ATOM     12  F4  UNL d   1       0.610   0.718   4.199  0.00  0.00    -0.092 F 
ENDROOT
TORSDOF 0
ENDMDL
