MODEL 1
REMARK minimizedAffinity -0.933365703
REMARK minimizedRMSD -1
REMARK  0 active torsions:
REMARK  status: ('A' for Active; 'I' for Inactive)
ROOT
ATOM      1  C   UNL d   1      -0.068  -0.036   2.597  0.00  0.00     0.124 A 
ATOM      2  C1  UNL d   1      -1.007   0.369   1.659  0.00  0.00     0.062 A 
ATOM      3  C2  UNL d   1      -0.789   0.136   0.304  0.00  0.00     0.162 A 
ATOM      4  C3  UNL d   1       0.374  -0.506  -0.121  0.00  0.00    -0.034 A 
ATOM      5  C4  UNL d   1       1.315  -0.910   0.829  0.00  0.00     0.162 A 
ATOM      6  C5  UNL d   1       1.092  -0.675   2.181  0.00  0.00     0.062 A 
ATOM      7  F   UNL d   1       2.000  -1.066   3.087  0.00  0.00    -0.097 F 
ATOM      8  F1  UNL d   1       2.444  -1.530   0.455  0.00  0.00    -0.096 F 
ATOM      9  I   UNL d   1       0.705  -0.857  -2.146  0.00  0.00    -0.060 I 
ATOM     10  F2  UNL d   1      -1.713   0.538  -0.581  0.00  0.00    -0.096 F 
ATOM     11  F3  UNL d   1      -2.128   0.986   2.058  0.00  0.00    -0.097 F 
ATOM     12  F4  UNL d   1      -0.281   0.190   3.900  0.00  0.00    -0.092 F 
ENDROOT
TORSDOF 0
ENDMDL
