MODEL 1
REMARK minimizedAffinity 1.38852775
REMARK minimizedRMSD -1
REMARK  0 active torsions:
REMARK  status: ('A' for Active; 'I' for Inactive)
ROOT
ATOM      1  C   UNL d   1      -0.235  -0.102   2.410  0.00  0.00     0.124 A 
ATOM      2  C1  UNL d   1      -1.199   0.295   1.494  0.00  0.00     0.062 A 
ATOM      3  C2  UNL d   1      -0.995   0.094   0.132  0.00  0.00     0.162 A 
ATOM      4  C3  UNL d   1       0.178  -0.509  -0.323  0.00  0.00    -0.034 A 
ATOM      5  C4  UNL d   1       1.143  -0.905   0.605  0.00  0.00     0.162 A 
ATOM      6  C5  UNL d   1       0.935  -0.702   1.965  0.00  0.00     0.062 A 
ATOM      7  F   UNL d   1       1.867  -1.086   2.849  0.00  0.00    -0.097 F 
ATOM      8  F1  UNL d   1       2.282  -1.487   0.202  0.00  0.00    -0.096 F 
ATOM      9  I   UNL d   1       0.486  -0.811  -2.358  0.00  0.00    -0.060 I 
ATOM     10  F2  UNL d   1      -1.944   0.488  -0.730  0.00  0.00    -0.096 F 
ATOM     11  F3  UNL d   1      -2.329   0.876   1.922  0.00  0.00    -0.097 F 
ATOM     12  F4  UNL d   1      -0.433   0.094   3.720  0.00  0.00    -0.092 F 
ENDROOT
TORSDOF 0
ENDMDL
