MODEL 1
REMARK minimizedAffinity 0.474903107
REMARK minimizedRMSD -1
REMARK  0 active torsions:
REMARK  status: ('A' for Active; 'I' for Inactive)
ROOT
ATOM      1  C   UNL d   1      -0.456  -0.269   0.927  0.00  0.00     0.124 A 
ATOM      2  C1  UNL d   1       0.810  -0.128   1.478  0.00  0.00     0.062 A 
ATOM      3  C2  UNL d   1       0.958   0.075   2.847  0.00  0.00     0.162 A 
ATOM      4  C3  UNL d   1      -0.163   0.138   3.675  0.00  0.00    -0.034 A 
ATOM      5  C4  UNL d   1      -1.433  -0.004   3.113  0.00  0.00     0.162 A 
ATOM      6  C5  UNL d   1      -1.576  -0.207   1.744  0.00  0.00     0.062 A 
ATOM      7  F   UNL d   1      -2.800  -0.343   1.213  0.00  0.00    -0.097 F 
ATOM      8  F1  UNL d   1      -2.532   0.051   3.880  0.00  0.00    -0.096 F 
ATOM      9  I   UNL d   1       0.055   0.442   5.722  0.00  0.00    -0.060 I 
ATOM     10  F2  UNL d   1       2.193   0.208   3.353  0.00  0.00    -0.096 F 
ATOM     11  F3  UNL d   1       1.893  -0.187   0.691  0.00  0.00    -0.097 F 
ATOM     12  F4  UNL d   1      -0.596  -0.464  -0.391  0.00  0.00    -0.092 F 
ENDROOT
TORSDOF 0
ENDMDL
