MODEL 1
REMARK minimizedAffinity 8.74255276
REMARK minimizedRMSD -1
REMARK  0 active torsions:
REMARK  status: ('A' for Active; 'I' for Inactive)
ROOT
ATOM      1  C   UNL d   1       1.860  -0.958   2.482  0.00  0.00     0.078 C 
ATOM      2  C1  UNL d   1       2.248  -2.256   3.124  0.00  0.00    -0.077 A 
ATOM      3  C2  UNL d   1       1.406  -3.373   3.059  0.00  0.00    -0.001 A 
ATOM      4  C3  UNL d   1       1.776  -4.573   3.670  0.00  0.00     0.003 A 
ATOM      5  C4  UNL d   1       2.988  -4.666   4.352  0.00  0.00    -0.005 A 
ATOM      6  C5  UNL d   1       3.831  -3.559   4.424  0.00  0.00     0.003 A 
ATOM      7  C6  UNL d   1       3.463  -2.359   3.814  0.00  0.00    -0.001 A 
ENDROOT
TORSDOF 0
ENDMDL
