MODEL 1
REMARK minimizedAffinity -2.42068553
REMARK minimizedRMSD -1
REMARK  0 active torsions:
REMARK  status: ('A' for Active; 'I' for Inactive)
ROOT
ATOM      1  C   UNL d   1       2.218  -5.984  -4.957  0.00  0.00     0.078 C 
ATOM      2  C1  UNL d   1       2.996  -5.991  -3.675  0.00  0.00    -0.077 A 
ATOM      3  C2  UNL d   1       2.344  -6.000  -2.436  0.00  0.00    -0.001 A 
ATOM      4  C3  UNL d   1       3.081  -5.996  -1.251  0.00  0.00     0.003 A 
ATOM      5  C4  UNL d   1       4.474  -5.982  -1.293  0.00  0.00    -0.005 A 
ATOM      6  C5  UNL d   1       5.132  -5.970  -2.521  0.00  0.00     0.003 A 
ATOM      7  C6  UNL d   1       4.396  -5.974  -3.708  0.00  0.00    -0.001 A 
ENDROOT
TORSDOF 0
ENDMDL
