MODEL 1
REMARK minimizedAffinity 2.32516885
REMARK minimizedRMSD -1
REMARK  0 active torsions:
REMARK  status: ('A' for Active; 'I' for Inactive)
ROOT
ATOM      1  C   UNL d   1       2.224  -4.589   3.036  0.00  0.00     0.078 C 
ATOM      2  C1  UNL d   1       2.002  -3.138   3.341  0.00  0.00    -0.077 A 
ATOM      3  C2  UNL d   1       1.894  -2.686   4.662  0.00  0.00    -0.001 A 
ATOM      4  C3  UNL d   1       1.678  -1.334   4.930  0.00  0.00     0.003 A 
ATOM      5  C4  UNL d   1       1.567  -0.421   3.882  0.00  0.00    -0.005 A 
ATOM      6  C5  UNL d   1       1.671  -0.862   2.564  0.00  0.00     0.003 A 
ATOM      7  C6  UNL d   1       1.887  -2.214   2.294  0.00  0.00    -0.001 A 
ENDROOT
TORSDOF 0
ENDMDL
