MODEL 1
REMARK minimizedAffinity 1.87021089
REMARK minimizedRMSD -1
REMARK  0 active torsions:
REMARK  status: ('A' for Active; 'I' for Inactive)
ROOT
ATOM      1  C   UNL d   1       1.872  -2.648   3.315  0.00  0.00     0.078 C 
ATOM      2  C1  UNL d   1       1.735  -3.817   4.243  0.00  0.00    -0.077 A 
ATOM      3  C2  UNL d   1       0.484  -4.393   4.498  0.00  0.00    -0.001 A 
ATOM      4  C3  UNL d   1       0.370  -5.475   5.372  0.00  0.00     0.003 A 
ATOM      5  C4  UNL d   1       1.502  -5.990   6.000  0.00  0.00    -0.005 A 
ATOM      6  C5  UNL d   1       2.751  -5.423   5.754  0.00  0.00     0.003 A 
ATOM      7  C6  UNL d   1       2.867  -4.340   4.881  0.00  0.00    -0.001 A 
ENDROOT
TORSDOF 0
ENDMDL
