MODEL 1
REMARK minimizedAffinity 7.61262274
REMARK minimizedRMSD -1
REMARK  0 active torsions:
REMARK  status: ('A' for Active; 'I' for Inactive)
ROOT
ATOM      1  C   UNL d   1       1.546   3.847  -0.824  0.00  0.00     0.078 C 
ATOM      2  C1  UNL d   1       2.008   2.899   0.242  0.00  0.00    -0.077 A 
ATOM      3  C2  UNL d   1       1.304   2.770   1.446  0.00  0.00    -0.001 A 
ATOM      4  C3  UNL d   1       1.751   1.890   2.434  0.00  0.00     0.003 A 
ATOM      5  C4  UNL d   1       2.903   1.134   2.228  0.00  0.00    -0.005 A 
ATOM      6  C5  UNL d   1       3.611   1.257   1.034  0.00  0.00     0.003 A 
ATOM      7  C6  UNL d   1       3.166   2.136   0.046  0.00  0.00    -0.001 A 
ENDROOT
TORSDOF 0
ENDMDL
