MODEL 1
REMARK minimizedAffinity -3.00897503
REMARK minimizedRMSD -1
REMARK  0 active torsions:
REMARK  status: ('A' for Active; 'I' for Inactive)
ROOT
ATOM      1  C   UNL d   1      -1.544  -0.023  -0.244  0.00  0.00     0.078 C 
ATOM      2  C1  UNL d   1      -0.337  -0.644   0.393  0.00  0.00    -0.077 A 
ATOM      3  C2  UNL d   1      -0.439  -1.829   1.130  0.00  0.00    -0.001 A 
ATOM      4  C3  UNL d   1       0.692  -2.390   1.726  0.00  0.00     0.003 A 
ATOM      5  C4  UNL d   1       1.933  -1.772   1.591  0.00  0.00    -0.005 A 
ATOM      6  C5  UNL d   1       2.045  -0.590   0.861  0.00  0.00     0.003 A 
ATOM      7  C6  UNL d   1       0.915  -0.028   0.265  0.00  0.00    -0.001 A 
ENDROOT
TORSDOF 0
ENDMDL
