MODEL 1
REMARK minimizedAffinity -6.21554232
REMARK minimizedRMSD -1
REMARK  0 active torsions:
REMARK  status: ('A' for Active; 'I' for Inactive)
ROOT
ATOM      1  C   UNL d   1      -0.840  -1.385   1.450  0.00  0.00     0.078 C 
ATOM      2  C1  UNL d   1       0.552  -0.907   1.161  0.00  0.00    -0.077 A 
ATOM      3  C2  UNL d   1       1.661  -1.724   1.413  0.00  0.00    -0.001 A 
ATOM      4  C3  UNL d   1       2.951  -1.263   1.149  0.00  0.00     0.003 A 
ATOM      5  C4  UNL d   1       3.145   0.017   0.632  0.00  0.00    -0.005 A 
ATOM      6  C5  UNL d   1       2.048   0.837   0.380  0.00  0.00     0.003 A 
ATOM      7  C6  UNL d   1       0.756   0.378   0.644  0.00  0.00    -0.001 A 
ENDROOT
TORSDOF 0
ENDMDL
