MODEL 1
REMARK minimizedAffinity 1.12067115
REMARK minimizedRMSD -1
REMARK  0 active torsions:
REMARK  status: ('A' for Active; 'I' for Inactive)
ROOT
ATOM      1  C   UNL d   1      -1.868   0.597  -2.490  0.00  0.00     0.078 C 
ATOM      2  C1  UNL d   1      -1.064   0.497  -1.228  0.00  0.00    -0.077 A 
ATOM      3  C2  UNL d   1      -0.944  -0.720  -0.545  0.00  0.00    -0.001 A 
ATOM      4  C3  UNL d   1      -0.201  -0.797   0.634  0.00  0.00     0.003 A 
ATOM      5  C4  UNL d   1       0.427   0.339   1.141  0.00  0.00    -0.005 A 
ATOM      6  C5  UNL d   1       0.311   1.555   0.470  0.00  0.00     0.003 A 
ATOM      7  C6  UNL d   1      -0.432   1.634  -0.710  0.00  0.00    -0.001 A 
ENDROOT
TORSDOF 0
ENDMDL
