MODEL 1
REMARK minimizedAffinity -4.91512537
REMARK minimizedRMSD -1
REMARK  0 active torsions:
REMARK  status: ('A' for Active; 'I' for Inactive)
ROOT
ATOM      1  C   UNL d   1       2.911  -0.318   0.488  0.00  0.00     0.078 C 
ATOM      2  C1  UNL d   1       1.473   0.094   0.383  0.00  0.00    -0.077 A 
ATOM      3  C2  UNL d   1       1.114   1.445   0.303  0.00  0.00    -0.001 A 
ATOM      4  C3  UNL d   1      -0.229   1.815   0.215  0.00  0.00     0.003 A 
ATOM      5  C4  UNL d   1      -1.224   0.839   0.208  0.00  0.00    -0.005 A 
ATOM      6  C5  UNL d   1      -0.876  -0.508   0.289  0.00  0.00     0.003 A 
ATOM      7  C6  UNL d   1       0.466  -0.879   0.377  0.00  0.00    -0.001 A 
ENDROOT
TORSDOF 0
ENDMDL
