MODEL 1
REMARK minimizedAffinity -5.07133961
REMARK minimizedRMSD -1
REMARK  0 active torsions:
REMARK  status: ('A' for Active; 'I' for Inactive)
ROOT
ATOM      1  C   UNL d   1      -1.318   0.521   0.010  0.00  0.00     0.078 C 
ATOM      2  C1  UNL d   1       0.149   0.388   0.287  0.00  0.00    -0.077 A 
ATOM      3  C2  UNL d   1       0.992   1.506   0.265  0.00  0.00    -0.001 A 
ATOM      4  C3  UNL d   1       2.357   1.366   0.515  0.00  0.00     0.003 A 
ATOM      5  C4  UNL d   1       2.893   0.110   0.789  0.00  0.00    -0.005 A 
ATOM      6  C5  UNL d   1       2.064  -1.009   0.812  0.00  0.00     0.003 A 
ATOM      7  C6  UNL d   1       0.697  -0.871   0.561  0.00  0.00    -0.001 A 
ENDROOT
TORSDOF 0
ENDMDL
