MODEL 1
REMARK minimizedAffinity -4.75107956
REMARK minimizedRMSD -1
REMARK  0 active torsions:
REMARK  status: ('A' for Active; 'I' for Inactive)
ROOT
ATOM      1  C   UNL d   1       3.374  -0.228   0.543  0.00  0.00     0.078 C 
ATOM      2  C1  UNL d   1       1.879  -0.242   0.428  0.00  0.00    -0.077 A 
ATOM      3  C2  UNL d   1       1.165   0.932   0.161  0.00  0.00    -0.001 A 
ATOM      4  C3  UNL d   1      -0.227   0.906   0.067  0.00  0.00     0.003 A 
ATOM      5  C4  UNL d   1      -0.917  -0.293   0.238  0.00  0.00    -0.005 A 
ATOM      6  C5  UNL d   1      -0.215  -1.466   0.506  0.00  0.00     0.003 A 
ATOM      7  C6  UNL d   1       1.177  -1.442   0.601  0.00  0.00    -0.001 A 
ENDROOT
TORSDOF 0
ENDMDL
