MODEL 1
REMARK minimizedAffinity -4.22136784
REMARK minimizedRMSD -1
REMARK  0 active torsions:
REMARK  status: ('A' for Active; 'I' for Inactive)
ROOT
ATOM      1  C   UNL d   1       3.092  -0.882   0.727  0.00  0.00     0.078 C 
ATOM      2  C1  UNL d   1       1.598  -0.899   0.845  0.00  0.00    -0.077 A 
ATOM      3  C2  UNL d   1       0.815   0.091   0.239  0.00  0.00    -0.001 A 
ATOM      4  C3  UNL d   1      -0.575   0.068   0.365  0.00  0.00     0.003 A 
ATOM      5  C4  UNL d   1      -1.194  -0.942   1.098  0.00  0.00    -0.005 A 
ATOM      6  C5  UNL d   1      -0.424  -1.930   1.707  0.00  0.00     0.003 A 
ATOM      7  C6  UNL d   1       0.966  -1.909   1.582  0.00  0.00    -0.001 A 
ENDROOT
TORSDOF 0
ENDMDL
