MODEL 1
REMARK minimizedAffinity -3.39399505
REMARK minimizedRMSD -1
REMARK  0 active torsions:
REMARK  status: ('A' for Active; 'I' for Inactive)
ROOT
ATOM      1  C   UNL d   1       3.206  -0.293   0.913  0.00  0.00     0.078 C 
ATOM      2  C1  UNL d   1       1.760  -0.512   0.585  0.00  0.00    -0.077 A 
ATOM      3  C2  UNL d   1       1.024   0.456  -0.110  0.00  0.00    -0.001 A 
ATOM      4  C3  UNL d   1      -0.325   0.243  -0.400  0.00  0.00     0.003 A 
ATOM      5  C4  UNL d   1      -0.950  -0.935   0.003  0.00  0.00    -0.005 A 
ATOM      6  C5  UNL d   1      -0.227  -1.903   0.697  0.00  0.00     0.003 A 
ATOM      7  C6  UNL d   1       1.122  -1.692   0.988  0.00  0.00    -0.001 A 
ENDROOT
TORSDOF 0
ENDMDL
