MODEL 1
REMARK minimizedAffinity -4.65902042
REMARK minimizedRMSD -1
REMARK  0 active torsions:
REMARK  status: ('A' for Active; 'I' for Inactive)
ROOT
ATOM      1  C   UNL d   1       3.465  -0.019   1.110  0.00  0.00     0.078 C 
ATOM      2  C1  UNL d   1       2.068  -0.351   0.678  0.00  0.00    -0.077 A 
ATOM      3  C2  UNL d   1       1.047   0.605   0.742  0.00  0.00    -0.001 A 
ATOM      4  C3  UNL d   1      -0.252   0.278   0.346  0.00  0.00     0.003 A 
ATOM      5  C4  UNL d   1      -0.541  -1.004  -0.115  0.00  0.00    -0.005 A 
ATOM      6  C5  UNL d   1       0.468  -1.963  -0.180  0.00  0.00     0.003 A 
ATOM      7  C6  UNL d   1       1.767  -1.639   0.216  0.00  0.00    -0.001 A 
ENDROOT
TORSDOF 0
ENDMDL
