MODEL 1
REMARK minimizedAffinity 5.57300806
REMARK minimizedRMSD -1
REMARK  0 active torsions:
REMARK  status: ('A' for Active; 'I' for Inactive)
ROOT
ATOM      1  C   UNL d   1      -2.925   1.369  -2.503  0.00  0.00     0.020 A 
ATOM      2  C1  UNL d   1      -3.294   1.913  -1.273  0.00  0.00     0.020 A 
ATOM      3  C2  UNL d   1      -4.088   3.061  -1.227  0.00  0.00     0.034 A 
ATOM      4  C3  UNL d   1      -4.515   3.669  -2.413  0.00  0.00     0.017 A 
ATOM      5  C4  UNL d   1      -4.144   3.123  -3.647  0.00  0.00     0.017 A 
ATOM      6  C5  UNL d   1      -3.349   1.973  -3.687  0.00  0.00     0.034 A 
ATOM      7 Cl   UNL d   1      -4.633   3.816  -5.153  0.00  0.00    -0.070 Cl
ATOM      8 Cl1  UNL d   1      -5.495   5.086  -2.282  0.00  0.00    -0.070 Cl
ENDROOT
TORSDOF 0
ENDMDL
