MODEL 1
REMARK minimizedAffinity 5.60067701
REMARK minimizedRMSD -1
REMARK  0 active torsions:
REMARK  status: ('A' for Active; 'I' for Inactive)
ROOT
ATOM      1  C   UNL d   1       1.050  -2.272  -0.032  0.00  0.00     0.020 A 
ATOM      2  C1  UNL d   1       0.547  -1.109   0.551  0.00  0.00     0.020 A 
ATOM      3  C2  UNL d   1       0.854  -0.805   1.879  0.00  0.00     0.034 A 
ATOM      4  C3  UNL d   1       1.665  -1.665   2.629  0.00  0.00     0.017 A 
ATOM      5  C4  UNL d   1       2.169  -2.832   2.043  0.00  0.00     0.017 A 
ATOM      6  C5  UNL d   1       1.859  -3.131   0.713  0.00  0.00     0.034 A 
ATOM      7 Cl   UNL d   1       3.176  -3.941   2.904  0.00  0.00    -0.070 Cl
ATOM      8 Cl1  UNL d   1       2.003  -1.227   4.266  0.00  0.00    -0.070 Cl
ENDROOT
TORSDOF 0
ENDMDL
