MODEL 1
REMARK minimizedAffinity 1.96311009
REMARK minimizedRMSD -1
REMARK  0 active torsions:
REMARK  status: ('A' for Active; 'I' for Inactive)
ROOT
ATOM      1  C   UNL d   1      -5.981   2.914  -4.283  0.00  0.00     0.020 A 
ATOM      2  C1  UNL d   1      -5.987   2.277  -5.523  0.00  0.00     0.020 A 
ATOM      3  C2  UNL d   1      -5.993   0.882  -5.591  0.00  0.00     0.034 A 
ATOM      4  C3  UNL d   1      -5.992   0.120  -4.417  0.00  0.00     0.017 A 
ATOM      5  C4  UNL d   1      -5.986   0.761  -3.173  0.00  0.00     0.017 A 
ATOM      6  C5  UNL d   1      -5.980   2.158  -3.110  0.00  0.00     0.034 A 
ATOM      7 Cl   UNL d   1      -5.984  -0.112  -1.681  0.00  0.00    -0.070 Cl
ATOM      8 Cl1  UNL d   1      -5.999  -1.600  -4.576  0.00  0.00    -0.070 Cl
ENDROOT
TORSDOF 0
ENDMDL
