MODEL 1
REMARK minimizedAffinity 10.4900608
REMARK minimizedRMSD -1
REMARK  0 active torsions:
REMARK  status: ('A' for Active; 'I' for Inactive)
ROOT
ATOM      1  C   UNL d   1       3.200  -0.867   2.088  0.00  0.00     0.020 A 
ATOM      2  C1  UNL d   1       2.334  -0.454   3.100  0.00  0.00     0.020 A 
ATOM      3  C2  UNL d   1       0.959  -0.398   2.862  0.00  0.00     0.034 A 
ATOM      4  C3  UNL d   1       0.446  -0.754   1.610  0.00  0.00     0.017 A 
ATOM      5  C4  UNL d   1       1.316  -1.168   0.595  0.00  0.00     0.017 A 
ATOM      6  C5  UNL d   1       2.692  -1.223   0.838  0.00  0.00     0.034 A 
ATOM      7 Cl   UNL d   1       0.757  -1.623  -0.976  0.00  0.00    -0.070 Cl
ATOM      8 Cl1  UNL d   1      -1.265  -0.661   1.387  0.00  0.00    -0.070 Cl
ENDROOT
TORSDOF 0
ENDMDL
