MODEL 1
REMARK minimizedAffinity 15.777915
REMARK minimizedRMSD -1
REMARK  0 active torsions:
REMARK  status: ('A' for Active; 'I' for Inactive)
ROOT
ATOM      1  C   UNL d   1       3.391   0.901   0.091  0.00  0.00     0.020 A 
ATOM      2  C1  UNL d   1       3.480   2.239   0.475  0.00  0.00     0.020 A 
ATOM      3  C2  UNL d   1       3.114   2.620   1.767  0.00  0.00     0.034 A 
ATOM      4  C3  UNL d   1       2.656   1.663   2.680  0.00  0.00     0.017 A 
ATOM      5  C4  UNL d   1       2.566   0.321   2.294  0.00  0.00     0.017 A 
ATOM      6  C5  UNL d   1       2.935  -0.055   0.998  0.00  0.00     0.034 A 
ATOM      7 Cl   UNL d   1       2.011  -0.916   3.365  0.00  0.00    -0.070 Cl
ATOM      8 Cl1  UNL d   1       2.220   2.206   4.261  0.00  0.00    -0.070 Cl
ENDROOT
TORSDOF 0
ENDMDL
