MODEL 1
REMARK minimizedAffinity 8.60203362
REMARK minimizedRMSD -1
REMARK  0 active torsions:
REMARK  status: ('A' for Active; 'I' for Inactive)
ROOT
ATOM      1  C   UNL d   1       2.131  -1.524   2.054  0.00  0.00     0.020 A 
ATOM      2  C1  UNL d   1       1.858  -1.233   3.390  0.00  0.00     0.020 A 
ATOM      3  C2  UNL d   1       2.074   0.055   3.883  0.00  0.00     0.034 A 
ATOM      4  C3  UNL d   1       2.565   1.058   3.038  0.00  0.00     0.017 A 
ATOM      5  C4  UNL d   1       2.838   0.765   1.697  0.00  0.00     0.017 A 
ATOM      6  C5  UNL d   1       2.620  -0.527   1.210  0.00  0.00     0.034 A 
ATOM      7 Cl   UNL d   1       3.446   1.950   0.595  0.00  0.00    -0.070 Cl
ATOM      8 Cl1  UNL d   1       2.808   2.630   3.714  0.00  0.00    -0.070 Cl
ENDROOT
TORSDOF 0
ENDMDL
