MODEL 1
REMARK minimizedAffinity 11.6252241
REMARK minimizedRMSD -1
REMARK  0 active torsions:
REMARK  status: ('A' for Active; 'I' for Inactive)
ROOT
ATOM      1  C   UNL d   1       2.476  -1.749   3.892  0.00  0.00     0.020 A 
ATOM      2  C1  UNL d   1       2.213  -0.622   3.114  0.00  0.00     0.020 A 
ATOM      3  C2  UNL d   1       1.974  -0.760   1.745  0.00  0.00     0.034 A 
ATOM      4  C3  UNL d   1       1.997  -2.027   1.150  0.00  0.00     0.017 A 
ATOM      5  C4  UNL d   1       2.262  -3.157   1.933  0.00  0.00     0.017 A 
ATOM      6  C5  UNL d   1       2.501  -3.013   3.303  0.00  0.00     0.034 A 
ATOM      7 Cl   UNL d   1       2.307  -4.753   1.271  0.00  0.00    -0.070 Cl
ATOM      8 Cl1  UNL d   1       1.692  -2.124  -0.548  0.00  0.00    -0.070 Cl
ENDROOT
TORSDOF 0
ENDMDL
