MODEL 1
REMARK minimizedAffinity 8.45620441
REMARK minimizedRMSD -1
REMARK  0 active torsions:
REMARK  status: ('A' for Active; 'I' for Inactive)
ROOT
ATOM      1  C   UNL d   1       1.551  -1.112   3.898  0.00  0.00     0.020 A 
ATOM      2  C1  UNL d   1       2.324  -2.101   3.293  0.00  0.00     0.020 A 
ATOM      3  C2  UNL d   1       3.242  -1.759   2.297  0.00  0.00     0.034 A 
ATOM      4  C3  UNL d   1       3.387  -0.424   1.903  0.00  0.00     0.017 A 
ATOM      5  C4  UNL d   1       2.610   0.568   2.510  0.00  0.00     0.017 A 
ATOM      6  C5  UNL d   1       1.694   0.220   3.507  0.00  0.00     0.034 A 
ATOM      7 Cl   UNL d   1       2.734   2.237   2.077  0.00  0.00    -0.070 Cl
ATOM      8 Cl1  UNL d   1       4.541  -0.073   0.665  0.00  0.00    -0.070 Cl
ENDROOT
TORSDOF 0
ENDMDL
