MODEL 1
REMARK minimizedAffinity 9.51142025
REMARK minimizedRMSD -1
REMARK  0 active torsions:
REMARK  status: ('A' for Active; 'I' for Inactive)
ROOT
ATOM      1  C   UNL d   1       1.978  -5.318   5.905  0.00  0.00     0.020 A 
ATOM      2  C1  UNL d   1       0.794  -4.591   5.790  0.00  0.00     0.020 A 
ATOM      3  C2  UNL d   1       0.799  -3.343   5.164  0.00  0.00     0.034 A 
ATOM      4  C3  UNL d   1       1.991  -2.818   4.651  0.00  0.00     0.017 A 
ATOM      5  C4  UNL d   1       3.179  -3.548   4.767  0.00  0.00     0.017 A 
ATOM      6  C5  UNL d   1       3.168  -4.798   5.395  0.00  0.00     0.034 A 
ATOM      7 Cl   UNL d   1       4.689  -2.966   4.159  0.00  0.00    -0.070 Cl
ATOM      8 Cl1  UNL d   1       1.924  -1.269   3.889  0.00  0.00    -0.070 Cl
ENDROOT
TORSDOF 0
ENDMDL
