MODEL 1
REMARK minimizedAffinity 9.26379299
REMARK minimizedRMSD -1
REMARK  0 active torsions:
REMARK  status: ('A' for Active; 'I' for Inactive)
ROOT
ATOM      1  C   UNL d   1       2.653  -0.259   3.016  0.00  0.00     0.020 A 
ATOM      2  C1  UNL d   1       1.471  -0.993   3.106  0.00  0.00     0.020 A 
ATOM      3  C2  UNL d   1       1.468  -2.236   3.742  0.00  0.00     0.034 A 
ATOM      4  C3  UNL d   1       2.649  -2.750   4.290  0.00  0.00     0.017 A 
ATOM      5  C4  UNL d   1       3.835  -2.012   4.199  0.00  0.00     0.017 A 
ATOM      6  C5  UNL d   1       3.833  -0.768   3.561  0.00  0.00     0.034 A 
ATOM      7 Cl   UNL d   1       5.331  -2.580   4.851  0.00  0.00    -0.070 Cl
ATOM      8 Cl1  UNL d   1       2.571  -4.293   5.063  0.00  0.00    -0.070 Cl
ENDROOT
TORSDOF 0
ENDMDL
