MODEL 1
REMARK minimizedAffinity 9.99970627
REMARK minimizedRMSD -1
REMARK  0 active torsions:
REMARK  status: ('A' for Active; 'I' for Inactive)
ROOT
ATOM      1  C   UNL d   1       2.268  -0.548   2.222  0.00  0.00     0.020 A 
ATOM      2  C1  UNL d   1       1.918  -0.159   3.514  0.00  0.00     0.020 A 
ATOM      3  C2  UNL d   1       1.808  -1.115   4.526  0.00  0.00     0.034 A 
ATOM      4  C3  UNL d   1       2.050  -2.466   4.247  0.00  0.00     0.017 A 
ATOM      5  C4  UNL d   1       2.402  -2.855   2.950  0.00  0.00     0.017 A 
ATOM      6  C5  UNL d   1       2.510  -1.893   1.941  0.00  0.00     0.034 A 
ATOM      7 Cl   UNL d   1       2.715  -4.502   2.530  0.00  0.00    -0.070 Cl
ATOM      8 Cl1  UNL d   1       1.897  -3.594   5.547  0.00  0.00    -0.070 Cl
ENDROOT
TORSDOF 0
ENDMDL
