MODEL 1
REMARK minimizedAffinity 8.74030685
REMARK minimizedRMSD -1
REMARK  0 active torsions:
REMARK  status: ('A' for Active; 'I' for Inactive)
ROOT
ATOM      1  C   UNL d   1      -5.975  -0.751  -4.546  0.00  0.00     0.020 A 
ATOM      2  C1  UNL d   1      -5.986  -0.113  -5.786  0.00  0.00     0.020 A 
ATOM      3  C2  UNL d   1      -5.994   1.281  -5.854  0.00  0.00     0.034 A 
ATOM      4  C3  UNL d   1      -5.990   2.043  -4.680  0.00  0.00     0.017 A 
ATOM      5  C4  UNL d   1      -5.979   1.403  -3.436  0.00  0.00     0.017 A 
ATOM      6  C5  UNL d   1      -5.971   0.006  -3.373  0.00  0.00     0.034 A 
ATOM      7 Cl   UNL d   1      -5.974   2.275  -1.944  0.00  0.00    -0.070 Cl
ATOM      8 Cl1  UNL d   1      -5.999   3.764  -4.839  0.00  0.00    -0.070 Cl
ENDROOT
TORSDOF 0
ENDMDL
