MODEL 1
REMARK minimizedAffinity -4.40734625
REMARK minimizedRMSD -1
REMARK  1 active torsions:
REMARK  status: ('A' for Active; 'I' for Inactive)
REMARK    1  A    between atoms: N_2  and  C1_3 
ROOT
ATOM      1  C1  UNL d   1      -1.000   0.288  -0.463  0.00  0.00     0.143 A 
ATOM      2  C2  UNL d   1      -0.909  -0.791   0.423  0.00  0.00    -0.057 A 
ATOM      3  C3  UNL d   1       0.333  -1.293   0.830  0.00  0.00     0.033 A 
ATOM      4  C4  UNL d   1       1.510  -0.741   0.333  0.00  0.00    -0.042 A 
ATOM      5  C5  UNL d   1       1.443   0.315  -0.568  0.00  0.00     0.033 A 
ATOM      6  C6  UNL d   1       0.199   0.816  -0.966  0.00  0.00    -0.057 A 
ENDROOT
BRANCH   1   7
ATOM      7  N   UNL d   1      -2.205   0.769  -0.982  0.00  0.00    -0.732 N 
ATOM      8  C   UNL d   1      -2.233   1.481  -2.241  0.00  0.00     0.284 C 
ATOM      9  H3  UNL d   1      -2.971   0.110  -0.860  0.00  0.00     0.395 HD
ENDBRANCH   1   7
TORSDOF 1
ENDMDL
