MODEL 1
REMARK minimizedAffinity -3.70709038
REMARK minimizedRMSD -1
REMARK  1 active torsions:
REMARK  status: ('A' for Active; 'I' for Inactive)
REMARK    1  A    between atoms: N_2  and  C1_3 
ROOT
ATOM      1  C1  UNL d   1      -0.016   0.342  -0.060  0.00  0.00     0.143 A 
ATOM      2  C2  UNL d   1       1.285   0.717  -0.411  0.00  0.00    -0.057 A 
ATOM      3  C3  UNL d   1       2.392  -0.041  -0.010  0.00  0.00     0.033 A 
ATOM      4  C4  UNL d   1       2.218  -1.175   0.776  0.00  0.00    -0.042 A 
ATOM      5  C5  UNL d   1       0.936  -1.552   1.158  0.00  0.00     0.033 A 
ATOM      6  C6  UNL d   1      -0.166  -0.795   0.749  0.00  0.00    -0.057 A 
ENDROOT
BRANCH   1   7
ATOM      7  N   UNL d   1      -1.150   1.107  -0.345  0.00  0.00    -0.732 N 
ATOM      8  C   UNL d   1      -1.776   1.040  -1.648  0.00  0.00     0.284 C 
ATOM      9  H3  UNL d   1      -1.807   1.132   0.432  0.00  0.00     0.395 HD
ENDBRANCH   1   7
TORSDOF 1
ENDMDL
