MODEL 1
REMARK minimizedAffinity 2.28741407
REMARK minimizedRMSD -1
REMARK  1 active torsions:
REMARK  status: ('A' for Active; 'I' for Inactive)
REMARK    1  A    between atoms: N_2  and  C1_3 
ROOT
ATOM      1  C1  UNL d   1      -0.818   1.484  -1.070  0.00  0.00     0.143 A 
ATOM      2  C2  UNL d   1      -1.712   0.910  -0.160  0.00  0.00    -0.057 A 
ATOM      3  C3  UNL d   1      -1.288  -0.044   0.773  0.00  0.00     0.033 A 
ATOM      4  C4  UNL d   1       0.038  -0.464   0.792  0.00  0.00    -0.042 A 
ATOM      5  C5  UNL d   1       0.940   0.074  -0.119  0.00  0.00     0.033 A 
ATOM      6  C6  UNL d   1       0.511   1.031  -1.044  0.00  0.00    -0.057 A 
ENDROOT
BRANCH   1   7
ATOM      7  N   UNL d   1      -1.198   2.364  -2.086  0.00  0.00    -0.732 N 
ATOM      8  C   UNL d   1      -1.977   1.897  -3.213  0.00  0.00     0.284 C 
ATOM      9  H3  UNL d   1      -1.491   3.270  -1.725  0.00  0.00     0.395 HD
ENDBRANCH   1   7
TORSDOF 1
ENDMDL
