MODEL 1
REMARK minimizedAffinity -3.06899786
REMARK minimizedRMSD -1
REMARK  1 active torsions:
REMARK  status: ('A' for Active; 'I' for Inactive)
REMARK    1  A    between atoms: N_2  and  C1_3 
ROOT
ATOM      1  C1  UNL d   1      -1.140   0.906  -1.112  0.00  0.00     0.143 A 
ATOM      2  C2  UNL d   1      -1.146   2.273  -1.408  0.00  0.00    -0.057 A 
ATOM      3  C3  UNL d   1      -1.692   2.755  -2.604  0.00  0.00     0.033 A 
ATOM      4  C4  UNL d   1      -2.217   1.872  -3.541  0.00  0.00    -0.042 A 
ATOM      5  C5  UNL d   1      -2.199   0.506  -3.280  0.00  0.00     0.033 A 
ATOM      6  C6  UNL d   1      -1.659   0.032  -2.081  0.00  0.00    -0.057 A 
ENDROOT
BRANCH   1   7
ATOM      7  N   UNL d   1      -0.524   0.356   0.015  0.00  0.00    -0.732 N 
ATOM      8  C   UNL d   1      -0.025  -1.002  -0.006  0.00  0.00     0.284 C 
ATOM      9  H3  UNL d   1       0.091   1.018   0.483  0.00  0.00     0.395 HD
ENDBRANCH   1   7
TORSDOF 1
ENDMDL
