MODEL 1
REMARK minimizedAffinity -3.35544467
REMARK minimizedRMSD -1
REMARK  1 active torsions:
REMARK  status: ('A' for Active; 'I' for Inactive)
REMARK    1  A    between atoms: N_2  and  C1_3 
ROOT
ATOM      1  C1  UNL d   1       0.155   0.105   0.087  0.00  0.00     0.143 A 
ATOM      2  C2  UNL d   1       1.544  -0.011   0.210  0.00  0.00    -0.057 A 
ATOM      3  C3  UNL d   1       2.151  -1.249   0.450  0.00  0.00     0.033 A 
ATOM      4  C4  UNL d   1       1.375  -2.393   0.601  0.00  0.00    -0.042 A 
ATOM      5  C5  UNL d   1      -0.009  -2.298   0.508  0.00  0.00     0.033 A 
ATOM      6  C6  UNL d   1      -0.609  -1.060   0.261  0.00  0.00    -0.057 A 
ENDROOT
BRANCH   1   7
ATOM      7  N   UNL d   1      -0.515   1.323  -0.054  0.00  0.00    -0.732 N 
ATOM      8  C   UNL d   1      -1.383   1.560  -1.188  0.00  0.00     0.284 C 
ATOM      9  H3  UNL d   1      -0.882   1.669   0.830  0.00  0.00     0.395 HD
ENDBRANCH   1   7
TORSDOF 1
ENDMDL
