MODEL 1
REMARK minimizedAffinity -5.0323472
REMARK minimizedRMSD -1
REMARK  1 active torsions:
REMARK  status: ('A' for Active; 'I' for Inactive)
REMARK    1  A    between atoms: N_2  and  C1_3 
ROOT
ATOM      1  C1  UNL d   1      -0.061   0.024   0.068  0.00  0.00     0.143 A 
ATOM      2  C2  UNL d   1       1.304  -0.182  -0.156  0.00  0.00    -0.057 A 
ATOM      3  C3  UNL d   1       1.960  -1.314   0.345  0.00  0.00     0.033 A 
ATOM      4  C4  UNL d   1       1.264  -2.248   1.105  0.00  0.00    -0.042 A 
ATOM      5  C5  UNL d   1      -0.088  -2.051   1.362  0.00  0.00     0.033 A 
ATOM      6  C6  UNL d   1      -0.738  -0.923   0.854  0.00  0.00    -0.057 A 
ENDROOT
BRANCH   1   7
ATOM      7  N   UNL d   1      -0.748   1.177  -0.319  0.00  0.00    -0.732 N 
ATOM      8  C   UNL d   1      -1.573   1.180  -1.508  0.00  0.00     0.284 C 
ATOM      9  H3  UNL d   1      -1.157   1.670   0.472  0.00  0.00     0.395 HD
ENDBRANCH   1   7
TORSDOF 1
ENDMDL
