MODEL 1
REMARK minimizedAffinity -4.14555311
REMARK minimizedRMSD -1
REMARK  1 active torsions:
REMARK  status: ('A' for Active; 'I' for Inactive)
REMARK    1  A    between atoms: N_2  and  C1_3 
ROOT
ATOM      1  C1  UNL d   1       0.202  -0.246   0.284  0.00  0.00     0.143 A 
ATOM      2  C2  UNL d   1       1.579  -0.244   0.037  0.00  0.00    -0.057 A 
ATOM      3  C3  UNL d   1       2.381  -1.337   0.388  0.00  0.00     0.033 A 
ATOM      4  C4  UNL d   1       1.822  -2.443   1.019  0.00  0.00    -0.042 A 
ATOM      5  C5  UNL d   1       0.460  -2.457   1.297  0.00  0.00     0.033 A 
ATOM      6  C6  UNL d   1      -0.336  -1.365   0.939  0.00  0.00    -0.057 A 
ENDROOT
BRANCH   1   7
ATOM      7  N   UNL d   1      -0.632   0.850   0.048  0.00  0.00    -0.732 N 
ATOM      8  C   UNL d   1      -1.121   1.131  -1.284  0.00  0.00     0.284 C 
ATOM      9  H3  UNL d   1      -1.326   0.973   0.781  0.00  0.00     0.395 HD
ENDBRANCH   1   7
TORSDOF 1
ENDMDL
