MODEL 1
REMARK minimizedAffinity -4.69778109
REMARK minimizedRMSD -1
REMARK  1 active torsions:
REMARK  status: ('A' for Active; 'I' for Inactive)
REMARK    1  A    between atoms: N_2  and  C1_3 
ROOT
ATOM      1  C1  UNL d   1       0.059  -0.244   0.143  0.00  0.00     0.143 A 
ATOM      2  C2  UNL d   1       1.420  -0.223   0.464  0.00  0.00    -0.057 A 
ATOM      3  C3  UNL d   1       2.156  -1.408   0.585  0.00  0.00     0.033 A 
ATOM      4  C4  UNL d   1       1.534  -2.641   0.413  0.00  0.00    -0.042 A 
ATOM      5  C5  UNL d   1       0.176  -2.686   0.118  0.00  0.00     0.033 A 
ATOM      6  C6  UNL d   1      -0.551  -1.499  -0.008  0.00  0.00    -0.057 A 
ENDROOT
BRANCH   1   7
ATOM      7  N   UNL d   1      -0.749   0.895   0.106  0.00  0.00    -0.732 N 
ATOM      8  C   UNL d   1      -1.207   1.433  -1.157  0.00  0.00     0.284 C 
ATOM      9  H3  UNL d   1      -1.456   0.893   0.838  0.00  0.00     0.395 HD
ENDBRANCH   1   7
TORSDOF 1
ENDMDL
