MODEL 1
REMARK minimizedAffinity -2.57392073
REMARK minimizedRMSD -1
REMARK  1 active torsions:
REMARK  status: ('A' for Active; 'I' for Inactive)
REMARK    1  A    between atoms: N_2  and  C1_3 
ROOT
ATOM      1  C1  UNL d   1      -1.203   0.505  -1.354  0.00  0.00     0.143 A 
ATOM      2  C2  UNL d   1      -0.613   1.395  -0.450  0.00  0.00    -0.057 A 
ATOM      3  C3  UNL d   1       0.458   1.002   0.362  0.00  0.00     0.033 A 
ATOM      4  C4  UNL d   1       0.940  -0.302   0.305  0.00  0.00    -0.042 A 
ATOM      5  C5  UNL d   1       0.352  -1.210  -0.568  0.00  0.00     0.033 A 
ATOM      6  C6  UNL d   1      -0.712  -0.810  -1.381  0.00  0.00    -0.057 A 
ENDROOT
BRANCH   1   7
ATOM      7  N   UNL d   1      -2.333   0.807  -2.117  0.00  0.00    -0.732 N 
ATOM      8  C   UNL d   1      -2.247   1.729  -3.229  0.00  0.00     0.284 C 
ATOM      9  H3  UNL d   1      -2.909  -0.012  -2.299  0.00  0.00     0.395 HD
ENDBRANCH   1   7
TORSDOF 1
ENDMDL
