MODEL 1
REMARK minimizedAffinity -2.3982904
REMARK minimizedRMSD -1
REMARK  1 active torsions:
REMARK  status: ('A' for Active; 'I' for Inactive)
REMARK    1  A    between atoms: N_2  and  C1_3 
ROOT
ATOM      1  C1  UNL d   1       2.042  -1.053   0.408  0.00  0.00     0.143 A 
ATOM      2  C2  UNL d   1       1.420  -2.219   0.867  0.00  0.00    -0.057 A 
ATOM      3  C3  UNL d   1       0.035  -2.394   0.760  0.00  0.00     0.033 A 
ATOM      4  C4  UNL d   1      -0.758  -1.389   0.216  0.00  0.00    -0.042 A 
ATOM      5  C5  UNL d   1      -0.165  -0.212  -0.225  0.00  0.00     0.033 A 
ATOM      6  C6  UNL d   1       1.220  -0.046  -0.121  0.00  0.00    -0.057 A 
ENDROOT
BRANCH   1   7
ATOM      7  N   UNL d   1       3.402  -0.779   0.576  0.00  0.00    -0.732 N 
ATOM      8  C   UNL d   1       3.927  -0.425   1.877  0.00  0.00     0.284 C 
ATOM      9  H3  UNL d   1       3.995  -1.414   0.047  0.00  0.00     0.395 HD
ENDBRANCH   1   7
TORSDOF 1
ENDMDL
