MODEL 1
REMARK minimizedAffinity -4.9306674
REMARK minimizedRMSD -1
REMARK  0 active torsions:
REMARK  status: ('A' for Active; 'I' for Inactive)
ROOT
ATOM      1  C1  DEN d   1      -1.708   0.942   1.265  0.00  0.00     0.130 A 
ATOM      2  C2  DEN d   1      -1.167   1.496   2.503  0.00  0.00    -0.031 A 
ATOM      3  C3  DEN d   1       0.274   1.176   2.555  0.00  0.00     0.027 A 
ATOM      4  C4  DEN d   1       1.713  -0.112   0.845  0.00  0.00     0.027 A 
ATOM      5  C5  DEN d   1       1.694  -0.785  -0.356  0.00  0.00    -0.003 A 
ATOM      6  C6  DEN d   1       0.544  -0.958  -1.079  0.00  0.00     0.001 A 
ATOM      7  C7  DEN d   1      -0.629  -0.412  -0.629  0.00  0.00     0.017 A 
ATOM      8  C8  DEN d   1      -0.620   0.262   0.586  0.00  0.00    -0.094 A 
ATOM      9  C9  DEN d   1       0.556   0.436   1.295  0.00  0.00    -0.072 A 
ENDROOT
TORSDOF 0
ENDMDL
