MODEL 1
REMARK minimizedAffinity -4.24141788
REMARK minimizedRMSD -1
REMARK  0 active torsions:
REMARK  status: ('A' for Active; 'I' for Inactive)
ROOT
ATOM      1  C1  DEN d   1       0.583   0.935   2.682  0.00  0.00     0.130 A 
ATOM      2  C2  DEN d   1      -0.706   1.425   3.165  0.00  0.00    -0.031 A 
ATOM      3  C3  DEN d   1      -1.721   1.134   2.132  0.00  0.00     0.027 A 
ATOM      4  C4  DEN d   1      -1.424  -0.027  -0.152  0.00  0.00     0.027 A 
ATOM      5  C5  DEN d   1      -0.513  -0.607  -1.007  0.00  0.00    -0.003 A 
ATOM      6  C6  DEN d   1       0.822  -0.683  -0.709  0.00  0.00     0.001 A 
ATOM      7  C7  DEN d   1       1.277  -0.210   0.494  0.00  0.00     0.017 A 
ATOM      8  C8  DEN d   1       0.365   0.383   1.357  0.00  0.00    -0.094 A 
ATOM      9  C9  DEN d   1      -0.982   0.439   1.043  0.00  0.00    -0.072 A 
ENDROOT
TORSDOF 0
ENDMDL
