MODEL 1
REMARK minimizedAffinity -3.52632713
REMARK minimizedRMSD -1
REMARK  0 active torsions:
REMARK  status: ('A' for Active; 'I' for Inactive)
ROOT
ATOM      1  C1  DEN d   1      -0.570  -0.909  -1.718  0.00  0.00     0.130 A 
ATOM      2  C2  DEN d   1       0.871  -0.991  -1.937  0.00  0.00    -0.031 A 
ATOM      3  C3  DEN d   1       1.546  -0.428  -0.751  0.00  0.00     0.027 A 
ATOM      4  C4  DEN d   1       0.505   0.553   1.396  0.00  0.00     0.027 A 
ATOM      5  C5  DEN d   1      -0.679   0.847   2.036  0.00  0.00    -0.003 A 
ATOM      6  C6  DEN d   1      -1.899   0.609   1.461  0.00  0.00     0.001 A 
ATOM      7  C7  DEN d   1      -1.964   0.020   0.226  0.00  0.00     0.017 A 
ATOM      8  C8  DEN d   1      -0.775  -0.272  -0.429  0.00  0.00    -0.094 A 
ATOM      9  C9  DEN d   1       0.449  -0.036   0.174  0.00  0.00    -0.072 A 
ENDROOT
TORSDOF 0
ENDMDL
