MODEL 1
REMARK minimizedAffinity -3.28154826
REMARK minimizedRMSD -1
REMARK  0 active torsions:
REMARK  status: ('A' for Active; 'I' for Inactive)
ROOT
ATOM      1  C1  DEN d   1       0.562   1.298   2.187  0.00  0.00     0.130 A 
ATOM      2  C2  DEN d   1      -0.665   1.570   2.932  0.00  0.00    -0.031 A 
ATOM      3  C3  DEN d   1      -1.789   0.951   2.201  0.00  0.00     0.027 A 
ATOM      4  C4  DEN d   1      -1.749  -0.400   0.004  0.00  0.00     0.027 A 
ATOM      5  C5  DEN d   1      -0.942  -0.883  -1.002  0.00  0.00    -0.003 A 
ATOM      6  C6  DEN d   1       0.407  -0.646  -1.033  0.00  0.00     0.001 A 
ATOM      7  C7  DEN d   1       0.997   0.056  -0.015  0.00  0.00     0.017 A 
ATOM      8  C8  DEN d   1       0.188   0.553   0.999  0.00  0.00    -0.094 A 
ATOM      9  C9  DEN d   1      -1.171   0.292   1.019  0.00  0.00    -0.072 A 
ENDROOT
TORSDOF 0
ENDMDL
