MODEL 1
REMARK minimizedAffinity -4.79458618
REMARK minimizedRMSD -1
REMARK  0 active torsions:
REMARK  status: ('A' for Active; 'I' for Inactive)
ROOT
ATOM      1  C1  DEN d   1      -0.998  -0.952  -0.550  0.00  0.00     0.130 A 
ATOM      2  C2  DEN d   1       0.240  -1.414  -1.172  0.00  0.00    -0.031 A 
ATOM      3  C3  DEN d   1       1.366  -0.995  -0.313  0.00  0.00     0.027 A 
ATOM      4  C4  DEN d   1       1.313   0.312   1.910  0.00  0.00     0.027 A 
ATOM      5  C5  DEN d   1       0.495   0.929   2.830  0.00  0.00    -0.003 A 
ATOM      6  C6  DEN d   1      -0.865   0.992   2.671  0.00  0.00     0.001 A 
ATOM      7  C7  DEN d   1      -1.451   0.388   1.591  0.00  0.00     0.017 A 
ATOM      8  C8  DEN d   1      -0.631  -0.230   0.655  0.00  0.00    -0.094 A 
ATOM      9  C9  DEN d   1       0.739  -0.293   0.839  0.00  0.00    -0.072 A 
ENDROOT
TORSDOF 0
ENDMDL
