MODEL 1
REMARK minimizedAffinity 0.496330231
REMARK minimizedRMSD -1
REMARK  0 active torsions:
REMARK  status: ('A' for Active; 'I' for Inactive)
ROOT
ATOM      1  C1  DEN d   1       3.803   0.704  -3.084  0.00  0.00     0.130 A 
ATOM      2  C2  DEN d   1       4.628  -0.054  -4.020  0.00  0.00    -0.031 A 
ATOM      3  C3  DEN d   1       3.764  -0.499  -5.133  0.00  0.00     0.027 A 
ATOM      4  C4  DEN d   1       1.244  -0.085  -5.496  0.00  0.00     0.027 A 
ATOM      5  C5  DEN d   1       0.114   0.496  -4.965  0.00  0.00    -0.003 A 
ATOM      6  C6  DEN d   1       0.127   1.153  -3.763  0.00  0.00     0.001 A 
ATOM      7  C7  DEN d   1       1.303   1.283  -3.073  0.00  0.00     0.017 A 
ATOM      8  C8  DEN d   1       2.445   0.694  -3.599  0.00  0.00    -0.094 A 
ATOM      9  C9  DEN d   1       2.415   0.045  -4.822  0.00  0.00    -0.072 A 
ENDROOT
TORSDOF 0
ENDMDL
