MODEL 1
REMARK minimizedAffinity 22.9824829
REMARK minimizedRMSD -1
REMARK  0 active torsions:
REMARK  status: ('A' for Active; 'I' for Inactive)
ROOT
ATOM      1  C   UNL d   1       2.397   5.752  -1.154  0.00  0.00     0.124 A 
ATOM      2  C1  UNL d   1       3.710   5.680  -1.598  0.00  0.00     0.062 A 
ATOM      3  C2  UNL d   1       4.741   5.423  -0.698  0.00  0.00     0.162 A 
ATOM      4  C3  UNL d   1       4.462   5.236   0.656  0.00  0.00    -0.034 A 
ATOM      5  C4  UNL d   1       3.139   5.311   1.096  0.00  0.00     0.162 A 
ATOM      6  C5  UNL d   1       2.113   5.568   0.192  0.00  0.00     0.062 A 
ATOM      7  F   UNL d   1       0.845   5.637   0.623  0.00  0.00    -0.097 F 
ATOM      8  F1  UNL d   1       2.836   5.136   2.390  0.00  0.00    -0.096 F 
ATOM      9  I   UNL d   1       6.000   4.852   2.005  0.00  0.00    -0.060 I 
ATOM     10  F2  UNL d   1       6.000   5.359  -1.155  0.00  0.00    -0.096 F 
ATOM     11  F3  UNL d   1       3.988   5.858  -2.897  0.00  0.00    -0.097 F 
ATOM     12  F4  UNL d   1       1.408   6.000  -2.021  0.00  0.00    -0.092 F 
ENDROOT
TORSDOF 0
ENDMDL
