MODEL 1
REMARK minimizedAffinity 28.2075939
REMARK minimizedRMSD -1
REMARK  0 active torsions:
REMARK  status: ('A' for Active; 'I' for Inactive)
ROOT
ATOM      1  C   UNL d   1      -0.426  -0.688  -1.549  0.00  0.00     0.124 A 
ATOM      2  C1  UNL d   1       0.931  -0.732  -1.839  0.00  0.00     0.062 A 
ATOM      3  C2  UNL d   1       1.609   0.431  -2.193  0.00  0.00     0.162 A 
ATOM      4  C3  UNL d   1       0.932   1.649  -2.259  0.00  0.00    -0.034 A 
ATOM      5  C4  UNL d   1      -0.433   1.685  -1.967  0.00  0.00     0.162 A 
ATOM      6  C5  UNL d   1      -1.106   0.520  -1.613  0.00  0.00     0.062 A 
ATOM      7  F   UNL d   1      -2.417   0.565  -1.334  0.00  0.00    -0.097 F 
ATOM      8  F1  UNL d   1      -1.115   2.839  -2.021  0.00  0.00    -0.096 F 
ATOM      9  I   UNL d   1       1.942   3.389  -2.789  0.00  0.00    -0.060 I 
ATOM     10  F2  UNL d   1       2.920   0.359  -2.468  0.00  0.00    -0.096 F 
ATOM     11  F3  UNL d   1       1.591  -1.897  -1.778  0.00  0.00    -0.097 F 
ATOM     12  F4  UNL d   1      -1.076  -1.808  -1.209  0.00  0.00    -0.092 F 
ENDROOT
TORSDOF 0
ENDMDL
