MODEL 1
REMARK minimizedAffinity 28.4324913
REMARK minimizedRMSD -1
REMARK  0 active torsions:
REMARK  status: ('A' for Active; 'I' for Inactive)
ROOT
ATOM      1  C   UNL d   1       0.412  -1.226  -4.050  0.00  0.00     0.124 A 
ATOM      2  C1  UNL d   1       0.807  -2.462  -3.558  0.00  0.00     0.062 A 
ATOM      3  C2  UNL d   1       1.589  -2.541  -2.409  0.00  0.00     0.162 A 
ATOM      4  C3  UNL d   1       1.981  -1.379  -1.743  0.00  0.00    -0.034 A 
ATOM      5  C4  UNL d   1       1.581  -0.140  -2.245  0.00  0.00     0.162 A 
ATOM      6  C5  UNL d   1       0.799  -0.066  -3.394  0.00  0.00     0.062 A 
ATOM      7  F   UNL d   1       0.419   1.129  -3.868  0.00  0.00    -0.097 F 
ATOM      8  F1  UNL d   1       1.940   0.997  -1.630  0.00  0.00    -0.096 F 
ATOM      9  I   UNL d   1       3.150  -1.493  -0.025  0.00  0.00    -0.060 I 
ATOM     10  F2  UNL d   1       1.956  -3.749  -1.956  0.00  0.00    -0.096 F 
ATOM     11  F3  UNL d   1       0.436  -3.584  -4.191  0.00  0.00    -0.097 F 
ATOM     12  F4  UNL d   1      -0.339  -1.153  -5.156  0.00  0.00    -0.092 F 
ENDROOT
TORSDOF 0
ENDMDL
