MODEL 1
REMARK minimizedAffinity 14.1707392
REMARK minimizedRMSD -1
REMARK  0 active torsions:
REMARK  status: ('A' for Active; 'I' for Inactive)
ROOT
ATOM      1  C   UNL d   1       0.572   0.721  -4.227  0.00  0.00     0.124 A 
ATOM      2  C1  UNL d   1       0.698   1.949  -4.861  0.00  0.00     0.062 A 
ATOM      3  C2  UNL d   1       1.515   2.937  -4.318  0.00  0.00     0.162 A 
ATOM      4  C3  UNL d   1       2.213   2.700  -3.133  0.00  0.00    -0.034 A 
ATOM      5  C4  UNL d   1       2.080   1.463  -2.501  0.00  0.00     0.162 A 
ATOM      6  C5  UNL d   1       1.262   0.479  -3.048  0.00  0.00     0.062 A 
ATOM      7  F   UNL d   1       1.141  -0.707  -2.433  0.00  0.00    -0.097 F 
ATOM      8  F1  UNL d   1       2.736   1.202  -1.361  0.00  0.00    -0.096 F 
ATOM      9  I   UNL d   1       3.435   4.174  -2.318  0.00  0.00    -0.060 I 
ATOM     10  F2  UNL d   1       1.619   4.114  -4.952  0.00  0.00    -0.096 F 
ATOM     11  F3  UNL d   1       0.031   2.186  -6.000  0.00  0.00    -0.097 F 
ATOM     12  F4  UNL d   1      -0.216  -0.227  -4.751  0.00  0.00    -0.092 F 
ENDROOT
TORSDOF 0
ENDMDL
