MODEL 1
REMARK minimizedAffinity 30.13311
REMARK minimizedRMSD -1
REMARK  0 active torsions:
REMARK  status: ('A' for Active; 'I' for Inactive)
ROOT
ATOM      1  C   UNL d   1      -3.680   1.679   2.872  0.00  0.00     0.124 A 
ATOM      2  C1  UNL d   1      -2.485   2.123   3.422  0.00  0.00     0.062 A 
ATOM      3  C2  UNL d   1      -2.451   3.300   4.164  0.00  0.00     0.162 A 
ATOM      4  C3  UNL d   1      -3.616   4.042   4.361  0.00  0.00    -0.034 A 
ATOM      5  C4  UNL d   1      -4.813   3.590   3.804  0.00  0.00     0.162 A 
ATOM      6  C5  UNL d   1      -4.842   2.412   3.063  0.00  0.00     0.062 A 
ATOM      7  F   UNL d   1      -5.997   1.985   2.533  0.00  0.00    -0.097 F 
ATOM      8  F1  UNL d   1      -5.952   4.278   3.974  0.00  0.00    -0.096 F 
ATOM      9  I   UNL d   1      -3.569   5.803   5.470  0.00  0.00    -0.060 I 
ATOM     10  F2  UNL d   1      -1.283   3.706   4.684  0.00  0.00    -0.096 F 
ATOM     11  F3  UNL d   1      -1.360   1.417   3.238  0.00  0.00    -0.097 F 
ATOM     12  F4  UNL d   1      -3.710   0.547   2.158  0.00  0.00    -0.092 F 
ENDROOT
TORSDOF 0
ENDMDL
