MODEL 1
REMARK minimizedAffinity 28.7002201
REMARK minimizedRMSD -1
REMARK  0 active torsions:
REMARK  status: ('A' for Active; 'I' for Inactive)
ROOT
ATOM      1  C   UNL d   1       0.559  -1.058  -3.219  0.00  0.00     0.124 A 
ATOM      2  C1  UNL d   1      -0.314  -2.132  -3.116  0.00  0.00     0.062 A 
ATOM      3  C2  UNL d   1      -0.116  -3.104  -2.140  0.00  0.00     0.162 A 
ATOM      4  C3  UNL d   1       0.960  -3.006  -1.257  0.00  0.00    -0.034 A 
ATOM      5  C4  UNL d   1       1.834  -1.924  -1.368  0.00  0.00     0.162 A 
ATOM      6  C5  UNL d   1       1.632  -0.955  -2.345  0.00  0.00     0.062 A 
ATOM      7  F   UNL d   1       2.476   0.082  -2.443  0.00  0.00    -0.097 F 
ATOM      8  F1  UNL d   1       2.879  -1.799  -0.535  0.00  0.00    -0.096 F 
ATOM      9  I   UNL d   1       1.260  -4.458   0.204  0.00  0.00    -0.060 I 
ATOM     10  F2  UNL d   1      -0.975  -4.131  -2.063  0.00  0.00    -0.096 F 
ATOM     11  F3  UNL d   1      -1.351  -2.234  -3.960  0.00  0.00    -0.097 F 
ATOM     12  F4  UNL d   1       0.366  -0.124  -4.160  0.00  0.00    -0.092 F 
ENDROOT
TORSDOF 0
ENDMDL
