MODEL 1
REMARK minimizedAffinity 23.8706322
REMARK minimizedRMSD -1
REMARK  0 active torsions:
REMARK  status: ('A' for Active; 'I' for Inactive)
ROOT
ATOM      1  C   UNL d   1      -3.775   2.374   2.963  0.00  0.00     0.124 A 
ATOM      2  C1  UNL d   1      -4.510   3.551   2.981  0.00  0.00     0.062 A 
ATOM      3  C2  UNL d   1      -4.151   4.588   3.837  0.00  0.00     0.162 A 
ATOM      4  C3  UNL d   1      -3.050   4.452   4.683  0.00  0.00    -0.034 A 
ATOM      5  C4  UNL d   1      -2.316   3.265   4.661  0.00  0.00     0.162 A 
ATOM      6  C5  UNL d   1      -2.679   2.232   3.803  0.00  0.00     0.062 A 
ATOM      7  F   UNL d   1      -1.968   1.095   3.787  0.00  0.00    -0.097 F 
ATOM      8  F1  UNL d   1      -1.252   3.101   5.461  0.00  0.00    -0.096 F 
ATOM      9  I   UNL d   1      -2.510   6.000   5.966  0.00  0.00    -0.060 I 
ATOM     10  F2  UNL d   1      -4.879   5.714   3.833  0.00  0.00    -0.096 F 
ATOM     11  F3  UNL d   1      -5.570   3.691   2.171  0.00  0.00    -0.097 F 
ATOM     12  F4  UNL d   1      -4.124   1.378   2.139  0.00  0.00    -0.092 F 
ENDROOT
TORSDOF 0
ENDMDL
