MODEL 1
REMARK minimizedAffinity 15.7093773
REMARK minimizedRMSD -1
REMARK  0 active torsions:
REMARK  status: ('A' for Active; 'I' for Inactive)
ROOT
ATOM      1  C   UNL d   1       0.310  -1.001  -3.701  0.00  0.00     0.124 A 
ATOM      2  C1  UNL d   1       0.756   0.157  -3.078  0.00  0.00     0.062 A 
ATOM      3  C2  UNL d   1       1.774   0.094  -2.131  0.00  0.00     0.162 A 
ATOM      4  C3  UNL d   1       2.354  -1.132  -1.801  0.00  0.00    -0.034 A 
ATOM      5  C4  UNL d   1       1.899  -2.291  -2.431  0.00  0.00     0.162 A 
ATOM      6  C5  UNL d   1       0.882  -2.223  -3.377  0.00  0.00     0.062 A 
ATOM      7  F   UNL d   1       0.451  -3.342  -3.978  0.00  0.00    -0.097 F 
ATOM      8  F1  UNL d   1       2.435  -3.486  -2.138  0.00  0.00    -0.096 F 
ATOM      9  I   UNL d   1       3.877  -1.230  -0.386  0.00  0.00    -0.060 I 
ATOM     10  F2  UNL d   1       2.186   1.228  -1.545  0.00  0.00    -0.096 F 
ATOM     11  F3  UNL d   1       0.205   1.339  -3.388  0.00  0.00    -0.097 F 
ATOM     12  F4  UNL d   1      -0.670  -0.937  -4.611  0.00  0.00    -0.092 F 
ENDROOT
TORSDOF 0
ENDMDL
