MODEL 1
REMARK minimizedAffinity 26.1195869
REMARK minimizedRMSD -1
REMARK  0 active torsions:
REMARK  status: ('A' for Active; 'I' for Inactive)
ROOT
ATOM      1  C   UNL d   1       0.397  -1.569  -3.913  0.00  0.00     0.124 A 
ATOM      2  C1  UNL d   1       0.052  -0.622  -4.867  0.00  0.00     0.062 A 
ATOM      3  C2  UNL d   1       0.332   0.724  -4.650  0.00  0.00     0.162 A 
ATOM      4  C3  UNL d   1       0.963   1.131  -3.475  0.00  0.00    -0.034 A 
ATOM      5  C4  UNL d   1       1.307   0.173  -2.520  0.00  0.00     0.162 A 
ATOM      6  C5  UNL d   1       1.024  -1.171  -2.741  0.00  0.00     0.062 A 
ATOM      7  F   UNL d   1       1.359  -2.085  -1.818  0.00  0.00    -0.097 F 
ATOM      8  F1  UNL d   1       1.915   0.529  -1.378  0.00  0.00    -0.096 F 
ATOM      9  I   UNL d   1       1.385   3.143  -3.147  0.00  0.00    -0.060 I 
ATOM     10  F2  UNL d   1      -0.013   1.618  -5.589  0.00  0.00    -0.096 F 
ATOM     11  F3  UNL d   1      -0.555  -1.003  -6.000  0.00  0.00    -0.097 F 
ATOM     12  F4  UNL d   1       0.125  -2.863  -4.124  0.00  0.00    -0.092 F 
ENDROOT
TORSDOF 0
ENDMDL
