MODEL 1
REMARK minimizedAffinity 21.8366184
REMARK minimizedRMSD -1
REMARK  0 active torsions:
REMARK  status: ('A' for Active; 'I' for Inactive)
ROOT
ATOM      1  C   UNL d   1      -3.769   2.552   3.272  0.00  0.00     0.124 A 
ATOM      2  C1  UNL d   1      -2.587   2.280   3.945  0.00  0.00     0.062 A 
ATOM      3  C2  UNL d   1      -1.983   3.263   4.725  0.00  0.00     0.162 A 
ATOM      4  C3  UNL d   1      -2.562   4.528   4.835  0.00  0.00    -0.034 A 
ATOM      5  C4  UNL d   1      -3.751   4.794   4.154  0.00  0.00     0.162 A 
ATOM      6  C5  UNL d   1      -4.350   3.808   3.376  0.00  0.00     0.062 A 
ATOM      7  F   UNL d   1      -5.493   4.072   2.726  0.00  0.00    -0.097 F 
ATOM      8  F1  UNL d   1      -4.335   5.998   4.239  0.00  0.00    -0.096 F 
ATOM      9  I   UNL d   1      -1.663   6.000   6.000  0.00  0.00    -0.060 I 
ATOM     10  F2  UNL d   1      -0.841   2.973   5.365  0.00  0.00    -0.096 F 
ATOM     11  F3  UNL d   1      -2.023   1.068   3.845  0.00  0.00    -0.097 F 
ATOM     12  F4  UNL d   1      -4.347   1.605   2.522  0.00  0.00    -0.092 F 
ENDROOT
TORSDOF 0
ENDMDL
