MODEL 1
REMARK minimizedAffinity 18.7994518
REMARK minimizedRMSD -1
REMARK  0 active torsions:
REMARK  status: ('A' for Active; 'I' for Inactive)
ROOT
ATOM      1  C   UNL d   1       0.329   0.892  -2.167  0.00  0.00     0.124 A 
ATOM      2  C1  UNL d   1       0.670   0.440  -3.434  0.00  0.00     0.062 A 
ATOM      3  C2  UNL d   1       1.538   1.180  -4.231  0.00  0.00     0.162 A 
ATOM      4  C3  UNL d   1       2.073   2.381  -3.763  0.00  0.00    -0.034 A 
ATOM      5  C4  UNL d   1       1.724   2.829  -2.488  0.00  0.00     0.162 A 
ATOM      6  C5  UNL d   1       0.856   2.086  -1.695  0.00  0.00     0.062 A 
ATOM      7  F   UNL d   1       0.527   2.524  -0.471  0.00  0.00    -0.097 F 
ATOM      8  F1  UNL d   1       2.219   3.979  -2.006  0.00  0.00    -0.096 F 
ATOM      9  I   UNL d   1       3.371   3.491  -4.951  0.00  0.00    -0.060 I 
ATOM     10  F2  UNL d   1       1.851   0.720  -5.451  0.00  0.00    -0.096 F 
ATOM     11  F3  UNL d   1       0.162  -0.713  -3.893  0.00  0.00    -0.097 F 
ATOM     12  F4  UNL d   1      -0.508   0.178  -1.403  0.00  0.00    -0.092 F 
ENDROOT
TORSDOF 0
ENDMDL
