MODEL 1
REMARK minimizedAffinity 15.1015654
REMARK minimizedRMSD -1
REMARK  0 active torsions:
REMARK  status: ('A' for Active; 'I' for Inactive)
ROOT
ATOM      1  C   UNL d   1       1.500   2.149  -4.213  0.00  0.00     0.124 A 
ATOM      2  C1  UNL d   1       2.162   3.334  -3.927  0.00  0.00     0.062 A 
ATOM      3  C2  UNL d   1       2.233   3.799  -2.617  0.00  0.00     0.162 A 
ATOM      4  C3  UNL d   1       1.639   3.077  -1.581  0.00  0.00    -0.034 A 
ATOM      5  C4  UNL d   1       0.974   1.886  -1.876  0.00  0.00     0.162 A 
ATOM      6  C5  UNL d   1       0.906   1.426  -3.188  0.00  0.00     0.062 A 
ATOM      7  F   UNL d   1       0.266   0.280  -3.461  0.00  0.00    -0.097 F 
ATOM      8  F1  UNL d   1       0.392   1.167  -0.905  0.00  0.00    -0.096 F 
ATOM      9  I   UNL d   1       1.742   3.768   0.379  0.00  0.00    -0.060 I 
ATOM     10  F2  UNL d   1       2.880   4.948  -2.370  0.00  0.00    -0.096 F 
ATOM     11  F3  UNL d   1       2.736   4.035  -4.916  0.00  0.00    -0.097 F 
ATOM     12  F4  UNL d   1       1.433   1.705  -5.474  0.00  0.00    -0.092 F 
ENDROOT
TORSDOF 0
ENDMDL
