MODEL 1
REMARK minimizedAffinity 8.62617493
REMARK minimizedRMSD -1
REMARK  0 active torsions:
REMARK  status: ('A' for Active; 'I' for Inactive)
ROOT
ATOM      1  C   UNL d   1       1.524   1.693  -4.136  0.00  0.00     0.124 A 
ATOM      2  C1  UNL d   1       2.121   2.881  -3.736  0.00  0.00     0.062 A 
ATOM      3  C2  UNL d   1       1.986   3.323  -2.423  0.00  0.00     0.162 A 
ATOM      4  C3  UNL d   1       1.254   2.577  -1.500  0.00  0.00    -0.034 A 
ATOM      5  C4  UNL d   1       0.656   1.384  -1.910  0.00  0.00     0.162 A 
ATOM      6  C5  UNL d   1       0.793   0.946  -3.223  0.00  0.00     0.062 A 
ATOM      7  F   UNL d   1       0.216  -0.202  -3.609  0.00  0.00    -0.097 F 
ATOM      8  F1  UNL d   1      -0.056   0.642  -1.049  0.00  0.00    -0.096 F 
ATOM      9  I   UNL d   1       1.051   3.236   0.464  0.00  0.00    -0.060 I 
ATOM     10  F2  UNL d   1       2.573   4.475  -2.064  0.00  0.00    -0.096 F 
ATOM     11  F3  UNL d   1       2.827   3.605  -4.616  0.00  0.00    -0.097 F 
ATOM     12  F4  UNL d   1       1.654   1.270  -5.400  0.00  0.00    -0.092 F 
ENDROOT
TORSDOF 0
ENDMDL
