MODEL 1
REMARK minimizedAffinity 15.2053766
REMARK minimizedRMSD -1
REMARK  0 active torsions:
REMARK  status: ('A' for Active; 'I' for Inactive)
ROOT
ATOM      1  C   UNL d   1       3.105   3.158  -4.873  0.00  0.00     0.124 A 
ATOM      2  C1  UNL d   1       2.904   4.003  -3.791  0.00  0.00     0.062 A 
ATOM      3  C2  UNL d   1       2.006   3.652  -2.786  0.00  0.00     0.162 A 
ATOM      4  C3  UNL d   1       1.303   2.450  -2.859  0.00  0.00    -0.034 A 
ATOM      5  C4  UNL d   1       1.510   1.606  -3.952  0.00  0.00     0.162 A 
ATOM      6  C5  UNL d   1       2.408   1.961  -4.953  0.00  0.00     0.062 A 
ATOM      7  F   UNL d   1       2.601   1.143  -5.998  0.00  0.00    -0.097 F 
ATOM      8  F1  UNL d   1       0.850   0.442  -4.054  0.00  0.00    -0.096 F 
ATOM      9  I   UNL d   1      -0.040   1.922  -1.360  0.00  0.00    -0.060 I 
ATOM     10  F2  UNL d   1       1.832   4.488  -1.752  0.00  0.00    -0.096 F 
ATOM     11  F3  UNL d   1       3.576   5.161  -3.712  0.00  0.00    -0.097 F 
ATOM     12  F4  UNL d   1       3.969   3.498  -5.839  0.00  0.00    -0.092 F 
ENDROOT
TORSDOF 0
ENDMDL
