MODEL 1
REMARK minimizedAffinity 11.2248507
REMARK minimizedRMSD -1
REMARK  0 active torsions:
REMARK  status: ('A' for Active; 'I' for Inactive)
ROOT
ATOM      1  C   UNL d   1       0.812   1.008  -2.460  0.00  0.00     0.124 A 
ATOM      2  C1  UNL d   1       1.392   1.829  -3.417  0.00  0.00     0.062 A 
ATOM      3  C2  UNL d   1       2.741   1.691  -3.732  0.00  0.00     0.162 A 
ATOM      4  C3  UNL d   1       3.519   0.727  -3.091  0.00  0.00    -0.034 A 
ATOM      5  C4  UNL d   1       2.928  -0.094  -2.129  0.00  0.00     0.162 A 
ATOM      6  C5  UNL d   1       1.580   0.047  -1.817  0.00  0.00     0.062 A 
ATOM      7  F   UNL d   1       1.021  -0.747  -0.892  0.00  0.00    -0.097 F 
ATOM      8  F1  UNL d   1       3.647  -1.031  -1.493  0.00  0.00    -0.096 F 
ATOM      9  I   UNL d   1       5.536   0.518  -3.560  0.00  0.00    -0.060 I 
ATOM     10  F2  UNL d   1       3.275   2.498  -4.661  0.00  0.00    -0.096 F 
ATOM     11  F3  UNL d   1       0.652   2.758  -4.039  0.00  0.00    -0.097 F 
ATOM     12  F4  UNL d   1      -0.486   1.143  -2.158  0.00  0.00    -0.092 F 
ENDROOT
TORSDOF 0
ENDMDL
