MODEL 1
REMARK minimizedAffinity 12.0058889
REMARK minimizedRMSD -1
REMARK  0 active torsions:
REMARK  status: ('A' for Active; 'I' for Inactive)
ROOT
ATOM      1  C   UNL d   1       3.173   4.145  -2.804  0.00  0.00     0.124 A 
ATOM      2  C1  UNL d   1       3.406   3.265  -3.852  0.00  0.00     0.062 A 
ATOM      3  C2  UNL d   1       2.757   2.035  -3.891  0.00  0.00     0.162 A 
ATOM      4  C3  UNL d   1       1.867   1.677  -2.879  0.00  0.00    -0.034 A 
ATOM      5  C4  UNL d   1       1.638   2.566  -1.827  0.00  0.00     0.162 A 
ATOM      6  C5  UNL d   1       2.289   3.795  -1.793  0.00  0.00     0.062 A 
ATOM      7  F   UNL d   1       2.062   4.644  -0.780  0.00  0.00    -0.097 F 
ATOM      8  F1  UNL d   1       0.788   2.254  -0.838  0.00  0.00    -0.096 F 
ATOM      9  I   UNL d   1       0.894  -0.162  -2.933  0.00  0.00    -0.060 I 
ATOM     10  F2  UNL d   1       3.002   1.205  -4.916  0.00  0.00    -0.096 F 
ATOM     11  F3  UNL d   1       4.260   3.601  -4.830  0.00  0.00    -0.097 F 
ATOM     12  F4  UNL d   1       3.800   5.328  -2.769  0.00  0.00    -0.092 F 
ENDROOT
TORSDOF 0
ENDMDL
