MODEL 1
REMARK minimizedAffinity 14.8273649
REMARK minimizedRMSD -1
REMARK  0 active torsions:
REMARK  status: ('A' for Active; 'I' for Inactive)
ROOT
ATOM      1  C   UNL d   1       2.056   1.374  -4.117  0.00  0.00     0.124 A 
ATOM      2  C1  UNL d   1       2.536   2.640  -3.811  0.00  0.00     0.062 A 
ATOM      3  C2  UNL d   1       2.274   3.205  -2.566  0.00  0.00     0.162 A 
ATOM      4  C3  UNL d   1       1.528   2.505  -1.618  0.00  0.00    -0.034 A 
ATOM      5  C4  UNL d   1       1.047   1.233  -1.934  0.00  0.00     0.162 A 
ATOM      6  C5  UNL d   1       1.312   0.672  -3.179  0.00  0.00     0.062 A 
ATOM      7  F   UNL d   1       0.846  -0.550  -3.474  0.00  0.00    -0.097 F 
ATOM      8  F1  UNL d   1       0.327   0.533  -1.046  0.00  0.00    -0.096 F 
ATOM      9  I   UNL d   1       1.134   3.347   0.244  0.00  0.00    -0.060 I 
ATOM     10  F2  UNL d   1       2.752   4.429  -2.297  0.00  0.00    -0.096 F 
ATOM     11  F3  UNL d   1       3.255   3.320  -4.716  0.00  0.00    -0.097 F 
ATOM     12  F4  UNL d   1       2.308   0.833  -5.316  0.00  0.00    -0.092 F 
ENDROOT
TORSDOF 0
ENDMDL
