MODEL 1
REMARK minimizedAffinity 24.5388355
REMARK minimizedRMSD -1
REMARK  0 active torsions:
REMARK  status: ('A' for Active; 'I' for Inactive)
ROOT
ATOM      1  C   UNL d   1      -3.265   2.246   0.403  0.00  0.00     0.124 A 
ATOM      2  C1  UNL d   1      -2.726   2.199   1.682  0.00  0.00     0.062 A 
ATOM      3  C2  UNL d   1      -2.896   1.067   2.472  0.00  0.00     0.162 A 
ATOM      4  C3  UNL d   1      -3.607  -0.031   1.987  0.00  0.00    -0.034 A 
ATOM      5  C4  UNL d   1      -4.147   0.024   0.700  0.00  0.00     0.162 A 
ATOM      6  C5  UNL d   1      -3.975   1.158  -0.086  0.00  0.00     0.062 A 
ATOM      7  F   UNL d   1      -4.496   1.201  -1.321  0.00  0.00    -0.097 F 
ATOM      8  F1  UNL d   1      -4.837  -1.013   0.202  0.00  0.00    -0.096 F 
ATOM      9  I   UNL d   1      -3.863  -1.726   3.166  0.00  0.00    -0.060 I 
ATOM     10  F2  UNL d   1      -2.364   1.050   3.704  0.00  0.00    -0.096 F 
ATOM     11  F3  UNL d   1      -2.040   3.249   2.157  0.00  0.00    -0.097 F 
ATOM     12  F4  UNL d   1      -3.101   3.337  -0.355  0.00  0.00    -0.092 F 
ENDROOT
TORSDOF 0
ENDMDL
