MODEL 1
REMARK minimizedAffinity 3.63132811
REMARK minimizedRMSD -1
REMARK  1 active torsions:
REMARK  status: ('A' for Active; 'I' for Inactive)
REMARK    1  A    between atoms: N_2  and  C1_3 
ROOT
ATOM      1  C1  UNL d   1       0.155  -1.515   2.291  0.00  0.00     0.143 A 
ATOM      2  C2  UNL d   1       0.457  -1.134   0.979  0.00  0.00    -0.057 A 
ATOM      3  C3  UNL d   1       0.082   0.120   0.483  0.00  0.00     0.033 A 
ATOM      4  C4  UNL d   1      -0.630   1.007   1.285  0.00  0.00    -0.042 A 
ATOM      5  C5  UNL d   1      -0.962   0.640   2.584  0.00  0.00     0.033 A 
ATOM      6  C6  UNL d   1      -0.579  -0.612   3.075  0.00  0.00    -0.057 A 
ENDROOT
BRANCH   1   7
ATOM      7  N   UNL d   1       0.415  -2.786   2.811  0.00  0.00    -0.732 N 
ATOM      8  C   UNL d   1      -0.469  -3.895   2.522  0.00  0.00     0.284 C 
ATOM      9  H3  UNL d   1       1.404  -3.024   2.780  0.00  0.00     0.395 HD
ENDBRANCH   1   7
TORSDOF 1
ENDMDL
