MODEL 1
REMARK minimizedAffinity -4.74453735
REMARK minimizedRMSD -1
REMARK  1 active torsions:
REMARK  status: ('A' for Active; 'I' for Inactive)
REMARK    1  A    between atoms: N_2  and  C1_3 
ROOT
ATOM      1  C1  UNL d   1       0.470  -0.338  -0.231  0.00  0.00     0.143 A 
ATOM      2  C2  UNL d   1      -0.088  -0.353   1.052  0.00  0.00    -0.057 A 
ATOM      3  C3  UNL d   1       0.517  -1.059   2.099  0.00  0.00     0.033 A 
ATOM      4  C4  UNL d   1       1.680  -1.789   1.873  0.00  0.00    -0.042 A 
ATOM      5  C5  UNL d   1       2.238  -1.809   0.600  0.00  0.00     0.033 A 
ATOM      6  C6  UNL d   1       1.632  -1.097  -0.440  0.00  0.00    -0.057 A 
ENDROOT
BRANCH   1   7
ATOM      7  N   UNL d   1      -0.137   0.264  -1.336  0.00  0.00    -0.732 N 
ATOM      8  C   UNL d   1       0.153   1.639  -1.678  0.00  0.00     0.284 C 
ATOM      9  H3  UNL d   1      -0.192  -0.361  -2.137  0.00  0.00     0.395 HD
ENDBRANCH   1   7
TORSDOF 1
ENDMDL
