MODEL 1
REMARK minimizedAffinity -0.771285653
REMARK minimizedRMSD -1
REMARK  1 active torsions:
REMARK  status: ('A' for Active; 'I' for Inactive)
REMARK    1  A    between atoms: N_2  and  C1_3 
ROOT
ATOM      1  C1  UNL d   1      -2.532   1.825  -2.972  0.00  0.00     0.143 A 
ATOM      2  C2  UNL d   1      -3.453   2.855  -2.754  0.00  0.00    -0.057 A 
ATOM      3  C3  UNL d   1      -3.052   4.196  -2.733  0.00  0.00     0.033 A 
ATOM      4  C4  UNL d   1      -1.712   4.530  -2.902  0.00  0.00    -0.042 A 
ATOM      5  C5  UNL d   1      -0.775   3.521  -3.095  0.00  0.00     0.033 A 
ATOM      6  C6  UNL d   1      -1.183   2.184  -3.121  0.00  0.00    -0.057 A 
ENDROOT
BRANCH   1   7
ATOM      7  N   UNL d   1      -2.853   0.467  -2.905  0.00  0.00    -0.732 N 
ATOM      8  C   UNL d   1      -1.941  -0.477  -2.296  0.00  0.00     0.284 C 
ATOM      9  H3  UNL d   1      -3.831   0.310  -2.672  0.00  0.00     0.395 HD
ENDBRANCH   1   7
TORSDOF 1
ENDMDL
