MODEL 1
REMARK minimizedAffinity -3.86400104
REMARK minimizedRMSD -1
REMARK  1 active torsions:
REMARK  status: ('A' for Active; 'I' for Inactive)
REMARK    1  A    between atoms: N_2  and  C1_3 
ROOT
ATOM      1  C1  UNL d   1      -0.003   0.009   0.161  0.00  0.00     0.143 A 
ATOM      2  C2  UNL d   1      -0.795  -0.230   1.289  0.00  0.00    -0.057 A 
ATOM      3  C3  UNL d   1      -0.219  -0.497   2.537  0.00  0.00     0.033 A 
ATOM      4  C4  UNL d   1       1.164  -0.558   2.673  0.00  0.00    -0.042 A 
ATOM      5  C5  UNL d   1       1.970  -0.348   1.560  0.00  0.00     0.033 A 
ATOM      6  C6  UNL d   1       1.389  -0.076   0.318  0.00  0.00    -0.057 A 
ENDROOT
BRANCH   1   7
ATOM      7  N   UNL d   1      -0.516   0.182  -1.127  0.00  0.00    -0.732 N 
ATOM      8  C   UNL d   1      -0.718   1.509  -1.668  0.00  0.00     0.284 C 
ATOM      9  H3  UNL d   1      -0.129  -0.484  -1.792  0.00  0.00     0.395 HD
ENDBRANCH   1   7
TORSDOF 1
ENDMDL
