MODEL 1
REMARK minimizedAffinity 10.1821823
REMARK minimizedRMSD -1
REMARK  2 active torsions:
REMARK  status: ('A' for Active; 'I' for Inactive)
REMARK    1  A    between atoms: C1_2  and  C2_3 
REMARK    2  A    between atoms: C2_3  and  C3_4 
ROOT
ATOM      1  C3  UNL d   1       3.778   1.429  -5.222  0.00  0.00    -0.075 A 
ATOM      2  C4  UNL d   1       4.913   1.144  -4.449  0.00  0.00     0.002 A 
ATOM      3  C5  UNL d   1       6.000   2.019  -4.438  0.00  0.00     0.002 A 
ATOM      4  C6  UNL d   1       5.970   3.182  -5.205  0.00  0.00    -0.004 A 
ATOM      5  C7  UNL d   1       4.855   3.466  -5.990  0.00  0.00     0.002 A 
ATOM      6  C8  UNL d   1       3.764   2.595  -6.000  0.00  0.00     0.002 A 
ENDROOT
BRANCH   1   7
ATOM      7  C2  UNL d   1       2.587   0.501  -5.216  0.00  0.00     0.056 C 
BRANCH   7   8
ATOM      8  C1  UNL d   1       1.284   1.162  -4.752  0.00  0.00     0.007 C 
ATOM      9  C   UNL d   1       0.059   0.280  -4.953  0.00  0.00     0.009 C 
ENDBRANCH   7   8
ENDBRANCH   1   7
TORSDOF 2
ENDMDL
