MODEL 1
REMARK minimizedAffinity 11.7014294
REMARK minimizedRMSD -1
REMARK  2 active torsions:
REMARK  status: ('A' for Active; 'I' for Inactive)
REMARK    1  A    between atoms: C1_2  and  C2_3 
REMARK    2  A    between atoms: C2_3  and  C3_4 
ROOT
ATOM      1  C3  UNL d   1       1.504  -0.216   3.517  0.00  0.00    -0.075 A 
ATOM      2  C4  UNL d   1       1.526  -1.524   3.012  0.00  0.00     0.002 A 
ATOM      3  C5  UNL d   1       0.809  -1.851   1.860  0.00  0.00     0.002 A 
ATOM      4  C6  UNL d   1       0.054  -0.879   1.207  0.00  0.00    -0.004 A 
ATOM      5  C7  UNL d   1       0.012   0.420   1.710  0.00  0.00     0.002 A 
ATOM      6  C8  UNL d   1       0.732   0.750   2.859  0.00  0.00     0.002 A 
ENDROOT
BRANCH   1   7
ATOM      7  C2  UNL d   1       2.301   0.151   4.746  0.00  0.00     0.056 C 
BRANCH   7   8
ATOM      8  C1  UNL d   1       1.448   0.372   6.000  0.00  0.00     0.007 C 
ATOM      9  C   UNL d   1       0.714   1.706   5.999  0.00  0.00     0.009 C 
ENDBRANCH   7   8
ENDBRANCH   1   7
TORSDOF 2
ENDMDL
