MODEL 1
REMARK minimizedAffinity 12.6759367
REMARK minimizedRMSD -1
REMARK  2 active torsions:
REMARK  status: ('A' for Active; 'I' for Inactive)
REMARK    1  A    between atoms: C1_2  and  C2_3 
REMARK    2  A    between atoms: C2_3  and  C3_4 
ROOT
ATOM      1  C3  UNL d   1       3.284  -1.435  -3.571  0.00  0.00    -0.075 A 
ATOM      2  C4  UNL d   1       3.281  -0.045  -3.754  0.00  0.00     0.002 A 
ATOM      3  C5  UNL d   1       2.084   0.671  -3.730  0.00  0.00     0.002 A 
ATOM      4  C6  UNL d   1       0.876   0.006  -3.533  0.00  0.00    -0.004 A 
ATOM      5  C7  UNL d   1       0.864  -1.377  -3.367  0.00  0.00     0.002 A 
ATOM      6  C8  UNL d   1       2.061  -2.095  -3.386  0.00  0.00     0.002 A 
ENDROOT
BRANCH   1   7
ATOM      7  C2  UNL d   1       4.579  -2.212  -3.567  0.00  0.00     0.056 C 
BRANCH   7   8
ATOM      8  C1  UNL d   1       4.662  -3.292  -4.651  0.00  0.00     0.007 C 
ATOM      9  C   UNL d   1       5.995  -3.302  -5.387  0.00  0.00     0.009 C 
ENDBRANCH   7   8
ENDBRANCH   1   7
TORSDOF 2
ENDMDL
