MODEL 1
REMARK minimizedAffinity 9.41473484
REMARK minimizedRMSD -1
REMARK  2 active torsions:
REMARK  status: ('A' for Active; 'I' for Inactive)
REMARK    1  A    between atoms: C1_2  and  C2_3 
REMARK    2  A    between atoms: C2_3  and  C3_4 
ROOT
ATOM      1  C3  UNL d   1       0.823  -1.042   3.045  0.00  0.00    -0.075 A 
ATOM      2  C4  UNL d   1       1.783  -0.064   3.341  0.00  0.00     0.002 A 
ATOM      3  C5  UNL d   1       2.856  -0.358   4.183  0.00  0.00     0.002 A 
ATOM      4  C6  UNL d   1       2.977  -1.626   4.747  0.00  0.00    -0.004 A 
ATOM      5  C7  UNL d   1       2.019  -2.600   4.472  0.00  0.00     0.002 A 
ATOM      6  C8  UNL d   1       0.947  -2.310   3.626  0.00  0.00     0.002 A 
ENDROOT
BRANCH   1   7
ATOM      7  C2  UNL d   1      -0.325  -0.739   2.110  0.00  0.00     0.056 C 
BRANCH   7   8
ATOM      8  C1  UNL d   1      -1.138   0.499   2.502  0.00  0.00     0.007 C 
ATOM      9  C   UNL d   1      -2.611   0.391   2.131  0.00  0.00     0.009 C 
ENDBRANCH   7   8
ENDBRANCH   1   7
TORSDOF 2
ENDMDL
