MODEL 1
REMARK minimizedAffinity 16.363327
REMARK minimizedRMSD -1
REMARK  2 active torsions:
REMARK  status: ('A' for Active; 'I' for Inactive)
REMARK    1  A    between atoms: C1_2  and  C2_3 
REMARK    2  A    between atoms: C2_3  and  C3_4 
ROOT
ATOM      1  C3  UNL d   1      -5.984   2.412  -1.281  0.00  0.00    -0.075 A 
ATOM      2  C4  UNL d   1      -5.977   2.533   0.116  0.00  0.00     0.002 A 
ATOM      3  C5  UNL d   1      -5.990   3.792   0.718  0.00  0.00     0.002 A 
ATOM      4  C6  UNL d   1      -6.000   4.942  -0.068  0.00  0.00    -0.004 A 
ATOM      5  C7  UNL d   1      -5.990   4.834  -1.456  0.00  0.00     0.002 A 
ATOM      6  C8  UNL d   1      -5.982   3.576  -2.061  0.00  0.00     0.002 A 
ENDROOT
BRANCH   1   7
ATOM      7  C2  UNL d   1      -6.000   1.052  -1.939  0.00  0.00     0.056 C 
BRANCH   7   8
ATOM      8  C1  UNL d   1      -4.743   0.216  -1.673  0.00  0.00     0.007 C 
ATOM      9  C   UNL d   1      -4.052  -0.251  -2.947  0.00  0.00     0.009 C 
ENDBRANCH   7   8
ENDBRANCH   1   7
TORSDOF 2
ENDMDL
