MODEL 1
REMARK minimizedAffinity 5.57898426
REMARK minimizedRMSD -1
REMARK  2 active torsions:
REMARK  status: ('A' for Active; 'I' for Inactive)
REMARK    1  A    between atoms: C1_2  and  C2_3 
REMARK    2  A    between atoms: C2_3  and  C3_4 
ROOT
ATOM      1  C3  UNL d   1       3.335  -3.515   4.771  0.00  0.00    -0.075 A 
ATOM      2  C4  UNL d   1       4.346  -2.543   4.772  0.00  0.00     0.002 A 
ATOM      3  C5  UNL d   1       5.671  -2.899   5.025  0.00  0.00     0.002 A 
ATOM      4  C6  UNL d   1       6.000  -4.226   5.290  0.00  0.00    -0.004 A 
ATOM      5  C7  UNL d   1       5.001  -5.198   5.308  0.00  0.00     0.002 A 
ATOM      6  C8  UNL d   1       3.675  -4.845   5.051  0.00  0.00     0.002 A 
ENDROOT
BRANCH   1   7
ATOM      7  C2  UNL d   1       1.903  -3.141   4.469  0.00  0.00     0.056 C 
BRANCH   7   8
ATOM      8  C1  UNL d   1       1.744  -2.207   3.265  0.00  0.00     0.007 C 
ATOM      9  C   UNL d   1       1.054  -0.894   3.611  0.00  0.00     0.009 C 
ENDBRANCH   7   8
ENDBRANCH   1   7
TORSDOF 2
ENDMDL
