MODEL 1
REMARK minimizedAffinity 17.2688866
REMARK minimizedRMSD -1
REMARK  2 active torsions:
REMARK  status: ('A' for Active; 'I' for Inactive)
REMARK    1  A    between atoms: C1_2  and  C2_3 
REMARK    2  A    between atoms: C2_3  and  C3_4 
ROOT
ATOM      1  C3  UNL d   1       1.672  -0.827  -4.044  0.00  0.00    -0.075 A 
ATOM      2  C4  UNL d   1       0.862  -0.768  -2.901  0.00  0.00     0.002 A 
ATOM      3  C5  UNL d   1      -0.519  -0.945  -3.002  0.00  0.00     0.002 A 
ATOM      4  C6  UNL d   1      -1.106  -1.171  -4.244  0.00  0.00    -0.004 A 
ATOM      5  C7  UNL d   1      -0.312  -1.215  -5.389  0.00  0.00     0.002 A 
ATOM      6  C8  UNL d   1       1.069  -1.043  -5.290  0.00  0.00     0.002 A 
ENDROOT
BRANCH   1   7
ATOM      7  C2  UNL d   1       3.170  -0.666  -3.938  0.00  0.00     0.056 C 
BRANCH   7   8
ATOM      8  C1  UNL d   1       3.885  -1.875  -3.325  0.00  0.00     0.007 C 
ATOM      9  C   UNL d   1       4.922  -2.494  -4.254  0.00  0.00     0.009 C 
ENDBRANCH   7   8
ENDBRANCH   1   7
TORSDOF 2
ENDMDL
