MODEL 1
REMARK minimizedAffinity 2.49581313
REMARK minimizedRMSD -1
REMARK  1 active torsions:
REMARK  status: ('A' for Active; 'I' for Inactive)
REMARK    1  A    between atoms: C1_2  and  C2_3 
ROOT
ATOM      1  C2  UNL d   1       0.804  -1.797   2.150  0.00  0.00    -0.077 A 
ATOM      2  C3  UNL d   1      -0.540  -2.195   2.165  0.00  0.00     0.002 A 
ATOM      3  C4  UNL d   1      -1.514  -1.373   2.737  0.00  0.00     0.002 A 
ATOM      4  C5  UNL d   1      -1.154  -0.148   3.294  0.00  0.00    -0.004 A 
ATOM      5  C6  UNL d   1       0.180   0.256   3.286  0.00  0.00     0.002 A 
ATOM      6  C7  UNL d   1       1.155  -0.564   2.715  0.00  0.00     0.002 A 
ENDROOT
BRANCH   1   7
ATOM      7  C1  UNL d   1       1.848  -2.659   1.490  0.00  0.00     0.055 C 
ATOM      8  C   UNL d   1       2.235  -2.110   0.124  0.00  0.00     0.019 C 
ENDBRANCH   1   7
TORSDOF 1
ENDMDL
