MODEL 1
REMARK minimizedAffinity 3.78022575
REMARK minimizedRMSD -1
REMARK  1 active torsions:
REMARK  status: ('A' for Active; 'I' for Inactive)
REMARK    1  A    between atoms: C1_2  and  C2_3 
ROOT
ATOM      1  C2  UNL d   1      -2.778  -0.355   0.773  0.00  0.00    -0.077 A 
ATOM      2  C3  UNL d   1      -3.460   0.620   1.514  0.00  0.00     0.002 A 
ATOM      3  C4  UNL d   1      -3.199   0.782   2.876  0.00  0.00     0.002 A 
ATOM      4  C5  UNL d   1      -2.254  -0.024   3.507  0.00  0.00    -0.004 A 
ATOM      5  C6  UNL d   1      -1.572  -0.998   2.779  0.00  0.00     0.002 A 
ATOM      6  C7  UNL d   1      -1.833  -1.163   1.418  0.00  0.00     0.002 A 
ENDROOT
BRANCH   1   7
ATOM      7  C1  UNL d   1      -3.023  -0.499  -0.707  0.00  0.00     0.055 C 
ATOM      8  C   UNL d   1      -1.714  -0.525  -1.484  0.00  0.00     0.019 C 
ENDBRANCH   1   7
TORSDOF 1
ENDMDL
