MODEL 1
REMARK minimizedAffinity 4.22477436
REMARK minimizedRMSD -1
REMARK  1 active torsions:
REMARK  status: ('A' for Active; 'I' for Inactive)
REMARK    1  A    between atoms: C1_2  and  C2_3 
ROOT
ATOM      1  C2  UNL d   1       3.365  -3.947   1.774  0.00  0.00    -0.077 A 
ATOM      2  C3  UNL d   1       3.106  -5.165   1.131  0.00  0.00     0.002 A 
ATOM      3  C4  UNL d   1       4.158  -6.000   0.748  0.00  0.00     0.002 A 
ATOM      4  C5  UNL d   1       5.475  -5.627   1.008  0.00  0.00    -0.004 A 
ATOM      5  C6  UNL d   1       5.743  -4.416   1.646  0.00  0.00     0.002 A 
ATOM      6  C7  UNL d   1       4.693  -3.580   2.028  0.00  0.00     0.002 A 
ENDROOT
BRANCH   1   7
ATOM      7  C1  UNL d   1       2.230  -3.068   2.231  0.00  0.00     0.055 C 
ATOM      8  C   UNL d   1       1.645  -2.273   1.074  0.00  0.00     0.019 C 
ENDBRANCH   1   7
TORSDOF 1
ENDMDL
