MODEL 1
REMARK minimizedAffinity 3.76603937
REMARK minimizedRMSD -1
REMARK  1 active torsions:
REMARK  status: ('A' for Active; 'I' for Inactive)
REMARK    1  A    between atoms: C1_2  and  C2_3 
ROOT
ATOM      1  C2  UNL d   1      -1.657  -0.751   2.521  0.00  0.00    -0.077 A 
ATOM      2  C3  UNL d   1      -2.079  -1.127   1.237  0.00  0.00     0.002 A 
ATOM      3  C4  UNL d   1      -3.143  -0.467   0.622  0.00  0.00     0.002 A 
ATOM      4  C5  UNL d   1      -3.793   0.576   1.279  0.00  0.00    -0.004 A 
ATOM      5  C6  UNL d   1      -3.383   0.956   2.557  0.00  0.00     0.002 A 
ATOM      6  C7  UNL d   1      -2.319   0.296   3.174  0.00  0.00     0.002 A 
ENDROOT
BRANCH   1   7
ATOM      7  C1  UNL d   1      -0.478  -1.430   3.166  0.00  0.00     0.055 C 
ATOM      8  C   UNL d   1       0.331  -2.222   2.149  0.00  0.00     0.019 C 
ENDBRANCH   1   7
TORSDOF 1
ENDMDL
