MODEL 1
REMARK minimizedAffinity 6.13545465
REMARK minimizedRMSD -1
REMARK  1 active torsions:
REMARK  status: ('A' for Active; 'I' for Inactive)
REMARK    1  A    between atoms: C1_2  and  C2_3 
ROOT
ATOM      1  C2  UNL d   1       1.975  -3.901   1.015  0.00  0.00    -0.077 A 
ATOM      2  C3  UNL d   1       1.801  -3.028  -0.068  0.00  0.00     0.002 A 
ATOM      3  C4  UNL d   1       1.816  -1.646   0.129  0.00  0.00     0.002 A 
ATOM      4  C5  UNL d   1       2.008  -1.125   1.407  0.00  0.00    -0.004 A 
ATOM      5  C6  UNL d   1       2.179  -1.985   2.491  0.00  0.00     0.002 A 
ATOM      6  C7  UNL d   1       2.164  -3.366   2.296  0.00  0.00     0.002 A 
ENDROOT
BRANCH   1   7
ATOM      7  C1  UNL d   1       2.009  -5.391   0.797  0.00  0.00     0.055 C 
ATOM      8  C   UNL d   1       3.237  -5.806   0.000  0.00  0.00     0.019 C 
ENDBRANCH   1   7
TORSDOF 1
ENDMDL
