MODEL 1
REMARK minimizedAffinity 1.26335728
REMARK minimizedRMSD -1
REMARK  1 active torsions:
REMARK  status: ('A' for Active; 'I' for Inactive)
REMARK    1  A    between atoms: C1_2  and  C2_3 
ROOT
ATOM      1  C2  UNL d   1      -2.443   0.067   3.289  0.00  0.00    -0.077 A 
ATOM      2  C3  UNL d   1      -2.754  -0.769   2.207  0.00  0.00     0.002 A 
ATOM      3  C4  UNL d   1      -1.810  -1.675   1.720  0.00  0.00     0.002 A 
ATOM      4  C5  UNL d   1      -0.552  -1.758   2.311  0.00  0.00    -0.004 A 
ATOM      5  C6  UNL d   1      -0.232  -0.931   3.387  0.00  0.00     0.002 A 
ATOM      6  C7  UNL d   1      -1.173  -0.023   3.874  0.00  0.00     0.002 A 
ENDROOT
BRANCH   1   7
ATOM      7  C1  UNL d   1      -3.476   1.011   3.846  0.00  0.00     0.055 C 
ATOM      8  C   UNL d   1      -4.452   1.462   2.770  0.00  0.00     0.019 C 
ENDBRANCH   1   7
TORSDOF 1
ENDMDL
