MODEL 1
REMARK minimizedAffinity 9.86412716
REMARK minimizedRMSD -1
REMARK  1 active torsions:
REMARK  status: ('A' for Active; 'I' for Inactive)
REMARK    1  A    between atoms: C1_2  and  C2_3 
ROOT
ATOM      1  C2  UNL d   1       1.920  -1.630   0.624  0.00  0.00    -0.077 A 
ATOM      2  C3  UNL d   1       3.296  -1.841   0.790  0.00  0.00     0.002 A 
ATOM      3  C4  UNL d   1       3.758  -2.919   1.548  0.00  0.00     0.002 A 
ATOM      4  C5  UNL d   1       2.852  -3.795   2.142  0.00  0.00    -0.004 A 
ATOM      5  C6  UNL d   1       1.482  -3.592   1.984  0.00  0.00     0.002 A 
ATOM      6  C7  UNL d   1       1.018  -2.515   1.227  0.00  0.00     0.002 A 
ENDROOT
BRANCH   1   7
ATOM      7  C1  UNL d   1       1.421  -0.497  -0.234  0.00  0.00     0.055 C 
ATOM      8  C   UNL d   1       0.438  -0.990  -1.286  0.00  0.00     0.019 C 
ENDBRANCH   1   7
TORSDOF 1
ENDMDL
