MODEL 1
REMARK minimizedAffinity 9.71195126
REMARK minimizedRMSD -1
REMARK  0 active torsions:
REMARK  status: ('A' for Active; 'I' for Inactive)
ROOT
ATOM      1  N1  IND d   1       5.238  -5.643  -0.297  0.00  0.00    -0.196 N 
ATOM      2  C2  IND d   1       4.109  -5.671   0.473  0.00  0.00     0.054 A 
ATOM      3  C3  IND d   1       3.010  -5.767  -0.309  0.00  0.00    -0.031 A 
ATOM      4  C4  IND d   1       2.836  -5.994  -2.867  0.00  0.00     0.051 A 
ATOM      5  C5  IND d   1       3.595  -5.981  -4.004  0.00  0.00    -0.031 A 
ATOM      6  C6  IND d   1       4.969  -5.854  -3.962  0.00  0.00     0.015 A 
ATOM      7  C7  IND d   1       5.638  -5.747  -2.776  0.00  0.00    -0.016 A 
ATOM      8  C8  IND d   1       4.870  -5.754  -1.620  0.00  0.00    -0.047 A 
ATOM      9  C9  IND d   1       3.473  -5.839  -1.658  0.00  0.00    -0.096 A 
ATOM     10  HN1 IND d   1       6.043  -5.569  -0.004  0.00  0.00     0.298 HD
ENDROOT
TORSDOF 0
ENDMDL
