MODEL 1
REMARK minimizedAffinity 0.297018886
REMARK minimizedRMSD -1
REMARK  0 active torsions:
REMARK  status: ('A' for Active; 'I' for Inactive)
ROOT
ATOM      1  N1  IND d   1       1.292  -1.193   3.997  0.00  0.00    -0.196 N 
ATOM      2  C2  IND d   1       1.469  -1.019   2.653  0.00  0.00     0.054 A 
ATOM      3  C3  IND d   1       1.996  -2.134   2.099  0.00  0.00    -0.031 A 
ATOM      4  C4  IND d   1       2.550  -4.398   3.193  0.00  0.00     0.051 A 
ATOM      5  C5  IND d   1       2.594  -5.026   4.406  0.00  0.00    -0.031 A 
ATOM      6  C6  IND d   1       2.195  -4.397   5.568  0.00  0.00     0.015 A 
ATOM      7  C7  IND d   1       1.725  -3.114   5.558  0.00  0.00    -0.016 A 
ATOM      8  C8  IND d   1       1.686  -2.471   4.329  0.00  0.00    -0.047 A 
ATOM      9  C9  IND d   1       2.129  -3.089   3.153  0.00  0.00    -0.096 A 
ATOM     10  HN1 IND d   1       0.986  -0.604   4.543  0.00  0.00     0.298 HD
ENDROOT
TORSDOF 0
ENDMDL
