MODEL 1
REMARK minimizedAffinity 7.79094696
REMARK minimizedRMSD -1
REMARK  0 active torsions:
REMARK  status: ('A' for Active; 'I' for Inactive)
ROOT
ATOM      1  N1  IND d   1       4.620  -3.442   5.068  0.00  0.00    -0.196 N 
ATOM      2  C2  IND d   1       5.709  -3.043   4.345  0.00  0.00     0.054 A 
ATOM      3  C3  IND d   1       5.321  -2.502   3.168  0.00  0.00    -0.031 A 
ATOM      4  C4  IND d   1       2.946  -2.080   2.267  0.00  0.00     0.051 A 
ATOM      5  C5  IND d   1       1.630  -2.307   2.553  0.00  0.00    -0.031 A 
ATOM      6  C6  IND d   1       1.234  -2.935   3.717  0.00  0.00     0.015 A 
ATOM      7  C7  IND d   1       2.144  -3.350   4.647  0.00  0.00    -0.016 A 
ATOM      8  C8  IND d   1       3.483  -3.127   4.357  0.00  0.00    -0.047 A 
ATOM      9  C9  IND d   1       3.892  -2.529   3.158  0.00  0.00    -0.096 A 
ATOM     10  HN1 IND d   1       4.642  -3.826   5.837  0.00  0.00     0.298 HD
ENDROOT
TORSDOF 0
ENDMDL
