MODEL 1
REMARK minimizedAffinity 8.73497486
REMARK minimizedRMSD -1
REMARK  0 active torsions:
REMARK  status: ('A' for Active; 'I' for Inactive)
ROOT
ATOM      1  N1  IND d   1      -3.446   1.360  -3.518  0.00  0.00    -0.196 N 
ATOM      2  C2  IND d   1      -3.357   0.034  -3.835  0.00  0.00     0.054 A 
ATOM      3  C3  IND d   1      -2.803  -0.658  -2.814  0.00  0.00    -0.031 A 
ATOM      4  C4  IND d   1      -2.064   0.167  -0.490  0.00  0.00     0.051 A 
ATOM      5  C5  IND d   1      -1.916   1.305   0.252  0.00  0.00    -0.031 A 
ATOM      6  C6  IND d   1      -2.280   2.544  -0.233  0.00  0.00     0.015 A 
ATOM      7  C7  IND d   1      -2.819   2.691  -1.480  0.00  0.00    -0.016 A 
ATOM      8  C8  IND d   1      -2.964   1.538  -2.239  0.00  0.00    -0.047 A 
ATOM      9  C9  IND d   1      -2.557   0.283  -1.768  0.00  0.00    -0.096 A 
ATOM     10  HN1 IND d   1      -3.752   1.979  -4.030  0.00  0.00     0.298 HD
ENDROOT
TORSDOF 0
ENDMDL
