MODEL 1
REMARK minimizedAffinity -3.20229268
REMARK minimizedRMSD -1
REMARK  0 active torsions:
REMARK  status: ('A' for Active; 'I' for Inactive)
ROOT
ATOM      1  N1  IND d   1       3.081   0.927   1.491  0.00  0.00    -0.196 N 
ATOM      2  C2  IND d   1       2.998   1.191   0.152  0.00  0.00     0.054 A 
ATOM      3  C3  IND d   1       2.158   0.318  -0.449  0.00  0.00    -0.031 A 
ATOM      4  C4  IND d   1       0.734  -1.559   0.589  0.00  0.00     0.051 A 
ATOM      5  C5  IND d   1       0.501  -2.207   1.769  0.00  0.00    -0.031 A 
ATOM      6  C6  IND d   1       1.126  -1.834   2.942  0.00  0.00     0.015 A 
ATOM      7  C7  IND d   1       2.003  -0.787   2.979  0.00  0.00    -0.016 A 
ATOM      8  C8  IND d   1       2.248  -0.132   1.781  0.00  0.00    -0.047 A 
ATOM      9  C9  IND d   1       1.649  -0.533   0.580  0.00  0.00    -0.096 A 
ATOM     10  HN1 IND d   1       3.571   1.350   2.056  0.00  0.00     0.298 HD
ENDROOT
TORSDOF 0
ENDMDL
