MODEL 1
REMARK minimizedAffinity 12.8254051
REMARK minimizedRMSD -1
REMARK  0 active torsions:
REMARK  status: ('A' for Active; 'I' for Inactive)
ROOT
ATOM      1  N1  IND d   1      -4.238   3.578  -0.613  0.00  0.00    -0.196 N 
ATOM      2  C2  IND d   1      -5.193   4.465  -0.201  0.00  0.00     0.054 A 
ATOM      3  C3  IND d   1      -6.000   4.801  -1.232  0.00  0.00    -0.031 A 
ATOM      4  C4  IND d   1      -5.999   3.938  -3.658  0.00  0.00     0.051 A 
ATOM      5  C5  IND d   1      -5.294   3.145  -4.518  0.00  0.00    -0.031 A 
ATOM      6  C6  IND d   1      -4.179   2.439  -4.113  0.00  0.00     0.015 A 
ATOM      7  C7  IND d   1      -3.734   2.492  -2.822  0.00  0.00    -0.016 A 
ATOM      8  C8  IND d   1      -4.443   3.302  -1.947  0.00  0.00    -0.047 A 
ATOM      9  C9  IND d   1      -5.550   4.053  -2.363  0.00  0.00    -0.096 A 
ATOM     10  HN1 IND d   1      -3.614   3.249  -0.122  0.00  0.00     0.298 HD
ENDROOT
TORSDOF 0
ENDMDL
