MODEL 1
REMARK minimizedAffinity 7.63630962
REMARK minimizedRMSD -1
REMARK  0 active torsions:
REMARK  status: ('A' for Active; 'I' for Inactive)
ROOT
ATOM      1  N1  IND d   1       5.291  -5.934  -3.143  0.00  0.00    -0.196 N 
ATOM      2  C2  IND d   1       5.496  -5.949  -4.494  0.00  0.00     0.054 A 
ATOM      3  C3  IND d   1       4.314  -6.000  -5.149  0.00  0.00    -0.031 A 
ATOM      4  C4  IND d   1       1.919  -5.963  -4.206  0.00  0.00     0.051 A 
ATOM      5  C5  IND d   1       1.224  -5.990  -3.030  0.00  0.00    -0.031 A 
ATOM      6  C6  IND d   1       1.862  -5.996  -1.806  0.00  0.00     0.015 A 
ATOM      7  C7  IND d   1       3.224  -5.965  -1.713  0.00  0.00    -0.016 A 
ATOM      8  C8  IND d   1       3.934  -5.945  -2.905  0.00  0.00    -0.047 A 
ATOM      9  C9  IND d   1       3.293  -5.981  -4.151  0.00  0.00    -0.096 A 
ATOM     10  HN1 IND d   1       5.906  -5.919  -2.542  0.00  0.00     0.298 HD
ENDROOT
TORSDOF 0
ENDMDL
