MODEL 1
REMARK minimizedAffinity 12.828763
REMARK minimizedRMSD -1
REMARK  2 active torsions:
REMARK  status: ('A' for Active; 'I' for Inactive)
REMARK    1  A    between atoms: C1_2  and  C2_3 
REMARK    2  A    between atoms: C2_3  and  C3_4 
ROOT
ATOM      1  C3  UNL d   1       3.243   0.028   0.261  0.00  0.00    -0.075 A 
ATOM      2  C4  UNL d   1       2.158  -0.603  -0.365  0.00  0.00     0.002 A 
ATOM      3  C5  UNL d   1       2.089  -1.995  -0.430  0.00  0.00     0.002 A 
ATOM      4  C6  UNL d   1       3.107  -2.772   0.118  0.00  0.00    -0.004 A 
ATOM      5  C7  UNL d   1       4.198  -2.156   0.727  0.00  0.00     0.002 A 
ATOM      6  C8  UNL d   1       4.267  -0.764   0.798  0.00  0.00     0.002 A 
ENDROOT
BRANCH   1   7
ATOM      7  C2  UNL d   1       3.309   1.533   0.361  0.00  0.00     0.056 C 
BRANCH   7   8
ATOM      8  C1  UNL d   1       4.689   2.072   0.754  0.00  0.00     0.007 C 
ATOM      9  C   UNL d   1       4.639   3.068   1.905  0.00  0.00     0.009 C 
ENDBRANCH   7   8
ENDBRANCH   1   7
TORSDOF 2
ENDMDL
