MODEL 1
REMARK minimizedAffinity 11.3660679
REMARK minimizedRMSD -1
REMARK  2 active torsions:
REMARK  status: ('A' for Active; 'I' for Inactive)
REMARK    1  A    between atoms: C1_2  and  C2_3 
REMARK    2  A    between atoms: C2_3  and  C3_4 
ROOT
ATOM      1  C3  UNL d   1      -2.425  -4.490  -3.938  0.00  0.00    -0.075 A 
ATOM      2  C4  UNL d   1      -2.683  -3.111  -3.957  0.00  0.00     0.002 A 
ATOM      3  C5  UNL d   1      -3.447  -2.548  -4.980  0.00  0.00     0.002 A 
ATOM      4  C6  UNL d   1      -3.952  -3.351  -6.000  0.00  0.00    -0.004 A 
ATOM      5  C7  UNL d   1      -3.688  -4.719  -6.000  0.00  0.00     0.002 A 
ATOM      6  C8  UNL d   1      -2.928  -5.286  -4.975  0.00  0.00     0.002 A 
ENDROOT
BRANCH   1   7
ATOM      7  C2  UNL d   1      -1.625  -5.111  -2.818  0.00  0.00     0.056 C 
BRANCH   7   8
ATOM      8  C1  UNL d   1      -0.254  -4.462  -2.597  0.00  0.00     0.007 C 
ATOM      9  C   UNL d   1       0.908  -5.375  -2.965  0.00  0.00     0.009 C 
ENDBRANCH   7   8
ENDBRANCH   1   7
TORSDOF 2
ENDMDL
