MODEL 1
REMARK minimizedAffinity 7.90245962
REMARK minimizedRMSD -1
REMARK  2 active torsions:
REMARK  status: ('A' for Active; 'I' for Inactive)
REMARK    1  A    between atoms: C1_2  and  C2_3 
REMARK    2  A    between atoms: C2_3  and  C3_4 
ROOT
ATOM      1  C3  UNL d   1       2.319   1.663   1.279  0.00  0.00    -0.075 A 
ATOM      2  C4  UNL d   1       2.776   1.039   0.109  0.00  0.00     0.002 A 
ATOM      3  C5  UNL d   1       3.991   1.414  -0.465  0.00  0.00     0.002 A 
ATOM      4  C6  UNL d   1       4.757   2.422   0.115  0.00  0.00    -0.004 A 
ATOM      5  C7  UNL d   1       4.305   3.061   1.267  0.00  0.00     0.002 A 
ATOM      6  C8  UNL d   1       3.092   2.684   1.847  0.00  0.00     0.002 A 
ENDROOT
BRANCH   1   7
ATOM      7  C2  UNL d   1       1.019   1.241   1.922  0.00  0.00     0.056 C 
BRANCH   7   8
ATOM      8  C1  UNL d   1       0.759   1.890   3.286  0.00  0.00     0.007 C 
ATOM      9  C   UNL d   1       1.604   1.296   4.404  0.00  0.00     0.009 C 
ENDBRANCH   7   8
ENDBRANCH   1   7
TORSDOF 2
ENDMDL
