MODEL 1
REMARK minimizedAffinity 10.185977
REMARK minimizedRMSD -1
REMARK  2 active torsions:
REMARK  status: ('A' for Active; 'I' for Inactive)
REMARK    1  A    between atoms: C1_2  and  C2_3 
REMARK    2  A    between atoms: C2_3  and  C3_4 
ROOT
ATOM      1  C3  UNL d   1       1.382  -3.227  -1.874  0.00  0.00    -0.075 A 
ATOM      2  C4  UNL d   1       2.280  -3.724  -0.919  0.00  0.00     0.002 A 
ATOM      3  C5  UNL d   1       2.961  -2.855  -0.066  0.00  0.00     0.002 A 
ATOM      4  C6  UNL d   1       2.761  -1.480  -0.164  0.00  0.00    -0.004 A 
ATOM      5  C7  UNL d   1       1.883  -0.973  -1.120  0.00  0.00     0.002 A 
ATOM      6  C8  UNL d   1       1.197  -1.841  -1.972  0.00  0.00     0.002 A 
ENDROOT
BRANCH   1   7
ATOM      7  C2  UNL d   1       0.620  -4.164  -2.780  0.00  0.00     0.056 C 
BRANCH   7   8
ATOM      8  C1  UNL d   1      -0.877  -3.851  -2.885  0.00  0.00     0.007 C 
ATOM      9  C   UNL d   1      -1.747  -4.797  -2.068  0.00  0.00     0.009 C 
ENDBRANCH   7   8
ENDBRANCH   1   7
TORSDOF 2
ENDMDL
