MODEL 1
REMARK minimizedAffinity 18.0239029
REMARK minimizedRMSD -1
REMARK  2 active torsions:
REMARK  status: ('A' for Active; 'I' for Inactive)
REMARK    1  A    between atoms: C1_2  and  C2_3 
REMARK    2  A    between atoms: C2_3  and  C3_4 
ROOT
ATOM      1  C3  UNL d   1      -2.063   1.213   2.922  0.00  0.00    -0.075 A 
ATOM      2  C4  UNL d   1      -1.108   0.222   3.190  0.00  0.00     0.002 A 
ATOM      3  C5  UNL d   1       0.254   0.503   3.082  0.00  0.00     0.002 A 
ATOM      4  C6  UNL d   1       0.678   1.773   2.696  0.00  0.00    -0.004 A 
ATOM      5  C7  UNL d   1      -0.263   2.761   2.412  0.00  0.00     0.002 A 
ATOM      6  C8  UNL d   1      -1.626   2.483   2.523  0.00  0.00     0.002 A 
ENDROOT
BRANCH   1   7
ATOM      7  C2  UNL d   1      -3.539   0.924   3.066  0.00  0.00     0.056 C 
BRANCH   7   8
ATOM      8  C1  UNL d   1      -4.318   2.012   3.812  0.00  0.00     0.007 C 
ATOM      9  C   UNL d   1      -4.125   1.961   5.321  0.00  0.00     0.009 C 
ENDBRANCH   7   8
ENDBRANCH   1   7
TORSDOF 2
ENDMDL
