MODEL 1
REMARK minimizedAffinity 13.2397699
REMARK minimizedRMSD -1
REMARK  2 active torsions:
REMARK  status: ('A' for Active; 'I' for Inactive)
REMARK    1  A    between atoms: C1_2  and  C2_3 
REMARK    2  A    between atoms: C2_3  and  C3_4 
ROOT
ATOM      1  C3  UNL d   1      -3.279   1.278   3.619  0.00  0.00    -0.075 A 
ATOM      2  C4  UNL d   1      -4.512   1.916   3.422  0.00  0.00     0.002 A 
ATOM      3  C5  UNL d   1      -5.210   2.460   4.501  0.00  0.00     0.002 A 
ATOM      4  C6  UNL d   1      -4.690   2.363   5.790  0.00  0.00    -0.004 A 
ATOM      5  C7  UNL d   1      -3.474   1.717   6.000  0.00  0.00     0.002 A 
ATOM      6  C8  UNL d   1      -2.772   1.176   4.921  0.00  0.00     0.002 A 
ENDROOT
BRANCH   1   7
ATOM      7  C2  UNL d   1      -2.506   0.714   2.452  0.00  0.00     0.056 C 
BRANCH   7   8
ATOM      8  C1  UNL d   1      -1.236   1.499   2.106  0.00  0.00     0.007 C 
ATOM      9  C   UNL d   1      -0.035   1.102   2.954  0.00  0.00     0.009 C 
ENDBRANCH   7   8
ENDBRANCH   1   7
TORSDOF 2
ENDMDL
