MODEL 1
REMARK minimizedAffinity 14.0100574
REMARK minimizedRMSD -1
REMARK  2 active torsions:
REMARK  status: ('A' for Active; 'I' for Inactive)
REMARK    1  A    between atoms: C1_2  and  C2_3 
REMARK    2  A    between atoms: C2_3  and  C3_4 
ROOT
ATOM      1  C3  UNL d   1       1.897  -5.015  -2.097  0.00  0.00    -0.075 A 
ATOM      2  C4  UNL d   1       1.964  -3.872  -1.288  0.00  0.00     0.002 A 
ATOM      3  C5  UNL d   1       3.009  -3.708  -0.379  0.00  0.00     0.002 A 
ATOM      4  C6  UNL d   1       3.993  -4.687  -0.261  0.00  0.00    -0.004 A 
ATOM      5  C7  UNL d   1       3.928  -5.834  -1.048  0.00  0.00     0.002 A 
ATOM      6  C8  UNL d   1       2.885  -5.999  -1.961  0.00  0.00     0.002 A 
ENDROOT
BRANCH   1   7
ATOM      7  C2  UNL d   1       0.784  -5.185  -3.104  0.00  0.00     0.056 C 
BRANCH   7   8
ATOM      8  C1  UNL d   1       0.693  -4.050  -4.130  0.00  0.00     0.007 C 
ATOM      9  C   UNL d   1      -0.739  -3.708  -4.522  0.00  0.00     0.009 C 
ENDBRANCH   7   8
ENDBRANCH   1   7
TORSDOF 2
ENDMDL
