MODEL 1
REMARK minimizedAffinity 10.618187
REMARK minimizedRMSD -1
REMARK  2 active torsions:
REMARK  status: ('A' for Active; 'I' for Inactive)
REMARK    1  A    between atoms: C1_2  and  C2_3 
REMARK    2  A    between atoms: C2_3  and  C3_4 
ROOT
ATOM      1  C3  UNL d   1      -3.604   0.837   4.645  0.00  0.00    -0.075 A 
ATOM      2  C4  UNL d   1      -3.853   1.551   5.826  0.00  0.00     0.002 A 
ATOM      3  C5  UNL d   1      -4.695   2.663   5.818  0.00  0.00     0.002 A 
ATOM      4  C6  UNL d   1      -5.290   3.081   4.630  0.00  0.00    -0.004 A 
ATOM      5  C7  UNL d   1      -5.038   2.390   3.448  0.00  0.00     0.002 A 
ATOM      6  C8  UNL d   1      -4.199   1.274   3.454  0.00  0.00     0.002 A 
ENDROOT
BRANCH   1   7
ATOM      7  C2  UNL d   1      -2.717  -0.385   4.653  0.00  0.00     0.056 C 
BRANCH   7   8
ATOM      8  C1  UNL d   1      -3.237  -1.527   5.532  0.00  0.00     0.007 C 
ATOM      9  C   UNL d   1      -3.280  -2.868   4.811  0.00  0.00     0.009 C 
ENDBRANCH   7   8
ENDBRANCH   1   7
TORSDOF 2
ENDMDL
