MODEL 1
REMARK minimizedAffinity 11.4260893
REMARK minimizedRMSD -1
REMARK  2 active torsions:
REMARK  status: ('A' for Active; 'I' for Inactive)
REMARK    1  A    between atoms: C1_2  and  C2_3 
REMARK    2  A    between atoms: C2_3  and  C3_4 
ROOT
ATOM      1  C3  UNL d   1      -2.162  -4.058  -4.013  0.00  0.00    -0.075 A 
ATOM      2  C4  UNL d   1      -2.749  -4.851  -3.015  0.00  0.00     0.002 A 
ATOM      3  C5  UNL d   1      -1.964  -5.686  -2.221  0.00  0.00     0.002 A 
ATOM      4  C6  UNL d   1      -0.586  -5.748  -2.419  0.00  0.00    -0.004 A 
ATOM      5  C7  UNL d   1       0.006  -4.978  -3.418  0.00  0.00     0.002 A 
ATOM      6  C8  UNL d   1      -0.777  -4.137  -4.211  0.00  0.00     0.002 A 
ENDROOT
BRANCH   1   7
ATOM      7  C2  UNL d   1      -3.003  -3.130  -4.856  0.00  0.00     0.056 C 
BRANCH   7   8
ATOM      8  C1  UNL d   1      -4.071  -3.842  -5.692  0.00  0.00     0.007 C 
ATOM      9  C   UNL d   1      -5.277  -2.964  -5.999  0.00  0.00     0.009 C 
ENDBRANCH   7   8
ENDBRANCH   1   7
TORSDOF 2
ENDMDL
