MODEL 1
REMARK minimizedAffinity 2.07554984
REMARK minimizedRMSD -1
REMARK  2 active torsions:
REMARK  status: ('A' for Active; 'I' for Inactive)
REMARK    1  A    between atoms: C1_2  and  C2_3 
REMARK    2  A    between atoms: C2_3  and  C3_4 
ROOT
ATOM      1  C3  UNL d   1       2.512  -3.206  -1.384  0.00  0.00    -0.075 A 
ATOM      2  C4  UNL d   1       3.446  -4.021  -0.727  0.00  0.00     0.002 A 
ATOM      3  C5  UNL d   1       3.396  -5.408  -0.865  0.00  0.00     0.002 A 
ATOM      4  C6  UNL d   1       2.410  -5.998  -1.652  0.00  0.00    -0.004 A 
ATOM      5  C7  UNL d   1       1.467  -5.200  -2.296  0.00  0.00     0.002 A 
ATOM      6  C8  UNL d   1       1.517  -3.811  -2.163  0.00  0.00     0.002 A 
ENDROOT
BRANCH   1   7
ATOM      7  C2  UNL d   1       2.578  -1.702  -1.262  0.00  0.00     0.056 C 
BRANCH   7   8
ATOM      8  C1  UNL d   1       2.017  -0.953  -2.475  0.00  0.00     0.007 C 
ATOM      9  C   UNL d   1       2.078   0.561  -2.326  0.00  0.00     0.009 C 
ENDBRANCH   7   8
ENDBRANCH   1   7
TORSDOF 2
ENDMDL
