MODEL 1
REMARK minimizedAffinity 15.3375063
REMARK minimizedRMSD -1
REMARK  2 active torsions:
REMARK  status: ('A' for Active; 'I' for Inactive)
REMARK    1  A    between atoms: C1_2  and  C2_3 
REMARK    2  A    between atoms: C2_3  and  C3_4 
ROOT
ATOM      1  C3  UNL d   1       2.338  -0.631  -1.015  0.00  0.00    -0.075 A 
ATOM      2  C4  UNL d   1       2.416  -1.571   0.024  0.00  0.00     0.002 A 
ATOM      3  C5  UNL d   1       1.922  -2.864  -0.153  0.00  0.00     0.002 A 
ATOM      4  C6  UNL d   1       1.336  -3.230  -1.362  0.00  0.00    -0.004 A 
ATOM      5  C7  UNL d   1       1.239  -2.300  -2.395  0.00  0.00     0.002 A 
ATOM      6  C8  UNL d   1       1.736  -1.007  -2.223  0.00  0.00     0.002 A 
ENDROOT
BRANCH   1   7
ATOM      7  C2  UNL d   1       2.897   0.760  -0.841  0.00  0.00     0.056 C 
BRANCH   7   8
ATOM      8  C1  UNL d   1       3.714   0.949   0.442  0.00  0.00     0.007 C 
ATOM      9  C   UNL d   1       4.805   2.003   0.311  0.00  0.00     0.009 C 
ENDBRANCH   7   8
ENDBRANCH   1   7
TORSDOF 2
ENDMDL
