MODEL 1
REMARK minimizedAffinity 14.3015051
REMARK minimizedRMSD -1
REMARK  0 active torsions:
REMARK  status: ('A' for Active; 'I' for Inactive)
ROOT
ATOM      1  C   UNL d   1       3.227  -1.900   2.386  0.00  0.00     0.124 A 
ATOM      2  C1  UNL d   1       2.974  -1.574   3.711  0.00  0.00     0.062 A 
ATOM      3  C2  UNL d   1       3.741  -2.133   4.728  0.00  0.00     0.162 A 
ATOM      4  C3  UNL d   1       4.770  -3.025   4.425  0.00  0.00    -0.034 A 
ATOM      5  C4  UNL d   1       5.018  -3.350   3.090  0.00  0.00     0.162 A 
ATOM      6  C5  UNL d   1       4.248  -2.788   2.077  0.00  0.00     0.062 A 
ATOM      7  F   UNL d   1       4.494  -3.104   0.797  0.00  0.00    -0.097 F 
ATOM      8  F1  UNL d   1       5.999  -4.204   2.763  0.00  0.00    -0.096 F 
ATOM      9  I   UNL d   1       5.919  -3.864   5.944  0.00  0.00    -0.060 I 
ATOM     10  F2  UNL d   1       3.475  -1.800   6.000  0.00  0.00    -0.096 F 
ATOM     11  F3  UNL d   1       1.988  -0.717   4.012  0.00  0.00    -0.097 F 
ATOM     12  F4  UNL d   1       2.487  -1.361   1.409  0.00  0.00    -0.092 F 
ENDROOT
TORSDOF 0
ENDMDL
