MODEL 1
REMARK minimizedAffinity 22.3867912
REMARK minimizedRMSD -1
REMARK  0 active torsions:
REMARK  status: ('A' for Active; 'I' for Inactive)
ROOT
ATOM      1  C   UNL d   1      -0.000  -3.756  -0.521  0.00  0.00     0.124 A 
ATOM      2  C1  UNL d   1       0.376  -4.893  -1.223  0.00  0.00     0.062 A 
ATOM      3  C2  UNL d   1       0.377  -4.887  -2.615  0.00  0.00     0.162 A 
ATOM      4  C3  UNL d   1       0.001  -3.740  -3.314  0.00  0.00    -0.034 A 
ATOM      5  C4  UNL d   1      -0.377  -2.601  -2.601  0.00  0.00     0.162 A 
ATOM      6  C5  UNL d   1      -0.376  -2.612  -1.210  0.00  0.00     0.062 A 
ATOM      7  F   UNL d   1      -0.740  -1.513  -0.532  0.00  0.00    -0.097 F 
ATOM      8  F1  UNL d   1      -0.744  -1.481  -3.241  0.00  0.00    -0.096 F 
ATOM      9  I   UNL d   1       0.000  -3.727  -5.395  0.00  0.00    -0.060 I 
ATOM     10  F2  UNL d   1       0.745  -5.999  -3.268  0.00  0.00    -0.096 F 
ATOM     11  F3  UNL d   1       0.739  -6.000  -0.560  0.00  0.00    -0.097 F 
ATOM     12  F4  UNL d   1      -0.001  -3.765   0.819  0.00  0.00    -0.092 F 
ENDROOT
TORSDOF 0
ENDMDL
