MODEL 1
REMARK minimizedAffinity 14.7026606
REMARK minimizedRMSD -1
REMARK  0 active torsions:
REMARK  status: ('A' for Active; 'I' for Inactive)
ROOT
ATOM      1  C   UNL d   1       4.906   4.828  -3.527  0.00  0.00     0.124 A 
ATOM      2  C1  UNL d   1       4.936   5.305  -2.223  0.00  0.00     0.062 A 
ATOM      3  C2  UNL d   1       3.864   5.068  -1.367  0.00  0.00     0.162 A 
ATOM      4  C3  UNL d   1       2.754   4.350  -1.811  0.00  0.00    -0.034 A 
ATOM      5  C4  UNL d   1       2.731   3.875  -3.124  0.00  0.00     0.162 A 
ATOM      6  C5  UNL d   1       3.804   4.114  -3.976  0.00  0.00     0.062 A 
ATOM      7  F   UNL d   1       3.774   3.652  -5.234  0.00  0.00    -0.097 F 
ATOM      8  F1  UNL d   1       1.679   3.181  -3.583  0.00  0.00    -0.096 F 
ATOM      9  I   UNL d   1       1.149   3.995  -0.534  0.00  0.00    -0.060 I 
ATOM     10  F2  UNL d   1       3.919   5.541  -0.113  0.00  0.00    -0.096 F 
ATOM     11  F3  UNL d   1       5.999   5.996  -1.788  0.00  0.00    -0.097 F 
ATOM     12  F4  UNL d   1       5.938   5.058  -4.349  0.00  0.00    -0.092 F 
ENDROOT
TORSDOF 0
ENDMDL
