MODEL 1
REMARK minimizedAffinity 18.5072422
REMARK minimizedRMSD -1
REMARK  0 active torsions:
REMARK  status: ('A' for Active; 'I' for Inactive)
ROOT
ATOM      1  C   UNL d   1      -1.662  -2.022   0.266  0.00  0.00     0.124 A 
ATOM      2  C1  UNL d   1      -0.710  -1.274  -0.413  0.00  0.00     0.062 A 
ATOM      3  C2  UNL d   1      -0.089  -1.792  -1.545  0.00  0.00     0.162 A 
ATOM      4  C3  UNL d   1      -0.418  -3.067  -2.007  0.00  0.00    -0.034 A 
ATOM      5  C4  UNL d   1      -1.376  -3.814  -1.318  0.00  0.00     0.162 A 
ATOM      6  C5  UNL d   1      -1.994  -3.291  -0.187  0.00  0.00     0.062 A 
ATOM      7  F   UNL d   1      -2.913  -4.016   0.468  0.00  0.00    -0.097 F 
ATOM      8  F1  UNL d   1      -1.716  -5.043  -1.735  0.00  0.00    -0.096 F 
ATOM      9  I   UNL d   1       0.508  -3.846  -3.700  0.00  0.00    -0.060 I 
ATOM     10  F2  UNL d   1       0.827  -1.047  -2.182  0.00  0.00    -0.096 F 
ATOM     11  F3  UNL d   1      -0.387  -0.048   0.023  0.00  0.00    -0.097 F 
ATOM     12  F4  UNL d   1      -2.257  -1.521   1.356  0.00  0.00    -0.092 F 
ENDROOT
TORSDOF 0
ENDMDL
