MODEL 1
REMARK minimizedAffinity 37.232338
REMARK minimizedRMSD -1
REMARK  0 active torsions:
REMARK  status: ('A' for Active; 'I' for Inactive)
ROOT
ATOM      1  C   UNL d   1      -1.251  -0.889   4.812  0.00  0.00     0.124 A 
ATOM      2  C1  UNL d   1      -2.383  -0.160   4.477  0.00  0.00     0.062 A 
ATOM      3  C2  UNL d   1      -2.999  -0.352   3.244  0.00  0.00     0.162 A 
ATOM      4  C3  UNL d   1      -2.484  -1.277   2.336  0.00  0.00    -0.034 A 
ATOM      5  C4  UNL d   1      -1.343  -2.005   2.680  0.00  0.00     0.162 A 
ATOM      6  C5  UNL d   1      -0.732  -1.810   3.914  0.00  0.00     0.062 A 
ATOM      7  F   UNL d   1       0.363  -2.515   4.236  0.00  0.00    -0.097 F 
ATOM      8  F1  UNL d   1      -0.822  -2.903   1.831  0.00  0.00    -0.096 F 
ATOM      9  I   UNL d   1      -3.402  -1.567   0.491  0.00  0.00    -0.060 I 
ATOM     10  F2  UNL d   1      -4.093   0.366   2.946  0.00  0.00    -0.096 F 
ATOM     11  F3  UNL d   1      -2.886   0.731   5.343  0.00  0.00    -0.097 F 
ATOM     12  F4  UNL d   1      -0.659  -0.702   6.000  0.00  0.00    -0.092 F 
ENDROOT
TORSDOF 0
ENDMDL
