MODEL 1
REMARK minimizedAffinity 18.4006119
REMARK minimizedRMSD -1
REMARK  0 active torsions:
REMARK  status: ('A' for Active; 'I' for Inactive)
ROOT
ATOM      1  C   UNL d   1      -1.729  -2.803  -0.721  0.00  0.00     0.124 A 
ATOM      2  C1  UNL d   1      -0.571  -2.688   0.037  0.00  0.00     0.062 A 
ATOM      3  C2  UNL d   1       0.660  -2.513  -0.589  0.00  0.00     0.162 A 
ATOM      4  C3  UNL d   1       0.740  -2.450  -1.980  0.00  0.00    -0.034 A 
ATOM      5  C4  UNL d   1      -0.428  -2.568  -2.735  0.00  0.00     0.162 A 
ATOM      6  C5  UNL d   1      -1.656  -2.743  -2.105  0.00  0.00     0.062 A 
ATOM      7  F   UNL d   1      -2.774  -2.854  -2.839  0.00  0.00    -0.097 F 
ATOM      8  F1  UNL d   1      -0.387  -2.512  -4.074  0.00  0.00    -0.096 F 
ATOM      9  I   UNL d   1       2.579  -2.188  -2.919  0.00  0.00    -0.060 I 
ATOM     10  F2  UNL d   1       1.762  -2.404   0.168  0.00  0.00    -0.096 F 
ATOM     11  F3  UNL d   1      -0.639  -2.747   1.374  0.00  0.00    -0.097 F 
ATOM     12  F4  UNL d   1      -2.912  -2.973  -0.117  0.00  0.00    -0.092 F 
ENDROOT
TORSDOF 0
ENDMDL
