MODEL 1
REMARK minimizedAffinity 15.6158524
REMARK minimizedRMSD -1
REMARK  0 active torsions:
REMARK  status: ('A' for Active; 'I' for Inactive)
ROOT
ATOM      1  C   UNL d   1      -1.069  -2.199   0.958  0.00  0.00     0.124 A 
ATOM      2  C1  UNL d   1      -0.055  -1.251   0.945  0.00  0.00     0.062 A 
ATOM      3  C2  UNL d   1      -0.365   0.105   0.891  0.00  0.00     0.162 A 
ATOM      4  C3  UNL d   1      -1.696   0.522   0.851  0.00  0.00    -0.034 A 
ATOM      5  C4  UNL d   1      -2.710  -0.438   0.864  0.00  0.00     0.162 A 
ATOM      6  C5  UNL d   1      -2.395  -1.791   0.918  0.00  0.00     0.062 A 
ATOM      7  F   UNL d   1      -3.376  -2.706   0.930  0.00  0.00    -0.097 F 
ATOM      8  F1  UNL d   1      -4.000  -0.071   0.826  0.00  0.00    -0.096 F 
ATOM      9  I   UNL d   1      -2.163   2.548   0.770  0.00  0.00    -0.060 I 
ATOM     10  F2  UNL d   1       0.635   0.998   0.879  0.00  0.00    -0.096 F 
ATOM     11  F3  UNL d   1       1.226  -1.642   0.983  0.00  0.00    -0.097 F 
ATOM     12  F4  UNL d   1      -0.769  -3.503   1.009  0.00  0.00    -0.092 F 
ENDROOT
TORSDOF 0
ENDMDL
