MODEL 1
REMARK minimizedAffinity 7.85284328
REMARK minimizedRMSD -1
REMARK  0 active torsions:
REMARK  status: ('A' for Active; 'I' for Inactive)
ROOT
ATOM      1  C   UNL d   1      -0.923  -2.809  -2.261  0.00  0.00     0.124 A 
ATOM      2  C1  UNL d   1      -0.100  -2.012  -1.478  0.00  0.00     0.062 A 
ATOM      3  C2  UNL d   1      -0.465  -1.701  -0.171  0.00  0.00     0.162 A 
ATOM      4  C3  UNL d   1      -1.659  -2.187   0.361  0.00  0.00    -0.034 A 
ATOM      5  C4  UNL d   1      -2.482  -2.987  -0.433  0.00  0.00     0.162 A 
ATOM      6  C5  UNL d   1      -2.113  -3.295  -1.739  0.00  0.00     0.062 A 
ATOM      7  F   UNL d   1      -2.910  -4.065  -2.494  0.00  0.00    -0.097 F 
ATOM      8  F1  UNL d   1      -3.637  -3.472   0.047  0.00  0.00    -0.096 F 
ATOM      9  I   UNL d   1      -2.208  -1.724   2.314  0.00  0.00    -0.060 I 
ATOM     10  F2  UNL d   1       0.350  -0.929   0.563  0.00  0.00    -0.096 F 
ATOM     11  F3  UNL d   1       1.049  -1.540  -1.981  0.00  0.00    -0.097 F 
ATOM     12  F4  UNL d   1      -0.571  -3.106  -3.519  0.00  0.00    -0.092 F 
ENDROOT
TORSDOF 0
ENDMDL
