MODEL 1
REMARK minimizedAffinity 18.5064678
REMARK minimizedRMSD -1
REMARK  0 active torsions:
REMARK  status: ('A' for Active; 'I' for Inactive)
ROOT
ATOM      1  C   UNL d   1       1.805  -2.505  -3.618  0.00  0.00     0.124 A 
ATOM      2  C1  UNL d   1       2.315  -2.223  -2.359  0.00  0.00     0.062 A 
ATOM      3  C2  UNL d   1       1.454  -2.043  -1.280  0.00  0.00     0.162 A 
ATOM      4  C3  UNL d   1       0.074  -2.146  -1.455  0.00  0.00    -0.034 A 
ATOM      5  C4  UNL d   1      -0.431  -2.429  -2.726  0.00  0.00     0.162 A 
ATOM      6  C5  UNL d   1       0.433  -2.608  -3.801  0.00  0.00     0.062 A 
ATOM      7  F   UNL d   1      -0.061  -2.881  -5.017  0.00  0.00    -0.097 F 
ATOM      8  F1  UNL d   1      -1.752  -2.535  -2.930  0.00  0.00    -0.096 F 
ATOM      9  I   UNL d   1      -1.216  -1.877   0.155  0.00  0.00    -0.060 I 
ATOM     10  F2  UNL d   1       1.974  -1.771  -0.074  0.00  0.00    -0.096 F 
ATOM     11  F3  UNL d   1       3.640  -2.123  -2.180  0.00  0.00    -0.097 F 
ATOM     12  F4  UNL d   1       2.636  -2.677  -4.655  0.00  0.00    -0.092 F 
ENDROOT
TORSDOF 0
ENDMDL
