MODEL 1
REMARK minimizedAffinity 14.301178
REMARK minimizedRMSD -1
REMARK  0 active torsions:
REMARK  status: ('A' for Active; 'I' for Inactive)
ROOT
ATOM      1  C   UNL d   1      -2.490  -0.362   0.900  0.00  0.00     0.124 A 
ATOM      2  C1  UNL d   1      -1.118  -0.373   0.688  0.00  0.00     0.062 A 
ATOM      3  C2  UNL d   1      -0.388   0.809   0.774  0.00  0.00     0.162 A 
ATOM      4  C3  UNL d   1      -1.027   2.011   1.076  0.00  0.00    -0.034 A 
ATOM      5  C4  UNL d   1      -2.407   2.014   1.288  0.00  0.00     0.162 A 
ATOM      6  C5  UNL d   1      -3.133   0.831   1.200  0.00  0.00     0.062 A 
ATOM      7  F   UNL d   1      -4.458   0.843   1.406  0.00  0.00    -0.097 F 
ATOM      8  F1  UNL d   1      -3.053   3.152   1.580  0.00  0.00    -0.096 F 
ATOM      9  I   UNL d   1       0.062   3.780   1.207  0.00  0.00    -0.060 I 
ATOM     10  F2  UNL d   1       0.937   0.769   0.564  0.00  0.00    -0.096 F 
ATOM     11  F3  UNL d   1      -0.495  -1.524   0.397  0.00  0.00    -0.097 F 
ATOM     12  F4  UNL d   1      -3.191  -1.500   0.816  0.00  0.00    -0.092 F 
ENDROOT
TORSDOF 0
ENDMDL
