MODEL 1
REMARK minimizedAffinity 13.4285002
REMARK minimizedRMSD -1
REMARK  0 active torsions:
REMARK  status: ('A' for Active; 'I' for Inactive)
ROOT
ATOM      1  C   UNL d   1       0.158  -2.476  -2.438  0.00  0.00     0.124 A 
ATOM      2  C1  UNL d   1       0.071  -2.199  -3.795  0.00  0.00     0.062 A 
ATOM      3  C2  UNL d   1      -0.276  -3.203  -4.694  0.00  0.00     0.162 A 
ATOM      4  C3  UNL d   1      -0.541  -4.494  -4.238  0.00  0.00    -0.034 A 
ATOM      5  C4  UNL d   1      -0.450  -4.766  -2.872  0.00  0.00     0.162 A 
ATOM      6  C5  UNL d   1      -0.102  -3.759  -1.978  0.00  0.00     0.062 A 
ATOM      7  F   UNL d   1      -0.019  -4.028  -0.667  0.00  0.00    -0.097 F 
ATOM      8  F1  UNL d   1      -0.698  -5.997  -2.400  0.00  0.00    -0.096 F 
ATOM      9  I   UNL d   1      -1.061  -5.999  -5.579  0.00  0.00    -0.060 I 
ATOM     10  F2  UNL d   1      -0.353  -2.907  -6.000  0.00  0.00    -0.096 F 
ATOM     11  F3  UNL d   1       0.324  -0.960  -4.242  0.00  0.00    -0.097 F 
ATOM     12  F4  UNL d   1       0.494  -1.508  -1.575  0.00  0.00    -0.092 F 
ENDROOT
TORSDOF 0
ENDMDL
