MODEL 1
REMARK minimizedAffinity 7.4210515
REMARK minimizedRMSD -1
REMARK  0 active torsions:
REMARK  status: ('A' for Active; 'I' for Inactive)
ROOT
ATOM      1  C   UNL d   1      -1.609   0.521   2.793  0.00  0.00     0.124 A 
ATOM      2  C1  UNL d   1      -0.983   0.813   1.589  0.00  0.00     0.062 A 
ATOM      3  C2  UNL d   1      -0.985  -0.119   0.555  0.00  0.00     0.162 A 
ATOM      4  C3  UNL d   1      -1.616  -1.352   0.720  0.00  0.00    -0.034 A 
ATOM      5  C4  UNL d   1      -2.243  -1.638   1.934  0.00  0.00     0.162 A 
ATOM      6  C5  UNL d   1      -2.239  -0.704   2.964  0.00  0.00     0.062 A 
ATOM      7  F   UNL d   1      -2.845  -0.988   4.126  0.00  0.00    -0.097 F 
ATOM      8  F1  UNL d   1      -2.860  -2.814   2.126  0.00  0.00    -0.096 F 
ATOM      9  I   UNL d   1      -1.621  -2.748  -0.824  0.00  0.00    -0.060 I 
ATOM     10  F2  UNL d   1      -0.372   0.190  -0.597  0.00  0.00    -0.096 F 
ATOM     11  F3  UNL d   1      -0.373   1.995   1.422  0.00  0.00    -0.097 F 
ATOM     12  F4  UNL d   1      -1.605   1.419   3.786  0.00  0.00    -0.092 F 
ENDROOT
TORSDOF 0
ENDMDL
