MODEL 1
REMARK minimizedAffinity 12.7557001
REMARK minimizedRMSD -1
REMARK  0 active torsions:
REMARK  status: ('A' for Active; 'I' for Inactive)
ROOT
ATOM      1  C   UNL d   1       1.713  -2.643  -3.174  0.00  0.00     0.124 A 
ATOM      2  C1  UNL d   1       2.092  -2.295  -1.885  0.00  0.00     0.062 A 
ATOM      3  C2  UNL d   1       1.132  -2.153  -0.887  0.00  0.00     0.162 A 
ATOM      4  C3  UNL d   1      -0.217  -2.358  -1.174  0.00  0.00    -0.034 A 
ATOM      5  C4  UNL d   1      -0.591  -2.707  -2.474  0.00  0.00     0.162 A 
ATOM      6  C5  UNL d   1       0.372  -2.848  -3.467  0.00  0.00     0.062 A 
ATOM      7  F   UNL d   1       0.003  -3.183  -4.712  0.00  0.00    -0.097 F 
ATOM      8  F1  UNL d   1      -1.880  -2.912  -2.784  0.00  0.00    -0.096 F 
ATOM      9  I   UNL d   1      -1.655  -2.146   0.315  0.00  0.00    -0.060 I 
ATOM     10  F2  UNL d   1       1.528  -1.816   0.349  0.00  0.00    -0.096 F 
ATOM     11  F3  UNL d   1       3.387  -2.096  -1.600  0.00  0.00    -0.097 F 
ATOM     12  F4  UNL d   1       2.638  -2.778  -4.133  0.00  0.00    -0.092 F 
ENDROOT
TORSDOF 0
ENDMDL
