MODEL 1
REMARK minimizedAffinity 11.5573854
REMARK minimizedRMSD -1
REMARK  0 active torsions:
REMARK  status: ('A' for Active; 'I' for Inactive)
ROOT
ATOM      1  C   UNL d   1       1.478  -1.859  -3.285  0.00  0.00     0.124 A 
ATOM      2  C1  UNL d   1       2.832  -1.859  -2.979  0.00  0.00     0.062 A 
ATOM      3  C2  UNL d   1       3.250  -1.917  -1.653  0.00  0.00     0.162 A 
ATOM      4  C3  UNL d   1       2.313  -1.976  -0.622  0.00  0.00    -0.034 A 
ATOM      5  C4  UNL d   1       0.953  -1.974  -0.937  0.00  0.00     0.162 A 
ATOM      6  C5  UNL d   1       0.540  -1.917  -2.264  0.00  0.00     0.062 A 
ATOM      7  F   UNL d   1      -0.768  -1.917  -2.557  0.00  0.00    -0.097 F 
ATOM      8  F1  UNL d   1       0.025  -2.030   0.030  0.00  0.00    -0.096 F 
ATOM      9  I   UNL d   1       2.934  -2.062   1.363  0.00  0.00    -0.060 I 
ATOM     10  F2  UNL d   1       4.565  -1.915  -1.387  0.00  0.00    -0.096 F 
ATOM     11  F3  UNL d   1       3.740  -1.803  -3.964  0.00  0.00    -0.097 F 
ATOM     12  F4  UNL d   1       1.079  -1.803  -4.562  0.00  0.00    -0.092 F 
ENDROOT
TORSDOF 0
ENDMDL
