MODEL 1
REMARK minimizedAffinity 10.8473454
REMARK minimizedRMSD -1
REMARK  0 active torsions:
REMARK  status: ('A' for Active; 'I' for Inactive)
ROOT
ATOM      1  C   UNL d   1       2.482   5.113  -1.618  0.00  0.00     0.124 A 
ATOM      2  C1  UNL d   1       2.207   5.548  -2.907  0.00  0.00     0.062 A 
ATOM      3  C2  UNL d   1       3.209   5.552  -3.873  0.00  0.00     0.162 A 
ATOM      4  C3  UNL d   1       4.496   5.117  -3.555  0.00  0.00    -0.034 A 
ATOM      5  C4  UNL d   1       4.765   4.682  -2.256  0.00  0.00     0.162 A 
ATOM      6  C5  UNL d   1       3.760   4.681  -1.294  0.00  0.00     0.062 A 
ATOM      7  F   UNL d   1       4.028   4.260  -0.049  0.00  0.00    -0.097 F 
ATOM      8  F1  UNL d   1       5.991   4.258  -1.916  0.00  0.00    -0.096 F 
ATOM      9  I   UNL d   1       5.996   5.120  -4.997  0.00  0.00    -0.060 I 
ATOM     10  F2  UNL d   1       2.915   5.977  -5.111  0.00  0.00    -0.096 F 
ATOM     11  F3  UNL d   1       0.973   5.968  -3.222  0.00  0.00    -0.097 F 
ATOM     12  F4  UNL d   1       1.517   5.112  -0.690  0.00  0.00    -0.092 F 
ENDROOT
TORSDOF 0
ENDMDL
