MODEL 1
REMARK minimizedAffinity 13.0956612
REMARK minimizedRMSD -1
REMARK  0 active torsions:
REMARK  status: ('A' for Active; 'I' for Inactive)
ROOT
ATOM      1  C   UNL d   1      -2.675  -2.474  -0.894  0.00  0.00     0.124 A 
ATOM      2  C1  UNL d   1      -3.050  -2.878   0.380  0.00  0.00     0.062 A 
ATOM      3  C2  UNL d   1      -2.089  -3.050   1.372  0.00  0.00     0.162 A 
ATOM      4  C3  UNL d   1      -0.742  -2.817   1.094  0.00  0.00    -0.034 A 
ATOM      5  C4  UNL d   1      -0.372  -2.412  -0.190  0.00  0.00     0.162 A 
ATOM      6  C5  UNL d   1      -1.336  -2.241  -1.177  0.00  0.00     0.062 A 
ATOM      7  F   UNL d   1      -0.972  -1.851  -2.407  0.00  0.00    -0.097 F 
ATOM      8  F1  UNL d   1       0.915  -2.180  -0.491  0.00  0.00    -0.096 F 
ATOM      9  I   UNL d   1       0.699  -3.073   2.574  0.00  0.00    -0.060 I 
ATOM     10  F2  UNL d   1      -2.480  -3.441   2.593  0.00  0.00    -0.096 F 
ATOM     11  F3  UNL d   1      -4.343  -3.104   0.656  0.00  0.00    -0.097 F 
ATOM     12  F4  UNL d   1      -3.602  -2.310  -1.846  0.00  0.00    -0.092 F 
ENDROOT
TORSDOF 0
ENDMDL
