MODEL 1
REMARK minimizedAffinity 11.7296648
REMARK minimizedRMSD -1
REMARK  0 active torsions:
REMARK  status: ('A' for Active; 'I' for Inactive)
ROOT
ATOM      1  C   UNL d   1      -0.092  -2.178  -2.047  0.00  0.00     0.124 A 
ATOM      2  C1  UNL d   1       0.439  -1.825  -3.280  0.00  0.00     0.062 A 
ATOM      3  C2  UNL d   1       0.268  -2.660  -4.381  0.00  0.00     0.162 A 
ATOM      4  C3  UNL d   1      -0.438  -3.856  -4.253  0.00  0.00    -0.034 A 
ATOM      5  C4  UNL d   1      -0.967  -4.205  -3.010  0.00  0.00     0.162 A 
ATOM      6  C5  UNL d   1      -0.794  -3.368  -1.913  0.00  0.00     0.062 A 
ATOM      7  F   UNL d   1      -1.307  -3.711  -0.723  0.00  0.00    -0.097 F 
ATOM      8  F1  UNL d   1      -1.651  -5.349  -2.853  0.00  0.00    -0.096 F 
ATOM      9  I   UNL d   1      -0.695  -5.107  -5.897  0.00  0.00    -0.060 I 
ATOM     10  F2  UNL d   1       0.791  -2.293  -5.560  0.00  0.00    -0.096 F 
ATOM     11  F3  UNL d   1       1.118  -0.677  -3.412  0.00  0.00    -0.097 F 
ATOM     12  F4  UNL d   1       0.075  -1.374  -0.989  0.00  0.00    -0.092 F 
ENDROOT
TORSDOF 0
ENDMDL
