MODEL 1
REMARK minimizedAffinity -4.72348976
REMARK minimizedRMSD -1
REMARK  1 active torsions:
REMARK  status: ('A' for Active; 'I' for Inactive)
REMARK    1  A    between atoms: C3_4  and  O_7 
ROOT
ATOM      1  C   UNL d   1       0.423  -2.856  -0.959  0.00  0.00    -0.033 A 
ATOM      2  C1  UNL d   1      -0.281  -3.428   0.102  0.00  0.00     0.039 A 
ATOM      3  C2  UNL d   1      -0.961  -2.614   1.011  0.00  0.00    -0.080 A 
ATOM      4  C3  UNL d   1      -0.931  -1.232   0.845  0.00  0.00     0.150 A 
ATOM      5  C4  UNL d   1      -0.235  -0.656  -0.212  0.00  0.00    -0.007 A 
ATOM      6  C5  UNL d   1       0.444  -1.470  -1.118  0.00  0.00     0.039 A 
ENDROOT
BRANCH   4   7
ATOM      7  O   UNL d   1      -1.575  -0.397   1.709  0.00  0.00    -0.526 OA
ATOM      8  H5  UNL d   1      -1.988  -0.934   2.406  0.00  0.00     0.418 HD
ENDBRANCH   4   7
TORSDOF 1
ENDMDL
