MODEL 1
REMARK minimizedAffinity 3.27057433
REMARK minimizedRMSD -1
REMARK  1 active torsions:
REMARK  status: ('A' for Active; 'I' for Inactive)
REMARK    1  A    between atoms: C3_4  and  O_7 
ROOT
ATOM      1  C   UNL d   1       0.461   1.479   0.348  0.00  0.00    -0.033 A 
ATOM      2  C1  UNL d   1      -0.733   0.999  -0.194  0.00  0.00     0.039 A 
ATOM      3  C2  UNL d   1      -0.740   0.411  -1.460  0.00  0.00    -0.080 A 
ATOM      4  C3  UNL d   1       0.452   0.308  -2.172  0.00  0.00     0.150 A 
ATOM      5  C4  UNL d   1       1.646   0.781  -1.637  0.00  0.00    -0.007 A 
ATOM      6  C5  UNL d   1       1.651   1.369  -0.372  0.00  0.00     0.039 A 
ENDROOT
BRANCH   4   7
ATOM      7  O   UNL d   1       0.494  -0.254  -3.414  0.00  0.00    -0.526 OA
ATOM      8  H5  UNL d   1      -0.409  -0.508  -3.667  0.00  0.00     0.418 HD
ENDBRANCH   4   7
TORSDOF 1
ENDMDL
