MODEL 1
REMARK minimizedAffinity 2.7738409
REMARK minimizedRMSD -1
REMARK  1 active torsions:
REMARK  status: ('A' for Active; 'I' for Inactive)
REMARK    1  A    between atoms: C3_4  and  O_7 
ROOT
ATOM      1  C   UNL d   1      -2.023  -2.095   2.352  0.00  0.00    -0.033 A 
ATOM      2  C1  UNL d   1      -2.046  -0.743   2.699  0.00  0.00     0.039 A 
ATOM      3  C2  UNL d   1      -1.657   0.224   1.770  0.00  0.00    -0.080 A 
ATOM      4  C3  UNL d   1      -1.249  -0.173   0.499  0.00  0.00     0.150 A 
ATOM      5  C4  UNL d   1      -1.228  -1.518   0.146  0.00  0.00    -0.007 A 
ATOM      6  C5  UNL d   1      -1.615  -2.483   1.075  0.00  0.00     0.039 A 
ENDROOT
BRANCH   4   7
ATOM      7  O   UNL d   1      -0.857   0.734  -0.439  0.00  0.00    -0.526 OA
ATOM      8  H5  UNL d   1      -0.896   1.621  -0.045  0.00  0.00     0.418 HD
ENDBRANCH   4   7
TORSDOF 1
ENDMDL
