MODEL 1
REMARK minimizedAffinity -4.00461769
REMARK minimizedRMSD -1
REMARK  1 active torsions:
REMARK  status: ('A' for Active; 'I' for Inactive)
REMARK    1  A    between atoms: C3_4  and  O_7 
ROOT
ATOM      1  C   UNL d   1      -0.378  -2.638   0.580  0.00  0.00    -0.033 A 
ATOM      2  C1  UNL d   1      -1.240  -1.885   1.379  0.00  0.00     0.039 A 
ATOM      3  C2  UNL d   1      -1.298  -0.497   1.231  0.00  0.00    -0.080 A 
ATOM      4  C3  UNL d   1      -0.491   0.123   0.282  0.00  0.00     0.150 A 
ATOM      5  C4  UNL d   1       0.367  -0.622  -0.521  0.00  0.00    -0.007 A 
ATOM      6  C5  UNL d   1       0.424  -2.007  -0.371  0.00  0.00     0.039 A 
ENDROOT
BRANCH   4   7
ATOM      7  O   UNL d   1      -0.509   1.474   0.104  0.00  0.00    -0.526 OA
ATOM      8  H5  UNL d   1      -1.127   1.861   0.747  0.00  0.00     0.418 HD
ENDBRANCH   4   7
TORSDOF 1
ENDMDL
