MODEL 1
REMARK minimizedAffinity -4.57956743
REMARK minimizedRMSD -1
REMARK  1 active torsions:
REMARK  status: ('A' for Active; 'I' for Inactive)
REMARK    1  A    between atoms: C3_4  and  O_7 
ROOT
ATOM      1  C   UNL d   1       1.341   3.045  -0.377  0.00  0.00    -0.033 A 
ATOM      2  C1  UNL d   1       2.174   3.769   0.478  0.00  0.00     0.039 A 
ATOM      3  C2  UNL d   1       1.750   4.077   1.773  0.00  0.00    -0.080 A 
ATOM      4  C3  UNL d   1       0.494   3.655   2.199  0.00  0.00     0.150 A 
ATOM      5  C4  UNL d   1      -0.339   2.930   1.354  0.00  0.00    -0.007 A 
ATOM      6  C5  UNL d   1       0.085   2.624   0.062  0.00  0.00     0.039 A 
ENDROOT
BRANCH   4   7
ATOM      7  O   UNL d   1       0.036   3.936   3.452  0.00  0.00    -0.526 OA
ATOM      8  H5  UNL d   1       0.706   4.468   3.913  0.00  0.00     0.418 HD
ENDBRANCH   4   7
TORSDOF 1
ENDMDL
