MODEL 1
REMARK minimizedAffinity 1.26084828
REMARK minimizedRMSD -1
REMARK  1 active torsions:
REMARK  status: ('A' for Active; 'I' for Inactive)
REMARK    1  A    between atoms: C3_4  and  O_7 
ROOT
ATOM      1  C   UNL d   1       1.923   4.075   0.299  0.00  0.00    -0.033 A 
ATOM      2  C1  UNL d   1       2.426   3.943   1.595  0.00  0.00     0.039 A 
ATOM      3  C2  UNL d   1       1.790   4.581   2.661  0.00  0.00    -0.080 A 
ATOM      4  C3  UNL d   1       0.652   5.347   2.419  0.00  0.00     0.150 A 
ATOM      5  C4  UNL d   1       0.144   5.480   1.131  0.00  0.00    -0.007 A 
ATOM      6  C5  UNL d   1       0.781   4.842   0.067  0.00  0.00     0.039 A 
ENDROOT
BRANCH   4   7
ATOM      7  O   UNL d   1      -0.000   5.992   3.426  0.00  0.00    -0.526 OA
ATOM      8  H5  UNL d   1       0.481   5.834   4.256  0.00  0.00     0.418 HD
ENDBRANCH   4   7
TORSDOF 1
ENDMDL
