MODEL 1
REMARK minimizedAffinity -2.50901055
REMARK minimizedRMSD -1
REMARK  1 active torsions:
REMARK  status: ('A' for Active; 'I' for Inactive)
REMARK    1  A    between atoms: C3_4  and  O_7 
ROOT
ATOM      1  C   UNL d   1      -1.394  -1.653   1.946  0.00  0.00    -0.033 A 
ATOM      2  C1  UNL d   1      -1.123  -0.299   2.152  0.00  0.00     0.039 A 
ATOM      3  C2  UNL d   1      -0.807   0.524   1.069  0.00  0.00    -0.080 A 
ATOM      4  C3  UNL d   1      -0.766  -0.019  -0.213  0.00  0.00     0.150 A 
ATOM      5  C4  UNL d   1      -1.040  -1.366  -0.425  0.00  0.00    -0.007 A 
ATOM      6  C5  UNL d   1      -1.354  -2.186   0.658  0.00  0.00     0.039 A 
ENDROOT
BRANCH   4   7
ATOM      7  O   UNL d   1      -0.458   0.743  -1.300  0.00  0.00    -0.526 OA
ATOM      8  H5  UNL d   1      -0.265   1.647  -0.998  0.00  0.00     0.418 HD
ENDBRANCH   4   7
TORSDOF 1
ENDMDL
