MODEL 1
REMARK minimizedAffinity -3.35128689
REMARK minimizedRMSD -1
REMARK  1 active torsions:
REMARK  status: ('A' for Active; 'I' for Inactive)
REMARK    1  A    between atoms: C3_4  and  O_7 
ROOT
ATOM      1  C   UNL d   1      -0.493  -1.170   1.379  0.00  0.00    -0.033 A 
ATOM      2  C1  UNL d   1       0.205  -0.325   0.515  0.00  0.00     0.039 A 
ATOM      3  C2  UNL d   1       0.554  -0.764  -0.764  0.00  0.00    -0.080 A 
ATOM      4  C3  UNL d   1       0.198  -2.049  -1.166  0.00  0.00     0.150 A 
ATOM      5  C4  UNL d   1      -0.500  -2.895  -0.311  0.00  0.00    -0.007 A 
ATOM      6  C5  UNL d   1      -0.847  -2.455   0.966  0.00  0.00     0.039 A 
ENDROOT
BRANCH   4   7
ATOM      7  O   UNL d   1       0.521  -2.523  -2.402  0.00  0.00    -0.526 OA
ATOM      8  H5  UNL d   1       1.027  -1.840  -2.872  0.00  0.00     0.418 HD
ENDBRANCH   4   7
TORSDOF 1
ENDMDL
