MODEL 1
REMARK minimizedAffinity 5.86855936
REMARK minimizedRMSD -1
REMARK  1 active torsions:
REMARK  status: ('A' for Active; 'I' for Inactive)
REMARK    1  A    between atoms: C3_4  and  O_7 
ROOT
ATOM      1  C   UNL d   1       0.851   0.676   0.212  0.00  0.00    -0.033 A 
ATOM      2  C1  UNL d   1      -0.368   0.375  -0.399  0.00  0.00     0.039 A 
ATOM      3  C2  UNL d   1      -0.409   0.041  -1.754  0.00  0.00    -0.080 A 
ATOM      4  C3  UNL d   1       0.775   0.011  -2.486  0.00  0.00     0.150 A 
ATOM      5  C4  UNL d   1       1.994   0.306  -1.883  0.00  0.00    -0.007 A 
ATOM      6  C5  UNL d   1       2.032   0.640  -0.530  0.00  0.00     0.039 A 
ENDROOT
BRANCH   4   7
ATOM      7  O   UNL d   1       0.785  -0.304  -3.812  0.00  0.00    -0.526 OA
ATOM      8  H5  UNL d   1      -0.131  -0.456  -4.099  0.00  0.00     0.418 HD
ENDBRANCH   4   7
TORSDOF 1
ENDMDL
