MODEL 1
REMARK minimizedAffinity -4.94185829
REMARK minimizedRMSD -1
REMARK  1 active torsions:
REMARK  status: ('A' for Active; 'I' for Inactive)
REMARK    1  A    between atoms: C3_4  and  O_7 
ROOT
ATOM      1  C   UNL d   1      -0.742  -1.868   0.767  0.00  0.00    -0.033 A 
ATOM      2  C1  UNL d   1      -0.620  -3.057   0.046  0.00  0.00     0.039 A 
ATOM      3  C2  UNL d   1      -0.237  -3.024  -1.297  0.00  0.00    -0.080 A 
ATOM      4  C3  UNL d   1       0.021  -1.798  -1.904  0.00  0.00     0.150 A 
ATOM      5  C4  UNL d   1      -0.096  -0.610  -1.190  0.00  0.00    -0.007 A 
ATOM      6  C5  UNL d   1      -0.479  -0.645   0.150  0.00  0.00     0.039 A 
ENDROOT
BRANCH   4   7
ATOM      7  O   UNL d   1       0.392  -1.716  -3.213  0.00  0.00    -0.526 OA
ATOM      8  H5  UNL d   1       0.404  -2.613  -3.587  0.00  0.00     0.418 HD
ENDBRANCH   4   7
TORSDOF 1
ENDMDL
