MODEL 1
REMARK minimizedAffinity -5.26290751
REMARK minimizedRMSD -1
REMARK  1 active torsions:
REMARK  status: ('A' for Active; 'I' for Inactive)
REMARK    1  A    between atoms: C3_4  and  O_7 
ROOT
ATOM      1  C   UNL d   1      -0.307  -3.190  -0.667  0.00  0.00    -0.033 A 
ATOM      2  C1  UNL d   1      -0.457  -2.661   0.617  0.00  0.00     0.039 A 
ATOM      3  C2  UNL d   1      -0.331  -1.286   0.826  0.00  0.00    -0.080 A 
ATOM      4  C3  UNL d   1      -0.055  -0.453  -0.254  0.00  0.00     0.150 A 
ATOM      5  C4  UNL d   1       0.092  -0.973  -1.536  0.00  0.00    -0.007 A 
ATOM      6  C5  UNL d   1      -0.034  -2.346  -1.743  0.00  0.00     0.039 A 
ENDROOT
BRANCH   4   7
ATOM      7  O   UNL d   1       0.082   0.894  -0.098  0.00  0.00    -0.526 OA
ATOM      8  H5  UNL d   1      -0.017   1.107   0.845  0.00  0.00     0.418 HD
ENDBRANCH   4   7
TORSDOF 1
ENDMDL
