MODEL 1
REMARK minimizedAffinity -3.21247602
REMARK minimizedRMSD -1
REMARK  1 active torsions:
REMARK  status: ('A' for Active; 'I' for Inactive)
REMARK    1  A    between atoms: C3_4  and  O_7 
ROOT
ATOM      1  C   UNL d   1      -0.832  -1.686   1.276  0.00  0.00    -0.033 A 
ATOM      2  C1  UNL d   1      -0.665  -0.607   0.406  0.00  0.00     0.039 A 
ATOM      3  C2  UNL d   1      -0.201  -0.820  -0.893  0.00  0.00    -0.080 A 
ATOM      4  C3  UNL d   1       0.092  -2.116  -1.310  0.00  0.00     0.150 A 
ATOM      5  C4  UNL d   1      -0.075  -3.196  -0.451  0.00  0.00    -0.007 A 
ATOM      6  C5  UNL d   1      -0.538  -2.981   0.847  0.00  0.00     0.039 A 
ENDROOT
BRANCH   4   7
ATOM      7  O   UNL d   1       0.552  -2.373  -2.568  0.00  0.00    -0.526 OA
ATOM      8  H5  UNL d   1       0.646  -1.528  -3.040  0.00  0.00     0.418 HD
ENDBRANCH   4   7
TORSDOF 1
ENDMDL
