MODEL 1
REMARK minimizedAffinity -1.9574002
REMARK minimizedRMSD -1
REMARK  1 active torsions:
REMARK  status: ('A' for Active; 'I' for Inactive)
REMARK    1  A    between atoms: C3_4  and  O_7 
ROOT
ATOM      1  C   UNL d   1      -1.010  -2.473   1.143  0.00  0.00    -0.033 A 
ATOM      2  C1  UNL d   1      -0.259  -2.330  -0.026  0.00  0.00     0.039 A 
ATOM      3  C2  UNL d   1       0.040  -1.056  -0.514  0.00  0.00    -0.080 A 
ATOM      4  C3  UNL d   1      -0.416   0.064   0.175  0.00  0.00     0.150 A 
ATOM      5  C4  UNL d   1      -1.161  -0.071   1.342  0.00  0.00    -0.007 A 
ATOM      6  C5  UNL d   1      -1.460  -1.344   1.827  0.00  0.00     0.039 A 
ENDROOT
BRANCH   4   7
ATOM      7  O   UNL d   1      -0.153   1.327  -0.265  0.00  0.00    -0.526 OA
ATOM      8  H5  UNL d   1       0.346   1.266  -1.097  0.00  0.00     0.418 HD
ENDBRANCH   4   7
TORSDOF 1
ENDMDL
