MODEL 1
REMARK minimizedAffinity 21.1954193
REMARK minimizedRMSD -1
REMARK  0 active torsions:
REMARK  status: ('A' for Active; 'I' for Inactive)
ROOT
ATOM      1  C1  DEN d   1       0.924   2.624  -0.142  0.00  0.00     0.130 A 
ATOM      2  C2  DEN d   1      -0.273   2.840  -0.950  0.00  0.00    -0.031 A 
ATOM      3  C3  DEN d   1      -1.447   2.481  -0.130  0.00  0.00     0.027 A 
ATOM      4  C4  DEN d   1      -1.528   1.622   2.301  0.00  0.00     0.027 A 
ATOM      5  C5  DEN d   1      -0.766   1.269   3.392  0.00  0.00    -0.003 A 
ATOM      6  C6  DEN d   1       0.603   1.310   3.371  0.00  0.00     0.001 A 
ATOM      7  C7  DEN d   1       1.252   1.756   2.250  0.00  0.00     0.017 A 
ATOM      8  C8  DEN d   1       0.490   2.107   1.143  0.00  0.00    -0.094 A 
ATOM      9  C9  DEN d   1      -0.893   2.070   1.188  0.00  0.00    -0.072 A 
ENDROOT
TORSDOF 0
ENDMDL
