MODEL 1
REMARK minimizedAffinity 13.3924618
REMARK minimizedRMSD -1
REMARK  0 active torsions:
REMARK  status: ('A' for Active; 'I' for Inactive)
ROOT
ATOM      1  C1  DEN d   1      -0.438   1.335  -0.094  0.00  0.00     0.130 A 
ATOM      2  C2  DEN d   1       0.289   1.503   1.162  0.00  0.00    -0.031 A 
ATOM      3  C3  DEN d   1       0.891   2.852   1.163  0.00  0.00     0.027 A 
ATOM      4  C4  DEN d   1       0.765   4.688  -0.644  0.00  0.00     0.027 A 
ATOM      5  C5  DEN d   1       0.271   5.004  -1.890  0.00  0.00    -0.003 A 
ATOM      6  C6  DEN d   1      -0.458   4.115  -2.634  0.00  0.00     0.001 A 
ATOM      7  C7  DEN d   1      -0.754   2.881  -2.118  0.00  0.00     0.017 A 
ATOM      8  C8  DEN d   1      -0.254   2.552  -0.865  0.00  0.00    -0.094 A 
ATOM      9  C9  DEN d   1       0.471   3.469  -0.123  0.00  0.00    -0.072 A 
ENDROOT
TORSDOF 0
ENDMDL
