MODEL 1
REMARK minimizedAffinity 12.4819641
REMARK minimizedRMSD -1
REMARK  0 active torsions:
REMARK  status: ('A' for Active; 'I' for Inactive)
ROOT
ATOM      1  C1  DEN d   1      -4.086   2.112  -5.999  0.00  0.00     0.130 A 
ATOM      2  C2  DEN d   1      -3.664   1.068  -5.070  0.00  0.00    -0.031 A 
ATOM      3  C3  DEN d   1      -3.559   1.669  -3.725  0.00  0.00     0.027 A 
ATOM      4  C4  DEN d   1      -4.012   4.101  -2.995  0.00  0.00     0.027 A 
ATOM      5  C5  DEN d   1      -4.381   5.354  -3.431  0.00  0.00    -0.003 A 
ATOM      6  C6  DEN d   1      -4.643   5.620  -4.749  0.00  0.00     0.001 A 
ATOM      7  C7  DEN d   1      -4.582   4.608  -5.671  0.00  0.00     0.017 A 
ATOM      8  C8  DEN d   1      -4.204   3.344  -5.239  0.00  0.00    -0.094 A 
ATOM      9  C9  DEN d   1      -3.955   3.092  -3.901  0.00  0.00    -0.072 A 
ENDROOT
TORSDOF 0
ENDMDL
