MODEL 1
REMARK minimizedAffinity 7.68991613
REMARK minimizedRMSD -1
REMARK  0 active torsions:
REMARK  status: ('A' for Active; 'I' for Inactive)
ROOT
ATOM      1  C1  DEN d   1      -3.278  -6.000  -5.836  0.00  0.00     0.130 A 
ATOM      2  C2  DEN d   1      -4.254  -4.917  -5.745  0.00  0.00    -0.031 A 
ATOM      3  C3  DEN d   1      -3.517  -3.637  -5.758  0.00  0.00     0.027 A 
ATOM      4  C4  DEN d   1      -0.975  -3.229  -5.915  0.00  0.00     0.027 A 
ATOM      5  C5  DEN d   1       0.257  -3.840  -5.998  0.00  0.00    -0.003 A 
ATOM      6  C6  DEN d   1       0.398  -5.202  -5.999  0.00  0.00     0.001 A 
ATOM      7  C7  DEN d   1      -0.716  -6.000  -5.961  0.00  0.00     0.017 A 
ATOM      8  C8  DEN d   1      -1.961  -5.392  -5.869  0.00  0.00    -0.094 A 
ATOM      9  C9  DEN d   1      -2.083  -4.013  -5.881  0.00  0.00    -0.072 A 
ENDROOT
TORSDOF 0
ENDMDL
