MODEL 1
REMARK minimizedAffinity 3.50273156
REMARK minimizedRMSD -1
REMARK  0 active torsions:
REMARK  status: ('A' for Active; 'I' for Inactive)
ROOT
ATOM      1  C1  DEN d   1       2.111  -3.300  -2.756  0.00  0.00     0.130 A 
ATOM      2  C2  DEN d   1       2.106  -2.260  -1.732  0.00  0.00    -0.031 A 
ATOM      3  C3  DEN d   1       3.385  -1.526  -1.821  0.00  0.00     0.027 A 
ATOM      4  C4  DEN d   1       5.359  -1.897  -3.439  0.00  0.00     0.027 A 
ATOM      5  C5  DEN d   1       5.829  -2.670  -4.478  0.00  0.00    -0.003 A 
ATOM      6  C6  DEN d   1       5.113  -3.720  -4.989  0.00  0.00     0.001 A 
ATOM      7  C7  DEN d   1       3.867  -3.998  -4.492  0.00  0.00     0.017 A 
ATOM      8  C8  DEN d   1       3.390  -3.228  -3.439  0.00  0.00    -0.094 A 
ATOM      9  C9  DEN d   1       4.123  -2.163  -2.945  0.00  0.00    -0.072 A 
ENDROOT
TORSDOF 0
ENDMDL
