MODEL 1
REMARK minimizedAffinity 8.85112858
REMARK minimizedRMSD -1
REMARK  0 active torsions:
REMARK  status: ('A' for Active; 'I' for Inactive)
ROOT
ATOM      1  C1  DEN d   1      -2.523  -4.838  -6.000  0.00  0.00     0.130 A 
ATOM      2  C2  DEN d   1      -2.325  -5.999  -5.137  0.00  0.00    -0.031 A 
ATOM      3  C3  DEN d   1      -1.341  -5.634  -4.098  0.00  0.00     0.027 A 
ATOM      4  C4  DEN d   1      -0.115  -3.393  -3.741  0.00  0.00     0.027 A 
ATOM      5  C5  DEN d   1       0.052  -2.115  -4.227  0.00  0.00    -0.003 A 
ATOM      6  C6  DEN d   1      -0.596  -1.670  -5.348  0.00  0.00     0.001 A 
ATOM      7  C7  DEN d   1      -1.477  -2.495  -5.996  0.00  0.00     0.017 A 
ATOM      8  C8  DEN d   1      -1.645  -3.787  -5.516  0.00  0.00    -0.094 A 
ATOM      9  C9  DEN d   1      -0.990  -4.215  -4.374  0.00  0.00    -0.072 A 
ENDROOT
TORSDOF 0
ENDMDL
