MODEL 1
REMARK minimizedAffinity -3.21923685
REMARK minimizedRMSD -1
REMARK  0 active torsions:
REMARK  status: ('A' for Active; 'I' for Inactive)
ROOT
ATOM      1  C1  DEN d   1       0.484   1.454   3.560  0.00  0.00     0.130 A 
ATOM      2  C2  DEN d   1       0.989   0.204   4.123  0.00  0.00    -0.031 A 
ATOM      3  C3  DEN d   1       1.496  -0.625   3.011  0.00  0.00     0.027 A 
ATOM      4  C4  DEN d   1       1.552  -0.097   0.487  0.00  0.00     0.027 A 
ATOM      5  C5  DEN d   1       1.225   0.836  -0.472  0.00  0.00    -0.003 A 
ATOM      6  C6  DEN d   1       0.603   2.016  -0.161  0.00  0.00     0.001 A 
ATOM      7  C7  DEN d   1       0.328   2.314   1.148  0.00  0.00     0.017 A 
ATOM      8  C8  DEN d   1       0.648   1.375   2.120  0.00  0.00    -0.094 A 
ATOM      9  C9  DEN d   1       1.288   0.193   1.786  0.00  0.00    -0.072 A 
ENDROOT
TORSDOF 0
ENDMDL
