MODEL 1
REMARK minimizedAffinity -5.43657923
REMARK minimizedRMSD -1
REMARK  0 active torsions:
REMARK  status: ('A' for Active; 'I' for Inactive)
ROOT
ATOM      1  C   UNL d   1      -0.446  -0.843  -1.076  0.00  0.00     0.078 C 
ATOM      2  C1  UNL d   1      -0.354   0.552  -0.534  0.00  0.00    -0.077 A 
ATOM      3  C2  UNL d   1      -1.369   1.082   0.272  0.00  0.00    -0.001 A 
ATOM      4  C3  UNL d   1      -1.274   2.385   0.762  0.00  0.00     0.003 A 
ATOM      5  C4  UNL d   1      -0.166   3.171   0.450  0.00  0.00    -0.005 A 
ATOM      6  C5  UNL d   1       0.848   2.653  -0.353  0.00  0.00     0.003 A 
ATOM      7  C6  UNL d   1       0.755   1.350  -0.843  0.00  0.00    -0.001 A 
ENDROOT
TORSDOF 0
ENDMDL
