MODEL 1
REMARK minimizedAffinity -3.31123996
REMARK minimizedRMSD -1
REMARK  0 active torsions:
REMARK  status: ('A' for Active; 'I' for Inactive)
ROOT
ATOM      1  C   UNL d   1       0.533   2.498  -1.086  0.00  0.00     0.078 C 
ATOM      2  C1  UNL d   1       0.341   1.253  -0.272  0.00  0.00    -0.077 A 
ATOM      3  C2  UNL d   1      -0.821   1.058   0.484  0.00  0.00    -0.001 A 
ATOM      4  C3  UNL d   1      -0.981  -0.101   1.245  0.00  0.00     0.003 A 
ATOM      5  C4  UNL d   1       0.017  -1.074   1.258  0.00  0.00    -0.005 A 
ATOM      6  C5  UNL d   1       1.178  -0.887   0.510  0.00  0.00     0.003 A 
ATOM      7  C6  UNL d   1       1.340   0.272  -0.251  0.00  0.00    -0.001 A 
ENDROOT
TORSDOF 0
ENDMDL
