MODEL 1
REMARK minimizedAffinity -3.64841795
REMARK minimizedRMSD -1
REMARK  0 active torsions:
REMARK  status: ('A' for Active; 'I' for Inactive)
ROOT
ATOM      1  C   UNL d   1      -1.193   3.884   3.551  0.00  0.00     0.078 C 
ATOM      2  C1  UNL d   1      -0.924   3.161   2.266  0.00  0.00    -0.077 A 
ATOM      3  C2  UNL d   1      -1.519   1.922   1.997  0.00  0.00    -0.001 A 
ATOM      4  C3  UNL d   1      -1.252   1.255   0.800  0.00  0.00     0.003 A 
ATOM      5  C4  UNL d   1      -0.388   1.818  -0.137  0.00  0.00    -0.005 A 
ATOM      6  C5  UNL d   1       0.211   3.049   0.123  0.00  0.00     0.003 A 
ATOM      7  C6  UNL d   1      -0.055   3.718   1.319  0.00  0.00    -0.001 A 
ENDROOT
TORSDOF 0
ENDMDL
