MODEL 1
REMARK minimizedAffinity -5.07810497
REMARK minimizedRMSD -1
REMARK  0 active torsions:
REMARK  status: ('A' for Active; 'I' for Inactive)
ROOT
ATOM      1  C   UNL d   1      -1.272   0.061   1.365  0.00  0.00     0.078 C 
ATOM      2  C1  UNL d   1      -0.506   1.105   0.608  0.00  0.00    -0.077 A 
ATOM      3  C2  UNL d   1       0.687   0.787  -0.052  0.00  0.00    -0.001 A 
ATOM      4  C3  UNL d   1       1.394   1.771  -0.744  0.00  0.00     0.003 A 
ATOM      5  C4  UNL d   1       0.917   3.079  -0.783  0.00  0.00    -0.005 A 
ATOM      6  C5  UNL d   1      -0.269   3.405  -0.128  0.00  0.00     0.003 A 
ATOM      7  C6  UNL d   1      -0.977   2.423   0.566  0.00  0.00    -0.001 A 
ENDROOT
TORSDOF 0
ENDMDL
