MODEL 1
REMARK minimizedAffinity -3.52728558
REMARK minimizedRMSD -1
REMARK  0 active torsions:
REMARK  status: ('A' for Active; 'I' for Inactive)
ROOT
ATOM      1  C   UNL d   1      -0.192   2.987   0.366  0.00  0.00     0.078 C 
ATOM      2  C1  UNL d   1      -0.110   1.509   0.130  0.00  0.00    -0.077 A 
ATOM      3  C2  UNL d   1      -1.243   0.773  -0.240  0.00  0.00    -0.001 A 
ATOM      4  C3  UNL d   1      -1.153  -0.604  -0.447  0.00  0.00     0.003 A 
ATOM      5  C4  UNL d   1       0.066  -1.259  -0.286  0.00  0.00    -0.005 A 
ATOM      6  C5  UNL d   1       1.198  -0.536   0.084  0.00  0.00     0.003 A 
ATOM      7  C6  UNL d   1       1.111   0.842   0.291  0.00  0.00    -0.001 A 
ENDROOT
TORSDOF 0
ENDMDL
