MODEL 1
REMARK minimizedAffinity -3.53273702
REMARK minimizedRMSD -1
REMARK  0 active torsions:
REMARK  status: ('A' for Active; 'I' for Inactive)
ROOT
ATOM      1  C   UNL d   1      -1.009   2.623   2.060  0.00  0.00     0.078 C 
ATOM      2  C1  UNL d   1      -0.715   1.563   1.040  0.00  0.00    -0.077 A 
ATOM      3  C2  UNL d   1      -1.296   0.293   1.132  0.00  0.00    -0.001 A 
ATOM      4  C3  UNL d   1      -1.006  -0.687   0.182  0.00  0.00     0.003 A 
ATOM      5  C4  UNL d   1      -0.131  -0.407  -0.867  0.00  0.00    -0.005 A 
ATOM      6  C5  UNL d   1       0.454   0.853  -0.965  0.00  0.00     0.003 A 
ATOM      7  C6  UNL d   1       0.165   1.834  -0.015  0.00  0.00    -0.001 A 
ENDROOT
TORSDOF 0
ENDMDL
