MODEL 1
REMARK minimizedAffinity -4.93047428
REMARK minimizedRMSD -1
REMARK  0 active torsions:
REMARK  status: ('A' for Active; 'I' for Inactive)
ROOT
ATOM      1  C   UNL d   1       0.053   2.895   0.020  0.00  0.00     0.078 C 
ATOM      2  C1  UNL d   1       0.458   1.477   0.293  0.00  0.00    -0.077 A 
ATOM      3  C2  UNL d   1      -0.494   0.451   0.332  0.00  0.00    -0.001 A 
ATOM      4  C3  UNL d   1      -0.104  -0.863   0.597  0.00  0.00     0.003 A 
ATOM      5  C4  UNL d   1       1.237  -1.163   0.826  0.00  0.00    -0.005 A 
ATOM      6  C5  UNL d   1       2.191  -0.147   0.791  0.00  0.00     0.003 A 
ATOM      7  C6  UNL d   1       1.803   1.167   0.527  0.00  0.00    -0.001 A 
ENDROOT
TORSDOF 0
ENDMDL
