MODEL 1
REMARK minimizedAffinity -4.92072487
REMARK minimizedRMSD -1
REMARK  0 active torsions:
REMARK  status: ('A' for Active; 'I' for Inactive)
ROOT
ATOM      1  C   UNL d   1      -0.004  -1.454   0.112  0.00  0.00     0.078 C 
ATOM      2  C1  UNL d   1      -0.110   0.038   0.221  0.00  0.00    -0.077 A 
ATOM      3  C2  UNL d   1      -1.251   0.642   0.763  0.00  0.00    -0.001 A 
ATOM      4  C3  UNL d   1      -1.339   2.032   0.849  0.00  0.00     0.003 A 
ATOM      5  C4  UNL d   1      -0.291   2.830   0.395  0.00  0.00    -0.005 A 
ATOM      6  C5  UNL d   1       0.848   2.237  -0.147  0.00  0.00     0.003 A 
ATOM      7  C6  UNL d   1       0.938   0.847  -0.235  0.00  0.00    -0.001 A 
ENDROOT
TORSDOF 0
ENDMDL
