MODEL 1
REMARK minimizedAffinity -5.27482176
REMARK minimizedRMSD -1
REMARK  0 active torsions:
REMARK  status: ('A' for Active; 'I' for Inactive)
ROOT
ATOM      1  C   UNL d   1      -1.751   0.053   1.775  0.00  0.00     0.078 C 
ATOM      2  C1  UNL d   1      -0.890   0.859   0.848  0.00  0.00    -0.077 A 
ATOM      3  C2  UNL d   1      -0.192   0.249  -0.201  0.00  0.00    -0.001 A 
ATOM      4  C3  UNL d   1       0.614   1.010  -1.049  0.00  0.00     0.003 A 
ATOM      5  C4  UNL d   1       0.730   2.385  -0.857  0.00  0.00    -0.005 A 
ATOM      6  C5  UNL d   1       0.040   3.001   0.186  0.00  0.00     0.003 A 
ATOM      7  C6  UNL d   1      -0.766   2.241   1.035  0.00  0.00    -0.001 A 
ENDROOT
TORSDOF 0
ENDMDL
