MODEL 1
REMARK minimizedAffinity -5.22763968
REMARK minimizedRMSD -1
REMARK  0 active torsions:
REMARK  status: ('A' for Active; 'I' for Inactive)
ROOT
ATOM      1  C   UNL d   1      -0.073  -1.078   0.249  0.00  0.00     0.078 C 
ATOM      2  C1  UNL d   1       0.010   0.416   0.345  0.00  0.00    -0.077 A 
ATOM      3  C2  UNL d   1       1.005   1.128  -0.337  0.00  0.00    -0.001 A 
ATOM      4  C3  UNL d   1       1.076   2.518  -0.231  0.00  0.00     0.003 A 
ATOM      5  C4  UNL d   1       0.157   3.208   0.557  0.00  0.00    -0.005 A 
ATOM      6  C5  UNL d   1      -0.835   2.508   1.241  0.00  0.00     0.003 A 
ATOM      7  C6  UNL d   1      -0.908   1.118   1.136  0.00  0.00    -0.001 A 
ENDROOT
TORSDOF 0
ENDMDL
