MODEL 1
REMARK minimizedAffinity -3.30179167
REMARK minimizedRMSD -1
REMARK  0 active torsions:
REMARK  status: ('A' for Active; 'I' for Inactive)
ROOT
ATOM      1  C   UNL d   1      -0.012   2.930   0.039  0.00  0.00     0.078 C 
ATOM      2  C1  UNL d   1      -0.031   1.440   0.209  0.00  0.00    -0.077 A 
ATOM      3  C2  UNL d   1      -1.135   0.793   0.777  0.00  0.00    -0.001 A 
ATOM      4  C3  UNL d   1      -1.135  -0.594   0.938  0.00  0.00     0.003 A 
ATOM      5  C4  UNL d   1      -0.033  -1.345   0.533  0.00  0.00    -0.005 A 
ATOM      6  C5  UNL d   1       1.071  -0.710  -0.031  0.00  0.00     0.003 A 
ATOM      7  C6  UNL d   1       1.073   0.677  -0.193  0.00  0.00    -0.001 A 
ENDROOT
TORSDOF 0
ENDMDL
