MODEL 1
REMARK minimizedAffinity -1.95565033
REMARK minimizedRMSD -1
REMARK  0 active torsions:
REMARK  status: ('A' for Active; 'I' for Inactive)
ROOT
ATOM      1  C   UNL d   1      -1.412   3.598   3.119  0.00  0.00     0.078 C 
ATOM      2  C1  UNL d   1      -0.979   2.955   1.836  0.00  0.00    -0.077 A 
ATOM      3  C2  UNL d   1      -1.276   1.613   1.565  0.00  0.00    -0.001 A 
ATOM      4  C3  UNL d   1      -0.858   1.025   0.371  0.00  0.00     0.003 A 
ATOM      5  C4  UNL d   1      -0.140   1.769  -0.562  0.00  0.00    -0.005 A 
ATOM      6  C5  UNL d   1       0.162   3.104  -0.301  0.00  0.00     0.003 A 
ATOM      7  C6  UNL d   1      -0.255   3.695   0.893  0.00  0.00    -0.001 A 
ENDROOT
TORSDOF 0
ENDMDL
