MODEL 1
REMARK minimizedAffinity -4.28303909
REMARK minimizedRMSD -1
REMARK  0 active torsions:
REMARK  status: ('A' for Active; 'I' for Inactive)
ROOT
ATOM      1  C   UNL d   1      -0.324  -0.745  -1.054  0.00  0.00     0.078 C 
ATOM      2  C1  UNL d   1      -0.431   0.511  -0.241  0.00  0.00    -0.077 A 
ATOM      3  C2  UNL d   1       0.529   1.524  -0.350  0.00  0.00    -0.001 A 
ATOM      4  C3  UNL d   1       0.423   2.683   0.420  0.00  0.00     0.003 A 
ATOM      5  C4  UNL d   1      -0.642   2.840   1.306  0.00  0.00    -0.005 A 
ATOM      6  C5  UNL d   1      -1.601   1.836   1.423  0.00  0.00     0.003 A 
ATOM      7  C6  UNL d   1      -1.496   0.676   0.653  0.00  0.00    -0.001 A 
ENDROOT
TORSDOF 0
ENDMDL
