MODEL 1
REMARK minimizedAffinity -4.58663321
REMARK minimizedRMSD -1
REMARK  0 active torsions:
REMARK  status: ('A' for Active; 'I' for Inactive)
ROOT
ATOM      1  C   UNL d   1      -0.149  -0.905  -0.312  0.00  0.00     0.078 C 
ATOM      2  C1  UNL d   1       0.125   0.514   0.088  0.00  0.00    -0.077 A 
ATOM      3  C2  UNL d   1      -0.902   1.466   0.116  0.00  0.00    -0.001 A 
ATOM      4  C3  UNL d   1      -0.631   2.786   0.480  0.00  0.00     0.003 A 
ATOM      5  C4  UNL d   1       0.666   3.167   0.817  0.00  0.00    -0.005 A 
ATOM      6  C5  UNL d   1       1.695   2.227   0.790  0.00  0.00     0.003 A 
ATOM      7  C6  UNL d   1       1.426   0.907   0.426  0.00  0.00    -0.001 A 
ENDROOT
TORSDOF 0
ENDMDL
