MODEL 1
REMARK minimizedAffinity -2.81675673
REMARK minimizedRMSD -1
REMARK  0 active torsions:
REMARK  status: ('A' for Active; 'I' for Inactive)
ROOT
ATOM      1  C   UNL d   1       2.261   0.080   0.539  0.00  0.00     0.078 C 
ATOM      2  C1  UNL d   1       0.885   0.675   0.560  0.00  0.00    -0.077 A 
ATOM      3  C2  UNL d   1      -0.228  -0.067   0.146  0.00  0.00    -0.001 A 
ATOM      4  C3  UNL d   1      -1.502   0.503   0.161  0.00  0.00     0.003 A 
ATOM      5  C4  UNL d   1      -1.675   1.818   0.588  0.00  0.00    -0.005 A 
ATOM      6  C5  UNL d   1      -0.574   2.565   0.999  0.00  0.00     0.003 A 
ATOM      7  C6  UNL d   1       0.701   1.997   0.985  0.00  0.00    -0.001 A 
ENDROOT
TORSDOF 0
ENDMDL
