MODEL 1
REMARK minimizedAffinity -3.49752355
REMARK minimizedRMSD -1
REMARK  0 active torsions:
REMARK  status: ('A' for Active; 'I' for Inactive)
ROOT
ATOM      1  C   UNL d   1      -0.010   3.020   0.571  0.00  0.00     0.078 C 
ATOM      2  C1  UNL d   1       0.369   1.569   0.573  0.00  0.00    -0.077 A 
ATOM      3  C2  UNL d   1      -0.604   0.569   0.448  0.00  0.00    -0.001 A 
ATOM      4  C3  UNL d   1      -0.238  -0.778   0.461  0.00  0.00     0.003 A 
ATOM      5  C4  UNL d   1       1.101  -1.137   0.600  0.00  0.00    -0.005 A 
ATOM      6  C5  UNL d   1       2.076  -0.150   0.726  0.00  0.00     0.003 A 
ATOM      7  C6  UNL d   1       1.712   1.197   0.713  0.00  0.00    -0.001 A 
ENDROOT
TORSDOF 0
ENDMDL
