MODEL 1
REMARK minimizedAffinity 0.327678114
REMARK minimizedRMSD -1
REMARK  0 active torsions:
REMARK  status: ('A' for Active; 'I' for Inactive)
ROOT
ATOM      1  C1  BNZ d   1      -3.916   0.232   0.398  0.00  0.00     0.000 A 
ATOM      2  C2  BNZ d   1      -2.892  -0.029  -0.473  0.00  0.00     0.000 A 
ATOM      3  C3  BNZ d   1      -1.612   0.351  -0.182  0.00  0.00     0.000 A 
ATOM      4  C4  BNZ d   1      -1.364   1.027   0.959  0.00  0.00     0.000 A 
ATOM      5  C5  BNZ d   1      -2.387   1.306   1.842  0.00  0.00     0.000 A 
ATOM      6  C6  BNZ d   1      -3.668   0.888   1.564  0.00  0.00     0.000 A 
ENDROOT
TORSDOF 0
ENDMDL
