MODEL 1
REMARK minimizedAffinity -1.74676454
REMARK minimizedRMSD -1
REMARK  0 active torsions:
REMARK  status: ('A' for Active; 'I' for Inactive)
ROOT
ATOM      1  C1  BNZ d   1       2.414  -2.465  -0.761  0.00  0.00     0.000 A 
ATOM      2  C2  BNZ d   1       3.006  -1.627   0.146  0.00  0.00     0.000 A 
ATOM      3  C3  BNZ d   1       2.339  -0.537   0.631  0.00  0.00     0.000 A 
ATOM      4  C4  BNZ d   1       1.098  -0.263   0.178  0.00  0.00     0.000 A 
ATOM      5  C5  BNZ d   1       0.492  -1.093  -0.744  0.00  0.00     0.000 A 
ATOM      6  C6  BNZ d   1       1.151  -2.211  -1.200  0.00  0.00     0.000 A 
ENDROOT
TORSDOF 0
ENDMDL
