MODEL 1
REMARK minimizedAffinity 6.07877159
REMARK minimizedRMSD -1
REMARK  0 active torsions:
REMARK  status: ('A' for Active; 'I' for Inactive)
ROOT
ATOM      1  C1  BNZ d   1       1.171  -4.075  -0.231  0.00  0.00     0.000 A 
ATOM      2  C2  BNZ d   1       0.014  -4.807  -0.271  0.00  0.00     0.000 A 
ATOM      3  C3  BNZ d   1      -1.105  -4.315  -0.884  0.00  0.00     0.000 A 
ATOM      4  C4  BNZ d   1      -1.078  -3.077  -1.418  0.00  0.00     0.000 A 
ATOM      5  C5  BNZ d   1       0.078  -2.323  -1.377  0.00  0.00     0.000 A 
ATOM      6  C6  BNZ d   1       1.214  -2.837  -0.794  0.00  0.00     0.000 A 
ENDROOT
TORSDOF 0
ENDMDL
