MODEL 1
REMARK minimizedAffinity 4.57653141
REMARK minimizedRMSD -1
REMARK  0 active torsions:
REMARK  status: ('A' for Active; 'I' for Inactive)
ROOT
ATOM      1  C1  BNZ d   1       2.291  -2.350   1.348  0.00  0.00     0.000 A 
ATOM      2  C2  BNZ d   1       1.474  -3.041   0.493  0.00  0.00     0.000 A 
ATOM      3  C3  BNZ d   1       1.750  -3.101  -0.844  0.00  0.00     0.000 A 
ATOM      4  C4  BNZ d   1       2.819  -2.438  -1.331  0.00  0.00     0.000 A 
ATOM      5  C5  BNZ d   1       3.647  -1.729  -0.484  0.00  0.00     0.000 A 
ATOM      6  C6  BNZ d   1       3.388  -1.703   0.867  0.00  0.00     0.000 A 
ENDROOT
TORSDOF 0
ENDMDL
