MODEL 1
REMARK minimizedAffinity -0.247903049
REMARK minimizedRMSD -1
REMARK  0 active torsions:
REMARK  status: ('A' for Active; 'I' for Inactive)
ROOT
ATOM      1  C1  BNZ d   1       3.961   2.348   3.121  0.00  0.00     0.000 A 
ATOM      2  C2  BNZ d   1       5.068   3.148   3.221  0.00  0.00     0.000 A 
ATOM      3  C3  BNZ d   1       5.067   4.246   4.035  0.00  0.00     0.000 A 
ATOM      4  C4  BNZ d   1       3.948   4.565   4.717  0.00  0.00     0.000 A 
ATOM      5  C5  BNZ d   1       2.820   3.774   4.619  0.00  0.00     0.000 A 
ATOM      6  C6  BNZ d   1       2.837   2.648   3.828  0.00  0.00     0.000 A 
ENDROOT
TORSDOF 0
ENDMDL
