MODEL 1
REMARK minimizedAffinity 1.72660983
REMARK minimizedRMSD -1
REMARK  0 active torsions:
REMARK  status: ('A' for Active; 'I' for Inactive)
ROOT
ATOM      1  C1  BNZ d   1       2.215   0.101  -0.044  0.00  0.00     0.000 A 
ATOM      2  C2  BNZ d   1       2.118  -1.033  -0.806  0.00  0.00     0.000 A 
ATOM      3  C3  BNZ d   1       2.562  -2.235  -0.332  0.00  0.00     0.000 A 
ATOM      4  C4  BNZ d   1       3.137  -2.296   0.886  0.00  0.00     0.000 A 
ATOM      5  C5  BNZ d   1       3.250  -1.161   1.663  0.00  0.00     0.000 A 
ATOM      6  C6  BNZ d   1       2.767   0.041   1.199  0.00  0.00     0.000 A 
ENDROOT
TORSDOF 0
ENDMDL
