MODEL 1
REMARK minimizedAffinity 0.29628399
REMARK minimizedRMSD -1
REMARK  0 active torsions:
REMARK  status: ('A' for Active; 'I' for Inactive)
ROOT
ATOM      1  C1  BNZ d   1       2.893  -1.459  -0.952  0.00  0.00     0.000 A 
ATOM      2  C2  BNZ d   1       1.845  -0.721  -0.472  0.00  0.00     0.000 A 
ATOM      3  C3  BNZ d   1       0.554  -1.081  -0.740  0.00  0.00     0.000 A 
ATOM      4  C4  BNZ d   1       0.314  -2.155  -1.520  0.00  0.00     0.000 A 
ATOM      5  C5  BNZ d   1       1.360  -2.904  -2.020  0.00  0.00     0.000 A 
ATOM      6  C6  BNZ d   1       2.657  -2.561  -1.715  0.00  0.00     0.000 A 
ENDROOT
TORSDOF 0
ENDMDL
