MODEL 1
REMARK minimizedAffinity -1.92483115
REMARK minimizedRMSD -1
REMARK  0 active torsions:
REMARK  status: ('A' for Active; 'I' for Inactive)
ROOT
ATOM      1  C1  BNZ d   1       1.465  -2.101  -0.497  0.00  0.00     0.000 A 
ATOM      2  C2  BNZ d   1       0.273  -1.466  -0.271  0.00  0.00     0.000 A 
ATOM      3  C3  BNZ d   1       0.194  -0.101  -0.279  0.00  0.00     0.000 A 
ATOM      4  C4  BNZ d   1       1.314   0.626  -0.473  0.00  0.00     0.000 A 
ATOM      5  C5  BNZ d   1       2.525   0.000  -0.692  0.00  0.00     0.000 A 
ATOM      6  C6  BNZ d   1       2.592  -1.374  -0.722  0.00  0.00     0.000 A 
ENDROOT
TORSDOF 0
ENDMDL
