MODEL 1
REMARK minimizedAffinity 9.72350311
REMARK minimizedRMSD -1
REMARK  0 active torsions:
REMARK  status: ('A' for Active; 'I' for Inactive)
ROOT
ATOM      1  C   UNL d   1       2.564  -5.993  -0.238  0.00  0.00    -0.002 A 
ATOM      2  C1  UNL d   1       2.507  -5.994  -1.625  0.00  0.00     0.010 A 
ATOM      3  C2  UNL d   1       1.277  -5.997  -2.285  0.00  0.00     0.041 A 
ATOM      4  C3  UNL d   1       0.093  -5.997  -1.522  0.00  0.00    -0.075 A 
ATOM      5  S   UNL d   1      -1.526  -6.000  -2.114  0.00  0.00     0.015 SA
ATOM      6  C4  UNL d   1      -2.181  -5.999  -0.540  0.00  0.00     0.022 A 
ATOM      7  C5  UNL d   1      -1.202  -5.998   0.425  0.00  0.00     0.026 A 
ATOM      8  C6  UNL d   1       0.124  -5.996  -0.124  0.00  0.00    -0.082 A 
ATOM      9  C7  UNL d   1       1.387  -5.994   0.516  0.00  0.00     0.045 A 
ENDROOT
TORSDOF 0
ENDMDL
