MODEL 1
REMARK minimizedAffinity 5.57191849
REMARK minimizedRMSD -1
REMARK  0 active torsions:
REMARK  status: ('A' for Active; 'I' for Inactive)
ROOT
ATOM      1  C   UNL d   1       2.795  -3.999   3.937  0.00  0.00    -0.002 A 
ATOM      2  C1  UNL d   1       1.563  -3.665   4.482  0.00  0.00     0.010 A 
ATOM      3  C2  UNL d   1       0.939  -2.463   4.143  0.00  0.00     0.041 A 
ATOM      4  C3  UNL d   1       1.579  -1.594   3.238  0.00  0.00    -0.075 A 
ATOM      5  S   UNL d   1       1.002  -0.069   2.676  0.00  0.00     0.015 SA
ATOM      6  C4  UNL d   1       2.378   0.175   1.699  0.00  0.00     0.022 A 
ATOM      7  C5  UNL d   1       3.265  -0.872   1.787  0.00  0.00     0.026 A 
ATOM      8  C6  UNL d   1       2.819  -1.909   2.675  0.00  0.00    -0.082 A 
ATOM      9  C7  UNL d   1       3.427  -3.135   3.039  0.00  0.00     0.045 A 
ENDROOT
TORSDOF 0
ENDMDL
