MODEL 1
REMARK minimizedAffinity 3.80025244
REMARK minimizedRMSD -1
REMARK  0 active torsions:
REMARK  status: ('A' for Active; 'I' for Inactive)
ROOT
ATOM      1  C   UNL d   1       4.817  -5.961  -2.208  0.00  0.00    -0.002 A 
ATOM      2  C1  UNL d   1       3.633  -5.966  -1.485  0.00  0.00     0.010 A 
ATOM      3  C2  UNL d   1       2.400  -5.977  -2.141  0.00  0.00     0.041 A 
ATOM      4  C3  UNL d   1       2.378  -5.983  -3.549  0.00  0.00    -0.075 A 
ATOM      5  S   UNL d   1       0.986  -5.997  -4.567  0.00  0.00     0.015 SA
ATOM      6  C4  UNL d   1       1.931  -5.997  -5.985  0.00  0.00     0.022 A 
ATOM      7  C5  UNL d   1       3.277  -5.987  -5.708  0.00  0.00     0.026 A 
ATOM      8  C6  UNL d   1       3.557  -5.979  -4.300  0.00  0.00    -0.082 A 
ATOM      9  C7  UNL d   1       4.791  -5.968  -3.605  0.00  0.00     0.045 A 
ENDROOT
TORSDOF 0
ENDMDL
