MODEL 1
REMARK minimizedAffinity 10.6763687
REMARK minimizedRMSD -1
REMARK  0 active torsions:
REMARK  status: ('A' for Active; 'I' for Inactive)
ROOT
ATOM      1  C   UNL d   1       1.234  -3.060   2.450  0.00  0.00    -0.002 A 
ATOM      2  C1  UNL d   1       1.461  -1.789   2.958  0.00  0.00     0.010 A 
ATOM      3  C2  UNL d   1       2.314  -1.601   4.048  0.00  0.00     0.041 A 
ATOM      4  C3  UNL d   1       2.943  -2.724   4.622  0.00  0.00    -0.075 A 
ATOM      5  S   UNL d   1       4.028  -2.735   5.962  0.00  0.00     0.015 SA
ATOM      6  C4  UNL d   1       4.217  -4.427   5.890  0.00  0.00     0.022 A 
ATOM      7  C5  UNL d   1       3.477  -4.986   4.876  0.00  0.00     0.026 A 
ATOM      8  C6  UNL d   1       2.731  -4.013   4.128  0.00  0.00    -0.082 A 
ATOM      9  C7  UNL d   1       1.859  -4.171   3.023  0.00  0.00     0.045 A 
ENDROOT
TORSDOF 0
ENDMDL
