MODEL 1
REMARK minimizedAffinity 13.0495749
REMARK minimizedRMSD -1
REMARK  0 active torsions:
REMARK  status: ('A' for Active; 'I' for Inactive)
ROOT
ATOM      1  C   UNL d   1       2.440  -4.913   4.308  0.00  0.00    -0.002 A 
ATOM      2  C1  UNL d   1       3.357  -4.065   4.912  0.00  0.00     0.010 A 
ATOM      3  C2  UNL d   1       3.399  -2.710   4.578  0.00  0.00     0.041 A 
ATOM      4  C3  UNL d   1       2.493  -2.216   3.619  0.00  0.00    -0.075 A 
ATOM      5  S   UNL d   1       2.360  -0.593   3.054  0.00  0.00     0.015 SA
ATOM      6  C4  UNL d   1       1.081  -0.986   1.998  0.00  0.00     0.022 A 
ATOM      7  C5  UNL d   1       0.751  -2.319   2.062  0.00  0.00     0.026 A 
ATOM      8  C6  UNL d   1       1.559  -3.050   2.998  0.00  0.00    -0.082 A 
ATOM      9  C7  UNL d   1       1.543  -4.419   3.357  0.00  0.00     0.045 A 
ENDROOT
TORSDOF 0
ENDMDL
