MODEL 1
REMARK minimizedAffinity 0.689679444
REMARK minimizedRMSD -1
REMARK  0 active torsions:
REMARK  status: ('A' for Active; 'I' for Inactive)
ROOT
ATOM      1  C   UNL d   1       1.504  -3.443   3.064  0.00  0.00    -0.002 A 
ATOM      2  C1  UNL d   1       0.871  -2.249   3.380  0.00  0.00     0.010 A 
ATOM      3  C2  UNL d   1       1.438  -1.026   3.017  0.00  0.00     0.041 A 
ATOM      4  C3  UNL d   1       2.663  -1.023   2.322  0.00  0.00    -0.075 A 
ATOM      5  S   UNL d   1       3.544   0.354   1.774  0.00  0.00     0.015 SA
ATOM      6  C4  UNL d   1       4.781  -0.610   1.106  0.00  0.00     0.022 A 
ATOM      7  C5  UNL d   1       4.544  -1.952   1.288  0.00  0.00     0.026 A 
ATOM      8  C6  UNL d   1       3.320  -2.212   1.991  0.00  0.00    -0.082 A 
ATOM      9  C7  UNL d   1       2.719  -3.436   2.375  0.00  0.00     0.045 A 
ENDROOT
TORSDOF 0
ENDMDL
