MODEL 1
REMARK minimizedAffinity -4.00347805
REMARK minimizedRMSD -1
REMARK  1 active torsions:
REMARK  status: ('A' for Active; 'I' for Inactive)
REMARK    1  A    between atoms: C1_2  and  C2_3 
ROOT
ATOM      1  C2  UNL d   1       0.127  -0.070   0.063  0.00  0.00    -0.073 A 
ATOM      2  C3  UNL d   1       0.161  -0.663   1.331  0.00  0.00    -0.002 A 
ATOM      3  C4  UNL d   1      -0.673  -0.198   2.349  0.00  0.00     0.004 A 
ATOM      4  C5  UNL d   1      -1.552   0.857   2.109  0.00  0.00    -0.004 A 
ATOM      5  C6  UNL d   1      -1.610   1.455   0.846  0.00  0.00    -0.075 A 
ATOM      6  C7  UNL d   1      -2.549   2.593   0.573  0.00  0.00     0.076 C 
ATOM      7  C8  UNL d   1      -0.768   0.984  -0.171  0.00  0.00     0.001 A 
ENDROOT
BRANCH   1   8
ATOM      8  C1  UNL d   1       1.020  -0.573  -1.041  0.00  0.00     0.053 C 
ATOM      9  C   UNL d   1       0.612  -1.958  -1.518  0.00  0.00     0.018 C 
ENDBRANCH   1   8
TORSDOF 1
ENDMDL
