MODEL 1
REMARK minimizedAffinity -4.82652187
REMARK minimizedRMSD -1
REMARK  1 active torsions:
REMARK  status: ('A' for Active; 'I' for Inactive)
REMARK    1  A    between atoms: C1_2  and  C2_3 
ROOT
ATOM      1  C2  UNL d   1       0.412  -0.649  -0.111  0.00  0.00    -0.073 A 
ATOM      2  C3  UNL d   1      -0.366  -0.701   1.051  0.00  0.00    -0.002 A 
ATOM      3  C4  UNL d   1      -1.106   0.412   1.454  0.00  0.00     0.004 A 
ATOM      4  C5  UNL d   1      -1.081   1.583   0.697  0.00  0.00    -0.004 A 
ATOM      5  C6  UNL d   1      -0.318   1.650  -0.474  0.00  0.00    -0.075 A 
ATOM      6  C7  UNL d   1      -0.279   2.903  -1.298  0.00  0.00     0.076 C 
ATOM      7  C8  UNL d   1       0.424   0.530  -0.870  0.00  0.00     0.001 A 
ENDROOT
BRANCH   1   8
ATOM      8  C1  UNL d   1       1.208  -1.850  -0.553  0.00  0.00     0.053 C 
ATOM      9  C   UNL d   1       0.594  -2.524  -1.770  0.00  0.00     0.018 C 
ENDBRANCH   1   8
TORSDOF 1
ENDMDL
