MODEL 1
REMARK minimizedAffinity -4.66836834
REMARK minimizedRMSD -1
REMARK  1 active torsions:
REMARK  status: ('A' for Active; 'I' for Inactive)
REMARK    1  A    between atoms: C1_2  and  C2_3 
ROOT
ATOM      1  C2  UNL d   1      -0.476   0.759   1.287  0.00  0.00    -0.073 A 
ATOM      2  C3  UNL d   1      -1.236   1.877   1.648  0.00  0.00    -0.002 A 
ATOM      3  C4  UNL d   1      -1.132   3.064   0.921  0.00  0.00     0.004 A 
ATOM      4  C5  UNL d   1      -0.275   3.142  -0.176  0.00  0.00    -0.004 A 
ATOM      5  C6  UNL d   1       0.484   2.032  -0.560  0.00  0.00    -0.075 A 
ATOM      6  C7  UNL d   1       1.413   2.101  -1.736  0.00  0.00     0.076 C 
ATOM      7  C8  UNL d   1       0.377   0.844   0.177  0.00  0.00     0.001 A 
ENDROOT
BRANCH   1   8
ATOM      8  C1  UNL d   1      -0.589  -0.527   2.065  0.00  0.00     0.053 C 
ATOM      9  C   UNL d   1       0.768  -1.037   2.524  0.00  0.00     0.018 C 
ENDBRANCH   1   8
TORSDOF 1
ENDMDL
