MODEL 1
REMARK minimizedAffinity -5.64289474
REMARK minimizedRMSD -1
REMARK  1 active torsions:
REMARK  status: ('A' for Active; 'I' for Inactive)
REMARK    1  A    between atoms: C1_2  and  C2_3 
ROOT
ATOM      1  C2  UNL d   1       0.248   0.024  -0.195  0.00  0.00    -0.073 A 
ATOM      2  C3  UNL d   1       0.040  -0.670   1.002  0.00  0.00    -0.002 A 
ATOM      3  C4  UNL d   1      -0.673  -0.078   2.045  0.00  0.00     0.004 A 
ATOM      4  C5  UNL d   1      -1.192   1.209   1.900  0.00  0.00    -0.004 A 
ATOM      5  C6  UNL d   1      -1.005   1.914   0.706  0.00  0.00    -0.075 A 
ATOM      6  C7  UNL d   1      -1.554   3.299   0.535  0.00  0.00     0.076 C 
ATOM      7  C8  UNL d   1      -0.285   1.314  -0.335  0.00  0.00     0.001 A 
ENDROOT
BRANCH   1   8
ATOM      8  C1  UNL d   1       1.012  -0.613  -1.327  0.00  0.00     0.053 C 
ATOM      9  C   UNL d   1       0.793  -2.117  -1.387  0.00  0.00     0.018 C 
ENDBRANCH   1   8
TORSDOF 1
ENDMDL
