MODEL 1
REMARK minimizedAffinity -3.43930173
REMARK minimizedRMSD -1
REMARK  1 active torsions:
REMARK  status: ('A' for Active; 'I' for Inactive)
REMARK    1  A    between atoms: C1_2  and  C2_3 
ROOT
ATOM      1  C2  UNL d   1       0.381  -0.404  -0.219  0.00  0.00    -0.073 A 
ATOM      2  C3  UNL d   1       0.926  -1.012   0.918  0.00  0.00    -0.002 A 
ATOM      3  C4  UNL d   1       0.530  -0.608   2.193  0.00  0.00     0.004 A 
ATOM      4  C5  UNL d   1      -0.420   0.402   2.345  0.00  0.00    -0.004 A 
ATOM      5  C6  UNL d   1      -0.985   1.015   1.222  0.00  0.00    -0.075 A 
ATOM      6  C7  UNL d   1      -2.006   2.104   1.369  0.00  0.00     0.076 C 
ATOM      7  C8  UNL d   1      -0.579   0.605  -0.055  0.00  0.00     0.001 A 
ENDROOT
BRANCH   1   8
ATOM      8  C1  UNL d   1       0.802  -0.841  -1.598  0.00  0.00     0.053 C 
ATOM      9  C   UNL d   1       0.640  -2.340  -1.794  0.00  0.00     0.018 C 
ENDBRANCH   1   8
TORSDOF 1
ENDMDL
