MODEL 1
REMARK minimizedAffinity 17.1346416
REMARK minimizedRMSD -1
REMARK  2 active torsions:
REMARK  status: ('A' for Active; 'I' for Inactive)
REMARK    1  A    between atoms: C2'_3  and  C1'_4 
REMARK    2  A    between atoms: C1'_4  and  C1_5 
ROOT
ATOM      1  C1  I4B d   1       3.397   3.018  -3.653  0.00  0.00    -0.075 A 
ATOM      2  C2  I4B d   1       3.311   1.922  -2.831  0.00  0.00     0.003 A 
ATOM      3  C3  I4B d   1       2.056   1.511  -2.320  0.00  0.00     0.002 A 
ATOM      4  C4  I4B d   1       0.927   2.248  -2.615  0.00  0.00    -0.004 A 
ATOM      5  C5  I4B d   1       1.013   3.345  -3.467  0.00  0.00     0.002 A 
ATOM      6  C6  I4B d   1       2.253   3.726  -4.000  0.00  0.00     0.003 A 
ENDROOT
BRANCH   1   7
ATOM      7  C1' I4B d   1       4.742   3.445  -4.147  0.00  0.00     0.060 C 
BRANCH   7   8
ATOM      8  C2' I4B d   1       5.121   4.722  -3.426  0.00  0.00    -0.013 C 
ATOM      9  C4' I4B d   1       5.826   4.427  -2.128  0.00  0.00     0.013 C 
ATOM     10  C3' I4B d   1       5.991   5.531  -4.342  0.00  0.00     0.013 C 
ENDBRANCH   7   8
ENDBRANCH   1   7
TORSDOF 2
ENDMDL
