MODEL 1
REMARK minimizedAffinity 9.96818066
REMARK minimizedRMSD -1
REMARK  2 active torsions:
REMARK  status: ('A' for Active; 'I' for Inactive)
REMARK    1  A    between atoms: C2'_3  and  C1'_4 
REMARK    2  A    between atoms: C1'_4  and  C1_5 
ROOT
ATOM      1  C1  I4B d   1      -2.835  -2.548   2.056  0.00  0.00    -0.075 A 
ATOM      2  C2  I4B d   1      -3.482  -1.487   2.639  0.00  0.00     0.003 A 
ATOM      3  C3  I4B d   1      -2.858  -0.218   2.701  0.00  0.00     0.002 A 
ATOM      4  C4  I4B d   1      -1.575  -0.067   2.215  0.00  0.00    -0.004 A 
ATOM      5  C5  I4B d   1      -0.929  -1.138   1.603  0.00  0.00     0.002 A 
ATOM      6  C6  I4B d   1      -1.568  -2.383   1.512  0.00  0.00     0.003 A 
ENDROOT
BRANCH   1   7
ATOM      7  C1' I4B d   1      -3.510  -3.883   2.037  0.00  0.00     0.060 C 
BRANCH   7   8
ATOM      8  C2' I4B d   1      -4.713  -3.810   2.955  0.00  0.00    -0.013 C 
ATOM      9  C4' I4B d   1      -5.999  -3.834   2.172  0.00  0.00     0.013 C 
ATOM     10  C3' I4B d   1      -4.638  -4.964   3.909  0.00  0.00     0.013 C 
ENDBRANCH   7   8
ENDBRANCH   1   7
TORSDOF 2
ENDMDL
