MODEL 1
REMARK minimizedAffinity 4.02235651
REMARK minimizedRMSD -1
REMARK  2 active torsions:
REMARK  status: ('A' for Active; 'I' for Inactive)
REMARK    1  A    between atoms: C2'_3  and  C1'_4 
REMARK    2  A    between atoms: C1'_4  and  C1_5 
ROOT
ATOM      1  C1  I4B d   1      -3.098   4.862  -3.669  0.00  0.00    -0.075 A 
ATOM      2  C2  I4B d   1      -3.789   5.186  -4.810  0.00  0.00     0.003 A 
ATOM      3  C3  I4B d   1      -3.090   5.510  -5.999  0.00  0.00     0.002 A 
ATOM      4  C4  I4B d   1      -1.711   5.545  -5.988  0.00  0.00    -0.004 A 
ATOM      5  C5  I4B d   1      -1.012   5.194  -4.837  0.00  0.00     0.002 A 
ATOM      6  C6  I4B d   1      -1.709   4.838  -3.673  0.00  0.00     0.003 A 
ENDROOT
BRANCH   1   7
ATOM      7  C1' I4B d   1      -3.867   4.558  -2.423  0.00  0.00     0.060 C 
BRANCH   7   8
ATOM      8  C2' I4B d   1      -5.295   4.241  -2.821  0.00  0.00    -0.013 C 
ATOM      9  C4' I4B d   1      -5.999   3.456  -1.746  0.00  0.00     0.013 C 
ATOM     10  C3' I4B d   1      -5.998   5.538  -3.093  0.00  0.00     0.013 C 
ENDBRANCH   7   8
ENDBRANCH   1   7
TORSDOF 2
ENDMDL
