MODEL 1
REMARK minimizedAffinity -0.87755388
REMARK minimizedRMSD -1
REMARK  2 active torsions:
REMARK  status: ('A' for Active; 'I' for Inactive)
REMARK    1  A    between atoms: C2'_3  and  C1'_4 
REMARK    2  A    between atoms: C1'_4  and  C1_5 
ROOT
ATOM      1  C1  I4B d   1      -4.475  -0.043   4.624  0.00  0.00    -0.075 A 
ATOM      2  C2  I4B d   1      -4.883  -1.348   4.735  0.00  0.00     0.003 A 
ATOM      3  C3  I4B d   1      -4.875  -2.197   3.602  0.00  0.00     0.002 A 
ATOM      4  C4  I4B d   1      -4.502  -1.688   2.374  0.00  0.00    -0.004 A 
ATOM      5  C5  I4B d   1      -4.067  -0.370   2.268  0.00  0.00     0.002 A 
ATOM      6  C6  I4B d   1      -4.041   0.455   3.402  0.00  0.00     0.003 A 
ENDROOT
BRANCH   1   7
ATOM      7  C1' I4B d   1      -4.527   0.835   5.834  0.00  0.00     0.060 C 
BRANCH   7   8
ATOM      8  C2' I4B d   1      -3.180   1.514   5.977  0.00  0.00    -0.013 C 
ATOM      9  C4' I4B d   1      -2.251   1.123   4.858  0.00  0.00     0.013 C 
ATOM     10  C3' I4B d   1      -3.409   2.996   5.999  0.00  0.00     0.013 C 
ENDBRANCH   7   8
ENDBRANCH   1   7
TORSDOF 2
ENDMDL
