MODEL 1
REMARK minimizedAffinity 6.66469574
REMARK minimizedRMSD -1
REMARK  2 active torsions:
REMARK  status: ('A' for Active; 'I' for Inactive)
REMARK    1  A    between atoms: C2'_3  and  C1'_4 
REMARK    2  A    between atoms: C1'_4  and  C1_5 
ROOT
ATOM      1  C1  I4B d   1      -1.142  -0.898   2.020  0.00  0.00    -0.075 A 
ATOM      2  C2  I4B d   1      -2.349  -1.448   1.667  0.00  0.00     0.003 A 
ATOM      3  C3  I4B d   1      -3.525  -1.103   2.376  0.00  0.00     0.002 A 
ATOM      4  C4  I4B d   1      -3.441  -0.248   3.456  0.00  0.00    -0.004 A 
ATOM      5  C5  I4B d   1      -2.221   0.327   3.798  0.00  0.00     0.002 A 
ATOM      6  C6  I4B d   1      -1.066   0.010   3.069  0.00  0.00     0.003 A 
ENDROOT
BRANCH   1   7
ATOM      7  C1' I4B d   1       0.085  -1.310   1.271  0.00  0.00     0.060 C 
BRANCH   7   8
ATOM      8  C2' I4B d   1      -0.075  -2.764   0.877  0.00  0.00    -0.013 C 
ATOM      9  C4' I4B d   1      -0.981  -2.909  -0.317  0.00  0.00     0.013 C 
ATOM     10  C3' I4B d   1       1.288  -3.320   0.593  0.00  0.00     0.013 C 
ENDBRANCH   7   8
ENDBRANCH   1   7
TORSDOF 2
ENDMDL
