MODEL 1
REMARK minimizedAffinity 11.8428583
REMARK minimizedRMSD -1
REMARK  2 active torsions:
REMARK  status: ('A' for Active; 'I' for Inactive)
REMARK    1  A    between atoms: C2'_3  and  C1'_4 
REMARK    2  A    between atoms: C1'_4  and  C1_5 
ROOT
ATOM      1  C1  I4B d   1      -4.746  -0.020   4.991  0.00  0.00    -0.075 A 
ATOM      2  C2  I4B d   1      -4.306   0.102   3.696  0.00  0.00     0.003 A 
ATOM      3  C3  I4B d   1      -4.678  -0.858   2.724  0.00  0.00     0.002 A 
ATOM      4  C4  I4B d   1      -5.443  -1.944   3.098  0.00  0.00    -0.004 A 
ATOM      5  C5  I4B d   1      -5.907  -2.053   4.405  0.00  0.00     0.002 A 
ATOM      6  C6  I4B d   1      -5.567  -1.079   5.355  0.00  0.00     0.003 A 
ENDROOT
BRANCH   1   7
ATOM      7  C1' I4B d   1      -4.308   0.994   5.999  0.00  0.00     0.060 C 
BRANCH   7   8
ATOM      8  C2' I4B d   1      -3.036   1.639   5.490  0.00  0.00    -0.013 C 
ATOM      9  C4' I4B d   1      -2.898   3.050   6.000  0.00  0.00     0.013 C 
ATOM     10  C3' I4B d   1      -1.879   0.790   5.927  0.00  0.00     0.013 C 
ENDBRANCH   7   8
ENDBRANCH   1   7
TORSDOF 2
ENDMDL
