MODEL 1
REMARK minimizedAffinity 5.49020481
REMARK minimizedRMSD -1
REMARK  2 active torsions:
REMARK  status: ('A' for Active; 'I' for Inactive)
REMARK    1  A    between atoms: C2'_3  and  C1'_4 
REMARK    2  A    between atoms: C1'_4  and  C1_5 
ROOT
ATOM      1  C1  I4B d   1      -3.590   0.549   5.221  0.00  0.00    -0.075 A 
ATOM      2  C2  I4B d   1      -4.712   0.099   5.871  0.00  0.00     0.003 A 
ATOM      3  C3  I4B d   1      -5.718  -0.596   5.157  0.00  0.00     0.002 A 
ATOM      4  C4  I4B d   1      -5.587  -0.774   3.795  0.00  0.00    -0.004 A 
ATOM      5  C5  I4B d   1      -4.438  -0.337   3.142  0.00  0.00     0.002 A 
ATOM      6  C6  I4B d   1      -3.427   0.318   3.861  0.00  0.00     0.003 A 
ENDROOT
BRANCH   1   7
ATOM      7  C1' I4B d   1      -2.562   1.308   5.998  0.00  0.00     0.060 C 
BRANCH   7   8
ATOM      8  C2' I4B d   1      -1.226   1.126   5.308  0.00  0.00    -0.013 C 
ATOM      9  C4' I4B d   1      -0.394   0.078   6.000  0.00  0.00     0.013 C 
ATOM     10  C3' I4B d   1      -1.489   0.752   3.880  0.00  0.00     0.013 C 
ENDBRANCH   7   8
ENDBRANCH   1   7
TORSDOF 2
ENDMDL
