MODEL 1
REMARK minimizedAffinity 11.4199743
REMARK minimizedRMSD -1
REMARK  2 active torsions:
REMARK  status: ('A' for Active; 'I' for Inactive)
REMARK    1  A    between atoms: C2'_3  and  C1'_4 
REMARK    2  A    between atoms: C1'_4  and  C1_5 
ROOT
ATOM      1  C1  I4B d   1      -2.871   5.580  -5.210  0.00  0.00    -0.075 A 
ATOM      2  C2  I4B d   1      -1.763   5.358  -5.988  0.00  0.00     0.003 A 
ATOM      3  C3  I4B d   1      -0.530   5.003  -5.388  0.00  0.00     0.002 A 
ATOM      4  C4  I4B d   1      -0.439   4.932  -4.013  0.00  0.00    -0.004 A 
ATOM      5  C5  I4B d   1      -1.569   5.136  -3.227  0.00  0.00     0.002 A 
ATOM      6  C6  I4B d   1      -2.796   5.450  -3.829  0.00  0.00     0.003 A 
ENDROOT
BRANCH   1   7
ATOM      7  C1' I4B d   1      -4.149   5.986  -5.874  0.00  0.00     0.060 C 
BRANCH   7   8
ATOM      8  C2' I4B d   1      -5.277   5.204  -5.233  0.00  0.00    -0.013 C 
ATOM      9  C4' I4B d   1      -4.820   3.830  -4.816  0.00  0.00     0.013 C 
ATOM     10  C3' I4B d   1      -5.774   5.989  -4.056  0.00  0.00     0.013 C 
ENDBRANCH   7   8
ENDBRANCH   1   7
TORSDOF 2
ENDMDL
