MODEL 1
REMARK minimizedAffinity 1.01008391
REMARK minimizedRMSD -1
REMARK  2 active torsions:
REMARK  status: ('A' for Active; 'I' for Inactive)
REMARK    1  A    between atoms: C2'_3  and  C1'_4 
REMARK    2  A    between atoms: C1'_4  and  C1_5 
ROOT
ATOM      1  C1  I4B d   1       4.068   2.373  -0.300  0.00  0.00    -0.075 A 
ATOM      2  C2  I4B d   1       5.264   3.040  -0.384  0.00  0.00     0.003 A 
ATOM      3  C3  I4B d   1       5.874   3.558   0.784  0.00  0.00     0.002 A 
ATOM      4  C4  I4B d   1       5.234   3.430   2.000  0.00  0.00    -0.004 A 
ATOM      5  C5  I4B d   1       4.032   2.733   2.086  0.00  0.00     0.002 A 
ATOM      6  C6  I4B d   1       3.451   2.190   0.931  0.00  0.00     0.003 A 
ENDROOT
BRANCH   1   7
ATOM      7  C1' I4B d   1       3.435   1.867  -1.558  0.00  0.00     0.060 C 
BRANCH   7   8
ATOM      8  C2' I4B d   1       2.975   3.066  -2.363  0.00  0.00    -0.013 C 
ATOM      9  C4' I4B d   1       4.107   3.648  -3.168  0.00  0.00     0.013 C 
ATOM     10  C3' I4B d   1       1.851   2.623  -3.251  0.00  0.00     0.013 C 
ENDBRANCH   7   8
ENDBRANCH   1   7
TORSDOF 2
ENDMDL
