MODEL 1
REMARK minimizedAffinity 12.3027411
REMARK minimizedRMSD -1
REMARK  2 active torsions:
REMARK  status: ('A' for Active; 'I' for Inactive)
REMARK    1  A    between atoms: C2'_3  and  C1'_4 
REMARK    2  A    between atoms: C1'_4  and  C1_5 
ROOT
ATOM      1  C1  I4B d   1       3.980   3.215  -2.886  0.00  0.00    -0.075 A 
ATOM      2  C2  I4B d   1       5.014   3.944  -3.418  0.00  0.00     0.003 A 
ATOM      3  C3  I4B d   1       5.999   4.507  -2.570  0.00  0.00     0.002 A 
ATOM      4  C4  I4B d   1       5.884   4.360  -1.203  0.00  0.00    -0.004 A 
ATOM      5  C5  I4B d   1       4.848   3.601  -0.667  0.00  0.00     0.002 A 
ATOM      6  C6  I4B d   1       3.896   3.014  -1.514  0.00  0.00     0.003 A 
ENDROOT
BRANCH   1   7
ATOM      7  C1' I4B d   1       2.939   2.662  -3.807  0.00  0.00     0.060 C 
BRANCH   7   8
ATOM      8  C2' I4B d   1       1.581   3.081  -3.282  0.00  0.00    -0.013 C 
ATOM      9  C4' I4B d   1       0.813   3.860  -4.317  0.00  0.00     0.013 C 
ATOM     10  C3' I4B d   1       0.839   1.843  -2.876  0.00  0.00     0.013 C 
ENDBRANCH   7   8
ENDBRANCH   1   7
TORSDOF 2
ENDMDL
