MODEL 1
REMARK minimizedAffinity 8.32543564
REMARK minimizedRMSD -1
REMARK  2 active torsions:
REMARK  status: ('A' for Active; 'I' for Inactive)
REMARK    1  A    between atoms: C2'_3  and  C1'_4 
REMARK    2  A    between atoms: C1'_4  and  C1_5 
ROOT
ATOM      1  C1  I4B d   1      -3.604   0.169   3.669  0.00  0.00    -0.075 A 
ATOM      2  C2  I4B d   1      -3.668  -1.183   3.437  0.00  0.00     0.003 A 
ATOM      3  C3  I4B d   1      -4.875  -1.773   2.990  0.00  0.00     0.002 A 
ATOM      4  C4  I4B d   1      -6.000  -0.988   2.837  0.00  0.00    -0.004 A 
ATOM      5  C5  I4B d   1      -5.927   0.386   3.051  0.00  0.00     0.002 A 
ATOM      6  C6  I4B d   1      -4.719   0.970   3.458  0.00  0.00     0.003 A 
ENDROOT
BRANCH   1   7
ATOM      7  C1' I4B d   1      -2.323   0.754   4.173  0.00  0.00     0.060 C 
BRANCH   7   8
ATOM      8  C2' I4B d   1      -1.294  -0.357   4.231  0.00  0.00    -0.013 C 
ATOM      9  C4' I4B d   1      -0.450  -0.383   2.984  0.00  0.00     0.013 C 
ATOM     10  C3' I4B d   1      -0.450  -0.143   5.452  0.00  0.00     0.013 C 
ENDBRANCH   7   8
ENDBRANCH   1   7
TORSDOF 2
ENDMDL
