MODEL 1
REMARK minimizedAffinity -4.8047576
REMARK minimizedRMSD -1
REMARK  0 active torsions:
REMARK  status: ('A' for Active; 'I' for Inactive)
ROOT
ATOM      1  N1  IND d   1      -2.223  -0.086  -2.750  0.00  0.00    -0.196 N 
ATOM      2  C2  IND d   1      -0.987   0.439  -3.005  0.00  0.00     0.054 A 
ATOM      3  C3  IND d   1      -0.235   0.441  -1.881  0.00  0.00    -0.031 A 
ATOM      4  C4  IND d   1      -0.796  -0.464   0.463  0.00  0.00     0.051 A 
ATOM      5  C5  IND d   1      -1.817  -1.003   1.193  0.00  0.00    -0.031 A 
ATOM      6  C6  IND d   1      -3.050  -1.273   0.635  0.00  0.00     0.015 A 
ATOM      7  C7  IND d   1      -3.305  -1.022  -0.684  0.00  0.00    -0.016 A 
ATOM      8  C8  IND d   1      -2.272  -0.468  -1.427  0.00  0.00    -0.047 A 
ATOM      9  C9  IND d   1      -1.033  -0.153  -0.855  0.00  0.00    -0.096 A 
ATOM     10  HN1 IND d   1      -2.861  -0.166  -3.320  0.00  0.00     0.298 HD
ENDROOT
TORSDOF 0
ENDMDL
