MODEL 1
REMARK minimizedAffinity -5.68883848
REMARK minimizedRMSD -1
REMARK  0 active torsions:
REMARK  status: ('A' for Active; 'I' for Inactive)
ROOT
ATOM      1  N1  IND d   1       0.937  -0.968   1.176  0.00  0.00    -0.196 N 
ATOM      2  C2  IND d   1       1.779  -0.365   0.283  0.00  0.00     0.054 A 
ATOM      3  C3  IND d   1       1.083   0.097  -0.781  0.00  0.00    -0.031 A 
ATOM      4  C4  IND d   1      -1.454   0.063  -1.215  0.00  0.00     0.051 A 
ATOM      5  C5  IND d   1      -2.628  -0.412  -0.703  0.00  0.00    -0.031 A 
ATOM      6  C6  IND d   1      -2.676  -1.109   0.487  0.00  0.00     0.015 A 
ATOM      7  C7  IND d   1      -1.547  -1.347   1.218  0.00  0.00    -0.016 A 
ATOM      8  C8  IND d   1      -0.351  -0.872   0.698  0.00  0.00    -0.047 A 
ATOM      9  C9  IND d   1      -0.291  -0.202  -0.531  0.00  0.00    -0.096 A 
ATOM     10  HN1 IND d   1       1.173  -1.344   1.912  0.00  0.00     0.298 HD
ENDROOT
TORSDOF 0
ENDMDL
