MODEL 1
REMARK minimizedAffinity -4.5781951
REMARK minimizedRMSD -1
REMARK  0 active torsions:
REMARK  status: ('A' for Active; 'I' for Inactive)
ROOT
ATOM      1  N1  IND d   1       0.038   0.317   1.397  0.00  0.00    -0.196 N 
ATOM      2  C2  IND d   1       1.203   0.772   0.844  0.00  0.00     0.054 A 
ATOM      3  C3  IND d   1       1.143   0.700  -0.504  0.00  0.00    -0.031 A 
ATOM      4  C4  IND d   1      -0.806  -0.035  -2.017  0.00  0.00     0.051 A 
ATOM      5  C5  IND d   1      -2.064  -0.569  -1.971  0.00  0.00    -0.031 A 
ATOM      6  C6  IND d   1      -2.699  -0.837  -0.776  0.00  0.00     0.015 A 
ATOM      7  C7  IND d   1      -2.102  -0.570   0.423  0.00  0.00    -0.016 A 
ATOM      8  C8  IND d   1      -0.822  -0.035   0.381  0.00  0.00    -0.047 A 
ATOM      9  C9  IND d   1      -0.156   0.200  -0.829  0.00  0.00    -0.096 A 
ATOM     10  HN1 IND d   1      -0.129   0.261   2.239  0.00  0.00     0.298 HD
ENDROOT
TORSDOF 0
ENDMDL
