MODEL 1
REMARK minimizedAffinity -4.84032631
REMARK minimizedRMSD -1
REMARK  0 active torsions:
REMARK  status: ('A' for Active; 'I' for Inactive)
ROOT
ATOM      1  N1  IND d   1       0.423  -1.152   0.725  0.00  0.00    -0.196 N 
ATOM      2  C2  IND d   1       1.443  -0.331   0.330  0.00  0.00     0.054 A 
ATOM      3  C3  IND d   1       1.006   0.546  -0.602  0.00  0.00    -0.031 A 
ATOM      4  C4  IND d   1      -1.364   0.879  -1.550  0.00  0.00     0.051 A 
ATOM      5  C5  IND d   1      -2.621   0.344  -1.521  0.00  0.00    -0.031 A 
ATOM      6  C6  IND d   1      -2.935  -0.737  -0.723  0.00  0.00     0.015 A 
ATOM      7  C7  IND d   1      -2.001  -1.319   0.087  0.00  0.00    -0.016 A 
ATOM      8  C8  IND d   1      -0.722  -0.783   0.055  0.00  0.00    -0.047 A 
ATOM      9  C9  IND d   1      -0.387   0.288  -0.785  0.00  0.00    -0.096 A 
ATOM     10  HN1 IND d   1       0.487  -1.791   1.297  0.00  0.00     0.298 HD
ENDROOT
TORSDOF 0
ENDMDL
