MODEL 1
REMARK minimizedAffinity -4.49874449
REMARK minimizedRMSD -1
REMARK  0 active torsions:
REMARK  status: ('A' for Active; 'I' for Inactive)
ROOT
ATOM      1  N1  IND d   1       0.262  -1.653   1.172  0.00  0.00    -0.196 N 
ATOM      2  C2  IND d   1       1.523  -1.211   0.879  0.00  0.00     0.054 A 
ATOM      3  C3  IND d   1       1.491  -0.360  -0.170  0.00  0.00    -0.031 A 
ATOM      4  C4  IND d   1      -0.529   0.530  -1.494  0.00  0.00     0.051 A 
ATOM      5  C5  IND d   1      -1.882   0.387  -1.620  0.00  0.00    -0.031 A 
ATOM      6  C6  IND d   1      -2.605  -0.459  -0.803  0.00  0.00     0.015 A 
ATOM      7  C7  IND d   1      -2.000  -1.187   0.181  0.00  0.00    -0.016 A 
ATOM      8  C8  IND d   1      -0.625  -1.049   0.307  0.00  0.00    -0.047 A 
ATOM      9  C9  IND d   1       0.120  -0.225  -0.546  0.00  0.00    -0.096 A 
ATOM     10  HN1 IND d   1       0.058  -2.213   1.791  0.00  0.00     0.298 HD
ENDROOT
TORSDOF 0
ENDMDL
