MODEL 1
REMARK minimizedAffinity -4.31046486
REMARK minimizedRMSD -1
REMARK  0 active torsions:
REMARK  status: ('A' for Active; 'I' for Inactive)
ROOT
ATOM      1  N1  IND d   1       1.353  -0.891   0.252  0.00  0.00    -0.196 N 
ATOM      2  C2  IND d   1       0.855  -1.707   1.229  0.00  0.00     0.054 A 
ATOM      3  C3  IND d   1      -0.497  -1.697   1.207  0.00  0.00    -0.031 A 
ATOM      4  C4  IND d   1      -2.097  -0.494  -0.412  0.00  0.00     0.051 A 
ATOM      5  C5  IND d   1      -2.111   0.397  -1.448  0.00  0.00    -0.031 A 
ATOM      6  C6  IND d   1      -0.948   0.912  -1.983  0.00  0.00     0.015 A 
ATOM      7  C7  IND d   1       0.278   0.545  -1.507  0.00  0.00    -0.016 A 
ATOM      8  C8  IND d   1       0.297  -0.353  -0.450  0.00  0.00    -0.047 A 
ATOM      9  C9  IND d   1      -0.881  -0.847   0.125  0.00  0.00    -0.096 A 
ATOM     10  HN1 IND d   1       2.186  -0.739   0.101  0.00  0.00     0.298 HD
ENDROOT
TORSDOF 0
ENDMDL
