MODEL 1
REMARK minimizedAffinity -2.89530897
REMARK minimizedRMSD -1
REMARK  0 active torsions:
REMARK  status: ('A' for Active; 'I' for Inactive)
ROOT
ATOM      1  N1  IND d   1       0.191  -0.636   0.900  0.00  0.00    -0.196 N 
ATOM      2  C2  IND d   1       1.198   0.140   0.397  0.00  0.00     0.054 A 
ATOM      3  C3  IND d   1       0.778   0.798  -0.707  0.00  0.00    -0.031 A 
ATOM      4  C4  IND d   1      -1.550   0.830  -1.805  0.00  0.00     0.051 A 
ATOM      5  C5  IND d   1      -2.786   0.251  -1.727  0.00  0.00    -0.031 A 
ATOM      6  C6  IND d   1      -3.100  -0.669  -0.748  0.00  0.00     0.015 A 
ATOM      7  C7  IND d   1      -2.188  -1.039   0.200  0.00  0.00    -0.016 A 
ATOM      8  C8  IND d   1      -0.930  -0.459   0.120  0.00  0.00    -0.047 A 
ATOM      9  C9  IND d   1      -0.593   0.444  -0.897  0.00  0.00    -0.096 A 
ATOM     10  HN1 IND d   1       0.249  -1.150   1.587  0.00  0.00     0.298 HD
ENDROOT
TORSDOF 0
ENDMDL
