MODEL 1
REMARK minimizedAffinity -1.95025337
REMARK minimizedRMSD -1
REMARK  0 active torsions:
REMARK  status: ('A' for Active; 'I' for Inactive)
ROOT
ATOM      1  N1  IND d   1      -1.787   0.184  -1.145  0.00  0.00    -0.196 N 
ATOM      2  C2  IND d   1      -2.872  -0.572  -0.800  0.00  0.00     0.054 A 
ATOM      3  C3  IND d   1      -2.528  -1.492   0.129  0.00  0.00    -0.031 A 
ATOM      4  C4  IND d   1      -0.266  -1.868   1.300  0.00  0.00     0.051 A 
ATOM      5  C5  IND d   1       1.035  -1.447   1.291  0.00  0.00    -0.031 A 
ATOM      6  C6  IND d   1       1.469  -0.439   0.455  0.00  0.00     0.015 A 
ATOM      7  C7  IND d   1       0.613   0.196  -0.400  0.00  0.00    -0.016 A 
ATOM      8  C8  IND d   1      -0.706  -0.233  -0.399  0.00  0.00    -0.047 A 
ATOM      9  C9  IND d   1      -1.144  -1.284   0.417  0.00  0.00    -0.096 A 
ATOM     10  HN1 IND d   1      -1.780   0.814  -1.730  0.00  0.00     0.298 HD
ENDROOT
TORSDOF 0
ENDMDL
