MODEL 1
REMARK minimizedAffinity -4.62630272
REMARK minimizedRMSD -1
REMARK  0 active torsions:
REMARK  status: ('A' for Active; 'I' for Inactive)
ROOT
ATOM      1  N1  IND d   1      -2.287  -1.179   0.897  0.00  0.00    -0.196 N 
ATOM      2  C2  IND d   1      -3.209  -1.106  -0.110  0.00  0.00     0.054 A 
ATOM      3  C3  IND d   1      -2.687  -0.466  -1.180  0.00  0.00    -0.031 A 
ATOM      4  C4  IND d   1      -0.310   0.455  -1.536  0.00  0.00     0.051 A 
ATOM      5  C5  IND d   1       0.876   0.655  -0.887  0.00  0.00    -0.031 A 
ATOM      6  C6  IND d   1       1.073   0.243   0.415  0.00  0.00     0.015 A 
ATOM      7  C7  IND d   1       0.091  -0.397   1.116  0.00  0.00    -0.016 A 
ATOM      8  C8  IND d   1      -1.117  -0.596   0.463  0.00  0.00    -0.047 A 
ATOM      9  C9  IND d   1      -1.337  -0.142  -0.844  0.00  0.00    -0.096 A 
ATOM     10  HN1 IND d   1      -2.417  -1.530   1.671  0.00  0.00     0.298 HD
ENDROOT
TORSDOF 0
ENDMDL
