MODEL 1
REMARK minimizedAffinity -0.183440879
REMARK minimizedRMSD -1
REMARK  0 active torsions:
REMARK  status: ('A' for Active; 'I' for Inactive)
ROOT
ATOM      1  N1  IND d   1       1.724  -1.181   1.403  0.00  0.00    -0.196 N 
ATOM      2  C2  IND d   1       2.584  -0.385   0.699  0.00  0.00     0.054 A 
ATOM      3  C3  IND d   1       1.907   0.339  -0.221  0.00  0.00    -0.031 A 
ATOM      4  C4  IND d   1      -0.624   0.452  -0.674  0.00  0.00     0.051 A 
ATOM      5  C5  IND d   1      -1.811  -0.120  -0.309  0.00  0.00    -0.031 A 
ATOM      6  C6  IND d   1      -1.881  -1.093   0.667  0.00  0.00     0.015 A 
ATOM      7  C7  IND d   1      -0.764  -1.523   1.325  0.00  0.00    -0.016 A 
ATOM      8  C8  IND d   1       0.443  -0.950   0.952  0.00  0.00    -0.047 A 
ATOM      9  C9  IND d   1       0.526   0.007  -0.067  0.00  0.00    -0.096 A 
ATOM     10  HN1 IND d   1       1.946  -1.733   2.024  0.00  0.00     0.298 HD
ENDROOT
TORSDOF 0
ENDMDL
