MODEL 1
REMARK minimizedAffinity -4.84961939
REMARK minimizedRMSD -1
REMARK  0 active torsions:
REMARK  status: ('A' for Active; 'I' for Inactive)
ROOT
ATOM      1  N1  IND d   1       0.723  -0.376   1.277  0.00  0.00    -0.196 N 
ATOM      2  C2  IND d   1       1.638   0.251   0.477  0.00  0.00     0.054 A 
ATOM      3  C3  IND d   1       1.085   0.561  -0.716  0.00  0.00    -0.031 A 
ATOM      4  C4  IND d   1      -1.333   0.227  -1.535  0.00  0.00     0.051 A 
ATOM      5  C5  IND d   1      -2.525  -0.334  -1.173  0.00  0.00    -0.031 A 
ATOM      6  C6  IND d   1      -2.699  -0.948   0.050  0.00  0.00     0.015 A 
ATOM      7  C7  IND d   1      -1.687  -1.014   0.966  0.00  0.00    -0.016 A 
ATOM      8  C8  IND d   1      -0.473  -0.451   0.598  0.00  0.00    -0.047 A 
ATOM      9  C9  IND d   1      -0.277   0.136  -0.658  0.00  0.00    -0.096 A 
ATOM     10  HN1 IND d   1       0.870  -0.673   2.070  0.00  0.00     0.298 HD
ENDROOT
TORSDOF 0
ENDMDL
