MODEL 1
REMARK minimizedAffinity -3.92884779
REMARK minimizedRMSD -1
REMARK  0 active torsions:
REMARK  status: ('A' for Active; 'I' for Inactive)
ROOT
ATOM      1  N1  IND d   1       0.762  -1.407   1.702  0.00  0.00    -0.196 N 
ATOM      2  C2  IND d   1       1.828  -0.785   1.114  0.00  0.00     0.054 A 
ATOM      3  C3  IND d   1       1.410   0.014   0.107  0.00  0.00    -0.031 A 
ATOM      4  C4  IND d   1      -0.985   0.532  -0.682  0.00  0.00     0.051 A 
ATOM      5  C5  IND d   1      -2.288   0.175  -0.476  0.00  0.00    -0.031 A 
ATOM      6  C6  IND d   1      -2.649  -0.744   0.489  0.00  0.00     0.015 A 
ATOM      7  C7  IND d   1      -1.716  -1.334   1.294  0.00  0.00    -0.016 A 
ATOM      8  C8  IND d   1      -0.391  -0.980   1.082  0.00  0.00    -0.047 A 
ATOM      9  C9  IND d   1      -0.015  -0.080   0.077  0.00  0.00    -0.096 A 
ATOM     10  HN1 IND d   1       0.805  -1.970   2.351  0.00  0.00     0.298 HD
ENDROOT
TORSDOF 0
ENDMDL
