MODEL 1
REMARK minimizedAffinity -5.58508492
REMARK minimizedRMSD -1
REMARK  0 active torsions:
REMARK  status: ('A' for Active; 'I' for Inactive)
ROOT
ATOM      1  N1  IND d   1       0.418   0.621  -1.032  0.00  0.00    -0.196 N 
ATOM      2  C2  IND d   1       1.393   0.730  -0.081  0.00  0.00     0.054 A 
ATOM      3  C3  IND d   1       0.983   0.173   1.081  0.00  0.00    -0.031 A 
ATOM      4  C4  IND d   1      -1.211  -1.063   1.616  0.00  0.00     0.051 A 
ATOM      5  C5  IND d   1      -2.425  -1.385   1.077  0.00  0.00    -0.031 A 
ATOM      6  C6  IND d   1      -2.759  -1.051  -0.219  0.00  0.00     0.015 A 
ATOM      7  C7  IND d   1      -1.884  -0.388  -1.032  0.00  0.00    -0.016 A 
ATOM      8  C8  IND d   1      -0.652  -0.054  -0.486  0.00  0.00    -0.047 A 
ATOM      9  C9  IND d   1      -0.324  -0.353   0.842  0.00  0.00    -0.096 A 
ATOM     10  HN1 IND d   1       0.464   0.923  -1.836  0.00  0.00     0.298 HD
ENDROOT
TORSDOF 0
ENDMDL
