MODEL 1
REMARK minimizedAffinity 0.413953155
REMARK minimizedRMSD -1
REMARK  0 active torsions:
REMARK  status: ('A' for Active; 'I' for Inactive)
ROOT
ATOM      1  N1  IND d   1       1.391   0.377   1.823  0.00  0.00    -0.196 N 
ATOM      2  C2  IND d   1       2.334   1.143   1.197  0.00  0.00     0.054 A 
ATOM      3  C3  IND d   1       1.985   1.358  -0.092  0.00  0.00    -0.031 A 
ATOM      4  C4  IND d   1      -0.137   0.632  -1.354  0.00  0.00     0.051 A 
ATOM      5  C5  IND d   1      -1.272  -0.117  -1.212  0.00  0.00    -0.031 A 
ATOM      6  C6  IND d   1      -1.585  -0.749  -0.027  0.00  0.00     0.015 A 
ATOM      7  C7  IND d   1      -0.776  -0.647   1.070  0.00  0.00    -0.016 A 
ATOM      8  C8  IND d   1       0.380   0.106   0.927  0.00  0.00    -0.047 A 
ATOM      9  C9  IND d   1       0.724   0.715  -0.286  0.00  0.00    -0.096 A 
ATOM     10  HN1 IND d   1       1.424   0.109   2.640  0.00  0.00     0.298 HD
ENDROOT
TORSDOF 0
ENDMDL
