MODEL 1
REMARK minimizedAffinity -1.08155787
REMARK minimizedRMSD -1
REMARK  0 active torsions:
REMARK  status: ('A' for Active; 'I' for Inactive)
ROOT
ATOM      1  N1  IND d   1       0.207   0.998   1.101  0.00  0.00    -0.196 N 
ATOM      2  C2  IND d   1       0.170   0.080   0.089  0.00  0.00     0.054 A 
ATOM      3  C3  IND d   1       1.286   0.171  -0.669  0.00  0.00    -0.031 A 
ATOM      4  C4  IND d   1       3.348   1.682  -0.370  0.00  0.00     0.051 A 
ATOM      5  C5  IND d   1       3.828   2.712   0.390  0.00  0.00    -0.031 A 
ATOM      6  C6  IND d   1       3.112   3.231   1.449  0.00  0.00     0.015 A 
ATOM      7  C7  IND d   1       1.889   2.731   1.796  0.00  0.00    -0.016 A 
ATOM      8  C8  IND d   1       1.396   1.690   1.022  0.00  0.00    -0.047 A 
ATOM      9  C9  IND d   1       2.099   1.187  -0.080  0.00  0.00    -0.096 A 
ATOM     10  HN1 IND d   1      -0.408   1.123   1.688  0.00  0.00     0.298 HD
ENDROOT
TORSDOF 0
ENDMDL
