MODEL 1
REMARK minimizedAffinity 15.2967663
REMARK minimizedRMSD -1
REMARK  0 active torsions:
REMARK  status: ('A' for Active; 'I' for Inactive)
ROOT
ATOM      1  C   UNL d   1       2.418   5.316  -1.861  0.00  0.00     0.124 A 
ATOM      2  C1  UNL d   1       2.135   5.638  -3.181  0.00  0.00     0.062 A 
ATOM      3  C2  UNL d   1       3.156   5.679  -4.126  0.00  0.00     0.162 A 
ATOM      4  C3  UNL d   1       4.470   5.396  -3.754  0.00  0.00    -0.034 A 
ATOM      5  C4  UNL d   1       4.747   5.074  -2.425  0.00  0.00     0.162 A 
ATOM      6  C5  UNL d   1       3.723   5.034  -1.484  0.00  0.00     0.062 A 
ATOM      7  F   UNL d   1       3.999   4.723  -0.209  0.00  0.00    -0.097 F 
ATOM      8  F1  UNL d   1       6.000   4.796  -2.034  0.00  0.00    -0.096 F 
ATOM      9  I   UNL d   1       6.000   5.456  -5.165  0.00  0.00    -0.060 I 
ATOM     10  F2  UNL d   1       2.853   5.994  -5.394  0.00  0.00    -0.096 F 
ATOM     11  F3  UNL d   1       0.874   5.912  -3.547  0.00  0.00    -0.097 F 
ATOM     12  F4  UNL d   1       1.434   5.279  -0.953  0.00  0.00    -0.092 F 
ENDROOT
TORSDOF 0
ENDMDL
