MODEL 1
REMARK minimizedAffinity 25.4891224
REMARK minimizedRMSD -1
REMARK  0 active torsions:
REMARK  status: ('A' for Active; 'I' for Inactive)
ROOT
ATOM      1  C   UNL d   1       1.190  -1.682  -1.297  0.00  0.00     0.124 A 
ATOM      2  C1  UNL d   1      -0.149  -1.629  -1.657  0.00  0.00     0.062 A 
ATOM      3  C2  UNL d   1      -0.515  -1.674  -2.999  0.00  0.00     0.162 A 
ATOM      4  C3  UNL d   1       0.460  -1.772  -3.992  0.00  0.00    -0.034 A 
ATOM      5  C4  UNL d   1       1.805  -1.824  -3.622  0.00  0.00     0.162 A 
ATOM      6  C5  UNL d   1       2.166  -1.779  -2.279  0.00  0.00     0.062 A 
ATOM      7  F   UNL d   1       3.460  -1.830  -1.932  0.00  0.00    -0.097 F 
ATOM      8  F1  UNL d   1       2.769  -1.919  -4.550  0.00  0.00    -0.096 F 
ATOM      9  I   UNL d   1      -0.083  -1.839  -6.000  0.00  0.00    -0.060 I 
ATOM     10  F2  UNL d   1      -1.817  -1.621  -3.319  0.00  0.00    -0.096 F 
ATOM     11  F3  UNL d   1      -1.094  -1.535  -0.710  0.00  0.00    -0.097 F 
ATOM     12  F4  UNL d   1       1.539  -1.638  -0.005  0.00  0.00    -0.092 F 
ENDROOT
TORSDOF 0
ENDMDL
