MODEL 1
REMARK minimizedAffinity 37.082695
REMARK minimizedRMSD -1
REMARK  0 active torsions:
REMARK  status: ('A' for Active; 'I' for Inactive)
ROOT
ATOM      1  C   UNL d   1      -1.311  -1.938  -1.017  0.00  0.00     0.124 A 
ATOM      2  C1  UNL d   1      -2.318  -2.213  -1.932  0.00  0.00     0.062 A 
ATOM      3  C2  UNL d   1      -2.027  -2.286  -3.291  0.00  0.00     0.162 A 
ATOM      4  C3  UNL d   1      -0.723  -2.085  -3.744  0.00  0.00    -0.034 A 
ATOM      5  C4  UNL d   1       0.284  -1.808  -2.817  0.00  0.00     0.162 A 
ATOM      6  C5  UNL d   1      -0.012  -1.736  -1.460  0.00  0.00     0.062 A 
ATOM      7  F   UNL d   1       0.962  -1.471  -0.577  0.00  0.00    -0.097 F 
ATOM      8  F1  UNL d   1       1.548  -1.609  -3.218  0.00  0.00    -0.096 F 
ATOM      9  I   UNL d   1      -0.284  -2.193  -5.775  0.00  0.00    -0.060 I 
ATOM     10  F2  UNL d   1      -3.020  -2.552  -4.153  0.00  0.00    -0.096 F 
ATOM     11  F3  UNL d   1      -3.574  -2.407  -1.506  0.00  0.00    -0.097 F 
ATOM     12  F4  UNL d   1      -1.594  -1.868   0.290  0.00  0.00    -0.092 F 
ENDROOT
TORSDOF 0
ENDMDL
