MODEL 1
REMARK minimizedAffinity 17.1298981
REMARK minimizedRMSD -1
REMARK  0 active torsions:
REMARK  status: ('A' for Active; 'I' for Inactive)
ROOT
ATOM      1  C   UNL d   1      -0.976  -1.754  -3.459  0.00  0.00     0.124 A 
ATOM      2  C1  UNL d   1      -0.292  -1.866  -4.661  0.00  0.00     0.062 A 
ATOM      3  C2  UNL d   1       1.091  -2.020  -4.667  0.00  0.00     0.162 A 
ATOM      4  C3  UNL d   1       1.800  -2.064  -3.466  0.00  0.00    -0.034 A 
ATOM      5  C4  UNL d   1       1.105  -1.949  -2.261  0.00  0.00     0.162 A 
ATOM      6  C5  UNL d   1      -0.278  -1.795  -2.260  0.00  0.00     0.062 A 
ATOM      7  F   UNL d   1      -0.937  -1.687  -1.098  0.00  0.00    -0.097 F 
ATOM      8  F1  UNL d   1       1.755  -1.986  -1.089  0.00  0.00    -0.096 F 
ATOM      9  I   UNL d   1       3.869  -2.294  -3.471  0.00  0.00    -0.060 I 
ATOM     10  F2  UNL d   1       1.727  -2.127  -5.844  0.00  0.00    -0.096 F 
ATOM     11  F3  UNL d   1      -0.965  -1.826  -5.820  0.00  0.00    -0.097 F 
ATOM     12  F4  UNL d   1      -2.307  -1.605  -3.456  0.00  0.00    -0.092 F 
ENDROOT
TORSDOF 0
ENDMDL
