MODEL 1
REMARK minimizedAffinity 34.8091965
REMARK minimizedRMSD -1
REMARK  0 active torsions:
REMARK  status: ('A' for Active; 'I' for Inactive)
ROOT
ATOM      1  C   UNL d   1       0.748  -1.810  -1.266  0.00  0.00     0.124 A 
ATOM      2  C1  UNL d   1       1.754  -1.766  -2.222  0.00  0.00     0.062 A 
ATOM      3  C2  UNL d   1       1.439  -1.865  -3.574  0.00  0.00     0.162 A 
ATOM      4  C3  UNL d   1       0.112  -2.008  -3.979  0.00  0.00    -0.034 A 
ATOM      5  C4  UNL d   1      -0.894  -2.052  -3.012  0.00  0.00     0.162 A 
ATOM      6  C5  UNL d   1      -0.574  -1.952  -1.662  0.00  0.00     0.062 A 
ATOM      7  F   UNL d   1      -1.547  -1.995  -0.740  0.00  0.00    -0.097 F 
ATOM      8  F1  UNL d   1      -2.180  -2.188  -3.366  0.00  0.00    -0.096 F 
ATOM      9  I   UNL d   1      -0.363  -2.156  -6.000  0.00  0.00    -0.060 I 
ATOM     10  F2  UNL d   1       2.431  -1.820  -4.476  0.00  0.00    -0.096 F 
ATOM     11  F3  UNL d   1       3.032  -1.629  -1.842  0.00  0.00    -0.097 F 
ATOM     12  F4  UNL d   1       1.054  -1.715   0.034  0.00  0.00    -0.092 F 
ENDROOT
TORSDOF 0
ENDMDL
