MODEL 1
REMARK minimizedAffinity 26.6791325
REMARK minimizedRMSD -1
REMARK  0 active torsions:
REMARK  status: ('A' for Active; 'I' for Inactive)
ROOT
ATOM      1  C   UNL d   1       3.059  -2.735  -4.269  0.00  0.00     0.124 A 
ATOM      2  C1  UNL d   1       4.156  -2.629  -3.425  0.00  0.00     0.062 A 
ATOM      3  C2  UNL d   1       4.945  -1.483  -3.443  0.00  0.00     0.162 A 
ATOM      4  C3  UNL d   1       4.639  -0.432  -4.308  0.00  0.00    -0.034 A 
ATOM      5  C4  UNL d   1       3.535  -0.546  -5.155  0.00  0.00     0.162 A 
ATOM      6  C5  UNL d   1       2.750  -1.694  -5.133  0.00  0.00     0.062 A 
ATOM      7  F   UNL d   1       1.691  -1.795  -5.949  0.00  0.00    -0.097 F 
ATOM      8  F1  UNL d   1       3.213   0.445  -5.999  0.00  0.00    -0.096 F 
ATOM      9  I   UNL d   1       5.816   1.284  -4.338  0.00  0.00    -0.060 I 
ATOM     10  F2  UNL d   1       5.998  -1.408  -2.616  0.00  0.00    -0.096 F 
ATOM     11  F3  UNL d   1       4.457  -3.635  -2.590  0.00  0.00    -0.097 F 
ATOM     12  F4  UNL d   1       2.302  -3.840  -4.251  0.00  0.00    -0.092 F 
ENDROOT
TORSDOF 0
ENDMDL
