MODEL 1
REMARK minimizedAffinity 25.8404694
REMARK minimizedRMSD -1
REMARK  0 active torsions:
REMARK  status: ('A' for Active; 'I' for Inactive)
ROOT
ATOM      1  C   UNL d   1      -0.931  -2.371  -0.142  0.00  0.00     0.124 A 
ATOM      2  C1  UNL d   1      -0.088  -3.467  -0.258  0.00  0.00     0.062 A 
ATOM      3  C2  UNL d   1       0.646  -3.665  -1.424  0.00  0.00     0.162 A 
ATOM      4  C3  UNL d   1       0.541  -2.764  -2.484  0.00  0.00    -0.034 A 
ATOM      5  C4  UNL d   1      -0.311  -1.665  -2.360  0.00  0.00     0.162 A 
ATOM      6  C5  UNL d   1      -1.042  -1.471  -1.193  0.00  0.00     0.062 A 
ATOM      7  F   UNL d   1      -1.856  -0.412  -1.082  0.00  0.00    -0.097 F 
ATOM      8  F1  UNL d   1      -0.436  -0.779  -3.360  0.00  0.00    -0.096 F 
ATOM      9  I   UNL d   1       1.636  -3.057  -4.229  0.00  0.00    -0.060 I 
ATOM     10  F2  UNL d   1       1.453  -4.733  -1.509  0.00  0.00    -0.096 F 
ATOM     11  F3  UNL d   1       0.020  -4.339   0.755  0.00  0.00    -0.097 F 
ATOM     12  F4  UNL d   1      -1.637  -2.183   0.980  0.00  0.00    -0.092 F 
ENDROOT
TORSDOF 0
ENDMDL
