MODEL 1
REMARK minimizedAffinity 23.6310577
REMARK minimizedRMSD -1
REMARK  0 active torsions:
REMARK  status: ('A' for Active; 'I' for Inactive)
ROOT
ATOM      1  C   UNL d   1      -1.109  -1.647  -2.153  0.00  0.00     0.124 A 
ATOM      2  C1  UNL d   1      -0.409  -2.805  -1.842  0.00  0.00     0.062 A 
ATOM      3  C2  UNL d   1       0.620  -2.771  -0.905  0.00  0.00     0.162 A 
ATOM      4  C3  UNL d   1       0.955  -1.574  -0.271  0.00  0.00    -0.034 A 
ATOM      5  C4  UNL d   1       0.247  -0.414  -0.590  0.00  0.00     0.162 A 
ATOM      6  C5  UNL d   1      -0.780  -0.453  -1.527  0.00  0.00     0.062 A 
ATOM      7  F   UNL d   1      -1.455   0.666  -1.826  0.00  0.00    -0.097 F 
ATOM      8  F1  UNL d   1       0.543   0.754   0.001  0.00  0.00    -0.096 F 
ATOM      9  I   UNL d   1       2.493  -1.519   1.130  0.00  0.00    -0.060 I 
ATOM     10  F2  UNL d   1       1.279  -3.904  -0.624  0.00  0.00    -0.096 F 
ATOM     11  F3  UNL d   1      -0.724  -3.960  -2.446  0.00  0.00    -0.097 F 
ATOM     12  F4  UNL d   1      -2.097  -1.683  -3.055  0.00  0.00    -0.092 F 
ENDROOT
TORSDOF 0
ENDMDL
