MODEL 1
REMARK minimizedAffinity 31.9910889
REMARK minimizedRMSD -1
REMARK  0 active torsions:
REMARK  status: ('A' for Active; 'I' for Inactive)
ROOT
ATOM      1  C   UNL d   1       0.718  -2.147  -0.833  0.00  0.00     0.124 A 
ATOM      2  C1  UNL d   1      -0.635  -1.859  -0.947  0.00  0.00     0.062 A 
ATOM      3  C2  UNL d   1      -1.262  -1.921  -2.188  0.00  0.00     0.162 A 
ATOM      4  C3  UNL d   1      -0.537  -2.275  -3.326  0.00  0.00    -0.034 A 
ATOM      5  C4  UNL d   1       0.824  -2.562  -3.204  0.00  0.00     0.162 A 
ATOM      6  C5  UNL d   1       1.446  -2.499  -1.961  0.00  0.00     0.062 A 
ATOM      7  F   UNL d   1       2.753  -2.778  -1.853  0.00  0.00    -0.097 F 
ATOM      8  F1  UNL d   1       1.551  -2.906  -4.277  0.00  0.00    -0.096 F 
ATOM      9  I   UNL d   1      -1.471  -2.369  -5.183  0.00  0.00    -0.060 I 
ATOM     10  F2  UNL d   1      -2.570  -1.637  -2.268  0.00  0.00    -0.096 F 
ATOM     11  F3  UNL d   1      -1.340  -1.518   0.141  0.00  0.00    -0.097 F 
ATOM     12  F4  UNL d   1       1.319  -2.085   0.362  0.00  0.00    -0.092 F 
ENDROOT
TORSDOF 0
ENDMDL
