MODEL 1
REMARK minimizedAffinity 18.1474495
REMARK minimizedRMSD -1
REMARK  0 active torsions:
REMARK  status: ('A' for Active; 'I' for Inactive)
ROOT
ATOM      1  C   UNL d   1      -0.244  -1.983  -0.683  0.00  0.00     0.124 A 
ATOM      2  C1  UNL d   1      -1.612  -1.755  -0.716  0.00  0.00     0.062 A 
ATOM      3  C2  UNL d   1      -2.345  -2.057  -1.860  0.00  0.00     0.162 A 
ATOM      4  C3  UNL d   1      -1.711  -2.592  -2.981  0.00  0.00    -0.034 A 
ATOM      5  C4  UNL d   1      -0.334  -2.818  -2.941  0.00  0.00     0.162 A 
ATOM      6  C5  UNL d   1       0.394  -2.514  -1.795  0.00  0.00     0.062 A 
ATOM      7  F   UNL d   1       1.716  -2.736  -1.765  0.00  0.00    -0.097 F 
ATOM      8  F1  UNL d   1       0.307  -3.332  -4.001  0.00  0.00    -0.096 F 
ATOM      9  I   UNL d   1      -2.804  -3.045  -4.693  0.00  0.00    -0.060 I 
ATOM     10  F2  UNL d   1      -3.667  -1.826  -1.863  0.00  0.00    -0.096 F 
ATOM     11  F3  UNL d   1      -2.230  -1.241   0.357  0.00  0.00    -0.097 F 
ATOM     12  F4  UNL d   1       0.459  -1.691   0.419  0.00  0.00    -0.092 F 
ENDROOT
TORSDOF 0
ENDMDL
