MODEL 1
REMARK minimizedAffinity 20.8412647
REMARK minimizedRMSD -1
REMARK  0 active torsions:
REMARK  status: ('A' for Active; 'I' for Inactive)
ROOT
ATOM      1  C   UNL d   1       2.416   4.270  -0.999  0.00  0.00     0.124 A 
ATOM      2  C1  UNL d   1       1.505   4.901  -1.834  0.00  0.00     0.062 A 
ATOM      3  C2  UNL d   1       0.310   5.395  -1.320  0.00  0.00     0.162 A 
ATOM      4  C3  UNL d   1       0.019   5.262   0.038  0.00  0.00    -0.034 A 
ATOM      5  C4  UNL d   1       0.941   4.625   0.872  0.00  0.00     0.162 A 
ATOM      6  C5  UNL d   1       2.134   4.133   0.353  0.00  0.00     0.062 A 
ATOM      7  F   UNL d   1       3.013   3.524   1.161  0.00  0.00    -0.097 F 
ATOM      8  F1  UNL d   1       0.694   4.480   2.182  0.00  0.00    -0.096 F 
ATOM      9  I   UNL d   1      -1.766   5.999   0.811  0.00  0.00    -0.060 I 
ATOM     10  F2  UNL d   1      -0.553   6.000  -2.150  0.00  0.00    -0.096 F 
ATOM     11  F3  UNL d   1       1.775   5.033  -3.141  0.00  0.00    -0.097 F 
ATOM     12  F4  UNL d   1       3.565   3.794  -1.497  0.00  0.00    -0.092 F 
ENDROOT
TORSDOF 0
ENDMDL
