MODEL 1
REMARK minimizedAffinity 7.49226999
REMARK minimizedRMSD -1
REMARK  0 active torsions:
REMARK  status: ('A' for Active; 'I' for Inactive)
ROOT
ATOM      1  C   UNL d   1      -1.493  -2.457  -3.697  0.00  0.00     0.124 A 
ATOM      2  C1  UNL d   1      -0.741  -2.744  -4.828  0.00  0.00     0.062 A 
ATOM      3  C2  UNL d   1       0.648  -2.774  -4.755  0.00  0.00     0.162 A 
ATOM      4  C3  UNL d   1       1.296  -2.518  -3.546  0.00  0.00    -0.034 A 
ATOM      5  C4  UNL d   1       0.533  -2.230  -2.413  0.00  0.00     0.162 A 
ATOM      6  C5  UNL d   1      -0.856  -2.200  -2.491  0.00  0.00     0.062 A 
ATOM      7  F   UNL d   1      -1.581  -1.923  -1.397  0.00  0.00    -0.097 F 
ATOM      8  F1  UNL d   1       1.123  -1.979  -1.235  0.00  0.00    -0.096 F 
ATOM      9  I   UNL d   1       3.373  -2.563  -3.433  0.00  0.00    -0.060 I 
ATOM     10  F2  UNL d   1       1.350  -3.054  -5.863  0.00  0.00    -0.096 F 
ATOM     11  F3  UNL d   1      -1.355  -2.991  -5.994  0.00  0.00    -0.097 F 
ATOM     12  F4  UNL d   1      -2.830  -2.427  -3.770  0.00  0.00    -0.092 F 
ENDROOT
TORSDOF 0
ENDMDL
