MODEL 1
REMARK minimizedAffinity 22.4903297
REMARK minimizedRMSD -1
REMARK  0 active torsions:
REMARK  status: ('A' for Active; 'I' for Inactive)
ROOT
ATOM      1  C   UNL d   1      -2.500  -2.026  -1.529  0.00  0.00     0.124 A 
ATOM      2  C1  UNL d   1      -2.386  -2.329  -2.878  0.00  0.00     0.062 A 
ATOM      3  C2  UNL d   1      -1.143  -2.641  -3.423  0.00  0.00     0.162 A 
ATOM      4  C3  UNL d   1      -0.005  -2.652  -2.617  0.00  0.00    -0.034 A 
ATOM      5  C4  UNL d   1      -0.128  -2.346  -1.261  0.00  0.00     0.162 A 
ATOM      6  C5  UNL d   1      -1.372  -2.035  -0.721  0.00  0.00     0.062 A 
ATOM      7  F   UNL d   1      -1.481  -1.742   0.583  0.00  0.00    -0.097 F 
ATOM      8  F1  UNL d   1       0.946  -2.347  -0.457  0.00  0.00    -0.096 F 
ATOM      9  I   UNL d   1       1.855  -3.118  -3.427  0.00  0.00    -0.060 I 
ATOM     10  F2  UNL d   1      -1.062  -2.930  -4.730  0.00  0.00    -0.096 F 
ATOM     11  F3  UNL d   1      -3.475  -2.321  -3.661  0.00  0.00    -0.097 F 
ATOM     12  F4  UNL d   1      -3.697  -1.726  -1.008  0.00  0.00    -0.092 F 
ENDROOT
TORSDOF 0
ENDMDL
