MODEL 1
REMARK minimizedAffinity 14.6107559
REMARK minimizedRMSD -1
REMARK  0 active torsions:
REMARK  status: ('A' for Active; 'I' for Inactive)
ROOT
ATOM      1  C   UNL d   1      -0.058  -3.341  -0.324  0.00  0.00     0.124 A 
ATOM      2  C1  UNL d   1       0.276  -4.581  -0.850  0.00  0.00     0.062 A 
ATOM      3  C2  UNL d   1       0.237  -4.791  -2.225  0.00  0.00     0.162 A 
ATOM      4  C3  UNL d   1      -0.136  -3.758  -3.085  0.00  0.00    -0.034 A 
ATOM      5  C4  UNL d   1      -0.471  -2.514  -2.548  0.00  0.00     0.162 A 
ATOM      6  C5  UNL d   1      -0.431  -2.308  -1.173  0.00  0.00     0.062 A 
ATOM      7  F   UNL d   1      -0.753  -1.109  -0.666  0.00  0.00    -0.097 F 
ATOM      8  F1  UNL d   1      -0.834  -1.498  -3.346  0.00  0.00    -0.096 F 
ATOM      9  I   UNL d   1      -0.195  -4.068  -5.142  0.00  0.00    -0.060 I 
ATOM     10  F2  UNL d   1       0.565  -6.000  -2.706  0.00  0.00    -0.096 F 
ATOM     11  F3  UNL d   1       0.636  -5.580  -0.031  0.00  0.00    -0.097 F 
ATOM     12  F4  UNL d   1      -0.020  -3.141   1.000  0.00  0.00    -0.092 F 
ENDROOT
TORSDOF 0
ENDMDL
