MODEL 1
REMARK minimizedAffinity 20.245594
REMARK minimizedRMSD -1
REMARK  0 active torsions:
REMARK  status: ('A' for Active; 'I' for Inactive)
ROOT
ATOM      1  C   UNL d   1       0.190   2.495   0.293  0.00  0.00     0.124 A 
ATOM      2  C1  UNL d   1      -1.119   2.100   0.053  0.00  0.00     0.062 A 
ATOM      3  C2  UNL d   1      -2.159   3.019   0.158  0.00  0.00     0.162 A 
ATOM      4  C3  UNL d   1      -1.894   4.344   0.505  0.00  0.00    -0.034 A 
ATOM      5  C4  UNL d   1      -0.575   4.734   0.747  0.00  0.00     0.162 A 
ATOM      6  C5  UNL d   1       0.460   3.811   0.640  0.00  0.00     0.062 A 
ATOM      7  F   UNL d   1       1.724   4.195   0.873  0.00  0.00    -0.097 F 
ATOM      8  F1  UNL d   1      -0.286   6.000   1.082  0.00  0.00    -0.096 F 
ATOM      9  I   UNL d   1      -3.446   5.722   0.664  0.00  0.00    -0.060 I 
ATOM     10  F2  UNL d   1      -3.413   2.609  -0.079  0.00  0.00    -0.096 F 
ATOM     11  F3  UNL d   1      -1.383   0.828  -0.281  0.00  0.00    -0.097 F 
ATOM     12  F4  UNL d   1       1.188   1.608   0.192  0.00  0.00    -0.092 F 
ENDROOT
TORSDOF 0
ENDMDL
