MODEL 1
REMARK minimizedAffinity 28.6175632
REMARK minimizedRMSD -1
REMARK  0 active torsions:
REMARK  status: ('A' for Active; 'I' for Inactive)
ROOT
ATOM      1  C   UNL d   1      -0.430  -2.834  -3.762  0.00  0.00     0.124 A 
ATOM      2  C1  UNL d   1       0.107  -2.644  -2.496  0.00  0.00     0.062 A 
ATOM      3  C2  UNL d   1      -0.730  -2.420  -1.407  0.00  0.00     0.162 A 
ATOM      4  C3  UNL d   1      -2.114  -2.386  -1.579  0.00  0.00    -0.034 A 
ATOM      5  C4  UNL d   1      -2.647  -2.577  -2.855  0.00  0.00     0.162 A 
ATOM      6  C5  UNL d   1      -1.805  -2.800  -3.941  0.00  0.00     0.062 A 
ATOM      7  F   UNL d   1      -2.326  -2.983  -5.163  0.00  0.00    -0.097 F 
ATOM      8  F1  UNL d   1      -3.972  -2.550  -3.056  0.00  0.00    -0.096 F 
ATOM      9  I   UNL d   1      -3.370  -2.052   0.047  0.00  0.00    -0.060 I 
ATOM     10  F2  UNL d   1      -0.184  -2.240  -0.196  0.00  0.00    -0.096 F 
ATOM     11  F3  UNL d   1       1.436  -2.675  -2.322  0.00  0.00    -0.097 F 
ATOM     12  F4  UNL d   1       0.378  -3.047  -4.809  0.00  0.00    -0.092 F 
ENDROOT
TORSDOF 0
ENDMDL
