MODEL 1
REMARK minimizedAffinity -2.81252599
REMARK minimizedRMSD -1
REMARK  0 active torsions:
REMARK  status: ('A' for Active; 'I' for Inactive)
ROOT
ATOM      1  C   UNL d   1      -4.783   4.987   1.648  0.00  0.00    -0.002 A 
ATOM      2  C1  UNL d   1      -5.571   5.997   2.182  0.00  0.00     0.010 A 
ATOM      3  C2  UNL d   1      -5.992   5.941   3.512  0.00  0.00     0.041 A 
ATOM      4  C3  UNL d   1      -5.603   4.843   4.305  0.00  0.00    -0.075 A 
ATOM      5  S   UNL d   1      -5.999   4.563   5.959  0.00  0.00     0.015 SA
ATOM      6  C4  UNL d   1      -5.131   3.097   5.996  0.00  0.00     0.022 A 
ATOM      7  C5  UNL d   1      -4.547   2.813   4.785  0.00  0.00     0.026 A 
ATOM      8  C6  UNL d   1      -4.809   3.815   3.790  0.00  0.00    -0.082 A 
ATOM      9  C7  UNL d   1      -4.399   3.900   2.438  0.00  0.00     0.045 A 
ENDROOT
TORSDOF 0
ENDMDL
