MODEL 1
REMARK minimizedAffinity -1.34421456
REMARK minimizedRMSD -1
REMARK  0 active torsions:
REMARK  status: ('A' for Active; 'I' for Inactive)
ROOT
ATOM      1  C   UNL d   1      -5.403   3.604   5.976  0.00  0.00    -0.002 A 
ATOM      2  C1  UNL d   1      -4.365   2.875   5.414  0.00  0.00     0.010 A 
ATOM      3  C2  UNL d   1      -3.900   3.175   4.132  0.00  0.00     0.041 A 
ATOM      4  C3  UNL d   1      -4.500   4.231   3.419  0.00  0.00    -0.075 A 
ATOM      5  S   UNL d   1      -4.094   4.778   1.835  0.00  0.00     0.015 SA
ATOM      6  C4  UNL d   1      -5.289   5.993   1.868  0.00  0.00     0.022 A 
ATOM      7  C5  UNL d   1      -5.990   5.996   3.051  0.00  0.00     0.026 A 
ATOM      8  C6  UNL d   1      -5.546   4.980   3.964  0.00  0.00    -0.082 A 
ATOM      9  C7  UNL d   1      -5.996   4.651   5.266  0.00  0.00     0.045 A 
ENDROOT
TORSDOF 0
ENDMDL
