MODEL 1
REMARK minimizedAffinity 7.89777231
REMARK minimizedRMSD -1
REMARK  0 active torsions:
REMARK  status: ('A' for Active; 'I' for Inactive)
ROOT
ATOM      1  C   UNL d   1      -4.185   2.837   0.498  0.00  0.00    -0.002 A 
ATOM      2  C1  UNL d   1      -4.361   1.943   1.545  0.00  0.00     0.010 A 
ATOM      3  C2  UNL d   1      -4.895   2.371   2.762  0.00  0.00     0.041 A 
ATOM      4  C3  UNL d   1      -5.255   3.725   2.910  0.00  0.00    -0.075 A 
ATOM      5  S   UNL d   1      -5.928   4.474   4.309  0.00  0.00     0.015 SA
ATOM      6  C4  UNL d   1      -5.999   5.998   3.550  0.00  0.00     0.022 A 
ATOM      7  C5  UNL d   1      -5.524   5.955   2.261  0.00  0.00     0.026 A 
ATOM      8  C6  UNL d   1      -5.088   4.644   1.870  0.00  0.00    -0.082 A 
ATOM      9  C7  UNL d   1      -4.543   4.179   0.649  0.00  0.00     0.045 A 
ENDROOT
TORSDOF 0
ENDMDL
