MODEL 1
REMARK minimizedAffinity -2.79026079
REMARK minimizedRMSD -1
REMARK  0 active torsions:
REMARK  status: ('A' for Active; 'I' for Inactive)
ROOT
ATOM      1  C   UNL d   1      -4.125   3.325   5.491  0.00  0.00    -0.002 A 
ATOM      2  C1  UNL d   1      -4.874   2.334   4.872  0.00  0.00     0.010 A 
ATOM      3  C2  UNL d   1      -5.459   2.560   3.625  0.00  0.00     0.041 A 
ATOM      4  C3  UNL d   1      -5.276   3.811   3.003  0.00  0.00    -0.075 A 
ATOM      5  S   UNL d   1      -5.898   4.313   1.475  0.00  0.00     0.015 SA
ATOM      6  C4  UNL d   1      -5.183   5.855   1.607  0.00  0.00     0.022 A 
ATOM      7  C5  UNL d   1      -4.483   6.000   2.782  0.00  0.00     0.026 A 
ATOM      8  C6  UNL d   1      -4.525   4.824   3.605  0.00  0.00    -0.082 A 
ATOM      9  C7  UNL d   1      -3.945   4.564   4.870  0.00  0.00     0.045 A 
ENDROOT
TORSDOF 0
ENDMDL
