MODEL 1
REMARK minimizedAffinity -0.323728204
REMARK minimizedRMSD -1
REMARK  0 active torsions:
REMARK  status: ('A' for Active; 'I' for Inactive)
ROOT
ATOM      1  C   UNL d   1      -5.266   4.978   1.456  0.00  0.00    -0.002 A 
ATOM      2  C1  UNL d   1      -4.874   6.000   2.310  0.00  0.00     0.010 A 
ATOM      3  C2  UNL d   1      -4.601   5.737   3.654  0.00  0.00     0.041 A 
ATOM      4  C3  UNL d   1      -4.729   4.417   4.129  0.00  0.00    -0.075 A 
ATOM      5  S   UNL d   1      -4.447   3.859   5.736  0.00  0.00     0.015 SA
ATOM      6  C4  UNL d   1      -4.840   2.252   5.327  0.00  0.00     0.022 A 
ATOM      7  C5  UNL d   1      -5.181   2.126   4.001  0.00  0.00     0.026 A 
ATOM      8  C6  UNL d   1      -5.122   3.371   3.289  0.00  0.00    -0.082 A 
ATOM      9  C7  UNL d   1      -5.392   3.671   1.932  0.00  0.00     0.045 A 
ENDROOT
TORSDOF 0
ENDMDL
