MODEL 1
REMARK minimizedAffinity -2.62515402
REMARK minimizedRMSD -1
REMARK  0 active torsions:
REMARK  status: ('A' for Active; 'I' for Inactive)
ROOT
ATOM      1  C   UNL d   1      -4.483   4.814   1.655  0.00  0.00    -0.002 A 
ATOM      2  C1  UNL d   1      -4.888   5.992   2.267  0.00  0.00     0.010 A 
ATOM      3  C2  UNL d   1      -5.269   6.000   3.610  0.00  0.00     0.041 A 
ATOM      4  C3  UNL d   1      -5.234   4.792   4.335  0.00  0.00    -0.075 A 
ATOM      5  S   UNL d   1      -5.655   4.562   5.991  0.00  0.00     0.015 SA
ATOM      6  C4  UNL d   1      -5.307   2.895   5.925  0.00  0.00     0.022 A 
ATOM      7  C5  UNL d   1      -4.879   2.506   4.677  0.00  0.00     0.026 A 
ATOM      8  C6  UNL d   1      -4.829   3.594   3.741  0.00  0.00    -0.082 A 
ATOM      9  C7  UNL d   1      -4.450   3.619   2.377  0.00  0.00     0.045 A 
ENDROOT
TORSDOF 0
ENDMDL
