MODEL 1
REMARK minimizedAffinity -3.15446544
REMARK minimizedRMSD -1
REMARK  0 active torsions:
REMARK  status: ('A' for Active; 'I' for Inactive)
ROOT
ATOM      1  C   UNL d   1      -4.158   4.725   5.740  0.00  0.00    -0.002 A 
ATOM      2  C1  UNL d   1      -5.362   5.411   5.806  0.00  0.00     0.010 A 
ATOM      3  C2  UNL d   1      -5.999   5.841   4.640  0.00  0.00     0.041 A 
ATOM      4  C3  UNL d   1      -5.401   5.565   3.395  0.00  0.00    -0.075 A 
ATOM      5  S   UNL d   1      -6.000   5.993   1.836  0.00  0.00     0.015 SA
ATOM      6  C4  UNL d   1      -4.672   5.274   1.046  0.00  0.00     0.022 A 
ATOM      7  C5  UNL d   1      -3.783   4.716   1.935  0.00  0.00     0.026 A 
ATOM      8  C6  UNL d   1      -4.189   4.874   3.303  0.00  0.00    -0.082 A 
ATOM      9  C7  UNL d   1      -3.568   4.452   4.503  0.00  0.00     0.045 A 
ENDROOT
TORSDOF 0
ENDMDL
