MODEL 1
REMARK minimizedAffinity -3.08791494
REMARK minimizedRMSD -1
REMARK  0 active torsions:
REMARK  status: ('A' for Active; 'I' for Inactive)
ROOT
ATOM      1  C   UNL d   1      -5.424   5.115   1.486  0.00  0.00    -0.002 A 
ATOM      2  C1  UNL d   1      -4.444   6.000   1.911  0.00  0.00     0.010 A 
ATOM      3  C2  UNL d   1      -4.009   5.995   3.238  0.00  0.00     0.041 A 
ATOM      4  C3  UNL d   1      -4.580   5.075   4.139  0.00  0.00    -0.075 A 
ATOM      5  S   UNL d   1      -4.203   4.886   5.811  0.00  0.00     0.015 SA
ATOM      6  C4  UNL d   1      -5.334   3.625   6.000  0.00  0.00     0.022 A 
ATOM      7  C5  UNL d   1      -5.992   3.342   4.827  0.00  0.00     0.026 A 
ATOM      8  C6  UNL d   1      -5.568   4.172   3.734  0.00  0.00    -0.082 A 
ATOM      9  C7  UNL d   1      -5.988   4.203   2.383  0.00  0.00     0.045 A 
ENDROOT
TORSDOF 0
ENDMDL
