MODEL 1
REMARK minimizedAffinity -0.950182617
REMARK minimizedRMSD -1
REMARK  0 active torsions:
REMARK  status: ('A' for Active; 'I' for Inactive)
ROOT
ATOM      1  C   UNL d   1      -5.250   3.324   5.877  0.00  0.00    -0.002 A 
ATOM      2  C1  UNL d   1      -4.430   2.519   5.098  0.00  0.00     0.010 A 
ATOM      3  C2  UNL d   1      -4.152   2.860   3.773  0.00  0.00     0.041 A 
ATOM      4  C3  UNL d   1      -4.715   4.036   3.239  0.00  0.00    -0.075 A 
ATOM      5  S   UNL d   1      -4.513   4.652   1.642  0.00  0.00     0.015 SA
ATOM      6  C4  UNL d   1      -5.508   6.000   1.956  0.00  0.00     0.022 A 
ATOM      7  C5  UNL d   1      -5.992   5.995   3.243  0.00  0.00     0.026 A 
ATOM      8  C6  UNL d   1      -5.542   4.863   4.004  0.00  0.00    -0.082 A 
ATOM      9  C7  UNL d   1      -5.806   4.490   5.344  0.00  0.00     0.045 A 
ENDROOT
TORSDOF 0
ENDMDL
