MODEL 1
REMARK minimizedAffinity -1.350685
REMARK minimizedRMSD -1
REMARK  0 active torsions:
REMARK  status: ('A' for Active; 'I' for Inactive)
ROOT
ATOM      1  C   UNL d   1      -5.592   5.305   5.622  0.00  0.00    -0.002 A 
ATOM      2  C1  UNL d   1      -4.819   4.155   5.538  0.00  0.00     0.010 A 
ATOM      3  C2  UNL d   1      -4.426   3.653   4.296  0.00  0.00     0.041 A 
ATOM      4  C3  UNL d   1      -4.826   4.332   3.129  0.00  0.00    -0.075 A 
ATOM      5  S   UNL d   1      -4.463   3.902   1.499  0.00  0.00     0.015 SA
ATOM      6  C4  UNL d   1      -5.325   5.234   0.877  0.00  0.00     0.022 A 
ATOM      7  C5  UNL d   1      -5.882   5.999   1.873  0.00  0.00     0.026 A 
ATOM      8  C6  UNL d   1      -5.604   5.492   3.188  0.00  0.00    -0.082 A 
ATOM      9  C7  UNL d   1      -5.986   5.976   4.462  0.00  0.00     0.045 A 
ENDROOT
TORSDOF 0
ENDMDL
