MODEL 1
REMARK minimizedAffinity -3.5270853
REMARK minimizedRMSD -1
REMARK  0 active torsions:
REMARK  status: ('A' for Active; 'I' for Inactive)
ROOT
ATOM      1  C   UNL d   1      -4.444   2.318   5.359  0.00  0.00    -0.002 A 
ATOM      2  C1  UNL d   1      -5.460   3.016   5.997  0.00  0.00     0.010 A 
ATOM      3  C2  UNL d   1      -5.998   4.170   5.423  0.00  0.00     0.041 A 
ATOM      4  C3  UNL d   1      -5.494   4.613   4.184  0.00  0.00    -0.075 A 
ATOM      5  S   UNL d   1      -6.000   5.999   3.292  0.00  0.00     0.015 SA
ATOM      6  C4  UNL d   1      -4.880   5.696   2.043  0.00  0.00     0.022 A 
ATOM      7  C5  UNL d   1      -4.131   4.570   2.285  0.00  0.00     0.026 A 
ATOM      8  C6  UNL d   1      -4.472   3.926   3.522  0.00  0.00    -0.082 A 
ATOM      9  C7  UNL d   1      -3.947   2.761   4.131  0.00  0.00     0.045 A 
ENDROOT
TORSDOF 0
ENDMDL
