MODEL 1
REMARK minimizedAffinity -1.60165215
REMARK minimizedRMSD -1
REMARK  0 active torsions:
REMARK  status: ('A' for Active; 'I' for Inactive)
ROOT
ATOM      1  C   UNL d   1      -5.449   5.077   1.716  0.00  0.00    -0.002 A 
ATOM      2  C1  UNL d   1      -4.491   5.918   2.264  0.00  0.00     0.010 A 
ATOM      3  C2  UNL d   1      -4.064   5.744   3.582  0.00  0.00     0.041 A 
ATOM      4  C3  UNL d   1      -4.621   4.700   4.347  0.00  0.00    -0.075 A 
ATOM      5  S   UNL d   1      -4.250   4.298   5.982  0.00  0.00     0.015 SA
ATOM      6  C4  UNL d   1      -5.355   3.000   5.991  0.00  0.00     0.022 A 
ATOM      7  C5  UNL d   1      -6.000   2.863   4.785  0.00  0.00     0.026 A 
ATOM      8  C6  UNL d   1      -5.587   3.841   3.817  0.00  0.00    -0.082 A 
ATOM      9  C7  UNL d   1      -6.000   4.043   2.478  0.00  0.00     0.045 A 
ENDROOT
TORSDOF 0
ENDMDL
