MODEL 1
REMARK minimizedAffinity -2.50739789
REMARK minimizedRMSD -1
REMARK  0 active torsions:
REMARK  status: ('A' for Active; 'I' for Inactive)
ROOT
ATOM      1  C   UNL d   1      -4.339   2.610   5.451  0.00  0.00    -0.002 A 
ATOM      2  C1  UNL d   1      -5.425   3.295   5.976  0.00  0.00     0.010 A 
ATOM      3  C2  UNL d   1      -5.999   4.359   5.278  0.00  0.00     0.041 A 
ATOM      4  C3  UNL d   1      -5.459   4.725   4.029  0.00  0.00    -0.075 A 
ATOM      5  S   UNL d   1      -5.999   5.994   2.995  0.00  0.00     0.015 SA
ATOM      6  C4  UNL d   1      -4.801   5.656   1.830  0.00  0.00     0.022 A 
ATOM      7  C5  UNL d   1      -4.000   4.604   2.205  0.00  0.00     0.026 A 
ATOM      8  C6  UNL d   1      -4.366   4.049   3.478  0.00  0.00    -0.082 A 
ATOM      9  C7  UNL d   1      -3.806   2.976   4.212  0.00  0.00     0.045 A 
ENDROOT
TORSDOF 0
ENDMDL
