MODEL 1
REMARK minimizedAffinity -2.74868178
REMARK minimizedRMSD -1
REMARK  0 active torsions:
REMARK  status: ('A' for Active; 'I' for Inactive)
ROOT
ATOM      1  C   UNL d   1      -5.864   4.822   1.520  0.00  0.00    -0.002 A 
ATOM      2  C1  UNL d   1      -5.618   6.000   2.212  0.00  0.00     0.010 A 
ATOM      3  C2  UNL d   1      -5.505   5.996   3.603  0.00  0.00     0.041 A 
ATOM      4  C3  UNL d   1      -5.642   4.776   4.295  0.00  0.00    -0.075 A 
ATOM      5  S   UNL d   1      -5.540   4.530   5.998  0.00  0.00     0.015 SA
ATOM      6  C4  UNL d   1      -5.819   2.856   5.848  0.00  0.00     0.022 A 
ATOM      7  C5  UNL d   1      -5.988   2.476   4.538  0.00  0.00     0.026 A 
ATOM      8  C6  UNL d   1      -5.888   3.577   3.621  0.00  0.00    -0.082 A 
ATOM      9  C7  UNL d   1      -5.998   3.614   2.210  0.00  0.00     0.045 A 
ENDROOT
TORSDOF 0
ENDMDL
