MODEL 1
REMARK minimizedAffinity -3.09800816
REMARK minimizedRMSD -1
REMARK  0 active torsions:
REMARK  status: ('A' for Active; 'I' for Inactive)
ROOT
ATOM      1  C   UNL d   1      -4.414   5.998   2.131  0.00  0.00    -0.002 A 
ATOM      2  C1  UNL d   1      -4.957   4.919   1.447  0.00  0.00     0.010 A 
ATOM      3  C2  UNL d   1      -5.470   3.823   2.143  0.00  0.00     0.041 A 
ATOM      4  C3  UNL d   1      -5.429   3.829   3.551  0.00  0.00    -0.075 A 
ATOM      5  S   UNL d   1      -5.999   2.596   4.613  0.00  0.00     0.015 SA
ATOM      6  C4  UNL d   1      -5.536   3.472   5.999  0.00  0.00     0.022 A 
ATOM      7  C5  UNL d   1      -4.958   4.677   5.678  0.00  0.00     0.026 A 
ATOM      8  C6  UNL d   1      -4.888   4.903   4.262  0.00  0.00    -0.082 A 
ATOM      9  C7  UNL d   1      -4.375   6.000   3.528  0.00  0.00     0.045 A 
ENDROOT
TORSDOF 0
ENDMDL
