MODEL 1
REMARK minimizedAffinity 3.75927138
REMARK minimizedRMSD -1
REMARK  1 active torsions:
REMARK  status: ('A' for Active; 'I' for Inactive)
REMARK    1  A    between atoms: C1_2  and  C2_3 
ROOT
ATOM      1  C2  UNL d   1       3.033  -0.653  -0.468  0.00  0.00    -0.077 A 
ATOM      2  C3  UNL d   1       2.361  -1.170  -1.584  0.00  0.00     0.002 A 
ATOM      3  C4  UNL d   1       1.783  -2.440  -1.535  0.00  0.00     0.002 A 
ATOM      4  C5  UNL d   1       1.868  -3.201  -0.372  0.00  0.00    -0.004 A 
ATOM      5  C6  UNL d   1       2.536  -2.698   0.743  0.00  0.00     0.002 A 
ATOM      6  C7  UNL d   1       3.115  -1.429   0.696  0.00  0.00     0.002 A 
ENDROOT
BRANCH   1   7
ATOM      7  C1  UNL d   1       3.615   0.736  -0.502  0.00  0.00     0.055 C 
ATOM      8  C   UNL d   1       5.095   0.725  -0.152  0.00  0.00     0.019 C 
ENDBRANCH   1   7
TORSDOF 1
ENDMDL
