MODEL 1
REMARK minimizedAffinity 4.39188528
REMARK minimizedRMSD -1
REMARK  1 active torsions:
REMARK  status: ('A' for Active; 'I' for Inactive)
REMARK    1  A    between atoms: C1_2  and  C2_3 
ROOT
ATOM      1  C2  UNL d   1      -2.178   0.553  -3.201  0.00  0.00    -0.077 A 
ATOM      2  C3  UNL d   1      -3.038  -0.411  -2.657  0.00  0.00     0.002 A 
ATOM      3  C4  UNL d   1      -4.211  -0.768  -3.325  0.00  0.00     0.002 A 
ATOM      4  C5  UNL d   1      -4.531  -0.170  -4.542  0.00  0.00    -0.004 A 
ATOM      5  C6  UNL d   1      -3.683   0.791  -5.090  0.00  0.00     0.002 A 
ATOM      6  C7  UNL d   1      -2.511   1.150  -4.423  0.00  0.00     0.002 A 
ENDROOT
BRANCH   1   7
ATOM      7  C1  UNL d   1      -0.888   0.904  -2.506  0.00  0.00     0.055 C 
ATOM      8  C   UNL d   1      -1.010   0.741  -0.998  0.00  0.00     0.019 C 
ENDBRANCH   1   7
TORSDOF 1
ENDMDL
