MODEL 1
REMARK minimizedAffinity 6.93563128
REMARK minimizedRMSD -1
REMARK  1 active torsions:
REMARK  status: ('A' for Active; 'I' for Inactive)
REMARK    1  A    between atoms: C1_2  and  C2_3 
ROOT
ATOM      1  C2  UNL d   1       5.243   2.346  -1.156  0.00  0.00    -0.077 A 
ATOM      2  C3  UNL d   1       4.487   1.479  -1.957  0.00  0.00     0.002 A 
ATOM      3  C4  UNL d   1       3.750   0.445  -1.379  0.00  0.00     0.002 A 
ATOM      4  C5  UNL d   1       3.758   0.270   0.003  0.00  0.00    -0.004 A 
ATOM      5  C6  UNL d   1       4.508   1.125   0.809  0.00  0.00     0.002 A 
ATOM      6  C7  UNL d   1       5.246   2.159   0.233  0.00  0.00     0.002 A 
ENDROOT
BRANCH   1   7
ATOM      7  C1  UNL d   1       5.999   3.493  -1.773  0.00  0.00     0.055 C 
ATOM      8  C   UNL d   1       5.621   4.818  -1.127  0.00  0.00     0.019 C 
ENDBRANCH   1   7
TORSDOF 1
ENDMDL
