MODEL 1
REMARK minimizedAffinity 11.7113228
REMARK minimizedRMSD -1
REMARK  1 active torsions:
REMARK  status: ('A' for Active; 'I' for Inactive)
REMARK    1  A    between atoms: C1_2  and  C2_3 
ROOT
ATOM      1  C2  UNL d   1      -1.097  -4.883  -2.653  0.00  0.00    -0.077 A 
ATOM      2  C3  UNL d   1      -0.266  -3.816  -3.020  0.00  0.00     0.002 A 
ATOM      3  C4  UNL d   1       0.874  -3.518  -2.271  0.00  0.00     0.002 A 
ATOM      4  C5  UNL d   1       1.196  -4.285  -1.154  0.00  0.00    -0.004 A 
ATOM      5  C6  UNL d   1       0.374  -5.347  -0.779  0.00  0.00     0.002 A 
ATOM      6  C7  UNL d   1      -0.766  -5.646  -1.525  0.00  0.00     0.002 A 
ENDROOT
BRANCH   1   7
ATOM      7  C1  UNL d   1      -2.300  -5.237  -3.488  0.00  0.00     0.055 C 
ATOM      8  C   UNL d   1      -1.898  -5.996  -4.744  0.00  0.00     0.019 C 
ENDBRANCH   1   7
TORSDOF 1
ENDMDL
