MODEL 1
REMARK minimizedAffinity 4.71541262
REMARK minimizedRMSD -1
REMARK  1 active torsions:
REMARK  status: ('A' for Active; 'I' for Inactive)
REMARK    1  A    between atoms: C1_2  and  C2_3 
ROOT
ATOM      1  C2  UNL d   1       5.197   0.686  -0.857  0.00  0.00    -0.077 A 
ATOM      2  C3  UNL d   1       5.913  -0.137   0.024  0.00  0.00     0.002 A 
ATOM      3  C4  UNL d   1       5.335  -1.305   0.525  0.00  0.00     0.002 A 
ATOM      4  C5  UNL d   1       4.043  -1.663   0.147  0.00  0.00    -0.004 A 
ATOM      5  C6  UNL d   1       3.323  -0.850  -0.727  0.00  0.00     0.002 A 
ATOM      6  C7  UNL d   1       3.898   0.319  -1.227  0.00  0.00     0.002 A 
ENDROOT
BRANCH   1   7
ATOM      7  C1  UNL d   1       5.836   1.921  -1.437  0.00  0.00     0.055 C 
ATOM      8  C   UNL d   1       4.986   3.157  -1.180  0.00  0.00     0.019 C 
ENDBRANCH   1   7
TORSDOF 1
ENDMDL
