MODEL 1
REMARK minimizedAffinity 2.57846522
REMARK minimizedRMSD -1
REMARK  1 active torsions:
REMARK  status: ('A' for Active; 'I' for Inactive)
REMARK    1  A    between atoms: C1_2  and  C2_3 
ROOT
ATOM      1  C2  UNL d   1       3.755  -0.691  -1.453  0.00  0.00    -0.077 A 
ATOM      2  C3  UNL d   1       4.981  -0.188  -1.909  0.00  0.00     0.002 A 
ATOM      3  C4  UNL d   1       5.510   0.984  -1.365  0.00  0.00     0.002 A 
ATOM      4  C5  UNL d   1       4.821   1.661  -0.361  0.00  0.00    -0.004 A 
ATOM      5  C6  UNL d   1       3.599   1.170   0.097  0.00  0.00     0.002 A 
ATOM      6  C7  UNL d   1       3.069  -0.001  -0.446  0.00  0.00     0.002 A 
ENDROOT
BRANCH   1   7
ATOM      7  C1  UNL d   1       3.207  -1.982  -2.004  0.00  0.00     0.055 C 
ATOM      8  C   UNL d   1       2.582  -2.830  -0.906  0.00  0.00     0.019 C 
ENDBRANCH   1   7
TORSDOF 1
ENDMDL
