MODEL 1
REMARK minimizedAffinity 11.2264767
REMARK minimizedRMSD -1
REMARK  1 active torsions:
REMARK  status: ('A' for Active; 'I' for Inactive)
REMARK    1  A    between atoms: C1_2  and  C2_3 
ROOT
ATOM      1  C2  UNL d   1       3.731  -0.429  -0.730  0.00  0.00    -0.077 A 
ATOM      2  C3  UNL d   1       4.868  -0.782   0.011  0.00  0.00     0.002 A 
ATOM      3  C4  UNL d   1       5.997   0.039   0.007  0.00  0.00     0.002 A 
ATOM      4  C5  UNL d   1       6.000   1.219  -0.734  0.00  0.00    -0.004 A 
ATOM      5  C6  UNL d   1       4.875   1.578  -1.477  0.00  0.00     0.002 A 
ATOM      6  C7  UNL d   1       3.746   0.758  -1.474  0.00  0.00     0.002 A 
ENDROOT
BRANCH   1   7
ATOM      7  C1  UNL d   1       2.495  -1.288  -0.687  0.00  0.00     0.055 C 
ATOM      8  C   UNL d   1       2.615  -2.480  -1.626  0.00  0.00     0.019 C 
ENDBRANCH   1   7
TORSDOF 1
ENDMDL
