MODEL 1
REMARK minimizedAffinity 6.7624774
REMARK minimizedRMSD -1
REMARK  1 active torsions:
REMARK  status: ('A' for Active; 'I' for Inactive)
REMARK    1  A    between atoms: C1_2  and  C2_3 
ROOT
ATOM      1  C2  UNL d   1       0.513  -3.351   4.267  0.00  0.00    -0.077 A 
ATOM      2  C3  UNL d   1       1.297  -4.312   4.921  0.00  0.00     0.002 A 
ATOM      3  C4  UNL d   1       0.706  -5.239   5.782  0.00  0.00     0.002 A 
ATOM      4  C5  UNL d   1      -0.671  -5.217   5.993  0.00  0.00    -0.004 A 
ATOM      5  C6  UNL d   1      -1.459  -4.264   5.349  0.00  0.00     0.002 A 
ATOM      6  C7  UNL d   1      -0.870  -3.336   4.489  0.00  0.00     0.002 A 
ENDROOT
BRANCH   1   7
ATOM      7  C1  UNL d   1       1.142  -2.382   3.301  0.00  0.00     0.055 C 
ATOM      8  C   UNL d   1       1.169  -2.948   1.888  0.00  0.00     0.019 C 
ENDBRANCH   1   7
TORSDOF 1
ENDMDL
