MODEL 1
REMARK minimizedAffinity 10.6636066
REMARK minimizedRMSD -1
REMARK  2 active torsions:
REMARK  status: ('A' for Active; 'I' for Inactive)
REMARK    1  A    between atoms: C2'_3  and  C1'_4 
REMARK    2  A    between atoms: C1'_4  and  C1_5 
ROOT
ATOM      1  C1  I4B d   1       1.629  -0.805   2.374  0.00  0.00    -0.075 A 
ATOM      2  C2  I4B d   1       0.689   0.191   2.466  0.00  0.00     0.003 A 
ATOM      3  C3  I4B d   1       0.021   0.649   1.304  0.00  0.00     0.002 A 
ATOM      4  C4  I4B d   1       0.357   0.122   0.074  0.00  0.00    -0.004 A 
ATOM      5  C5  I4B d   1       1.293  -0.904  -0.014  0.00  0.00     0.002 A 
ATOM      6  C6  I4B d   1       1.924  -1.380   1.144  0.00  0.00     0.003 A 
ENDROOT
BRANCH   1   7
ATOM      7  C1' I4B d   1       2.339  -1.242   3.616  0.00  0.00     0.060 C 
BRANCH   7   8
ATOM      8  C2' I4B d   1       3.754  -1.628   3.233  0.00  0.00    -0.013 C 
ATOM      9  C4' I4B d   1       4.611  -0.409   3.016  0.00  0.00     0.013 C 
ATOM     10  C3' I4B d   1       4.309  -2.493   4.324  0.00  0.00     0.013 C 
ENDBRANCH   7   8
ENDBRANCH   1   7
TORSDOF 2
ENDMDL
