MODEL 1
REMARK minimizedAffinity 2.79491234
REMARK minimizedRMSD -1
REMARK  2 active torsions:
REMARK  status: ('A' for Active; 'I' for Inactive)
REMARK    1  A    between atoms: C2'_3  and  C1'_4 
REMARK    2  A    between atoms: C1'_4  and  C1_5 
ROOT
ATOM      1  C1  I4B d   1       1.254  -0.107   1.540  0.00  0.00    -0.075 A 
ATOM      2  C2  I4B d   1       1.198   0.862   0.570  0.00  0.00     0.003 A 
ATOM      3  C3  I4B d   1       0.227   0.788  -0.457  0.00  0.00     0.002 A 
ATOM      4  C4  I4B d   1      -0.632  -0.292  -0.504  0.00  0.00    -0.004 A 
ATOM      5  C5  I4B d   1      -0.589  -1.261   0.494  0.00  0.00     0.002 A 
ATOM      6  C6  I4B d   1       0.351  -1.162   1.529  0.00  0.00     0.003 A 
ENDROOT
BRANCH   1   7
ATOM      7  C1' I4B d   1       2.314  -0.015   2.591  0.00  0.00     0.060 C 
BRANCH   7   8
ATOM      8  C2' I4B d   1       2.277  -1.292   3.405  0.00  0.00    -0.013 C 
ATOM      9  C4' I4B d   1       3.666  -1.755   3.756  0.00  0.00     0.013 C 
ATOM     10  C3' I4B d   1       1.465  -1.032   4.638  0.00  0.00     0.013 C 
ENDBRANCH   7   8
ENDBRANCH   1   7
TORSDOF 2
ENDMDL
