MODEL 1
REMARK minimizedAffinity -3.57611895
REMARK minimizedRMSD -1
REMARK  1 active torsions:
REMARK  status: ('A' for Active; 'I' for Inactive)
REMARK    1  A    between atoms: N_2  and  C1_3 
ROOT
ATOM      1  C1  UNL d   1       0.187   1.435  -0.145  0.00  0.00     0.143 A 
ATOM      2  C2  UNL d   1      -0.805   0.709   0.521  0.00  0.00    -0.057 A 
ATOM      3  C3  UNL d   1      -0.522  -0.520   1.130  0.00  0.00     0.033 A 
ATOM      4  C4  UNL d   1       0.758  -1.060   1.057  0.00  0.00    -0.042 A 
ATOM      5  C5  UNL d   1       1.755  -0.368   0.378  0.00  0.00     0.033 A 
ATOM      6  C6  UNL d   1       1.467   0.862  -0.222  0.00  0.00    -0.057 A 
ENDROOT
BRANCH   1   7
ATOM      7  N   UNL d   1      -0.055   2.614  -0.854  0.00  0.00    -0.732 N 
ATOM      8  C   UNL d   1      -1.189   2.717  -1.747  0.00  0.00     0.284 C 
ATOM      9  H3  UNL d   1       0.109   3.446  -0.292  0.00  0.00     0.395 HD
ENDBRANCH   1   7
TORSDOF 1
ENDMDL
