MODEL 1
REMARK minimizedAffinity -4.53416109
REMARK minimizedRMSD -1
REMARK  1 active torsions:
REMARK  status: ('A' for Active; 'I' for Inactive)
REMARK    1  A    between atoms: N_2  and  C1_3 
ROOT
ATOM      1  C1  UNL d   1       0.022   1.066   0.277  0.00  0.00     0.143 A 
ATOM      2  C2  UNL d   1       1.368   0.896  -0.066  0.00  0.00    -0.057 A 
ATOM      3  C3  UNL d   1       2.055  -0.282   0.252  0.00  0.00     0.033 A 
ATOM      4  C4  UNL d   1       1.414  -1.303   0.946  0.00  0.00    -0.042 A 
ATOM      5  C5  UNL d   1       0.084  -1.145   1.319  0.00  0.00     0.033 A 
ATOM      6  C6  UNL d   1      -0.599   0.031   0.993  0.00  0.00    -0.057 A 
ENDROOT
BRANCH   1   7
ATOM      7  N   UNL d   1      -0.688   2.252   0.076  0.00  0.00    -0.732 N 
ATOM      8  C   UNL d   1      -0.444   3.068  -1.094  0.00  0.00     0.284 C 
ATOM      9  H3  UNL d   1      -1.670   2.163   0.324  0.00  0.00     0.395 HD
ENDBRANCH   1   7
TORSDOF 1
ENDMDL
