MODEL 1
REMARK minimizedAffinity -3.60354805
REMARK minimizedRMSD -1
REMARK  1 active torsions:
REMARK  status: ('A' for Active; 'I' for Inactive)
REMARK    1  A    between atoms: N_2  and  C1_3 
ROOT
ATOM      1  C1  UNL d   1      -1.341   3.126  -2.995  0.00  0.00     0.143 A 
ATOM      2  C2  UNL d   1      -2.613   2.545  -3.041  0.00  0.00    -0.057 A 
ATOM      3  C3  UNL d   1      -2.904   1.378  -2.325  0.00  0.00     0.033 A 
ATOM      4  C4  UNL d   1      -1.917   0.753  -1.570  0.00  0.00    -0.042 A 
ATOM      5  C5  UNL d   1      -0.638   1.299  -1.530  0.00  0.00     0.033 A 
ATOM      6  C6  UNL d   1      -0.355   2.468  -2.242  0.00  0.00    -0.057 A 
ENDROOT
BRANCH   1   7
ATOM      7  N   UNL d   1      -0.962   4.230  -3.763  0.00  0.00    -0.732 N 
ATOM      8  C   UNL d   1       0.377   4.771  -3.665  0.00  0.00     0.284 C 
ATOM      9  H3  UNL d   1      -1.323   4.185  -4.713  0.00  0.00     0.395 HD
ENDBRANCH   1   7
TORSDOF 1
ENDMDL
