MODEL 1
REMARK minimizedAffinity -4.72015619
REMARK minimizedRMSD -1
REMARK  1 active torsions:
REMARK  status: ('A' for Active; 'I' for Inactive)
REMARK    1  A    between atoms: N_2  and  C1_3 
ROOT
ATOM      1  C1  UNL d   1      -0.449   0.341   0.427  0.00  0.00     0.143 A 
ATOM      2  C2  UNL d   1      -0.949  -0.804   1.056  0.00  0.00    -0.057 A 
ATOM      3  C3  UNL d   1      -0.148  -1.937   1.243  0.00  0.00     0.033 A 
ATOM      4  C4  UNL d   1       1.162  -1.955   0.778  0.00  0.00    -0.042 A 
ATOM      5  C5  UNL d   1       1.673  -0.837   0.128  0.00  0.00     0.033 A 
ATOM      6  C6  UNL d   1       0.871   0.294  -0.050  0.00  0.00    -0.057 A 
ENDROOT
BRANCH   1   7
ATOM      7  N   UNL d   1      -1.224   1.463   0.123  0.00  0.00    -0.732 N 
ATOM      8  C   UNL d   1      -1.497   1.820  -1.253  0.00  0.00     0.284 C 
ATOM      9  H3  UNL d   1      -2.023   1.563   0.745  0.00  0.00     0.395 HD
ENDBRANCH   1   7
TORSDOF 1
ENDMDL
