MODEL 1
REMARK minimizedAffinity 0.184510633
REMARK minimizedRMSD -1
REMARK  1 active torsions:
REMARK  status: ('A' for Active; 'I' for Inactive)
REMARK    1  A    between atoms: N_2  and  C1_3 
ROOT
ATOM      1  C1  UNL d   1       1.835  -0.682   1.034  0.00  0.00     0.143 A 
ATOM      2  C2  UNL d   1       1.702   0.481   0.268  0.00  0.00    -0.057 A 
ATOM      3  C3  UNL d   1       0.464   0.863  -0.264  0.00  0.00     0.033 A 
ATOM      4  C4  UNL d   1      -0.661   0.070  -0.061  0.00  0.00    -0.042 A 
ATOM      5  C5  UNL d   1      -0.547  -1.103   0.676  0.00  0.00     0.033 A 
ATOM      6  C6  UNL d   1       0.690  -1.475   1.210  0.00  0.00    -0.057 A 
ENDROOT
BRANCH   1   7
ATOM      7  N   UNL d   1       3.057  -1.166   1.507  0.00  0.00    -0.732 N 
ATOM      8  C   UNL d   1       3.834  -0.403   2.459  0.00  0.00     0.284 C 
ATOM      9  H3  UNL d   1       3.031  -2.166   1.697  0.00  0.00     0.395 HD
ENDBRANCH   1   7
TORSDOF 1
ENDMDL
