MODEL 1
REMARK minimizedAffinity -3.70916128
REMARK minimizedRMSD -1
REMARK  1 active torsions:
REMARK  status: ('A' for Active; 'I' for Inactive)
REMARK    1  A    between atoms: N_2  and  C1_3 
ROOT
ATOM      1  C1  UNL d   1       0.382  -0.711   0.374  0.00  0.00     0.143 A 
ATOM      2  C2  UNL d   1       1.459  -1.585   0.563  0.00  0.00    -0.057 A 
ATOM      3  C3  UNL d   1       1.430  -2.569   1.558  0.00  0.00     0.033 A 
ATOM      4  C4  UNL d   1       0.331  -2.679   2.404  0.00  0.00    -0.042 A 
ATOM      5  C5  UNL d   1      -0.740  -1.806   2.251  0.00  0.00     0.033 A 
ATOM      6  C6  UNL d   1      -0.707  -0.829   1.252  0.00  0.00    -0.057 A 
ENDROOT
BRANCH   1   7
ATOM      7  N   UNL d   1       0.392   0.351  -0.532  0.00  0.00    -0.732 N 
ATOM      8  C   UNL d   1      -0.783   1.177  -0.713  0.00  0.00     0.284 C 
ATOM      9  H3  UNL d   1       1.267   0.871  -0.512  0.00  0.00     0.395 HD
ENDBRANCH   1   7
TORSDOF 1
ENDMDL
