MODEL 1
REMARK minimizedAffinity -4.51273584
REMARK minimizedRMSD -1
REMARK  1 active torsions:
REMARK  status: ('A' for Active; 'I' for Inactive)
REMARK    1  A    between atoms: N_2  and  C1_3 
ROOT
ATOM      1  C1  UNL d   1       0.614  -0.121  -0.038  0.00  0.00     0.143 A 
ATOM      2  C2  UNL d   1       1.999  -0.314  -0.003  0.00  0.00    -0.057 A 
ATOM      3  C3  UNL d   1       2.551  -1.537   0.396  0.00  0.00     0.033 A 
ATOM      4  C4  UNL d   1       1.726  -2.583   0.795  0.00  0.00    -0.042 A 
ATOM      5  C5  UNL d   1       0.347  -2.405   0.792  0.00  0.00     0.033 A 
ATOM      6  C6  UNL d   1      -0.199  -1.183   0.386  0.00  0.00    -0.057 A 
ENDROOT
BRANCH   1   7
ATOM      7  N   UNL d   1       0.006   1.103  -0.331  0.00  0.00    -0.732 N 
ATOM      8  C   UNL d   1      -1.254   1.149  -1.040  0.00  0.00     0.284 C 
ATOM      9  H3  UNL d   1       0.075   1.764   0.440  0.00  0.00     0.395 HD
ENDBRANCH   1   7
TORSDOF 1
ENDMDL
