MODEL 1
REMARK minimizedAffinity -4.81563139
REMARK minimizedRMSD -1
REMARK  1 active torsions:
REMARK  status: ('A' for Active; 'I' for Inactive)
REMARK    1  A    between atoms: N_2  and  C1_3 
ROOT
ATOM      1  C1  UNL d   1       0.628  -0.711   0.297  0.00  0.00     0.143 A 
ATOM      2  C2  UNL d   1       1.199  -1.673   1.137  0.00  0.00    -0.057 A 
ATOM      3  C3  UNL d   1       0.532  -2.126   2.281  0.00  0.00     0.033 A 
ATOM      4  C4  UNL d   1      -0.710  -1.600   2.623  0.00  0.00    -0.042 A 
ATOM      5  C5  UNL d   1      -1.285  -0.625   1.817  0.00  0.00     0.033 A 
ATOM      6  C6  UNL d   1      -0.617  -0.182   0.672  0.00  0.00    -0.057 A 
ENDROOT
BRANCH   1   7
ATOM      7  N   UNL d   1       1.284  -0.149  -0.801  0.00  0.00    -0.732 N 
ATOM      8  C   UNL d   1       2.558   0.519  -0.636  0.00  0.00     0.284 C 
ATOM      9  H3  UNL d   1       1.227  -0.736  -1.630  0.00  0.00     0.395 HD
ENDBRANCH   1   7
TORSDOF 1
ENDMDL
