MODEL 1
REMARK minimizedAffinity -4.12090063
REMARK minimizedRMSD -1
REMARK  1 active torsions:
REMARK  status: ('A' for Active; 'I' for Inactive)
REMARK    1  A    between atoms: N_2  and  C1_3 
ROOT
ATOM      1  C1  UNL d   1       0.112   0.012   0.210  0.00  0.00     0.143 A 
ATOM      2  C2  UNL d   1       0.170  -1.192   0.921  0.00  0.00    -0.057 A 
ATOM      3  C3  UNL d   1       1.354  -1.934   0.996  0.00  0.00     0.033 A 
ATOM      4  C4  UNL d   1       2.498  -1.499   0.335  0.00  0.00    -0.042 A 
ATOM      5  C5  UNL d   1       2.457  -0.318  -0.398  0.00  0.00     0.033 A 
ATOM      6  C6  UNL d   1       1.273   0.422  -0.464  0.00  0.00    -0.057 A 
ENDROOT
BRANCH   1   7
ATOM      7  N   UNL d   1      -1.062   0.745   0.016  0.00  0.00    -0.732 N 
ATOM      8  C   UNL d   1      -1.442   1.190  -1.308  0.00  0.00     0.284 C 
ATOM      9  H3  UNL d   1      -1.836   0.394   0.575  0.00  0.00     0.395 HD
ENDBRANCH   1   7
TORSDOF 1
ENDMDL
