MODEL 1
REMARK minimizedAffinity -4.64095497
REMARK minimizedRMSD -1
REMARK  1 active torsions:
REMARK  status: ('A' for Active; 'I' for Inactive)
REMARK    1  A    between atoms: N_2  and  C1_3 
ROOT
ATOM      1  C1  UNL d   1      -1.293   3.040  -2.948  0.00  0.00     0.143 A 
ATOM      2  C2  UNL d   1      -0.746   4.094  -2.209  0.00  0.00    -0.057 A 
ATOM      3  C3  UNL d   1      -0.194   5.215  -2.842  0.00  0.00     0.033 A 
ATOM      4  C4  UNL d   1      -0.153   5.288  -4.230  0.00  0.00    -0.042 A 
ATOM      5  C5  UNL d   1      -0.669   4.240  -4.985  0.00  0.00     0.033 A 
ATOM      6  C6  UNL d   1      -1.225   3.127  -4.347  0.00  0.00    -0.057 A 
ENDROOT
BRANCH   1   7
ATOM      7  N   UNL d   1      -1.767   1.855  -2.379  0.00  0.00    -0.732 N 
ATOM      8  C   UNL d   1      -2.933   1.192  -2.922  0.00  0.00     0.284 C 
ATOM      9  H3  UNL d   1      -1.015   1.224  -2.114  0.00  0.00     0.395 HD
ENDBRANCH   1   7
TORSDOF 1
ENDMDL
