MODEL 1
REMARK minimizedAffinity -2.7536459
REMARK minimizedRMSD -1
REMARK  0 active torsions:
REMARK  status: ('A' for Active; 'I' for Inactive)
ROOT
ATOM      1  C   UNL d   1       0.808  -0.375  -0.010  0.00  0.00     0.020 A 
ATOM      2  C1  UNL d   1       1.112   0.069  -1.296  0.00  0.00     0.020 A 
ATOM      3  C2  UNL d   1       0.380   1.112  -1.866  0.00  0.00     0.034 A 
ATOM      4  C3  UNL d   1      -0.660   1.716  -1.150  0.00  0.00     0.017 A 
ATOM      5  C4  UNL d   1      -0.964   1.270   0.142  0.00  0.00     0.017 A 
ATOM      6  C5  UNL d   1      -0.228   0.225   0.708  0.00  0.00     0.034 A 
ATOM      7 Cl   UNL d   1      -2.233   1.966   1.087  0.00  0.00    -0.070 Cl
ATOM      8 Cl1  UNL d   1      -1.523   3.001  -1.916  0.00  0.00    -0.070 Cl
ENDROOT
TORSDOF 0
ENDMDL
