MODEL 1
REMARK minimizedAffinity -5.72699928
REMARK minimizedRMSD -1
REMARK  0 active torsions:
REMARK  status: ('A' for Active; 'I' for Inactive)
ROOT
ATOM      1  C   UNL d   1      -0.717   1.690   1.926  0.00  0.00     0.020 A 
ATOM      2  C1  UNL d   1      -1.236   1.443   0.655  0.00  0.00     0.020 A 
ATOM      3  C2  UNL d   1      -0.608   0.525  -0.189  0.00  0.00     0.034 A 
ATOM      4  C3  UNL d   1       0.542  -0.149   0.236  0.00  0.00     0.017 A 
ATOM      5  C4  UNL d   1       1.063   0.100   1.512  0.00  0.00     0.017 A 
ATOM      6  C5  UNL d   1       0.429   1.020   2.353  0.00  0.00     0.034 A 
ATOM      7 Cl   UNL d   1       2.478  -0.693   2.106  0.00  0.00    -0.070 Cl
ATOM      8 Cl1  UNL d   1       1.267  -1.272  -0.859  0.00  0.00    -0.070 Cl
ENDROOT
TORSDOF 0
ENDMDL
