MODEL 1
REMARK minimizedAffinity -3.62448096
REMARK minimizedRMSD -1
REMARK  0 active torsions:
REMARK  status: ('A' for Active; 'I' for Inactive)
ROOT
ATOM      1  C   UNL d   1      -0.327   2.074   1.129  0.00  0.00     0.020 A 
ATOM      2  C1  UNL d   1      -1.355   1.604   0.312  0.00  0.00     0.020 A 
ATOM      3  C2  UNL d   1      -1.233   0.365  -0.320  0.00  0.00     0.034 A 
ATOM      4  C3  UNL d   1      -0.082  -0.409  -0.136  0.00  0.00     0.017 A 
ATOM      5  C4  UNL d   1       0.949   0.063   0.684  0.00  0.00     0.017 A 
ATOM      6  C5  UNL d   1       0.822   1.305   1.315  0.00  0.00     0.034 A 
ATOM      7 Cl   UNL d   1       2.400  -0.835   0.959  0.00  0.00    -0.070 Cl
ATOM      8 Cl1  UNL d   1       0.001  -1.932  -0.948  0.00  0.00    -0.070 Cl
ENDROOT
TORSDOF 0
ENDMDL
