MODEL 1
REMARK minimizedAffinity -0.0563953556
REMARK minimizedRMSD -1
REMARK  0 active torsions:
REMARK  status: ('A' for Active; 'I' for Inactive)
ROOT
ATOM      1  C   UNL d   1       0.488  -1.161  -1.010  0.00  0.00     0.020 A 
ATOM      2  C1  UNL d   1       0.787  -1.214   0.351  0.00  0.00     0.020 A 
ATOM      3  C2  UNL d   1       0.637  -0.073   1.143  0.00  0.00     0.034 A 
ATOM      4  C3  UNL d   1       0.188   1.124   0.575  0.00  0.00     0.017 A 
ATOM      5  C4  UNL d   1      -0.112   1.176  -0.791  0.00  0.00     0.017 A 
ATOM      6  C5  UNL d   1       0.040   0.031  -1.579  0.00  0.00     0.034 A 
ATOM      7 Cl   UNL d   1      -0.671   2.617  -1.564  0.00  0.00    -0.070 Cl
ATOM      8 Cl1  UNL d   1       0.026   2.496   1.614  0.00  0.00    -0.070 Cl
ENDROOT
TORSDOF 0
ENDMDL
