MODEL 1
REMARK minimizedAffinity -3.20151377
REMARK minimizedRMSD -1
REMARK  0 active torsions:
REMARK  status: ('A' for Active; 'I' for Inactive)
ROOT
ATOM      1  C   UNL d   1       0.764  -1.204   0.738  0.00  0.00     0.020 A 
ATOM      2  C1  UNL d   1       0.654  -1.129  -0.650  0.00  0.00     0.020 A 
ATOM      3  C2  UNL d   1       0.026  -0.031  -1.242  0.00  0.00     0.034 A 
ATOM      4  C3  UNL d   1      -0.495   0.995  -0.446  0.00  0.00     0.017 A 
ATOM      5  C4  UNL d   1      -0.385   0.919   0.947  0.00  0.00     0.017 A 
ATOM      6  C5  UNL d   1       0.245  -0.183   1.535  0.00  0.00     0.034 A 
ATOM      7 Cl   UNL d   1      -1.004   2.146   1.995  0.00  0.00    -0.070 Cl
ATOM      8 Cl1  UNL d   1      -1.259   2.323  -1.246  0.00  0.00    -0.070 Cl
ENDROOT
TORSDOF 0
ENDMDL
