MODEL 1
REMARK minimizedAffinity -2.38375854
REMARK minimizedRMSD -1
REMARK  0 active torsions:
REMARK  status: ('A' for Active; 'I' for Inactive)
ROOT
ATOM      1  C   UNL d   1       0.755  -0.806  -0.988  0.00  0.00     0.020 A 
ATOM      2  C1  UNL d   1       0.701  -0.821   0.405  0.00  0.00     0.020 A 
ATOM      3  C2  UNL d   1       0.090   0.231   1.091  0.00  0.00     0.034 A 
ATOM      4  C3  UNL d   1      -0.468   1.302   0.384  0.00  0.00     0.017 A 
ATOM      5  C4  UNL d   1      -0.413   1.316  -1.014  0.00  0.00     0.017 A 
ATOM      6  C5  UNL d   1       0.199   0.260  -1.696  0.00  0.00     0.034 A 
ATOM      7 Cl   UNL d   1      -1.080   2.603  -1.955  0.00  0.00    -0.070 Cl
ATOM      8 Cl1  UNL d   1      -1.208   2.569   1.297  0.00  0.00    -0.070 Cl
ENDROOT
TORSDOF 0
ENDMDL
