MODEL 1
REMARK minimizedAffinity -2.59048557
REMARK minimizedRMSD -1
REMARK  0 active torsions:
REMARK  status: ('A' for Active; 'I' for Inactive)
ROOT
ATOM      1  C   UNL d   1       1.125  -0.185   0.982  0.00  0.00     0.020 A 
ATOM      2  C1  UNL d   1       1.003  -0.385  -0.393  0.00  0.00     0.020 A 
ATOM      3  C2  UNL d   1       0.225   0.486  -1.159  0.00  0.00     0.034 A 
ATOM      4  C3  UNL d   1      -0.433   1.562  -0.551  0.00  0.00     0.017 A 
ATOM      5  C4  UNL d   1      -0.310   1.761   0.829  0.00  0.00     0.017 A 
ATOM      6  C5  UNL d   1       0.470   0.886   1.591  0.00  0.00     0.034 A 
ATOM      7 Cl   UNL d   1      -1.092   3.066   1.650  0.00  0.00    -0.070 Cl
ATOM      8 Cl1  UNL d   1      -1.378   2.599  -1.559  0.00  0.00    -0.070 Cl
ENDROOT
TORSDOF 0
ENDMDL
