MODEL 1
REMARK minimizedAffinity -1.07651305
REMARK minimizedRMSD -1
REMARK  0 active torsions:
REMARK  status: ('A' for Active; 'I' for Inactive)
ROOT
ATOM      1  C   UNL d   1       0.059   1.236   2.022  0.00  0.00     0.020 A 
ATOM      2  C1  UNL d   1       0.620  -0.022   2.237  0.00  0.00     0.020 A 
ATOM      3  C2  UNL d   1       0.885  -0.863   1.154  0.00  0.00     0.034 A 
ATOM      4  C3  UNL d   1       0.591  -0.446  -0.149  0.00  0.00     0.017 A 
ATOM      5  C4  UNL d   1       0.028   0.817  -0.364  0.00  0.00     0.017 A 
ATOM      6  C5  UNL d   1      -0.236   1.655   0.724  0.00  0.00     0.034 A 
ATOM      7 Cl   UNL d   1      -0.363   1.401  -1.943  0.00  0.00    -0.070 Cl
ATOM      8 Cl1  UNL d   1       0.946  -1.537  -1.441  0.00  0.00    -0.070 Cl
ENDROOT
TORSDOF 0
ENDMDL
