MODEL 1
REMARK minimizedAffinity 10.0038967
REMARK minimizedRMSD -1
REMARK  0 active torsions:
REMARK  status: ('A' for Active; 'I' for Inactive)
ROOT
ATOM      1  N1  IND d   1       1.705  -5.874  -5.823  0.00  0.00    -0.196 N 
ATOM      2  C2  IND d   1       0.713  -4.939  -5.727  0.00  0.00     0.054 A 
ATOM      3  C3  IND d   1       1.242  -3.696  -5.672  0.00  0.00    -0.031 A 
ATOM      4  C4  IND d   1       3.703  -2.958  -5.829  0.00  0.00     0.051 A 
ATOM      5  C5  IND d   1       4.975  -3.454  -5.888  0.00  0.00    -0.031 A 
ATOM      6  C6  IND d   1       5.227  -4.810  -5.933  0.00  0.00     0.015 A 
ATOM      7  C7  IND d   1       4.211  -5.724  -5.931  0.00  0.00    -0.016 A 
ATOM      8  C8  IND d   1       2.919  -5.223  -5.864  0.00  0.00    -0.047 A 
ATOM      9  C9  IND d   1       2.658  -3.850  -5.775  0.00  0.00    -0.096 A 
ATOM     10  HN1 IND d   1       1.591  -6.726  -5.854  0.00  0.00     0.298 HD
ENDROOT
TORSDOF 0
ENDMDL
