MODEL 1
REMARK minimizedAffinity 18.1858921
REMARK minimizedRMSD -1
REMARK  0 active torsions:
REMARK  status: ('A' for Active; 'I' for Inactive)
ROOT
ATOM      1  N1  IND d   1      -2.767   2.637  -2.756  0.00  0.00    -0.196 N 
ATOM      2  C2  IND d   1      -2.014   3.579  -3.400  0.00  0.00     0.054 A 
ATOM      3  C3  IND d   1      -2.370   4.820  -3.000  0.00  0.00    -0.031 A 
ATOM      4  C4  IND d   1      -4.093   5.535  -1.225  0.00  0.00     0.051 A 
ATOM      5  C5  IND d   1      -5.054   5.033  -0.394  0.00  0.00    -0.031 A 
ATOM      6  C6  IND d   1      -5.306   3.679  -0.304  0.00  0.00     0.015 A 
ATOM      7  C7  IND d   1      -4.594   2.772  -1.036  0.00  0.00    -0.016 A 
ATOM      8  C8  IND d   1      -3.622   3.279  -1.887  0.00  0.00    -0.047 A 
ATOM      9  C9  IND d   1      -3.391   4.655  -2.014  0.00  0.00    -0.096 A 
ATOM     10  HN1 IND d   1      -2.715   1.787  -2.874  0.00  0.00     0.298 HD
ENDROOT
TORSDOF 0
ENDMDL
