MODEL 1
REMARK minimizedAffinity 22.2606621
REMARK minimizedRMSD -1
REMARK  0 active torsions:
REMARK  status: ('A' for Active; 'I' for Inactive)
ROOT
ATOM      1  N1  IND d   1       0.151  -5.836   2.095  0.00  0.00    -0.196 N 
ATOM      2  C2  IND d   1       1.501  -6.000   2.238  0.00  0.00     0.054 A 
ATOM      3  C3  IND d   1       2.139  -4.820   2.071  0.00  0.00    -0.031 A 
ATOM      4  C4  IND d   1       1.159  -2.475   1.657  0.00  0.00     0.051 A 
ATOM      5  C5  IND d   1      -0.020  -1.828   1.416  0.00  0.00    -0.031 A 
ATOM      6  C6  IND d   1      -1.227  -2.496   1.390  0.00  0.00     0.015 A 
ATOM      7  C7  IND d   1      -1.301  -3.841   1.618  0.00  0.00    -0.016 A 
ATOM      8  C8  IND d   1      -0.105  -4.503   1.856  0.00  0.00    -0.047 A 
ATOM      9  C9  IND d   1       1.127  -3.837   1.841  0.00  0.00    -0.096 A 
ATOM     10  HN1 IND d   1      -0.438  -6.459   2.145  0.00  0.00     0.298 HD
ENDROOT
TORSDOF 0
ENDMDL
