MODEL 1
REMARK minimizedAffinity 13.3845987
REMARK minimizedRMSD -1
REMARK  0 active torsions:
REMARK  status: ('A' for Active; 'I' for Inactive)
ROOT
ATOM      1  N1  IND d   1       0.369  -5.946   2.006  0.00  0.00    -0.196 N 
ATOM      2  C2  IND d   1       1.729  -5.999   2.134  0.00  0.00     0.054 A 
ATOM      3  C3  IND d   1       2.280  -4.814   1.788  0.00  0.00    -0.031 A 
ATOM      4  C4  IND d   1       1.133  -2.621   1.080  0.00  0.00     0.051 A 
ATOM      5  C5  IND d   1      -0.093  -2.093   0.783  0.00  0.00    -0.031 A 
ATOM      6  C6  IND d   1      -1.250  -2.837   0.884  0.00  0.00     0.015 A 
ATOM      7  C7  IND d   1      -1.227  -4.139   1.298  0.00  0.00    -0.016 A 
ATOM      8  C8  IND d   1       0.016  -4.680   1.593  0.00  0.00    -0.047 A 
ATOM      9  C9  IND d   1       1.199  -3.943   1.452  0.00  0.00    -0.096 A 
ATOM     10  HN1 IND d   1      -0.175  -6.595   2.159  0.00  0.00     0.298 HD
ENDROOT
TORSDOF 0
ENDMDL
