MODEL 1
REMARK minimizedAffinity 8.36606598
REMARK minimizedRMSD -1
REMARK  0 active torsions:
REMARK  status: ('A' for Active; 'I' for Inactive)
ROOT
ATOM      1  N1  IND d   1      -4.270  -2.865   4.966  0.00  0.00    -0.196 N 
ATOM      2  C2  IND d   1      -5.169  -2.999   5.987  0.00  0.00     0.054 A 
ATOM      3  C3  IND d   1      -5.999  -4.039   5.749  0.00  0.00    -0.031 A 
ATOM      4  C4  IND d   1      -6.000  -5.718   3.798  0.00  0.00     0.051 A 
ATOM      5  C5  IND d   1      -5.391  -5.981   2.603  0.00  0.00    -0.031 A 
ATOM      6  C6  IND d   1      -4.354  -5.205   2.126  0.00  0.00     0.015 A 
ATOM      7  C7  IND d   1      -3.878  -4.139   2.835  0.00  0.00    -0.016 A 
ATOM      8  C8  IND d   1      -4.499  -3.864   4.046  0.00  0.00    -0.047 A 
ATOM      9  C9  IND d   1      -5.579  -4.623   4.515  0.00  0.00    -0.096 A 
ATOM     10  HN1 IND d   1      -3.663  -2.258   4.908  0.00  0.00     0.298 HD
ENDROOT
TORSDOF 0
ENDMDL
