MODEL 1
REMARK minimizedAffinity 10.5185966
REMARK minimizedRMSD -1
REMARK  0 active torsions:
REMARK  status: ('A' for Active; 'I' for Inactive)
ROOT
ATOM      1  N1  IND d   1       1.654   0.244   0.909  0.00  0.00    -0.196 N 
ATOM      2  C2  IND d   1       2.852  -0.366   0.663  0.00  0.00     0.054 A 
ATOM      3  C3  IND d   1       2.845  -1.629   1.147  0.00  0.00    -0.031 A 
ATOM      4  C4  IND d   1       0.941  -2.932   2.288  0.00  0.00     0.051 A 
ATOM      5  C5  IND d   1      -0.331  -2.784   2.765  0.00  0.00    -0.031 A 
ATOM      6  C6  IND d   1      -1.022  -1.595   2.643  0.00  0.00     0.015 A 
ATOM      7  C7  IND d   1      -0.467  -0.509   2.026  0.00  0.00    -0.016 A 
ATOM      8  C8  IND d   1       0.827  -0.654   1.547  0.00  0.00    -0.047 A 
ATOM      9  C9  IND d   1       1.548  -1.845   1.706  0.00  0.00    -0.096 A 
ATOM     10  HN1 IND d   1       1.451   1.053   0.700  0.00  0.00     0.298 HD
ENDROOT
TORSDOF 0
ENDMDL
