MODEL 1
REMARK minimizedAffinity 1.48745346
REMARK minimizedRMSD -1
REMARK  0 active torsions:
REMARK  status: ('A' for Active; 'I' for Inactive)
ROOT
ATOM      1  N1  IND d   1      -5.669  -5.989  -0.449  0.00  0.00    -0.196 N 
ATOM      2  C2  IND d   1      -5.010  -5.164  -1.316  0.00  0.00     0.054 A 
ATOM      3  C3  IND d   1      -4.417  -4.152  -0.645  0.00  0.00    -0.031 A 
ATOM      4  C4  IND d   1      -4.312  -3.711   1.890  0.00  0.00     0.051 A 
ATOM      5  C5  IND d   1      -4.794  -4.169   3.084  0.00  0.00    -0.031 A 
ATOM      6  C6  IND d   1      -5.606  -5.282   3.163  0.00  0.00     0.015 A 
ATOM      7  C7  IND d   1      -5.959  -5.988   2.048  0.00  0.00    -0.016 A 
ATOM      8  C8  IND d   1      -5.478  -5.521   0.833  0.00  0.00    -0.047 A 
ATOM      9  C9  IND d   1      -4.688  -4.367   0.741  0.00  0.00    -0.096 A 
ATOM     10  HN1 IND d   1      -6.127  -6.684  -0.666  0.00  0.00     0.298 HD
ENDROOT
TORSDOF 0
ENDMDL
