MODEL 1
REMARK minimizedAffinity 14.1530495
REMARK minimizedRMSD -1
REMARK  0 active torsions:
REMARK  status: ('A' for Active; 'I' for Inactive)
ROOT
ATOM      1  N1  IND d   1      -3.042   5.997  -2.259  0.00  0.00    -0.196 N 
ATOM      2  C2  IND d   1      -3.392   5.001  -1.390  0.00  0.00     0.054 A 
ATOM      3  C3  IND d   1      -3.188   3.790  -1.955  0.00  0.00    -0.031 A 
ATOM      4  C4  IND d   1      -2.190   3.207  -4.256  0.00  0.00     0.051 A 
ATOM      5  C5  IND d   1      -1.755   3.779  -5.418  0.00  0.00    -0.031 A 
ATOM      6  C6  IND d   1      -1.722   5.148  -5.588  0.00  0.00     0.015 A 
ATOM      7  C7  IND d   1      -2.116   6.000  -4.595  0.00  0.00    -0.016 A 
ATOM      8  C8  IND d   1      -2.566   5.421  -3.416  0.00  0.00    -0.047 A 
ATOM      9  C9  IND d   1      -2.641   4.032  -3.253  0.00  0.00    -0.096 A 
ATOM     10  HN1 IND d   1      -3.107   6.841  -2.107  0.00  0.00     0.298 HD
ENDROOT
TORSDOF 0
ENDMDL
