MODEL 1
REMARK minimizedAffinity 9.23091698
REMARK minimizedRMSD -1
REMARK  0 active torsions:
REMARK  status: ('A' for Active; 'I' for Inactive)
ROOT
ATOM      1  N1  IND d   1      -0.698  -0.773   3.652  0.00  0.00    -0.196 N 
ATOM      2  C2  IND d   1      -1.653  -1.695   3.325  0.00  0.00     0.054 A 
ATOM      3  C3  IND d   1      -1.238  -2.455   2.286  0.00  0.00    -0.031 A 
ATOM      4  C4  IND d   1       1.012  -2.426   1.036  0.00  0.00     0.051 A 
ATOM      5  C5  IND d   1       2.189  -1.735   0.951  0.00  0.00    -0.031 A 
ATOM      6  C6  IND d   1       2.470  -0.669   1.781  0.00  0.00     0.015 A 
ATOM      7  C7  IND d   1       1.586  -0.259   2.738  0.00  0.00    -0.016 A 
ATOM      8  C8  IND d   1       0.387  -0.953   2.822  0.00  0.00    -0.047 A 
ATOM      9  C9  IND d   1       0.079  -2.009   1.955  0.00  0.00    -0.096 A 
ATOM     10  HN1 IND d   1      -0.764  -0.181   4.271  0.00  0.00     0.298 HD
ENDROOT
TORSDOF 0
ENDMDL
