MODEL 1
REMARK minimizedAffinity 17.2458305
REMARK minimizedRMSD -1
REMARK  0 active torsions:
REMARK  status: ('A' for Active; 'I' for Inactive)
ROOT
ATOM      1  N1  IND d   1       0.740  -4.968  -2.341  0.00  0.00    -0.196 N 
ATOM      2  C2  IND d   1       0.152  -4.110  -3.229  0.00  0.00     0.054 A 
ATOM      3  C3  IND d   1      -0.079  -2.914  -2.643  0.00  0.00    -0.031 A 
ATOM      4  C4  IND d   1       0.516  -2.111  -0.271  0.00  0.00     0.051 A 
ATOM      5  C5  IND d   1       1.029  -2.549   0.918  0.00  0.00    -0.031 A 
ATOM      6  C6  IND d   1       1.483  -3.842   1.083  0.00  0.00     0.015 A 
ATOM      7  C7  IND d   1       1.452  -4.745   0.059  0.00  0.00    -0.016 A 
ATOM      8  C8  IND d   1       0.925  -4.305  -1.148  0.00  0.00    -0.047 A 
ATOM      9  C9  IND d   1       0.424  -3.007  -1.309  0.00  0.00    -0.096 A 
ATOM     10  HN1 IND d   1       0.957  -5.785  -2.501  0.00  0.00     0.298 HD
ENDROOT
TORSDOF 0
ENDMDL
