MODEL 1
REMARK minimizedAffinity 6.65084124
REMARK minimizedRMSD -1
REMARK  0 active torsions:
REMARK  status: ('A' for Active; 'I' for Inactive)
ROOT
ATOM      1  N1  IND d   1      -4.189  -3.004   5.022  0.00  0.00    -0.196 N 
ATOM      2  C2  IND d   1      -5.136  -3.134   6.000  0.00  0.00     0.054 A 
ATOM      3  C3  IND d   1      -5.995  -4.132   5.693  0.00  0.00    -0.031 A 
ATOM      4  C4  IND d   1      -5.976  -5.749   3.691  0.00  0.00     0.051 A 
ATOM      5  C5  IND d   1      -5.326  -6.000   2.515  0.00  0.00    -0.031 A 
ATOM      6  C6  IND d   1      -4.241  -5.251   2.107  0.00  0.00     0.015 A 
ATOM      7  C7  IND d   1      -3.755  -4.227   2.870  0.00  0.00    -0.016 A 
ATOM      8  C8  IND d   1      -4.417  -3.965   4.062  0.00  0.00    -0.047 A 
ATOM      9  C9  IND d   1      -5.545  -4.694   4.460  0.00  0.00    -0.096 A 
ATOM     10  HN1 IND d   1      -3.558  -2.421   5.010  0.00  0.00     0.298 HD
ENDROOT
TORSDOF 0
ENDMDL
