MODEL 1
REMARK minimizedAffinity 13.219614
REMARK minimizedRMSD -1
REMARK  0 active torsions:
REMARK  status: ('A' for Active; 'I' for Inactive)
ROOT
ATOM      1  N1  IND d   1      -2.442  -3.523   0.670  0.00  0.00    -0.196 N 
ATOM      2  C2  IND d   1      -1.654  -4.418   0.001  0.00  0.00     0.054 A 
ATOM      3  C3  IND d   1      -2.372  -5.511  -0.342  0.00  0.00    -0.031 A 
ATOM      4  C4  IND d   1      -4.876  -5.998   0.003  0.00  0.00     0.051 A 
ATOM      5  C5  IND d   1      -6.000  -5.495   0.597  0.00  0.00    -0.031 A 
ATOM      6  C6  IND d   1      -5.995  -4.283   1.257  0.00  0.00     0.015 A 
ATOM      7  C7  IND d   1      -4.864  -3.520   1.338  0.00  0.00    -0.016 A 
ATOM      8  C8  IND d   1      -3.720  -4.031   0.742  0.00  0.00    -0.047 A 
ATOM      9  C9  IND d   1      -3.708  -5.281   0.108  0.00  0.00    -0.096 A 
ATOM     10  HN1 IND d   1      -2.182  -2.769   0.992  0.00  0.00     0.298 HD
ENDROOT
TORSDOF 0
ENDMDL
