MODEL 1
REMARK minimizedAffinity 12.2036629
REMARK minimizedRMSD -1
REMARK  0 active torsions:
REMARK  status: ('A' for Active; 'I' for Inactive)
ROOT
ATOM      1  N1  IND d   1      -3.622  -2.795   3.183  0.00  0.00    -0.196 N 
ATOM      2  C2  IND d   1      -3.076  -3.270   2.023  0.00  0.00     0.054 A 
ATOM      3  C3  IND d   1      -3.530  -4.518   1.766  0.00  0.00    -0.031 A 
ATOM      4  C4  IND d   1      -5.249  -5.932   3.059  0.00  0.00     0.051 A 
ATOM      5  C5  IND d   1      -5.997  -5.938   4.203  0.00  0.00    -0.031 A 
ATOM      6  C6  IND d   1      -5.993  -4.874   5.082  0.00  0.00     0.015 A 
ATOM      7  C7  IND d   1      -5.247  -3.755   4.842  0.00  0.00    -0.016 A 
ATOM      8  C8  IND d   1      -4.481  -3.748   3.685  0.00  0.00    -0.047 A 
ATOM      9  C9  IND d   1      -4.448  -4.842   2.811  0.00  0.00    -0.096 A 
ATOM     10  HN1 IND d   1      -3.457  -2.030   3.539  0.00  0.00     0.298 HD
ENDROOT
TORSDOF 0
ENDMDL
