MODEL 1
REMARK minimizedAffinity 14.2378626
REMARK minimizedRMSD -1
REMARK  0 active torsions:
REMARK  status: ('A' for Active; 'I' for Inactive)
ROOT
ATOM      1  N1  IND d   1      -4.480   2.508  -2.097  0.00  0.00    -0.196 N 
ATOM      2  C2  IND d   1      -5.129   3.288  -1.181  0.00  0.00     0.054 A 
ATOM      3  C3  IND d   1      -4.532   4.497  -1.085  0.00  0.00    -0.031 A 
ATOM      4  C4  IND d   1      -2.540   5.447  -2.410  0.00  0.00     0.051 A 
ATOM      5  C5  IND d   1      -1.593   5.096  -3.332  0.00  0.00    -0.031 A 
ATOM      6  C6  IND d   1      -1.562   3.840  -3.903  0.00  0.00     0.015 A 
ATOM      7  C7  IND d   1      -2.487   2.888  -3.580  0.00  0.00    -0.016 A 
ATOM      8  C8  IND d   1      -3.445   3.238  -2.639  0.00  0.00    -0.047 A 
ATOM      9  C9  IND d   1      -3.456   4.497  -2.025  0.00  0.00    -0.096 A 
ATOM     10  HN1 IND d   1      -4.684   1.698  -2.301  0.00  0.00     0.298 HD
ENDROOT
TORSDOF 0
ENDMDL
