MODEL 1
REMARK minimizedAffinity 4.9999671
REMARK minimizedRMSD -1
REMARK  0 active torsions:
REMARK  status: ('A' for Active; 'I' for Inactive)
ROOT
ATOM      1  N1  IND d   1      -3.327  -4.496  -0.546  0.00  0.00    -0.196 N 
ATOM      2  C2  IND d   1      -4.087  -5.584  -0.871  0.00  0.00     0.054 A 
ATOM      3  C3  IND d   1      -4.797  -6.000   0.202  0.00  0.00    -0.031 A 
ATOM      4  C4  IND d   1      -4.941  -4.980   2.562  0.00  0.00     0.051 A 
ATOM      5  C5  IND d   1      -4.400  -4.001   3.347  0.00  0.00    -0.031 A 
ATOM      6  C6  IND d   1      -3.457  -3.118   2.864  0.00  0.00     0.015 A 
ATOM      7  C7  IND d   1      -3.026  -3.173   1.569  0.00  0.00    -0.016 A 
ATOM      8  C8  IND d   1      -3.567  -4.171   0.771  0.00  0.00    -0.047 A 
ATOM      9  C9  IND d   1      -4.494  -5.097   1.267  0.00  0.00    -0.096 A 
ATOM     10  HN1 IND d   1      -2.788  -4.084  -1.075  0.00  0.00     0.298 HD
ENDROOT
TORSDOF 0
ENDMDL
