MODEL 1
REMARK minimizedAffinity 19.1344185
REMARK minimizedRMSD -1
REMARK  0 active torsions:
REMARK  status: ('A' for Active; 'I' for Inactive)
ROOT
ATOM      1  N1  IND d   1      -3.573  -2.769   4.629  0.00  0.00    -0.196 N 
ATOM      2  C2  IND d   1      -4.049  -3.579   3.636  0.00  0.00     0.054 A 
ATOM      3  C3  IND d   1      -3.231  -3.534   2.561  0.00  0.00    -0.031 A 
ATOM      4  C4  IND d   1      -1.004  -2.280   2.250  0.00  0.00     0.051 A 
ATOM      5  C5  IND d   1      -0.178  -1.382   2.866  0.00  0.00    -0.031 A 
ATOM      6  C6  IND d   1      -0.446  -0.893   4.128  0.00  0.00     0.015 A 
ATOM      7  C7  IND d   1      -1.548  -1.294   4.829  0.00  0.00    -0.016 A 
ATOM      8  C8  IND d   1      -2.392  -2.200   4.203  0.00  0.00    -0.047 A 
ATOM      9  C9  IND d   1      -2.149  -2.668   2.906  0.00  0.00    -0.096 A 
ATOM     10  HN1 IND d   1      -3.947  -2.637   5.392  0.00  0.00     0.298 HD
ENDROOT
TORSDOF 0
ENDMDL
