MODEL 1
REMARK minimizedAffinity 2.97253466
REMARK minimizedRMSD -1
REMARK  0 active torsions:
REMARK  status: ('A' for Active; 'I' for Inactive)
ROOT
ATOM      1  N1  IND d   1       0.809  -3.889  -4.269  0.00  0.00    -0.196 N 
ATOM      2  C2  IND d   1       0.258  -5.128  -4.437  0.00  0.00     0.054 A 
ATOM      3  C3  IND d   1       1.117  -5.941  -5.092  0.00  0.00    -0.031 A 
ATOM      4  C4  IND d   1       3.520  -5.476  -5.890  0.00  0.00     0.051 A 
ATOM      5  C5  IND d   1       4.446  -4.476  -5.994  0.00  0.00    -0.031 A 
ATOM      6  C6  IND d   1       4.204  -3.204  -5.516  0.00  0.00     0.015 A 
ATOM      7  C7  IND d   1       3.024  -2.887  -4.904  0.00  0.00    -0.016 A 
ATOM      8  C8  IND d   1       2.079  -3.898  -4.803  0.00  0.00    -0.047 A 
ATOM      9  C9  IND d   1       2.303  -5.178  -5.324  0.00  0.00    -0.096 A 
ATOM     10  HN1 IND d   1       0.427  -3.216  -3.893  0.00  0.00     0.298 HD
ENDROOT
TORSDOF 0
ENDMDL
