MODEL 1
REMARK minimizedAffinity 18.8748341
REMARK minimizedRMSD -1
REMARK  0 active torsions:
REMARK  status: ('A' for Active; 'I' for Inactive)
ROOT
ATOM      1  N1  IND d   1       1.214  -3.730  -5.537  0.00  0.00    -0.196 N 
ATOM      2  C2  IND d   1       0.618  -4.959  -5.583  0.00  0.00     0.054 A 
ATOM      3  C3  IND d   1       1.544  -5.925  -5.777  0.00  0.00    -0.031 A 
ATOM      4  C4  IND d   1       4.105  -5.723  -5.946  0.00  0.00     0.051 A 
ATOM      5  C5  IND d   1       5.112  -4.801  -5.998  0.00  0.00    -0.031 A 
ATOM      6  C6  IND d   1       4.866  -3.447  -5.894  0.00  0.00     0.015 A 
ATOM      7  C7  IND d   1       3.600  -2.964  -5.723  0.00  0.00    -0.016 A 
ATOM      8  C8  IND d   1       2.574  -3.897  -5.676  0.00  0.00    -0.047 A 
ATOM      9  C9  IND d   1       2.813  -5.270  -5.824  0.00  0.00    -0.096 A 
ATOM     10  HN1 IND d   1       0.808  -2.979  -5.439  0.00  0.00     0.298 HD
ENDROOT
TORSDOF 0
ENDMDL
