MODEL 1
REMARK minimizedAffinity 3.08270144
REMARK minimizedRMSD -1
REMARK  0 active torsions:
REMARK  status: ('A' for Active; 'I' for Inactive)
ROOT
ATOM      1  N1  IND d   1      -5.364  -4.816   2.631  0.00  0.00    -0.196 N 
ATOM      2  C2  IND d   1      -4.609  -3.799   3.146  0.00  0.00     0.054 A 
ATOM      3  C3  IND d   1      -3.695  -3.386   2.239  0.00  0.00    -0.031 A 
ATOM      4  C4  IND d   1      -3.328  -4.167  -0.186  0.00  0.00     0.051 A 
ATOM      5  C5  IND d   1      -3.750  -5.098  -1.094  0.00  0.00    -0.031 A 
ATOM      6  C6  IND d   1      -4.754  -5.999  -0.801  0.00  0.00     0.015 A 
ATOM      7  C7  IND d   1      -5.383  -5.995   0.412  0.00  0.00    -0.016 A 
ATOM      8  C8  IND d   1      -4.953  -5.056   1.338  0.00  0.00    -0.047 A 
ATOM      9  C9  IND d   1      -3.906  -4.167   1.061  0.00  0.00    -0.096 A 
ATOM     10  HN1 IND d   1      -5.990  -5.235   3.044  0.00  0.00     0.298 HD
ENDROOT
TORSDOF 0
ENDMDL
