MODEL 1
REMARK minimizedAffinity -1.61040747
REMARK minimizedRMSD -1
REMARK  1 active torsions:
REMARK  status: ('A' for Active; 'I' for Inactive)
REMARK    1  A    between atoms: C1_2  and  C2_3 
ROOT
ATOM      1  C2  UNL d   1       4.643  -4.175  -3.296  0.00  0.00    -0.077 A 
ATOM      2  C3  UNL d   1       3.514  -4.195  -4.127  0.00  0.00     0.002 A 
ATOM      3  C4  UNL d   1       3.630  -4.571  -5.467  0.00  0.00     0.002 A 
ATOM      4  C5  UNL d   1       4.871  -4.934  -5.985  0.00  0.00    -0.004 A 
ATOM      5  C6  UNL d   1       6.000  -4.915  -5.168  0.00  0.00     0.002 A 
ATOM      6  C7  UNL d   1       5.886  -4.538  -3.829  0.00  0.00     0.002 A 
ENDROOT
BRANCH   1   7
ATOM      7  C1  UNL d   1       4.512  -3.817  -1.839  0.00  0.00     0.055 C 
ATOM      8  C   UNL d   1       3.410  -2.791  -1.618  0.00  0.00     0.019 C 
ENDBRANCH   1   7
TORSDOF 1
ENDMDL
