MODEL 1
REMARK minimizedAffinity -1.02438581
REMARK minimizedRMSD -1
REMARK  1 active torsions:
REMARK  status: ('A' for Active; 'I' for Inactive)
REMARK    1  A    between atoms: C1_2  and  C2_3 
ROOT
ATOM      1  C2  UNL d   1       5.469  -3.963   3.446  0.00  0.00    -0.077 A 
ATOM      2  C3  UNL d   1       4.683  -4.675   4.363  0.00  0.00     0.002 A 
ATOM      3  C4  UNL d   1       4.435  -4.155   5.634  0.00  0.00     0.002 A 
ATOM      4  C5  UNL d   1       4.965  -2.919   5.999  0.00  0.00    -0.004 A 
ATOM      5  C6  UNL d   1       5.749  -2.204   5.095  0.00  0.00     0.002 A 
ATOM      6  C7  UNL d   1       6.000  -2.723   3.824  0.00  0.00     0.002 A 
ENDROOT
BRANCH   1   7
ATOM      7  C1  UNL d   1       5.697  -4.499   2.057  0.00  0.00     0.055 C 
ATOM      8  C   UNL d   1       6.000  -3.378   1.073  0.00  0.00     0.019 C 
ENDBRANCH   1   7
TORSDOF 1
ENDMDL
