MODEL 1
REMARK minimizedAffinity 3.12470651
REMARK minimizedRMSD -1
REMARK  1 active torsions:
REMARK  status: ('A' for Active; 'I' for Inactive)
REMARK    1  A    between atoms: C1_2  and  C2_3 
ROOT
ATOM      1  C2  UNL d   1       4.658  -3.867   4.710  0.00  0.00    -0.077 A 
ATOM      2  C3  UNL d   1       5.864  -3.209   4.428  0.00  0.00     0.002 A 
ATOM      3  C4  UNL d   1       6.000  -2.453   3.262  0.00  0.00     0.002 A 
ATOM      4  C5  UNL d   1       4.933  -2.343   2.372  0.00  0.00    -0.004 A 
ATOM      5  C6  UNL d   1       3.731  -2.995   2.643  0.00  0.00     0.002 A 
ATOM      6  C7  UNL d   1       3.593  -3.752   3.807  0.00  0.00     0.002 A 
ENDROOT
BRANCH   1   7
ATOM      7  C1  UNL d   1       4.493  -4.643   5.990  0.00  0.00     0.055 C 
ATOM      8  C   UNL d   1       5.368  -5.888   6.000  0.00  0.00     0.019 C 
ENDBRANCH   1   7
TORSDOF 1
ENDMDL
