MODEL 1
REMARK minimizedAffinity -2.20285702
REMARK minimizedRMSD -1
REMARK  1 active torsions:
REMARK  status: ('A' for Active; 'I' for Inactive)
REMARK    1  A    between atoms: C1_2  and  C2_3 
ROOT
ATOM      1  C2  UNL d   1       5.711  -3.992  -3.510  0.00  0.00    -0.077 A 
ATOM      2  C3  UNL d   1       5.994  -5.361  -3.625  0.00  0.00     0.002 A 
ATOM      3  C4  UNL d   1       5.902  -5.999  -4.864  0.00  0.00     0.002 A 
ATOM      4  C5  UNL d   1       5.533  -5.276  -5.996  0.00  0.00    -0.004 A 
ATOM      5  C6  UNL d   1       5.248  -3.915  -5.892  0.00  0.00     0.002 A 
ATOM      6  C7  UNL d   1       5.338  -3.276  -4.654  0.00  0.00     0.002 A 
ENDROOT
BRANCH   1   7
ATOM      7  C1  UNL d   1       5.857  -3.292  -2.184  0.00  0.00     0.055 C 
ATOM      8  C   UNL d   1       6.000  -4.289  -1.044  0.00  0.00     0.019 C 
ENDBRANCH   1   7
TORSDOF 1
ENDMDL
