MODEL 1
REMARK minimizedAffinity -3.55109167
REMARK minimizedRMSD -1
REMARK  1 active torsions:
REMARK  status: ('A' for Active; 'I' for Inactive)
REMARK    1  A    between atoms: C1_2  and  C2_3 
ROOT
ATOM      1  C2  UNL d   1       5.780  -5.240  -1.292  0.00  0.00    -0.077 A 
ATOM      2  C3  UNL d   1       5.990  -5.999  -2.452  0.00  0.00     0.002 A 
ATOM      3  C4  UNL d   1       5.831  -5.420  -3.712  0.00  0.00     0.002 A 
ATOM      4  C5  UNL d   1       5.466  -4.080  -3.825  0.00  0.00    -0.004 A 
ATOM      5  C6  UNL d   1       5.253  -3.318  -2.677  0.00  0.00     0.002 A 
ATOM      6  C7  UNL d   1       5.411  -3.894  -1.416  0.00  0.00     0.002 A 
ENDROOT
BRANCH   1   7
ATOM      7  C1  UNL d   1       6.000  -5.848   0.069  0.00  0.00     0.055 C 
ATOM      8  C   UNL d   1       5.707  -4.847   1.177  0.00  0.00     0.019 C 
ENDBRANCH   1   7
TORSDOF 1
ENDMDL
