MODEL 1
REMARK minimizedAffinity -3.3463428
REMARK minimizedRMSD -1
REMARK  1 active torsions:
REMARK  status: ('A' for Active; 'I' for Inactive)
REMARK    1  A    between atoms: C1_2  and  C2_3 
ROOT
ATOM      1  C2  UNL d   1       5.634  -3.279   3.312  0.00  0.00    -0.077 A 
ATOM      2  C3  UNL d   1       5.258  -4.516   3.855  0.00  0.00     0.002 A 
ATOM      3  C4  UNL d   1       4.876  -4.612   5.194  0.00  0.00     0.002 A 
ATOM      4  C5  UNL d   1       4.861  -3.475   6.000  0.00  0.00    -0.004 A 
ATOM      5  C6  UNL d   1       5.235  -2.241   5.470  0.00  0.00     0.002 A 
ATOM      6  C7  UNL d   1       5.619  -2.143   4.132  0.00  0.00     0.002 A 
ENDROOT
BRANCH   1   7
ATOM      7  C1  UNL d   1       6.000  -3.164   1.855  0.00  0.00     0.055 C 
ATOM      8  C   UNL d   1       5.940  -4.517   1.161  0.00  0.00     0.019 C 
ENDBRANCH   1   7
TORSDOF 1
ENDMDL
