MODEL 1
REMARK minimizedAffinity -2.25780964
REMARK minimizedRMSD -1
REMARK  1 active torsions:
REMARK  status: ('A' for Active; 'I' for Inactive)
REMARK    1  A    between atoms: C1_2  and  C2_3 
ROOT
ATOM      1  C2  UNL d   1       5.065  -3.635   3.395  0.00  0.00    -0.077 A 
ATOM      2  C3  UNL d   1       6.000  -2.636   3.700  0.00  0.00     0.002 A 
ATOM      3  C4  UNL d   1       5.982  -2.010   4.948  0.00  0.00     0.002 A 
ATOM      4  C5  UNL d   1       5.034  -2.377   5.900  0.00  0.00    -0.004 A 
ATOM      5  C6  UNL d   1       4.098  -3.368   5.606  0.00  0.00     0.002 A 
ATOM      6  C7  UNL d   1       4.114  -3.995   4.359  0.00  0.00     0.002 A 
ENDROOT
BRANCH   1   7
ATOM      7  C1  UNL d   1       5.114  -4.347   2.068  0.00  0.00     0.055 C 
ATOM      8  C   UNL d   1       5.997  -3.607   1.075  0.00  0.00     0.019 C 
ENDBRANCH   1   7
TORSDOF 1
ENDMDL
