MODEL 1
REMARK minimizedAffinity -1.25823176
REMARK minimizedRMSD -1
REMARK  1 active torsions:
REMARK  status: ('A' for Active; 'I' for Inactive)
REMARK    1  A    between atoms: C1_2  and  C2_3 
ROOT
ATOM      1  C2  UNL d   1       5.937  -4.070  -2.501  0.00  0.00    -0.077 A 
ATOM      2  C3  UNL d   1       5.768  -3.095  -3.494  0.00  0.00     0.002 A 
ATOM      3  C4  UNL d   1       5.665  -3.465  -4.836  0.00  0.00     0.002 A 
ATOM      4  C5  UNL d   1       5.726  -4.809  -5.197  0.00  0.00    -0.004 A 
ATOM      5  C6  UNL d   1       5.895  -5.786  -4.217  0.00  0.00     0.002 A 
ATOM      6  C7  UNL d   1       6.000  -5.418  -2.875  0.00  0.00     0.002 A 
ENDROOT
BRANCH   1   7
ATOM      7  C1  UNL d   1       5.999  -3.677  -1.048  0.00  0.00     0.055 C 
ATOM      8  C   UNL d   1       5.984  -4.901  -0.143  0.00  0.00     0.019 C 
ENDBRANCH   1   7
TORSDOF 1
ENDMDL
