MODEL 1
REMARK minimizedAffinity -2.96395397
REMARK minimizedRMSD -1
REMARK  1 active torsions:
REMARK  status: ('A' for Active; 'I' for Inactive)
REMARK    1  A    between atoms: C1_2  and  C2_3 
ROOT
ATOM      1  C2  UNL d   1       5.929  -4.000   3.393  0.00  0.00    -0.077 A 
ATOM      2  C3  UNL d   1       5.999  -2.617   3.609  0.00  0.00     0.002 A 
ATOM      3  C4  UNL d   1       5.980  -2.103   4.907  0.00  0.00     0.002 A 
ATOM      4  C5  UNL d   1       5.895  -2.965   5.998  0.00  0.00    -0.004 A 
ATOM      5  C6  UNL d   1       5.823  -4.343   5.794  0.00  0.00     0.002 A 
ATOM      6  C7  UNL d   1       5.841  -4.858   4.497  0.00  0.00     0.002 A 
ENDROOT
BRANCH   1   7
ATOM      7  C1  UNL d   1       5.999  -4.559   1.996  0.00  0.00     0.055 C 
ATOM      8  C   UNL d   1       5.944  -3.452   0.953  0.00  0.00     0.019 C 
ENDBRANCH   1   7
TORSDOF 1
ENDMDL
