MODEL 1
REMARK minimizedAffinity -3.03363252
REMARK minimizedRMSD -1
REMARK  1 active torsions:
REMARK  status: ('A' for Active; 'I' for Inactive)
REMARK    1  A    between atoms: C1_2  and  C2_3 
ROOT
ATOM      1  C2  UNL d   1       4.683  -4.322   3.989  0.00  0.00    -0.077 A 
ATOM      2  C3  UNL d   1       5.337  -3.633   2.959  0.00  0.00     0.002 A 
ATOM      3  C4  UNL d   1       5.991  -2.427   3.221  0.00  0.00     0.002 A 
ATOM      4  C5  UNL d   1       6.000  -1.903   4.511  0.00  0.00    -0.004 A 
ATOM      5  C6  UNL d   1       5.350  -2.580   5.542  0.00  0.00     0.002 A 
ATOM      6  C7  UNL d   1       4.695  -3.785   5.283  0.00  0.00     0.002 A 
ENDROOT
BRANCH   1   7
ATOM      7  C1  UNL d   1       4.019  -5.648   3.720  0.00  0.00     0.055 C 
ATOM      8  C   UNL d   1       3.010  -5.993   4.805  0.00  0.00     0.019 C 
ENDBRANCH   1   7
TORSDOF 1
ENDMDL
