MODEL 1
REMARK minimizedAffinity -2.35243821
REMARK minimizedRMSD -1
REMARK  1 active torsions:
REMARK  status: ('A' for Active; 'I' for Inactive)
REMARK    1  A    between atoms: C1_2  and  C2_3 
ROOT
ATOM      1  C2  UNL d   1       5.186  -3.361   3.088  0.00  0.00    -0.077 A 
ATOM      2  C3  UNL d   1       4.373  -3.841   4.124  0.00  0.00     0.002 A 
ATOM      3  C4  UNL d   1       4.375  -3.215   5.372  0.00  0.00     0.002 A 
ATOM      4  C5  UNL d   1       5.185  -2.103   5.594  0.00  0.00    -0.004 A 
ATOM      5  C6  UNL d   1       5.999  -1.619   4.570  0.00  0.00     0.002 A 
ATOM      6  C7  UNL d   1       5.998  -2.244   3.323  0.00  0.00     0.002 A 
ENDROOT
BRANCH   1   7
ATOM      7  C1  UNL d   1       5.148  -4.004   1.727  0.00  0.00     0.055 C 
ATOM      8  C   UNL d   1       5.998  -3.235   0.726  0.00  0.00     0.019 C 
ENDBRANCH   1   7
TORSDOF 1
ENDMDL
