MODEL 1
REMARK minimizedAffinity -1.98558128
REMARK minimizedRMSD -1
REMARK  1 active torsions:
REMARK  status: ('A' for Active; 'I' for Inactive)
REMARK    1  A    between atoms: C1_2  and  C2_3 
ROOT
ATOM      1  C2  UNL d   1       5.953  -3.123  -1.076  0.00  0.00    -0.077 A 
ATOM      2  C3  UNL d   1       5.951  -1.990  -0.249  0.00  0.00     0.002 A 
ATOM      3  C4  UNL d   1       5.972  -2.130   1.140  0.00  0.00     0.002 A 
ATOM      4  C5  UNL d   1       5.998  -3.399   1.714  0.00  0.00    -0.004 A 
ATOM      5  C6  UNL d   1       5.997  -4.531   0.900  0.00  0.00     0.002 A 
ATOM      6  C7  UNL d   1       5.976  -4.394  -0.488  0.00  0.00     0.002 A 
ENDROOT
BRANCH   1   7
ATOM      7  C1  UNL d   1       5.980  -2.973  -2.574  0.00  0.00     0.055 C 
ATOM      8  C   UNL d   1       4.801  -3.684  -3.223  0.00  0.00     0.019 C 
ENDBRANCH   1   7
TORSDOF 1
ENDMDL
