MODEL 1
REMARK minimizedAffinity -3.24476743
REMARK minimizedRMSD -1
REMARK  1 active torsions:
REMARK  status: ('A' for Active; 'I' for Inactive)
REMARK    1  A    between atoms: C1_2  and  C2_3 
ROOT
ATOM      1  C2  UNL d   1       5.542  -4.394   3.667  0.00  0.00    -0.077 A 
ATOM      2  C3  UNL d   1       5.999  -3.069   3.660  0.00  0.00     0.002 A 
ATOM      3  C4  UNL d   1       5.881  -2.275   4.802  0.00  0.00     0.002 A 
ATOM      4  C5  UNL d   1       5.311  -2.799   5.961  0.00  0.00    -0.004 A 
ATOM      5  C6  UNL d   1       4.852  -4.115   5.977  0.00  0.00     0.002 A 
ATOM      6  C7  UNL d   1       4.968  -4.910   4.836  0.00  0.00     0.002 A 
ENDROOT
BRANCH   1   7
ATOM      7  C1  UNL d   1       5.713  -5.267   2.451  0.00  0.00     0.055 C 
ATOM      8  C   UNL d   1       6.000  -4.436   1.209  0.00  0.00     0.019 C 
ENDBRANCH   1   7
TORSDOF 1
ENDMDL
