MODEL 1
REMARK minimizedAffinity -2.00695062
REMARK minimizedRMSD -1
REMARK  1 active torsions:
REMARK  status: ('A' for Active; 'I' for Inactive)
REMARK    1  A    between atoms: C1_2  and  C2_3 
ROOT
ATOM      1  C2  UNL d   1      -0.953  -0.029   0.635  0.00  0.00    -0.081 A 
ATOM      2  C3  UNL d   1       0.111   0.881   0.671  0.00  0.00     0.006 A 
ATOM      3  C4  UNL d   1       0.955   1.027  -0.433  0.00  0.00     0.002 A 
ATOM      4  C5  UNL d   1       0.745   0.273  -1.592  0.00  0.00    -0.080 A 
ATOM      5  C6  UNL d   1       1.625   0.443  -2.795  0.00  0.00     0.076 C 
ATOM      6  C7  UNL d   1      -0.308  -0.648  -1.622  0.00  0.00     0.002 A 
ATOM      7  C8  UNL d   1      -1.151  -0.795  -0.518  0.00  0.00     0.006 A 
ENDROOT
BRANCH   1   8
ATOM      8  C1  UNL d   1      -1.903  -0.142   1.799  0.00  0.00     0.054 C 
ATOM      9  C   UNL d   1      -3.348  -0.223   1.328  0.00  0.00     0.018 C 
ENDBRANCH   1   8
TORSDOF 1
ENDMDL
