MODEL 1
REMARK minimizedAffinity -4.1787467
REMARK minimizedRMSD -1
REMARK  1 active torsions:
REMARK  status: ('A' for Active; 'I' for Inactive)
REMARK    1  A    between atoms: C1_2  and  C2_3 
ROOT
ATOM      1  C2  UNL d   1       0.840   0.448  -0.917  0.00  0.00    -0.081 A 
ATOM      2  C3  UNL d   1       0.260  -0.731  -0.436  0.00  0.00     0.006 A 
ATOM      3  C4  UNL d   1      -0.830  -0.679   0.437  0.00  0.00     0.002 A 
ATOM      4  C5  UNL d   1      -1.362   0.552   0.835  0.00  0.00    -0.080 A 
ATOM      5  C6  UNL d   1      -2.551   0.622   1.747  0.00  0.00     0.076 C 
ATOM      6  C7  UNL d   1      -0.771   1.731   0.368  0.00  0.00     0.002 A 
ATOM      7  C8  UNL d   1       0.319   1.679  -0.504  0.00  0.00     0.006 A 
ENDROOT
BRANCH   1   8
ATOM      8  C1  UNL d   1       1.974   0.395  -1.909  0.00  0.00     0.054 C 
ATOM      9  C   UNL d   1       1.502  -0.116  -3.263  0.00  0.00     0.018 C 
ENDBRANCH   1   8
TORSDOF 1
ENDMDL
