MODEL 1
REMARK minimizedAffinity -3.51429391
REMARK minimizedRMSD -1
REMARK  1 active torsions:
REMARK  status: ('A' for Active; 'I' for Inactive)
REMARK    1  A    between atoms: C1_2  and  C2_3 
ROOT
ATOM      1  C2  UNL d   1      -1.185   0.426   0.839  0.00  0.00    -0.081 A 
ATOM      2  C3  UNL d   1      -0.410   1.541   0.497  0.00  0.00     0.006 A 
ATOM      3  C4  UNL d   1       0.602   1.433  -0.461  0.00  0.00     0.002 A 
ATOM      4  C5  UNL d   1       0.849   0.212  -1.098  0.00  0.00    -0.080 A 
ATOM      5  C6  UNL d   1       1.911   0.090  -2.149  0.00  0.00     0.076 C 
ATOM      6  C7  UNL d   1       0.085  -0.905  -0.744  0.00  0.00     0.002 A 
ATOM      7  C8  UNL d   1      -0.925  -0.799   0.214  0.00  0.00     0.006 A 
ENDROOT
BRANCH   1   8
ATOM      8  C1  UNL d   1      -2.319   0.554   1.824  0.00  0.00     0.054 C 
ATOM      9  C   UNL d   1      -3.533  -0.249   1.378  0.00  0.00     0.018 C 
ENDBRANCH   1   8
TORSDOF 1
ENDMDL
