MODEL 1
REMARK minimizedAffinity -4.21812201
REMARK minimizedRMSD -1
REMARK  1 active torsions:
REMARK  status: ('A' for Active; 'I' for Inactive)
REMARK    1  A    between atoms: C1_2  and  C2_3 
ROOT
ATOM      1  C2  UNL d   1       0.973  -0.395  -1.529  0.00  0.00    -0.081 A 
ATOM      2  C3  UNL d   1       1.844   0.684  -1.724  0.00  0.00     0.006 A 
ATOM      3  C4  UNL d   1       2.001   1.656  -0.733  0.00  0.00     0.002 A 
ATOM      4  C5  UNL d   1       1.295   1.562   0.471  0.00  0.00    -0.080 A 
ATOM      5  C6  UNL d   1       1.477   2.582   1.555  0.00  0.00     0.076 C 
ATOM      6  C7  UNL d   1       0.412   0.493   0.659  0.00  0.00     0.002 A 
ATOM      7  C8  UNL d   1       0.255  -0.479  -0.331  0.00  0.00     0.006 A 
ENDROOT
BRANCH   1   8
ATOM      8  C1  UNL d   1       0.851  -1.480  -2.569  0.00  0.00     0.054 C 
ATOM      9  C   UNL d   1       0.996  -2.861  -1.947  0.00  0.00     0.018 C 
ENDBRANCH   1   8
TORSDOF 1
ENDMDL
