MODEL 1
REMARK minimizedAffinity -4.71262074
REMARK minimizedRMSD -1
REMARK  1 active torsions:
REMARK  status: ('A' for Active; 'I' for Inactive)
REMARK    1  A    between atoms: C1_2  and  C2_3 
ROOT
ATOM      1  C2  UNL d   1      -0.593  -0.011   0.759  0.00  0.00    -0.081 A 
ATOM      2  C3  UNL d   1      -0.652  -1.216   0.049  0.00  0.00     0.006 A 
ATOM      3  C4  UNL d   1       0.122  -1.400  -1.099  0.00  0.00     0.002 A 
ATOM      4  C5  UNL d   1       0.973  -0.386  -1.551  0.00  0.00    -0.080 A 
ATOM      5  C6  UNL d   1       1.832  -0.582  -2.765  0.00  0.00     0.076 C 
ATOM      6  C7  UNL d   1       1.019   0.825  -0.852  0.00  0.00     0.002 A 
ATOM      7  C8  UNL d   1       0.245   1.010   0.296  0.00  0.00     0.006 A 
ENDROOT
BRANCH   1   8
ATOM      8  C1  UNL d   1      -1.378   0.167   2.034  0.00  0.00     0.054 C 
ATOM      9  C   UNL d   1      -2.868  -0.029   1.798  0.00  0.00     0.018 C 
ENDBRANCH   1   8
TORSDOF 1
ENDMDL
