MODEL 1
REMARK minimizedAffinity -6.462358
REMARK minimizedRMSD -1
REMARK  1 active torsions:
REMARK  status: ('A' for Active; 'I' for Inactive)
REMARK    1  A    between atoms: C1_2  and  C2_3 
ROOT
ATOM      1  C2  UNL d   1      -0.397  -0.003   0.454  0.00  0.00    -0.081 A 
ATOM      2  C3  UNL d   1       0.187   1.178  -0.021  0.00  0.00     0.006 A 
ATOM      3  C4  UNL d   1       0.904   1.181  -1.220  0.00  0.00     0.002 A 
ATOM      4  C5  UNL d   1       1.042   0.006  -1.967  0.00  0.00    -0.080 A 
ATOM      5  C6  UNL d   1       1.784   0.003  -3.270  0.00  0.00     0.076 C 
ATOM      6  C7  UNL d   1       0.474  -1.177  -1.484  0.00  0.00     0.002 A 
ATOM      7  C8  UNL d   1      -0.243  -1.181  -0.285  0.00  0.00     0.006 A 
ENDROOT
BRANCH   1   8
ATOM      8  C1  UNL d   1      -1.226   0.005   1.713  0.00  0.00     0.054 C 
ATOM      9  C   UNL d   1      -2.692   0.279   1.409  0.00  0.00     0.018 C 
ENDBRANCH   1   8
TORSDOF 1
ENDMDL
