MODEL 1
REMARK minimizedAffinity -3.73359823
REMARK minimizedRMSD -1
REMARK  1 active torsions:
REMARK  status: ('A' for Active; 'I' for Inactive)
REMARK    1  A    between atoms: C1_2  and  C2_3 
ROOT
ATOM      1  C2  UNL d   1      -0.348  -0.003   0.297  0.00  0.00    -0.081 A 
ATOM      2  C3  UNL d   1       0.367   1.173   0.042  0.00  0.00     0.006 A 
ATOM      3  C4  UNL d   1       1.247   1.246  -1.041  0.00  0.00     0.002 A 
ATOM      4  C5  UNL d   1       1.419   0.148  -1.890  0.00  0.00    -0.080 A 
ATOM      5  C6  UNL d   1       2.337   0.223  -3.074  0.00  0.00     0.076 C 
ATOM      6  C7  UNL d   1       0.718  -1.033  -1.625  0.00  0.00     0.002 A 
ATOM      7  C8  UNL d   1      -0.161  -1.107  -0.542  0.00  0.00     0.006 A 
ENDROOT
BRANCH   1   8
ATOM      8  C1  UNL d   1      -1.346  -0.064   1.426  0.00  0.00     0.054 C 
ATOM      9  C   UNL d   1      -2.772   0.075   0.912  0.00  0.00     0.018 C 
ENDBRANCH   1   8
TORSDOF 1
ENDMDL
