MODEL 1
REMARK minimizedAffinity -4.05105305
REMARK minimizedRMSD -1
REMARK  1 active torsions:
REMARK  status: ('A' for Active; 'I' for Inactive)
REMARK    1  A    between atoms: C1_2  and  C2_3 
ROOT
ATOM      1  C2  UNL d   1      -1.063  -0.225   1.056  0.00  0.00    -0.081 A 
ATOM      2  C3  UNL d   1      -0.440  -1.340   0.482  0.00  0.00     0.006 A 
ATOM      3  C4  UNL d   1       0.511  -1.177  -0.528  0.00  0.00     0.002 A 
ATOM      4  C5  UNL d   1       0.862   0.101  -0.973  0.00  0.00    -0.080 A 
ATOM      5  C6  UNL d   1       1.905   0.291  -2.035  0.00  0.00     0.076 C 
ATOM      6  C7  UNL d   1       0.228   1.214  -0.412  0.00  0.00     0.002 A 
ATOM      7  C8  UNL d   1      -0.725   1.053   0.597  0.00  0.00     0.006 A 
ENDROOT
BRANCH   1   8
ATOM      8  C1  UNL d   1      -2.042  -0.393   2.190  0.00  0.00     0.054 C 
ATOM      9  C   UNL d   1      -3.476  -0.210   1.714  0.00  0.00     0.018 C 
ENDBRANCH   1   8
TORSDOF 1
ENDMDL
