MODEL 1
REMARK minimizedAffinity -4.01456881
REMARK minimizedRMSD -1
REMARK  1 active torsions:
REMARK  status: ('A' for Active; 'I' for Inactive)
REMARK    1  A    between atoms: C1_2  and  C2_3 
ROOT
ATOM      1  C2  UNL d   1      -0.213  -0.083   0.775  0.00  0.00    -0.081 A 
ATOM      2  C3  UNL d   1       0.459   1.058   0.320  0.00  0.00     0.006 A 
ATOM      3  C4  UNL d   1       1.078   1.064  -0.932  0.00  0.00     0.002 A 
ATOM      4  C5  UNL d   1       1.028  -0.067  -1.753  0.00  0.00    -0.080 A 
ATOM      5  C6  UNL d   1       1.662  -0.064  -3.113  0.00  0.00     0.076 C 
ATOM      6  C7  UNL d   1       0.372  -1.214  -1.292  0.00  0.00     0.002 A 
ATOM      7  C8  UNL d   1      -0.246  -1.220  -0.039  0.00  0.00     0.006 A 
ENDROOT
BRANCH   1   8
ATOM      8  C1  UNL d   1      -0.936  -0.071   2.098  0.00  0.00     0.054 C 
ATOM      9  C   UNL d   1      -2.411   0.256   1.919  0.00  0.00     0.018 C 
ENDBRANCH   1   8
TORSDOF 1
ENDMDL
