MODEL 1
REMARK minimizedAffinity 10.0789995
REMARK minimizedRMSD -1
REMARK  0 active torsions:
REMARK  status: ('A' for Active; 'I' for Inactive)
ROOT
ATOM      1  C1  DEN d   1      -3.205  -0.408  -1.057  0.00  0.00     0.130 A 
ATOM      2  C2  DEN d   1      -4.631  -0.306  -0.757  0.00  0.00    -0.031 A 
ATOM      3  C3  DEN d   1      -5.260   0.520  -1.806  0.00  0.00     0.027 A 
ATOM      4  C4  DEN d   1      -4.172   1.641  -3.859  0.00  0.00     0.027 A 
ATOM      5  C5  DEN d   1      -2.986   1.847  -4.528  0.00  0.00    -0.003 A 
ATOM      6  C6  DEN d   1      -1.795   1.349  -4.073  0.00  0.00     0.001 A 
ATOM      7  C7  DEN d   1      -1.769   0.580  -2.939  0.00  0.00     0.017 A 
ATOM      8  C8  DEN d   1      -2.960   0.374  -2.255  0.00  0.00    -0.094 A 
ATOM      9  C9  DEN d   1      -4.156   0.876  -2.738  0.00  0.00    -0.072 A 
ENDROOT
TORSDOF 0
ENDMDL
