MODEL 1
REMARK minimizedAffinity 0.300787479
REMARK minimizedRMSD -1
REMARK  0 active torsions:
REMARK  status: ('A' for Active; 'I' for Inactive)
ROOT
ATOM      1  C1  DEN d   1       2.886  -1.044   0.563  0.00  0.00     0.130 A 
ATOM      2  C2  DEN d   1       2.209  -2.192  -0.031  0.00  0.00    -0.031 A 
ATOM      3  C3  DEN d   1       1.014  -1.699  -0.746  0.00  0.00     0.027 A 
ATOM      4  C4  DEN d   1       0.155   0.721  -0.991  0.00  0.00     0.027 A 
ATOM      5  C5  DEN d   1       0.389   2.035  -0.651  0.00  0.00    -0.003 A 
ATOM      6  C6  DEN d   1       1.444   2.408   0.139  0.00  0.00     0.001 A 
ATOM      7  C7  DEN d   1       2.331   1.461   0.579  0.00  0.00     0.017 A 
ATOM      8  C8  DEN d   1       2.097   0.133   0.247  0.00  0.00    -0.094 A 
ATOM      9  C9  DEN d   1       1.033  -0.222  -0.564  0.00  0.00    -0.072 A 
ENDROOT
TORSDOF 0
ENDMDL
