MODEL 1
REMARK minimizedAffinity 7.79227304
REMARK minimizedRMSD -1
REMARK  0 active torsions:
REMARK  status: ('A' for Active; 'I' for Inactive)
ROOT
ATOM      1  C1  DEN d   1       1.770   1.434  -0.205  0.00  0.00     0.130 A 
ATOM      2  C2  DEN d   1       2.150   2.354   0.864  0.00  0.00    -0.031 A 
ATOM      3  C3  DEN d   1       2.909   1.591   1.874  0.00  0.00     0.027 A 
ATOM      4  C4  DEN d   1       3.534  -0.912   1.886  0.00  0.00     0.027 A 
ATOM      5  C5  DEN d   1       3.422  -2.100   1.198  0.00  0.00    -0.003 A 
ATOM      6  C6  DEN d   1       2.728  -2.199   0.021  0.00  0.00     0.001 A 
ATOM      7  C7  DEN d   1       2.157  -1.081  -0.527  0.00  0.00     0.017 A 
ATOM      8  C8  DEN d   1       2.260   0.119   0.164  0.00  0.00    -0.094 A 
ATOM      9  C9  DEN d   1       2.975   0.201   1.346  0.00  0.00    -0.072 A 
ENDROOT
TORSDOF 0
ENDMDL
