MODEL 1
REMARK minimizedAffinity 8.176157
REMARK minimizedRMSD -1
REMARK  0 active torsions:
REMARK  status: ('A' for Active; 'I' for Inactive)
ROOT
ATOM      1  C1  DEN d   1       3.234  -1.515   0.016  0.00  0.00     0.130 A 
ATOM      2  C2  DEN d   1       2.253  -2.590  -0.108  0.00  0.00    -0.031 A 
ATOM      3  C3  DEN d   1       0.909  -1.981  -0.137  0.00  0.00     0.027 A 
ATOM      4  C4  DEN d   1       0.253   0.510  -0.009  0.00  0.00     0.027 A 
ATOM      5  C5  DEN d   1       0.738   1.794   0.114  0.00  0.00    -0.003 A 
ATOM      6  C6  DEN d   1       2.076   2.060   0.245  0.00  0.00     0.001 A 
ATOM      7  C7  DEN d   1       2.979   1.030   0.212  0.00  0.00     0.017 A 
ATOM      8  C8  DEN d   1       2.497  -0.267   0.096  0.00  0.00    -0.094 A 
ATOM      9  C9  DEN d   1       1.142  -0.514  -0.048  0.00  0.00    -0.072 A 
ENDROOT
TORSDOF 0
ENDMDL
