MODEL 1
REMARK minimizedAffinity 15.4030647
REMARK minimizedRMSD -1
REMARK  0 active torsions:
REMARK  status: ('A' for Active; 'I' for Inactive)
ROOT
ATOM      1  C1  DEN d   1       1.487   1.082  -0.278  0.00  0.00     0.130 A 
ATOM      2  C2  DEN d   1       1.482   1.994   0.863  0.00  0.00    -0.031 A 
ATOM      3  C3  DEN d   1       2.004   1.263   2.034  0.00  0.00     0.027 A 
ATOM      4  C4  DEN d   1       2.821  -1.178   2.192  0.00  0.00     0.027 A 
ATOM      5  C5  DEN d   1       3.005  -2.348   1.488  0.00  0.00    -0.003 A 
ATOM      6  C6  DEN d   1       2.667  -2.466   0.166  0.00  0.00     0.001 A 
ATOM      7  C7  DEN d   1       2.169  -1.381  -0.506  0.00  0.00     0.017 A 
ATOM      8  C8  DEN d   1       1.974  -0.200   0.198  0.00  0.00    -0.094 A 
ATOM      9  C9  DEN d   1       2.333  -0.098   1.531  0.00  0.00    -0.072 A 
ENDROOT
TORSDOF 0
ENDMDL
