MODEL 1
REMARK minimizedAffinity 4.77574205
REMARK minimizedRMSD -1
REMARK  0 active torsions:
REMARK  status: ('A' for Active; 'I' for Inactive)
ROOT
ATOM      1  C1  DEN d   1       2.068  -0.417  -0.204  0.00  0.00     0.130 A 
ATOM      2  C2  DEN d   1       3.289  -1.112  -0.604  0.00  0.00    -0.031 A 
ATOM      3  C3  DEN d   1       3.042  -1.754  -1.911  0.00  0.00     0.027 A 
ATOM      4  C4  DEN d   1       0.902  -1.734  -3.349  0.00  0.00     0.027 A 
ATOM      5  C5  DEN d   1      -0.399  -1.287  -3.420  0.00  0.00    -0.003 A 
ATOM      6  C6  DEN d   1      -0.975  -0.553  -2.417  0.00  0.00     0.001 A 
ATOM      7  C7  DEN d   1      -0.233  -0.206  -1.319  0.00  0.00     0.017 A 
ATOM      8  C8  DEN d   1       1.077  -0.660  -1.237  0.00  0.00    -0.094 A 
ATOM      9  C9  DEN d   1       1.644  -1.390  -2.267  0.00  0.00    -0.072 A 
ENDROOT
TORSDOF 0
ENDMDL
