MODEL 1
REMARK minimizedAffinity -0.020692572
REMARK minimizedRMSD -1
REMARK  0 active torsions:
REMARK  status: ('A' for Active; 'I' for Inactive)
ROOT
ATOM      1  C1  DEN d   1       2.865  -2.082  -1.468  0.00  0.00     0.130 A 
ATOM      2  C2  DEN d   1       1.808  -2.117  -0.460  0.00  0.00    -0.031 A 
ATOM      3  C3  DEN d   1       1.615  -0.744   0.047  0.00  0.00     0.027 A 
ATOM      4  C4  DEN d   1       2.838   1.423  -0.630  0.00  0.00     0.027 A 
ATOM      5  C5  DEN d   1       3.821   1.952  -1.437  0.00  0.00    -0.003 A 
ATOM      6  C6  DEN d   1       4.572   1.175  -2.279  0.00  0.00     0.001 A 
ATOM      7  C7  DEN d   1       4.320  -0.169  -2.366  0.00  0.00     0.017 A 
ATOM      8  C8  DEN d   1       3.335  -0.711  -1.551  0.00  0.00    -0.094 A 
ATOM      9  C9  DEN d   1       2.579   0.094  -0.715  0.00  0.00    -0.072 A 
ENDROOT
TORSDOF 0
ENDMDL
