MODEL 1
REMARK minimizedAffinity -6.01837492
REMARK minimizedRMSD -1
REMARK  1 active torsions:
REMARK  status: ('A' for Active; 'I' for Inactive)
REMARK    1  A    between atoms: C1_2  and  C2_3 
ROOT
ATOM      1  C2  UNL d   1       0.505  -0.703   1.765  0.00  0.00    -0.073 A 
ATOM      2  C3  UNL d   1       1.051  -0.347   0.526  0.00  0.00    -0.002 A 
ATOM      3  C4  UNL d   1       0.219  -0.109  -0.568  0.00  0.00     0.004 A 
ATOM      4  C5  UNL d   1      -1.165  -0.217  -0.434  0.00  0.00    -0.004 A 
ATOM      5  C6  UNL d   1      -1.730  -0.559   0.798  0.00  0.00    -0.075 A 
ATOM      6  C7  UNL d   1      -3.217  -0.681   0.958  0.00  0.00     0.076 C 
ATOM      7  C8  UNL d   1      -0.888  -0.799   1.892  0.00  0.00     0.001 A 
ENDROOT
BRANCH   1   8
ATOM      8  C1  UNL d   1       1.400  -0.955   2.951  0.00  0.00     0.053 C 
ATOM      9  C   UNL d   1       2.588  -1.833   2.593  0.00  0.00     0.018 C 
ENDBRANCH   1   8
TORSDOF 1
ENDMDL
