MODEL 1
REMARK minimizedAffinity -5.86409616
REMARK minimizedRMSD -1
REMARK  1 active torsions:
REMARK  status: ('A' for Active; 'I' for Inactive)
REMARK    1  A    between atoms: C1_2  and  C2_3 
ROOT
ATOM      1  C2  UNL d   1       0.534  -0.369  -0.559  0.00  0.00    -0.073 A 
ATOM      2  C3  UNL d   1       1.577  -1.087  -1.156  0.00  0.00    -0.002 A 
ATOM      3  C4  UNL d   1       2.608  -1.611  -0.376  0.00  0.00     0.004 A 
ATOM      4  C5  UNL d   1       2.604  -1.430   1.007  0.00  0.00    -0.004 A 
ATOM      5  C6  UNL d   1       1.565  -0.727   1.624  0.00  0.00    -0.075 A 
ATOM      6  C7  UNL d   1       1.547  -0.521   3.110  0.00  0.00     0.076 C 
ATOM      7  C8  UNL d   1       0.534  -0.200   0.833  0.00  0.00     0.001 A 
ENDROOT
BRANCH   1   8
ATOM      8  C1  UNL d   1      -0.585   0.193  -1.396  0.00  0.00     0.053 C 
ATOM      9  C   UNL d   1      -0.257   1.578  -1.930  0.00  0.00     0.018 C 
ENDBRANCH   1   8
TORSDOF 1
ENDMDL
