MODEL 1
REMARK minimizedAffinity -5.95098495
REMARK minimizedRMSD -1
REMARK  1 active torsions:
REMARK  status: ('A' for Active; 'I' for Inactive)
REMARK    1  A    between atoms: C1_2  and  C2_3 
ROOT
ATOM      1  C2  UNL d   1       0.005  -0.067   0.338  0.00  0.00    -0.073 A 
ATOM      2  C3  UNL d   1      -0.499  -0.033   1.643  0.00  0.00    -0.002 A 
ATOM      3  C4  UNL d   1       0.182  -0.675   2.678  0.00  0.00     0.004 A 
ATOM      4  C5  UNL d   1       1.375  -1.351   2.421  0.00  0.00    -0.004 A 
ATOM      5  C6  UNL d   1       1.900  -1.387   1.125  0.00  0.00    -0.075 A 
ATOM      6  C7  UNL d   1       3.180  -2.112   0.831  0.00  0.00     0.076 C 
ATOM      7  C8  UNL d   1       1.209  -0.742   0.090  0.00  0.00     0.001 A 
ENDROOT
BRANCH   1   8
ATOM      8  C1  UNL d   1      -0.723   0.631  -0.782  0.00  0.00     0.053 C 
ATOM      9  C   UNL d   1      -0.358   0.059  -2.143  0.00  0.00     0.018 C 
ENDBRANCH   1   8
TORSDOF 1
ENDMDL
