MODEL 1
REMARK minimizedAffinity -5.98800516
REMARK minimizedRMSD -1
REMARK  1 active torsions:
REMARK  status: ('A' for Active; 'I' for Inactive)
REMARK    1  A    between atoms: C1_2  and  C2_3 
ROOT
ATOM      1  C2  UNL d   1      -0.192  -0.119   0.245  0.00  0.00    -0.073 A 
ATOM      2  C3  UNL d   1      -0.718   0.171   1.509  0.00  0.00    -0.002 A 
ATOM      3  C4  UNL d   1      -0.063  -0.266   2.661  0.00  0.00     0.004 A 
ATOM      4  C5  UNL d   1       1.125  -0.989   2.563  0.00  0.00    -0.004 A 
ATOM      5  C6  UNL d   1       1.672  -1.279   1.309  0.00  0.00    -0.075 A 
ATOM      6  C7  UNL d   1       2.949  -2.058   1.185  0.00  0.00     0.076 C 
ATOM      7  C8  UNL d   1       1.008  -0.839   0.156  0.00  0.00     0.001 A 
ENDROOT
BRANCH   1   8
ATOM      8  C1  UNL d   1      -0.892   0.356  -1.003  0.00  0.00     0.053 C 
ATOM      9  C   UNL d   1      -0.217   1.579  -1.604  0.00  0.00     0.018 C 
ENDBRANCH   1   8
TORSDOF 1
ENDMDL
