MODEL 1
REMARK minimizedAffinity -5.74695587
REMARK minimizedRMSD -1
REMARK  1 active torsions:
REMARK  status: ('A' for Active; 'I' for Inactive)
REMARK    1  A    between atoms: C1_2  and  C2_3 
ROOT
ATOM      1  C2  UNL d   1      -0.400   0.307   0.162  0.00  0.00    -0.073 A 
ATOM      2  C3  UNL d   1      -1.166   0.460   1.323  0.00  0.00    -0.002 A 
ATOM      3  C4  UNL d   1      -0.731  -0.087   2.531  0.00  0.00     0.004 A 
ATOM      4  C5  UNL d   1       0.475  -0.785   2.592  0.00  0.00    -0.004 A 
ATOM      5  C6  UNL d   1       1.260  -0.938   1.445  0.00  0.00    -0.075 A 
ATOM      6  C7  UNL d   1       2.559  -1.688   1.494  0.00  0.00     0.076 C 
ATOM      7  C8  UNL d   1       0.816  -0.389   0.235  0.00  0.00     0.001 A 
ENDROOT
BRANCH   1   8
ATOM      8  C1  UNL d   1      -0.862   0.901  -1.144  0.00  0.00     0.053 C 
ATOM      9  C   UNL d   1      -0.077   2.151  -1.510  0.00  0.00     0.018 C 
ENDBRANCH   1   8
TORSDOF 1
ENDMDL
