MODEL 1
REMARK minimizedAffinity 9.36036777
REMARK minimizedRMSD -1
REMARK  1 active torsions:
REMARK  status: ('A' for Active; 'I' for Inactive)
REMARK    1  A    between atoms: C1_2  and  C2_3 
ROOT
ATOM      1  C2  UNL d   1       3.405  -0.589  -0.367  0.00  0.00    -0.073 A 
ATOM      2  C3  UNL d   1       4.296   0.425   0.002  0.00  0.00    -0.002 A 
ATOM      3  C4  UNL d   1       5.184   0.958  -0.933  0.00  0.00     0.004 A 
ATOM      4  C5  UNL d   1       5.185   0.489  -2.247  0.00  0.00    -0.004 A 
ATOM      5  C6  UNL d   1       4.293  -0.515  -2.638  0.00  0.00    -0.075 A 
ATOM      6  C7  UNL d   1       4.283  -1.032  -4.047  0.00  0.00     0.076 C 
ATOM      7  C8  UNL d   1       3.407  -1.047  -1.692  0.00  0.00     0.001 A 
ENDROOT
BRANCH   1   8
ATOM      8  C1  UNL d   1       2.440  -1.163   0.638  0.00  0.00     0.053 C 
ATOM      9  C   UNL d   1       2.732  -2.625   0.939  0.00  0.00     0.018 C 
ENDBRANCH   1   8
TORSDOF 1
ENDMDL
