MODEL 1
REMARK minimizedAffinity 9.17469692
REMARK minimizedRMSD -1
REMARK  1 active torsions:
REMARK  status: ('A' for Active; 'I' for Inactive)
REMARK    1  A    between atoms: C1_2  and  C2_3 
ROOT
ATOM      1  C2  UNL d   1       4.909   1.272  -0.899  0.00  0.00    -0.073 A 
ATOM      2  C3  UNL d   1       5.113   1.156   0.481  0.00  0.00    -0.002 A 
ATOM      3  C4  UNL d   1       4.406   0.207   1.221  0.00  0.00     0.004 A 
ATOM      4  C5  UNL d   1       3.493  -0.637   0.589  0.00  0.00    -0.004 A 
ATOM      5  C6  UNL d   1       3.284  -0.545  -0.790  0.00  0.00    -0.075 A 
ATOM      6  C7  UNL d   1       2.304  -1.445  -1.484  0.00  0.00     0.076 C 
ATOM      7  C8  UNL d   1       3.996   0.412  -1.526  0.00  0.00     0.001 A 
ENDROOT
BRANCH   1   8
ATOM      8  C1  UNL d   1       5.676   2.290  -1.703  0.00  0.00     0.053 C 
ATOM      9  C   UNL d   1       5.152   3.701  -1.485  0.00  0.00     0.018 C 
ENDBRANCH   1   8
TORSDOF 1
ENDMDL
