MODEL 1
REMARK minimizedAffinity 12.0820122
REMARK minimizedRMSD -1
REMARK  1 active torsions:
REMARK  status: ('A' for Active; 'I' for Inactive)
REMARK    1  A    between atoms: C1_2  and  C2_3 
ROOT
ATOM      1  C2  UNL d   1       0.821  -2.866   4.187  0.00  0.00    -0.073 A 
ATOM      2  C3  UNL d   1       2.130  -2.783   4.674  0.00  0.00    -0.002 A 
ATOM      3  C4  UNL d   1       2.607  -3.733   5.579  0.00  0.00     0.004 A 
ATOM      4  C5  UNL d   1       1.784  -4.777   6.000  0.00  0.00    -0.004 A 
ATOM      5  C6  UNL d   1       0.476  -4.883   5.516  0.00  0.00    -0.075 A 
ATOM      6  C7  UNL d   1      -0.423  -5.999   5.961  0.00  0.00     0.076 C 
ATOM      7  C8  UNL d   1       0.003  -3.924   4.610  0.00  0.00     0.001 A 
ENDROOT
BRANCH   1   8
ATOM      8  C1  UNL d   1       0.303  -1.847   3.206  0.00  0.00     0.053 C 
ATOM      9  C   UNL d   1       0.366  -0.434   3.764  0.00  0.00     0.018 C 
ENDBRANCH   1   8
TORSDOF 1
ENDMDL
