MODEL 1
REMARK minimizedAffinity 13.1317263
REMARK minimizedRMSD -1
REMARK  1 active torsions:
REMARK  status: ('A' for Active; 'I' for Inactive)
REMARK    1  A    between atoms: C1_2  and  C2_3 
ROOT
ATOM      1  C2  UNL d   1       2.120   0.100   0.063  0.00  0.00    -0.073 A 
ATOM      2  C3  UNL d   1       2.064  -0.785  -1.020  0.00  0.00    -0.002 A 
ATOM      3  C4  UNL d   1       3.238  -1.209  -1.645  0.00  0.00     0.004 A 
ATOM      4  C5  UNL d   1       4.477  -0.760  -1.190  0.00  0.00    -0.004 A 
ATOM      5  C6  UNL d   1       4.554   0.115  -0.101  0.00  0.00    -0.075 A 
ATOM      6  C7  UNL d   1       5.880   0.609   0.399  0.00  0.00     0.076 C 
ATOM      7  C8  UNL d   1       3.371   0.539   0.519  0.00  0.00     0.001 A 
ENDROOT
BRANCH   1   8
ATOM      8  C1  UNL d   1       0.856   0.556   0.745  0.00  0.00     0.053 C 
ATOM      9  C   UNL d   1       1.007   0.596   2.257  0.00  0.00     0.018 C 
ENDBRANCH   1   8
TORSDOF 1
ENDMDL
