MODEL 1
REMARK minimizedAffinity 12.7321978
REMARK minimizedRMSD -1
REMARK  1 active torsions:
REMARK  status: ('A' for Active; 'I' for Inactive)
REMARK    1  A    between atoms: C1_2  and  C2_3 
ROOT
ATOM      1  C2  UNL d   1      -5.818   3.163   4.569  0.00  0.00    -0.073 A 
ATOM      2  C3  UNL d   1      -5.901   3.885   5.765  0.00  0.00    -0.002 A 
ATOM      3  C4  UNL d   1      -5.974   5.279   5.743  0.00  0.00     0.004 A 
ATOM      4  C5  UNL d   1      -5.971   5.963   4.527  0.00  0.00    -0.004 A 
ATOM      5  C6  UNL d   1      -5.900   5.258   3.321  0.00  0.00    -0.075 A 
ATOM      6  C7  UNL d   1      -5.894   5.979   2.005  0.00  0.00     0.076 C 
ATOM      7  C8  UNL d   1      -5.825   3.859   3.351  0.00  0.00     0.001 A 
ENDROOT
BRANCH   1   8
ATOM      8  C1  UNL d   1      -5.746   1.658   4.587  0.00  0.00     0.053 C 
ATOM      9  C   UNL d   1      -5.999   1.092   5.975  0.00  0.00     0.018 C 
ENDBRANCH   1   8
TORSDOF 1
ENDMDL
