MODEL 1
REMARK minimizedAffinity 11.8688288
REMARK minimizedRMSD -1
REMARK  1 active torsions:
REMARK  status: ('A' for Active; 'I' for Inactive)
REMARK    1  A    between atoms: C1_2  and  C2_3 
ROOT
ATOM      1  C2  UNL d   1       1.872  -2.744  -1.228  0.00  0.00    -0.073 A 
ATOM      2  C3  UNL d   1       1.982  -3.369   0.019  0.00  0.00    -0.002 A 
ATOM      3  C4  UNL d   1       2.605  -2.714   1.083  0.00  0.00     0.004 A 
ATOM      4  C5  UNL d   1       3.117  -1.428   0.912  0.00  0.00    -0.004 A 
ATOM      5  C6  UNL d   1       3.006  -0.782  -0.323  0.00  0.00    -0.075 A 
ATOM      6  C7  UNL d   1       3.553   0.600  -0.524  0.00  0.00     0.076 C 
ATOM      7  C8  UNL d   1       2.381  -1.447  -1.387  0.00  0.00     0.001 A 
ENDROOT
BRANCH   1   8
ATOM      8  C1  UNL d   1       1.194  -3.444  -2.377  0.00  0.00     0.053 C 
ATOM      9  C   UNL d   1       0.076  -4.361  -1.907  0.00  0.00     0.018 C 
ENDBRANCH   1   8
TORSDOF 1
ENDMDL
