MODEL 1
REMARK minimizedAffinity 4.04462814
REMARK minimizedRMSD -1
REMARK  1 active torsions:
REMARK  status: ('A' for Active; 'I' for Inactive)
REMARK    1  A    between atoms: C1_2  and  C2_3 
ROOT
ATOM      1  C2  UNL d   1       5.477   3.407  -0.081  0.00  0.00    -0.073 A 
ATOM      2  C3  UNL d   1       5.996   3.082   1.177  0.00  0.00    -0.002 A 
ATOM      3  C4  UNL d   1       5.680   1.862   1.777  0.00  0.00     0.004 A 
ATOM      4  C5  UNL d   1       4.847   0.954   1.124  0.00  0.00    -0.004 A 
ATOM      5  C6  UNL d   1       4.328   1.255  -0.139  0.00  0.00    -0.075 A 
ATOM      6  C7  UNL d   1       3.429   0.289  -0.854  0.00  0.00     0.076 C 
ATOM      7  C8  UNL d   1       4.648   2.483  -0.734  0.00  0.00     0.001 A 
ENDROOT
BRANCH   1   8
ATOM      8  C1  UNL d   1       5.821   4.719  -0.736  0.00  0.00     0.053 C 
ATOM      9  C   UNL d   1       5.499   5.905   0.160  0.00  0.00     0.018 C 
ENDBRANCH   1   8
TORSDOF 1
ENDMDL
