MODEL 1
REMARK minimizedAffinity 5.89751434
REMARK minimizedRMSD -1
REMARK  1 active torsions:
REMARK  status: ('A' for Active; 'I' for Inactive)
REMARK    1  A    between atoms: C1_2  and  C2_3 
ROOT
ATOM      1  C2  UNL d   1       2.006  -2.571  -1.291  0.00  0.00    -0.073 A 
ATOM      2  C3  UNL d   1       1.747  -3.102  -0.022  0.00  0.00    -0.002 A 
ATOM      3  C4  UNL d   1       2.226  -2.462   1.121  0.00  0.00     0.004 A 
ATOM      4  C5  UNL d   1       2.960  -1.281   1.009  0.00  0.00    -0.004 A 
ATOM      5  C6  UNL d   1       3.218  -0.727  -0.249  0.00  0.00    -0.075 A 
ATOM      6  C7  UNL d   1       4.008   0.541  -0.387  0.00  0.00     0.076 C 
ATOM      7  C8  UNL d   1       2.737  -1.378  -1.393  0.00  0.00     0.001 A 
ENDROOT
BRANCH   1   8
ATOM      8  C1  UNL d   1       1.485  -3.255  -2.528  0.00  0.00     0.053 C 
ATOM      9  C   UNL d   1       0.685  -4.504  -2.195  0.00  0.00     0.018 C 
ENDBRANCH   1   8
TORSDOF 1
ENDMDL
