MODEL 1
REMARK minimizedAffinity 14.4567728
REMARK minimizedRMSD -1
REMARK  1 active torsions:
REMARK  status: ('A' for Active; 'I' for Inactive)
REMARK    1  A    between atoms: C1_2  and  C2_3 
ROOT
ATOM      1  C2  UNL d   1      -4.114   0.710   1.159  0.00  0.00    -0.073 A 
ATOM      2  C3  UNL d   1      -2.792   1.167   1.204  0.00  0.00    -0.002 A 
ATOM      3  C4  UNL d   1      -2.475   2.342   1.887  0.00  0.00     0.004 A 
ATOM      4  C5  UNL d   1      -3.474   3.068   2.535  0.00  0.00    -0.004 A 
ATOM      5  C6  UNL d   1      -4.799   2.622   2.511  0.00  0.00    -0.075 A 
ATOM      6  C7  UNL d   1      -5.886   3.393   3.202  0.00  0.00     0.076 C 
ATOM      7  C8  UNL d   1      -5.110   1.442   1.821  0.00  0.00     0.001 A 
ENDROOT
BRANCH   1   8
ATOM      8  C1  UNL d   1      -4.459  -0.562   0.429  0.00  0.00     0.053 C 
ATOM      9  C   UNL d   1      -5.773  -0.445  -0.329  0.00  0.00     0.018 C 
ENDBRANCH   1   8
TORSDOF 1
ENDMDL
