MODEL 1
REMARK minimizedAffinity -2.20631313
REMARK minimizedRMSD -1
REMARK  0 active torsions:
REMARK  status: ('A' for Active; 'I' for Inactive)
ROOT
ATOM      1  C   UNL d   1      -0.751   2.509  -0.550  0.00  0.00     0.020 A 
ATOM      2  C1  UNL d   1       0.577   2.624  -0.957  0.00  0.00     0.020 A 
ATOM      3  C2  UNL d   1       1.479   1.590  -0.697  0.00  0.00     0.034 A 
ATOM      4  C3  UNL d   1       1.054   0.437  -0.028  0.00  0.00     0.017 A 
ATOM      5  C4  UNL d   1      -0.280   0.322   0.380  0.00  0.00     0.017 A 
ATOM      6  C5  UNL d   1      -1.179   1.361   0.117  0.00  0.00     0.034 A 
ATOM      7 Cl   UNL d   1      -0.879  -1.070   1.210  0.00  0.00    -0.070 Cl
ATOM      8 Cl1  UNL d   1       2.223  -0.802   0.260  0.00  0.00    -0.070 Cl
ENDROOT
TORSDOF 0
ENDMDL
