MODEL 1
REMARK minimizedAffinity -4.60684109
REMARK minimizedRMSD -1
REMARK  0 active torsions:
REMARK  status: ('A' for Active; 'I' for Inactive)
ROOT
ATOM      1  C   UNL d   1       0.849   2.788  -0.545  0.00  0.00     0.020 A 
ATOM      2  C1  UNL d   1      -0.304   3.284   0.060  0.00  0.00     0.020 A 
ATOM      3  C2  UNL d   1      -1.194   2.411   0.690  0.00  0.00     0.034 A 
ATOM      4  C3  UNL d   1      -0.931   1.037   0.716  0.00  0.00     0.017 A 
ATOM      5  C4  UNL d   1       0.228   0.539   0.109  0.00  0.00     0.017 A 
ATOM      6  C5  UNL d   1       1.115   1.418  -0.520  0.00  0.00     0.034 A 
ATOM      7 Cl   UNL d   1       0.620  -1.144   0.101  0.00  0.00    -0.070 Cl
ATOM      8 Cl1  UNL d   1      -2.074   0.015   1.513  0.00  0.00    -0.070 Cl
ENDROOT
TORSDOF 0
ENDMDL
