MODEL 1
REMARK minimizedAffinity -2.96177006
REMARK minimizedRMSD -1
REMARK  0 active torsions:
REMARK  status: ('A' for Active; 'I' for Inactive)
ROOT
ATOM      1  C   UNL d   1       0.635   2.068  -1.062  0.00  0.00     0.020 A 
ATOM      2  C1  UNL d   1      -0.262   2.858  -0.344  0.00  0.00     0.020 A 
ATOM      3  C2  UNL d   1      -1.150   2.264   0.556  0.00  0.00     0.034 A 
ATOM      4  C3  UNL d   1      -1.142   0.876   0.740  0.00  0.00     0.017 A 
ATOM      5  C4  UNL d   1      -0.241   0.085   0.019  0.00  0.00     0.017 A 
ATOM      6  C5  UNL d   1       0.646   0.685  -0.881  0.00  0.00     0.034 A 
ATOM      7 Cl   UNL d   1      -0.172  -1.634   0.193  0.00  0.00    -0.070 Cl
ATOM      8 Cl1  UNL d   1      -2.267   0.210   1.870  0.00  0.00    -0.070 Cl
ENDROOT
TORSDOF 0
ENDMDL
