MODEL 1
REMARK minimizedAffinity -3.99324584
REMARK minimizedRMSD -1
REMARK  0 active torsions:
REMARK  status: ('A' for Active; 'I' for Inactive)
ROOT
ATOM      1  C   UNL d   1       0.815  -1.288   0.878  0.00  0.00     0.020 A 
ATOM      2  C1  UNL d   1       1.908  -0.497   0.528  0.00  0.00     0.020 A 
ATOM      3  C2  UNL d   1       1.710   0.813   0.088  0.00  0.00     0.034 A 
ATOM      4  C3  UNL d   1       0.415   1.337  -0.002  0.00  0.00     0.017 A 
ATOM      5  C4  UNL d   1      -0.682   0.542   0.349  0.00  0.00     0.017 A 
ATOM      6  C5  UNL d   1      -0.478  -0.770   0.789  0.00  0.00     0.034 A 
ATOM      7 Cl   UNL d   1      -2.309   1.118   0.264  0.00  0.00    -0.070 Cl
ATOM      8 Cl1  UNL d   1       0.243   2.965  -0.553  0.00  0.00    -0.070 Cl
ENDROOT
TORSDOF 0
ENDMDL
