MODEL 1
REMARK minimizedAffinity -1.14825785
REMARK minimizedRMSD -1
REMARK  0 active torsions:
REMARK  status: ('A' for Active; 'I' for Inactive)
ROOT
ATOM      1  C   UNL d   1       0.107  -0.831   0.514  0.00  0.00     0.020 A 
ATOM      2  C1  UNL d   1       1.187  -0.191  -0.093  0.00  0.00     0.020 A 
ATOM      3  C2  UNL d   1       1.168   1.194  -0.271  0.00  0.00     0.034 A 
ATOM      4  C3  UNL d   1       0.067   1.943   0.157  0.00  0.00     0.017 A 
ATOM      5  C4  UNL d   1      -1.017   1.300   0.766  0.00  0.00     0.017 A 
ATOM      6  C5  UNL d   1      -0.993  -0.087   0.943  0.00  0.00     0.034 A 
ATOM      7 Cl   UNL d   1      -2.411   2.158   1.321  0.00  0.00    -0.070 Cl
ATOM      8 Cl1  UNL d   1       0.111   3.652  -0.095  0.00  0.00    -0.070 Cl
ENDROOT
TORSDOF 0
ENDMDL
