MODEL 1
REMARK minimizedAffinity -3.58680129
REMARK minimizedRMSD -1
REMARK  0 active torsions:
REMARK  status: ('A' for Active; 'I' for Inactive)
ROOT
ATOM      1  C   UNL d   1       1.262   2.819  -0.583  0.00  0.00     0.020 A 
ATOM      2  C1  UNL d   1       1.257   1.462  -0.904  0.00  0.00     0.020 A 
ATOM      3  C2  UNL d   1       0.495   0.569  -0.148  0.00  0.00     0.034 A 
ATOM      4  C3  UNL d   1      -0.265   1.031   0.933  0.00  0.00     0.017 A 
ATOM      5  C4  UNL d   1      -0.259   2.393   1.255  0.00  0.00     0.017 A 
ATOM      6  C5  UNL d   1       0.506   3.283   0.494  0.00  0.00     0.034 A 
ATOM      7 Cl   UNL d   1      -1.170   3.038   2.574  0.00  0.00    -0.070 Cl
ATOM      8 Cl1  UNL d   1      -1.184  -0.130   1.824  0.00  0.00    -0.070 Cl
ENDROOT
TORSDOF 0
ENDMDL
