MODEL 1
REMARK minimizedAffinity -4.54082108
REMARK minimizedRMSD -1
REMARK  0 active torsions:
REMARK  status: ('A' for Active; 'I' for Inactive)
ROOT
ATOM      1  C   UNL d   1      -1.162   0.268   0.759  0.00  0.00     0.020 A 
ATOM      2  C1  UNL d   1      -0.109  -0.644   0.819  0.00  0.00     0.020 A 
ATOM      3  C2  UNL d   1       1.183  -0.241   0.478  0.00  0.00     0.034 A 
ATOM      4  C3  UNL d   1       1.426   1.077   0.074  0.00  0.00     0.017 A 
ATOM      5  C4  UNL d   1       0.368   1.991   0.013  0.00  0.00     0.017 A 
ATOM      6  C5  UNL d   1      -0.924   1.582   0.357  0.00  0.00     0.034 A 
ATOM      7 Cl   UNL d   1       0.590   3.634  -0.475  0.00  0.00    -0.070 Cl
ATOM      8 Cl1  UNL d   1       3.049   1.507  -0.334  0.00  0.00    -0.070 Cl
ENDROOT
TORSDOF 0
ENDMDL
