MODEL 1
REMARK minimizedAffinity -2.92750883
REMARK minimizedRMSD -1
REMARK  0 active torsions:
REMARK  status: ('A' for Active; 'I' for Inactive)
ROOT
ATOM      1  C   UNL d   1      -1.633   1.115   0.113  0.00  0.00     0.020 A 
ATOM      2  C1  UNL d   1      -1.124   2.412   0.163  0.00  0.00     0.020 A 
ATOM      3  C2  UNL d   1       0.210   2.625   0.514  0.00  0.00     0.034 A 
ATOM      4  C3  UNL d   1       1.040   1.540   0.818  0.00  0.00     0.017 A 
ATOM      5  C4  UNL d   1       0.529   0.238   0.767  0.00  0.00     0.017 A 
ATOM      6  C5  UNL d   1      -0.808   0.030   0.415  0.00  0.00     0.034 A 
ATOM      7 Cl   UNL d   1       1.492  -1.151   1.128  0.00  0.00    -0.070 Cl
ATOM      8 Cl1  UNL d   1       2.680   1.878   1.244  0.00  0.00    -0.070 Cl
ENDROOT
TORSDOF 0
ENDMDL
