MODEL 1
REMARK minimizedAffinity -1.17214692
REMARK minimizedRMSD -1
REMARK  0 active torsions:
REMARK  status: ('A' for Active; 'I' for Inactive)
ROOT
ATOM      1  C   UNL d   1      -1.552   1.375   0.484  0.00  0.00     0.020 A 
ATOM      2  C1  UNL d   1      -1.180   0.106   0.040  0.00  0.00     0.020 A 
ATOM      3  C2  UNL d   1       0.152  -0.303   0.131  0.00  0.00     0.034 A 
ATOM      4  C3  UNL d   1       1.118   0.557   0.666  0.00  0.00     0.017 A 
ATOM      5  C4  UNL d   1       0.744   1.830   1.112  0.00  0.00     0.017 A 
ATOM      6  C5  UNL d   1      -0.592   2.235   1.019  0.00  0.00     0.034 A 
ATOM      7 Cl   UNL d   1       1.878   2.947   1.785  0.00  0.00    -0.070 Cl
ATOM      8 Cl1  UNL d   1       2.746  -0.014   0.748  0.00  0.00    -0.070 Cl
ENDROOT
TORSDOF 0
ENDMDL
