MODEL 1
REMARK minimizedAffinity -3.59178042
REMARK minimizedRMSD -1
REMARK  0 active torsions:
REMARK  status: ('A' for Active; 'I' for Inactive)
ROOT
ATOM      1  C   UNL d   1       0.676   2.358  -1.136  0.00  0.00     0.020 A 
ATOM      2  C1  UNL d   1       0.116   2.959  -0.010  0.00  0.00     0.020 A 
ATOM      3  C2  UNL d   1      -0.552   2.181   0.938  0.00  0.00     0.034 A 
ATOM      4  C3  UNL d   1      -0.661   0.797   0.762  0.00  0.00     0.017 A 
ATOM      5  C4  UNL d   1      -0.099   0.194  -0.368  0.00  0.00     0.017 A 
ATOM      6  C5  UNL d   1       0.569   0.978  -1.315  0.00  0.00     0.034 A 
ATOM      7 Cl   UNL d   1      -0.193  -1.508  -0.655  0.00  0.00    -0.070 Cl
ATOM      8 Cl1  UNL d   1      -1.501  -0.103   1.975  0.00  0.00    -0.070 Cl
ENDROOT
TORSDOF 0
ENDMDL
