MODEL 1
REMARK minimizedAffinity -3.90184522
REMARK minimizedRMSD -1
REMARK  0 active torsions:
REMARK  status: ('A' for Active; 'I' for Inactive)
ROOT
ATOM      1  C   UNL d   1       2.281  -0.069   0.226  0.00  0.00     0.020 A 
ATOM      2  C1  UNL d   1       1.307  -0.911   0.762  0.00  0.00     0.020 A 
ATOM      3  C2  UNL d   1      -0.008  -0.460   0.897  0.00  0.00     0.034 A 
ATOM      4  C3  UNL d   1      -0.352   0.836   0.495  0.00  0.00     0.017 A 
ATOM      5  C4  UNL d   1       0.626   1.680  -0.043  0.00  0.00     0.017 A 
ATOM      6  C5  UNL d   1       1.941   1.223  -0.176  0.00  0.00     0.034 A 
ATOM      7 Cl   UNL d   1       0.277   3.291  -0.561  0.00  0.00    -0.070 Cl
ATOM      8 Cl1  UNL d   1      -1.997   1.327   0.691  0.00  0.00    -0.070 Cl
ENDROOT
TORSDOF 0
ENDMDL
