MODEL 1
REMARK minimizedAffinity -2.02463508
REMARK minimizedRMSD -1
REMARK  0 active torsions:
REMARK  status: ('A' for Active; 'I' for Inactive)
ROOT
ATOM      1  C   UNL d   1       1.879  -0.428   0.204  0.00  0.00     0.020 A 
ATOM      2  C1  UNL d   1       0.935  -1.448   0.311  0.00  0.00     0.020 A 
ATOM      3  C2  UNL d   1      -0.408  -1.136   0.534  0.00  0.00     0.034 A 
ATOM      4  C3  UNL d   1      -0.810   0.199   0.652  0.00  0.00     0.017 A 
ATOM      5  C4  UNL d   1       0.138   1.223   0.545  0.00  0.00     0.017 A 
ATOM      6  C5  UNL d   1       1.482   0.905   0.321  0.00  0.00     0.034 A 
ATOM      7 Cl   UNL d   1      -0.282   2.894   0.680  0.00  0.00    -0.070 Cl
ATOM      8 Cl1  UNL d   1      -2.487   0.512   0.927  0.00  0.00    -0.070 Cl
ENDROOT
TORSDOF 0
ENDMDL
