MODEL 1
REMARK minimizedAffinity -4.54558659
REMARK minimizedRMSD -1
REMARK  0 active torsions:
REMARK  status: ('A' for Active; 'I' for Inactive)
ROOT
ATOM      1  C   UNL d   1      -0.240   3.441   0.221  0.00  0.00     0.020 A 
ATOM      2  C1  UNL d   1      -1.354   2.657   0.518  0.00  0.00     0.020 A 
ATOM      3  C2  UNL d   1      -1.255   1.265   0.492  0.00  0.00     0.034 A 
ATOM      4  C3  UNL d   1      -0.039   0.651   0.170  0.00  0.00     0.017 A 
ATOM      5  C4  UNL d   1       1.079   1.439  -0.128  0.00  0.00     0.017 A 
ATOM      6  C5  UNL d   1       0.974   2.833  -0.101  0.00  0.00     0.034 A 
ATOM      7 Cl   UNL d   1       2.613   0.755  -0.535  0.00  0.00    -0.070 Cl
ATOM      8 Cl1  UNL d   1       0.012  -1.076   0.158  0.00  0.00    -0.070 Cl
ENDROOT
TORSDOF 0
ENDMDL
