MODEL 1
REMARK minimizedAffinity -2.91668224
REMARK minimizedRMSD -1
REMARK  0 active torsions:
REMARK  status: ('A' for Active; 'I' for Inactive)
ROOT
ATOM      1  C   UNL d   1       0.413  -1.282  -0.413  0.00  0.00     0.020 A 
ATOM      2  C1  UNL d   1      -0.423  -1.331   0.702  0.00  0.00     0.020 A 
ATOM      3  C2  UNL d   1      -0.789  -0.152   1.353  0.00  0.00     0.034 A 
ATOM      4  C3  UNL d   1      -0.319   1.083   0.890  0.00  0.00     0.017 A 
ATOM      5  C4  UNL d   1       0.520   1.132  -0.229  0.00  0.00     0.017 A 
ATOM      6  C5  UNL d   1       0.883  -0.053  -0.878  0.00  0.00     0.034 A 
ATOM      7 Cl   UNL d   1       1.140   2.617  -0.859  0.00  0.00    -0.070 Cl
ATOM      8 Cl1  UNL d   1      -0.811   2.502   1.744  0.00  0.00    -0.070 Cl
ENDROOT
TORSDOF 0
ENDMDL
