MODEL 1
REMARK minimizedAffinity -3.84350324
REMARK minimizedRMSD -1
REMARK  0 active torsions:
REMARK  status: ('A' for Active; 'I' for Inactive)
ROOT
ATOM      1  C   UNL d   1      -0.808   2.430   0.996  0.00  0.00     0.020 A 
ATOM      2  C1  UNL d   1      -0.086   2.981  -0.062  0.00  0.00     0.020 A 
ATOM      3  C2  UNL d   1       0.451   2.152  -1.049  0.00  0.00     0.034 A 
ATOM      4  C3  UNL d   1       0.266   0.766  -0.981  0.00  0.00     0.017 A 
ATOM      5  C4  UNL d   1      -0.459   0.213   0.081  0.00  0.00     0.017 A 
ATOM      6  C5  UNL d   1      -0.994   1.049   1.067  0.00  0.00     0.034 A 
ATOM      7 Cl   UNL d   1      -0.729  -1.487   0.233  0.00  0.00    -0.070 Cl
ATOM      8 Cl1  UNL d   1       0.957  -0.199  -2.236  0.00  0.00    -0.070 Cl
ENDROOT
TORSDOF 0
ENDMDL
