MODEL 1
REMARK minimizedAffinity -4.4609766
REMARK minimizedRMSD -1
REMARK  0 active torsions:
REMARK  status: ('A' for Active; 'I' for Inactive)
ROOT
ATOM      1  C   UNL d   1      -0.742   2.192  -0.325  0.00  0.00     0.020 A 
ATOM      2  C1  UNL d   1       0.574   2.595  -0.104  0.00  0.00     0.020 A 
ATOM      3  C2  UNL d   1       1.573   1.640   0.097  0.00  0.00     0.034 A 
ATOM      4  C3  UNL d   1       1.258   0.277   0.075  0.00  0.00     0.017 A 
ATOM      5  C4  UNL d   1      -0.064  -0.128  -0.147  0.00  0.00     0.017 A 
ATOM      6  C5  UNL d   1      -1.060   0.833  -0.347  0.00  0.00     0.034 A 
ATOM      7 Cl   UNL d   1      -0.530  -1.791  -0.187  0.00  0.00    -0.070 Cl
ATOM      8 Cl1  UNL d   1       2.543  -0.850   0.330  0.00  0.00    -0.070 Cl
ENDROOT
TORSDOF 0
ENDMDL
