MODEL 1
REMARK minimizedAffinity 7.15489244
REMARK minimizedRMSD -1
REMARK  0 active torsions:
REMARK  status: ('A' for Active; 'I' for Inactive)
ROOT
ATOM      1  N1  IND d   1       1.237   4.967   0.694  0.00  0.00    -0.196 N 
ATOM      2  C2  IND d   1       0.439   4.728  -0.390  0.00  0.00     0.054 A 
ATOM      3  C3  IND d   1      -0.318   3.628  -0.183  0.00  0.00    -0.031 A 
ATOM      4  C4  IND d   1      -0.485   2.126   1.901  0.00  0.00     0.051 A 
ATOM      5  C5  IND d   1       0.075   1.924   3.131  0.00  0.00    -0.031 A 
ATOM      6  C6  IND d   1       1.070   2.744   3.623  0.00  0.00     0.015 A 
ATOM      7  C7  IND d   1       1.535   3.809   2.904  0.00  0.00    -0.016 A 
ATOM      8  C8  IND d   1       0.974   4.013   1.651  0.00  0.00    -0.047 A 
ATOM      9  C9  IND d   1      -0.006   3.158   1.130  0.00  0.00    -0.096 A 
ATOM     10  HN1 IND d   1       1.808   5.606   0.765  0.00  0.00     0.298 HD
ENDROOT
TORSDOF 0
ENDMDL
