MODEL 1
REMARK minimizedAffinity 6.38506365
REMARK minimizedRMSD -1
REMARK  0 active torsions:
REMARK  status: ('A' for Active; 'I' for Inactive)
ROOT
ATOM      1  N1  IND d   1       3.379  -2.039  -0.735  0.00  0.00    -0.196 N 
ATOM      2  C2  IND d   1       4.446  -1.709  -1.523  0.00  0.00     0.054 A 
ATOM      3  C3  IND d   1       4.898  -2.799  -2.183  0.00  0.00    -0.031 A 
ATOM      4  C4  IND d   1       3.974  -5.202  -2.197  0.00  0.00     0.051 A 
ATOM      5  C5  IND d   1       3.033  -5.998  -1.606  0.00  0.00    -0.031 A 
ATOM      6  C6  IND d   1       2.139  -5.504  -0.678  0.00  0.00     0.015 A 
ATOM      7  C7  IND d   1       2.146  -4.187  -0.313  0.00  0.00    -0.016 A 
ATOM      8  C8  IND d   1       3.105  -3.378  -0.905  0.00  0.00    -0.047 A 
ATOM      9  C9  IND d   1       4.042  -3.883  -1.816  0.00  0.00    -0.096 A 
ATOM     10  HN1 IND d   1       2.951  -1.500  -0.219  0.00  0.00     0.298 HD
ENDROOT
TORSDOF 0
ENDMDL
