MODEL 1
REMARK minimizedAffinity 8.07658482
REMARK minimizedRMSD -1
REMARK  0 active torsions:
REMARK  status: ('A' for Active; 'I' for Inactive)
ROOT
ATOM      1  N1  IND d   1       0.274   3.104   2.478  0.00  0.00    -0.196 N 
ATOM      2  C2  IND d   1      -0.269   1.873   2.723  0.00  0.00     0.054 A 
ATOM      3  C3  IND d   1      -0.924   1.423   1.629  0.00  0.00    -0.031 A 
ATOM      4  C4  IND d   1      -1.146   2.494  -0.701  0.00  0.00     0.051 A 
ATOM      5  C5  IND d   1      -0.849   3.634  -1.396  0.00  0.00    -0.031 A 
ATOM      6  C6  IND d   1      -0.147   4.674  -0.824  0.00  0.00     0.015 A 
ATOM      7  C7  IND d   1       0.297   4.610   0.467  0.00  0.00    -0.016 A 
ATOM      8  C8  IND d   1      -0.008   3.457   1.177  0.00  0.00    -0.047 A 
ATOM      9  C9  IND d   1      -0.757   2.415   0.615  0.00  0.00    -0.096 A 
ATOM     10  HN1 IND d   1       0.717   3.577   3.043  0.00  0.00     0.298 HD
ENDROOT
TORSDOF 0
ENDMDL
