MODEL 1
REMARK minimizedAffinity 2.27572274
REMARK minimizedRMSD -1
REMARK  0 active torsions:
REMARK  status: ('A' for Active; 'I' for Inactive)
ROOT
ATOM      1  N1  IND d   1       1.520   4.121   2.095  0.00  0.00    -0.196 N 
ATOM      2  C2  IND d   1       1.658   3.481   3.295  0.00  0.00     0.054 A 
ATOM      3  C3  IND d   1       0.794   2.444   3.377  0.00  0.00    -0.031 A 
ATOM      4  C4  IND d   1      -0.865   1.555   1.621  0.00  0.00     0.051 A 
ATOM      5  C5  IND d   1      -1.375   1.833   0.384  0.00  0.00    -0.031 A 
ATOM      6  C6  IND d   1      -0.936   2.907  -0.362  0.00  0.00     0.015 A 
ATOM      7  C7  IND d   1       0.043   3.742   0.099  0.00  0.00    -0.016 A 
ATOM      8  C8  IND d   1       0.559   3.467   1.357  0.00  0.00    -0.047 A 
ATOM      9  C9  IND d   1       0.087   2.403   2.136  0.00  0.00    -0.096 A 
ATOM     10  HN1 IND d   1       1.960   4.816   1.844  0.00  0.00     0.298 HD
ENDROOT
TORSDOF 0
ENDMDL
