MODEL 1
REMARK minimizedAffinity 8.61384869
REMARK minimizedRMSD -1
REMARK  0 active torsions:
REMARK  status: ('A' for Active; 'I' for Inactive)
ROOT
ATOM      1  N1  IND d   1       0.703   4.677   0.713  0.00  0.00    -0.196 N 
ATOM      2  C2  IND d   1      -0.225   4.372  -0.244  0.00  0.00     0.054 A 
ATOM      3  C3  IND d   1      -0.804   3.181   0.025  0.00  0.00    -0.031 A 
ATOM      4  C4  IND d   1      -0.456   1.610   2.035  0.00  0.00     0.051 A 
ATOM      5  C5  IND d   1       0.314   1.444   3.152  0.00  0.00    -0.031 A 
ATOM      6  C6  IND d   1       1.271   2.367   3.521  0.00  0.00     0.015 A 
ATOM      7  C7  IND d   1       1.486   3.501   2.791  0.00  0.00    -0.016 A 
ATOM      8  C8  IND d   1       0.711   3.670   1.653  0.00  0.00    -0.047 A 
ATOM      9  C9  IND d   1      -0.232   2.716   1.249  0.00  0.00    -0.096 A 
ATOM     10  HN1 IND d   1       1.199   5.380   0.725  0.00  0.00     0.298 HD
ENDROOT
TORSDOF 0
ENDMDL
