MODEL 1
REMARK minimizedAffinity 4.80887604
REMARK minimizedRMSD -1
REMARK  0 active torsions:
REMARK  status: ('A' for Active; 'I' for Inactive)
ROOT
ATOM      1  N1  IND d   1      -3.859  -1.095  -1.051  0.00  0.00    -0.196 N 
ATOM      2  C2  IND d   1      -4.481   0.027  -0.582  0.00  0.00     0.054 A 
ATOM      3  C3  IND d   1      -3.573   0.994  -0.319  0.00  0.00    -0.031 A 
ATOM      4  C4  IND d   1      -1.024   0.985  -0.682  0.00  0.00     0.051 A 
ATOM      5  C5  IND d   1       0.008   0.170  -1.056  0.00  0.00    -0.031 A 
ATOM      6  C6  IND d   1      -0.201  -1.133  -1.459  0.00  0.00     0.015 A 
ATOM      7  C7  IND d   1      -1.456  -1.669  -1.513  0.00  0.00    -0.016 A 
ATOM      8  C8  IND d   1      -2.506  -0.848  -1.127  0.00  0.00    -0.047 A 
ATOM      9  C9  IND d   1      -2.296   0.462  -0.677  0.00  0.00    -0.096 A 
ATOM     10  HN1 IND d   1      -4.247  -1.833  -1.264  0.00  0.00     0.298 HD
ENDROOT
TORSDOF 0
ENDMDL
