MODEL 1
REMARK minimizedAffinity 0.0769945309
REMARK minimizedRMSD -1
REMARK  0 active torsions:
REMARK  status: ('A' for Active; 'I' for Inactive)
ROOT
ATOM      1  C1  DEN d   1      -4.145  -3.875  -5.791  0.00  0.00     0.130 A 
ATOM      2  C2  DEN d   1      -4.099  -5.320  -5.999  0.00  0.00    -0.031 A 
ATOM      3  C3  DEN d   1      -4.717  -5.969  -4.826  0.00  0.00     0.027 A 
ATOM      4  C4  DEN d   1      -5.741  -4.884  -2.722  0.00  0.00     0.027 A 
ATOM      5  C5  DEN d   1      -6.000  -3.689  -2.088  0.00  0.00    -0.003 A 
ATOM      6  C6  DEN d   1      -5.631  -2.483  -2.624  0.00  0.00     0.001 A 
ATOM      7  C7  DEN d   1      -5.023  -2.444  -3.851  0.00  0.00     0.017 A 
ATOM      8  C8  DEN d   1      -4.752  -3.645  -4.492  0.00  0.00    -0.094 A 
ATOM      9  C9  DEN d   1      -5.143  -4.853  -3.940  0.00  0.00    -0.072 A 
ENDROOT
TORSDOF 0
ENDMDL
