MODEL 1
REMARK minimizedAffinity 0.666996002
REMARK minimizedRMSD -1
REMARK  0 active torsions:
REMARK  status: ('A' for Active; 'I' for Inactive)
ROOT
ATOM      1  C1  DEN d   1      -5.356  -5.990  -2.509  0.00  0.00     0.130 A 
ATOM      2  C2  DEN d   1      -5.949  -4.929  -1.700  0.00  0.00    -0.031 A 
ATOM      3  C3  DEN d   1      -5.956  -3.690  -2.504  0.00  0.00     0.027 A 
ATOM      4  C4  DEN d   1      -5.113  -3.315  -4.913  0.00  0.00     0.027 A 
ATOM      5  C5  DEN d   1      -4.517  -3.916  -6.000  0.00  0.00    -0.003 A 
ATOM      6  C6  DEN d   1      -4.132  -5.231  -5.988  0.00  0.00     0.001 A 
ATOM      7  C7  DEN d   1      -4.379  -6.000  -4.882  0.00  0.00     0.017 A 
ATOM      8  C8  DEN d   1      -4.972  -5.399  -3.779  0.00  0.00    -0.094 A 
ATOM      9  C9  DEN d   1      -5.365  -4.073  -3.815  0.00  0.00    -0.072 A 
ENDROOT
TORSDOF 0
ENDMDL
