MODEL 1
REMARK minimizedAffinity 4.43020105
REMARK minimizedRMSD -1
REMARK  0 active torsions:
REMARK  status: ('A' for Active; 'I' for Inactive)
ROOT
ATOM      1  C1  DEN d   1      -4.073  -3.968  -5.572  0.00  0.00     0.130 A 
ATOM      2  C2  DEN d   1      -4.499  -5.298  -6.000  0.00  0.00    -0.031 A 
ATOM      3  C3  DEN d   1      -5.331  -5.878  -4.926  0.00  0.00     0.027 A 
ATOM      4  C4  DEN d   1      -5.999  -4.851  -2.657  0.00  0.00     0.027 A 
ATOM      5  C5  DEN d   1      -5.867  -3.749  -1.841  0.00  0.00    -0.003 A 
ATOM      6  C6  DEN d   1      -5.107  -2.665  -2.194  0.00  0.00     0.001 A 
ATOM      7  C7  DEN d   1      -4.485  -2.642  -3.415  0.00  0.00     0.017 A 
ATOM      8  C8  DEN d   1      -4.607  -3.752  -4.239  0.00  0.00    -0.094 A 
ATOM      9  C9  DEN d   1      -5.390  -4.833  -3.869  0.00  0.00    -0.072 A 
ENDROOT
TORSDOF 0
ENDMDL
