MODEL 1
REMARK minimizedAffinity -0.838178396
REMARK minimizedRMSD -1
REMARK  0 active torsions:
REMARK  status: ('A' for Active; 'I' for Inactive)
ROOT
ATOM      1  C1  DEN d   1      -3.296  -6.000  -4.564  0.00  0.00     0.130 A 
ATOM      2  C2  DEN d   1      -3.705  -5.847  -5.958  0.00  0.00    -0.031 A 
ATOM      3  C3  DEN d   1      -4.837  -4.900  -6.000  0.00  0.00     0.027 A 
ATOM      4  C4  DEN d   1      -5.989  -3.660  -4.053  0.00  0.00     0.027 A 
ATOM      5  C5  DEN d   1      -6.000  -3.479  -2.688  0.00  0.00    -0.003 A 
ATOM      6  C6  DEN d   1      -5.140  -4.145  -1.856  0.00  0.00     0.001 A 
ATOM      7  C7  DEN d   1      -4.202  -4.991  -2.386  0.00  0.00     0.017 A 
ATOM      8  C8  DEN d   1      -4.189  -5.185  -3.761  0.00  0.00    -0.094 A 
ATOM      9  C9  DEN d   1      -5.059  -4.493  -4.586  0.00  0.00    -0.072 A 
ENDROOT
TORSDOF 0
ENDMDL
