MODEL 1
REMARK minimizedAffinity 6.29554367
REMARK minimizedRMSD -1
REMARK  0 active torsions:
REMARK  status: ('A' for Active; 'I' for Inactive)
ROOT
ATOM      1  C1  DEN d   1       3.147   3.849  -3.131  0.00  0.00     0.130 A 
ATOM      2  C2  DEN d   1       3.545   4.143  -1.757  0.00  0.00    -0.031 A 
ATOM      3  C3  DEN d   1       4.724   5.031  -1.803  0.00  0.00     0.027 A 
ATOM      4  C4  DEN d   1       5.962   5.979  -3.857  0.00  0.00     0.027 A 
ATOM      5  C5  DEN d   1       6.000   6.000  -5.234  0.00  0.00    -0.003 A 
ATOM      6  C6  DEN d   1       5.118   5.284  -6.000  0.00  0.00     0.001 A 
ATOM      7  C7  DEN d   1       4.131   4.552  -5.393  0.00  0.00     0.017 A 
ATOM      8  C8  DEN d   1       4.091   4.521  -4.006  0.00  0.00    -0.094 A 
ATOM      9  C9  DEN d   1       4.984   5.260  -3.249  0.00  0.00    -0.072 A 
ENDROOT
TORSDOF 0
ENDMDL
