MODEL 1
REMARK minimizedAffinity -3.10798287
REMARK minimizedRMSD -1
REMARK  0 active torsions:
REMARK  status: ('A' for Active; 'I' for Inactive)
ROOT
ATOM      1  C1  DEN d   1      -5.568  -4.215  -5.262  0.00  0.00     0.130 A 
ATOM      2  C2  DEN d   1      -4.698  -5.130  -5.995  0.00  0.00    -0.031 A 
ATOM      3  C3  DEN d   1      -4.010  -5.991  -5.012  0.00  0.00     0.027 A 
ATOM      4  C4  DEN d   1      -4.210  -6.000  -2.441  0.00  0.00     0.027 A 
ATOM      5  C5  DEN d   1      -4.815  -5.397  -1.360  0.00  0.00    -0.003 A 
ATOM      6  C6  DEN d   1      -5.680  -4.344  -1.501  0.00  0.00     0.001 A 
ATOM      7  C7  DEN d   1      -6.000  -3.891  -2.753  0.00  0.00     0.017 A 
ATOM      8  C8  DEN d   1      -5.388  -4.489  -3.847  0.00  0.00    -0.094 A 
ATOM      9  C9  DEN d   1      -4.525  -5.560  -3.685  0.00  0.00    -0.072 A 
ENDROOT
TORSDOF 0
ENDMDL
