MODEL 1
REMARK minimizedAffinity 19.3879375
REMARK minimizedRMSD -1
REMARK  0 active torsions:
REMARK  status: ('A' for Active; 'I' for Inactive)
ROOT
ATOM      1  C1  DEN d   1       1.405  -3.619  -0.624  0.00  0.00     0.130 A 
ATOM      2  C2  DEN d   1       1.310  -4.888   0.094  0.00  0.00    -0.031 A 
ATOM      3  C3  DEN d   1       1.101  -4.588   1.525  0.00  0.00     0.027 A 
ATOM      4  C4  DEN d   1       0.912  -2.295   2.691  0.00  0.00     0.027 A 
ATOM      5  C5  DEN d   1       0.941  -0.932   2.499  0.00  0.00    -0.003 A 
ATOM      6  C6  DEN d   1       1.159  -0.373   1.267  0.00  0.00     0.001 A 
ATOM      7  C7  DEN d   1       1.311  -1.182   0.172  0.00  0.00     0.017 A 
ATOM      8  C8  DEN d   1       1.290  -2.558   0.360  0.00  0.00    -0.094 A 
ATOM      9  C9  DEN d   1       1.057  -3.103   1.611  0.00  0.00    -0.072 A 
ENDROOT
TORSDOF 0
ENDMDL
