MODEL 1
REMARK minimizedAffinity 16.3462963
REMARK minimizedRMSD -1
REMARK  0 active torsions:
REMARK  status: ('A' for Active; 'I' for Inactive)
ROOT
ATOM      1  C1  DEN d   1      -5.037   2.872   2.038  0.00  0.00     0.130 A 
ATOM      2  C2  DEN d   1      -5.941   3.672   1.217  0.00  0.00    -0.031 A 
ATOM      3  C3  DEN d   1      -5.456   3.621  -0.177  0.00  0.00     0.027 A 
ATOM      4  C4  DEN d   1      -3.408   2.384  -1.138  0.00  0.00     0.027 A 
ATOM      5  C5  DEN d   1      -2.332   1.582  -0.826  0.00  0.00    -0.003 A 
ATOM      6  C6  DEN d   1      -2.065   1.186   0.458  0.00  0.00     0.001 A 
ATOM      7  C7  DEN d   1      -2.911   1.553   1.471  0.00  0.00     0.017 A 
ATOM      8  C8  DEN d   1      -3.994   2.367   1.165  0.00  0.00    -0.094 A 
ATOM      9  C9  DEN d   1      -4.253   2.747  -0.141  0.00  0.00    -0.072 A 
ENDROOT
TORSDOF 0
ENDMDL
