MODEL 1
REMARK minimizedAffinity 11.4638548
REMARK minimizedRMSD -1
REMARK  0 active torsions:
REMARK  status: ('A' for Active; 'I' for Inactive)
ROOT
ATOM      1  C1  DEN d   1      -6.000   3.613  -0.538  0.00  0.00     0.130 A 
ATOM      2  C2  DEN d   1      -5.040   3.358   0.533  0.00  0.00    -0.031 A 
ATOM      3  C3  DEN d   1      -3.883   2.651  -0.050  0.00  0.00     0.027 A 
ATOM      4  C4  DEN d   1      -3.483   1.933  -2.495  0.00  0.00     0.027 A 
ATOM      5  C5  DEN d   1      -4.020   1.920  -3.763  0.00  0.00    -0.003 A 
ATOM      6  C6  DEN d   1      -5.259   2.436  -4.037  0.00  0.00     0.001 A 
ATOM      7  C7  DEN d   1      -5.984   3.028  -3.036  0.00  0.00     0.017 A 
ATOM      8  C8  DEN d   1      -5.452   3.038  -1.753  0.00  0.00    -0.094 A 
ATOM      9  C9  DEN d   1      -4.193   2.522  -1.500  0.00  0.00    -0.072 A 
ENDROOT
TORSDOF 0
ENDMDL
