MODEL 1
REMARK minimizedAffinity -3.23748493
REMARK minimizedRMSD -1
REMARK  0 active torsions:
REMARK  status: ('A' for Active; 'I' for Inactive)
ROOT
ATOM      1  O1  BZF d   1       1.213   2.031   1.600  0.00  0.00    -0.204 OA
ATOM      2  C2  BZF d   1       0.068   1.263   1.678  0.00  0.00     0.174 A 
ATOM      3  C3  BZF d   1      -0.798   1.596   0.699  0.00  0.00    -0.012 A 
ATOM      4  C3A BZF d   1      -0.115   2.573  -0.093  0.00  0.00    -0.107 A 
ATOM      5  C4  BZF d   1      -0.450   3.272  -1.217  0.00  0.00     0.055 A 
ATOM      6  C5  BZF d   1       0.414   4.204  -1.697  0.00  0.00    -0.016 A 
ATOM      7  C6  BZF d   1       1.617   4.467  -1.076  0.00  0.00     0.022 A 
ATOM      8  C7  BZF d   1       1.996   3.795   0.039  0.00  0.00     0.029 A 
ATOM      9  C7A BZF d   1       1.139   2.829   0.508  0.00  0.00     0.058 A 
ENDROOT
TORSDOF 0
ENDMDL
