MODEL 1
REMARK minimizedAffinity -2.05266333
REMARK minimizedRMSD -1
REMARK  0 active torsions:
REMARK  status: ('A' for Active; 'I' for Inactive)
ROOT
ATOM      1  O1  BZF d   1       0.974   2.360   1.440  0.00  0.00    -0.204 OA
ATOM      2  C2  BZF d   1       1.727   3.269   2.158  0.00  0.00     0.174 A 
ATOM      3  C3  BZF d   1       1.851   4.429   1.482  0.00  0.00    -0.012 A 
ATOM      4  C3A BZF d   1       1.053   4.265   0.305  0.00  0.00    -0.107 A 
ATOM      5  C4  BZF d   1       0.763   5.078  -0.753  0.00  0.00     0.055 A 
ATOM      6  C5  BZF d   1       0.010   4.591  -1.774  0.00  0.00    -0.016 A 
ATOM      7  C6  BZF d   1      -0.465   3.295  -1.771  0.00  0.00     0.022 A 
ATOM      8  C7  BZF d   1      -0.207   2.453  -0.742  0.00  0.00     0.029 A 
ATOM      9  C7A BZF d   1       0.526   2.953   0.307  0.00  0.00     0.058 A 
ENDROOT
TORSDOF 0
ENDMDL
