MODEL 1
REMARK minimizedAffinity 0.922228634
REMARK minimizedRMSD -1
REMARK  0 active torsions:
REMARK  status: ('A' for Active; 'I' for Inactive)
ROOT
ATOM      1  O1  BZF d   1       0.392   4.359  -2.029  0.00  0.00    -0.204 OA
ATOM      2  C2  BZF d   1       0.827   5.478  -1.346  0.00  0.00     0.174 A 
ATOM      3  C3  BZF d   1       0.989   5.206  -0.035  0.00  0.00    -0.012 A 
ATOM      4  C3A BZF d   1       0.722   3.806   0.094  0.00  0.00    -0.107 A 
ATOM      5  C4  BZF d   1       0.735   2.942   1.151  0.00  0.00     0.055 A 
ATOM      6  C5  BZF d   1       0.353   1.652   0.955  0.00  0.00    -0.016 A 
ATOM      7  C6  BZF d   1      -0.051   1.195  -0.283  0.00  0.00     0.022 A 
ATOM      8  C7  BZF d   1      -0.075   2.014  -1.362  0.00  0.00     0.029 A 
ATOM      9  C7A BZF d   1       0.341   3.310  -1.174  0.00  0.00     0.058 A 
ENDROOT
TORSDOF 0
ENDMDL
