MODEL 1
REMARK minimizedAffinity -1.7885958
REMARK minimizedRMSD -1
REMARK  0 active torsions:
REMARK  status: ('A' for Active; 'I' for Inactive)
ROOT
ATOM      1  O1  BZF d   1       0.332   3.697  -2.207  0.00  0.00    -0.204 OA
ATOM      2  C2  BZF d   1       0.647   4.997  -1.863  0.00  0.00     0.174 A 
ATOM      3  C3  BZF d   1       0.748   5.127  -0.524  0.00  0.00    -0.012 A 
ATOM      4  C3A BZF d   1       0.570   3.806  -0.004  0.00  0.00    -0.107 A 
ATOM      5  C4  BZF d   1       0.578   3.285   1.259  0.00  0.00     0.055 A 
ATOM      6  C5  BZF d   1       0.299   1.967   1.431  0.00  0.00    -0.016 A 
ATOM      7  C6  BZF d   1       0.003   1.142   0.366  0.00  0.00     0.022 A 
ATOM      8  C7  BZF d   1      -0.012   1.612  -0.906  0.00  0.00     0.029 A 
ATOM      9  C7A BZF d   1       0.301   2.937  -1.086  0.00  0.00     0.058 A 
ENDROOT
TORSDOF 0
ENDMDL
