MODEL 1
REMARK minimizedAffinity 3.78500628
REMARK minimizedRMSD -1
REMARK  0 active torsions:
REMARK  status: ('A' for Active; 'I' for Inactive)
ROOT
ATOM      1  O1  BZF d   1       1.588   4.543  -0.516  0.00  0.00    -0.204 OA
ATOM      2  C2  BZF d   1       0.743   4.854  -1.563  0.00  0.00     0.174 A 
ATOM      3  C3  BZF d   1      -0.236   3.934  -1.678  0.00  0.00    -0.012 A 
ATOM      4  C3A BZF d   1      -0.041   3.038  -0.579  0.00  0.00    -0.107 A 
ATOM      5  C4  BZF d   1      -0.705   1.927  -0.145  0.00  0.00     0.055 A 
ATOM      6  C5  BZF d   1      -0.215   1.238   0.919  0.00  0.00    -0.016 A 
ATOM      7  C6  BZF d   1       0.938   1.629   1.568  0.00  0.00     0.022 A 
ATOM      8  C7  BZF d   1       1.628   2.728   1.176  0.00  0.00     0.029 A 
ATOM      9  C7A BZF d   1       1.117   3.445   0.122  0.00  0.00     0.058 A 
ENDROOT
TORSDOF 0
ENDMDL
