MODEL 1
REMARK minimizedAffinity 7.30293894
REMARK minimizedRMSD -1
REMARK  0 active torsions:
REMARK  status: ('A' for Active; 'I' for Inactive)
ROOT
ATOM      1  O1  BZF d   1       1.411   3.619  -1.334  0.00  0.00    -0.204 OA
ATOM      2  C2  BZF d   1       0.410   3.023  -2.077  0.00  0.00     0.174 A 
ATOM      3  C3  BZF d   1      -0.221   2.074  -1.356  0.00  0.00    -0.012 A 
ATOM      4  C3A BZF d   1       0.366   2.140  -0.053  0.00  0.00    -0.107 A 
ATOM      5  C4  BZF d   1       0.149   1.457   1.110  0.00  0.00     0.055 A 
ATOM      6  C5  BZF d   1       0.942   1.713   2.183  0.00  0.00    -0.016 A 
ATOM      7  C6  BZF d   1       1.963   2.639   2.128  0.00  0.00     0.022 A 
ATOM      8  C7  BZF d   1       2.213   3.345   0.998  0.00  0.00     0.029 A 
ATOM      9  C7A BZF d   1       1.392   3.113  -0.078  0.00  0.00     0.058 A 
ENDROOT
TORSDOF 0
ENDMDL
