MODEL 1
REMARK minimizedAffinity 10.7408504
REMARK minimizedRMSD -1
REMARK  0 active torsions:
REMARK  status: ('A' for Active; 'I' for Inactive)
ROOT
ATOM      1  O1  BZF d   1       1.034   2.214  -0.913  0.00  0.00    -0.204 OA
ATOM      2  C2  BZF d   1       0.736   1.966   0.413  0.00  0.00     0.174 A 
ATOM      3  C3  BZF d   1       0.206   3.061   0.996  0.00  0.00    -0.012 A 
ATOM      4  C3A BZF d   1       0.087   4.026  -0.053  0.00  0.00    -0.107 A 
ATOM      5  C4  BZF d   1      -0.386   5.306  -0.102  0.00  0.00     0.055 A 
ATOM      6  C5  BZF d   1      -0.295   6.000  -1.267  0.00  0.00    -0.016 A 
ATOM      7  C6  BZF d   1       0.267   5.448  -2.399  0.00  0.00     0.022 A 
ATOM      8  C7  BZF d   1       0.746   4.179  -2.401  0.00  0.00     0.029 A 
ATOM      9  C7A BZF d   1       0.625   3.464  -1.234  0.00  0.00     0.058 A 
ENDROOT
TORSDOF 0
ENDMDL
