MODEL 1
REMARK minimizedAffinity 8.11988258
REMARK minimizedRMSD -1
REMARK  0 active torsions:
REMARK  status: ('A' for Active; 'I' for Inactive)
ROOT
ATOM      1  O1  BZF d   1      -0.779   0.804   1.979  0.00  0.00    -0.204 OA
ATOM      2  C2  BZF d   1       0.540   1.207   1.908  0.00  0.00     0.174 A 
ATOM      3  C3  BZF d   1       0.849   1.615   0.661  0.00  0.00    -0.012 A 
ATOM      4  C3A BZF d   1      -0.377   1.543  -0.073  0.00  0.00    -0.107 A 
ATOM      5  C4  BZF d   1      -0.717   1.835  -1.363  0.00  0.00     0.055 A 
ATOM      6  C5  BZF d   1      -1.985   1.585  -1.784  0.00  0.00    -0.016 A 
ATOM      7  C6  BZF d   1      -2.935   1.040  -0.945  0.00  0.00     0.022 A 
ATOM      8  C7  BZF d   1      -2.646   0.739   0.344  0.00  0.00     0.029 A 
ATOM      9  C7A BZF d   1      -1.375   1.021   0.782  0.00  0.00     0.058 A 
ENDROOT
TORSDOF 0
ENDMDL
