MODEL 1
REMARK minimizedAffinity 3.08398223
REMARK minimizedRMSD -1
REMARK  0 active torsions:
REMARK  status: ('A' for Active; 'I' for Inactive)
ROOT
ATOM      1  O1  BZF d   1       1.410   3.799  -1.132  0.00  0.00    -0.204 OA
ATOM      2  C2  BZF d   1       0.392   4.605  -1.601  0.00  0.00     0.174 A 
ATOM      3  C3  BZF d   1      -0.803   4.184  -1.139  0.00  0.00    -0.012 A 
ATOM      4  C3A BZF d   1      -0.504   3.099  -0.256  0.00  0.00    -0.107 A 
ATOM      5  C4  BZF d   1      -1.274   2.280   0.520  0.00  0.00     0.055 A 
ATOM      6  C5  BZF d   1      -0.678   1.271   1.208  0.00  0.00    -0.016 A 
ATOM      7  C6  BZF d   1       0.682   1.048   1.139  0.00  0.00     0.022 A 
ATOM      8  C7  BZF d   1       1.487   1.837   0.386  0.00  0.00     0.029 A 
ATOM      9  C7A BZF d   1       0.893   2.878  -0.284  0.00  0.00     0.058 A 
ENDROOT
TORSDOF 0
ENDMDL
