MODEL 1
REMARK minimizedAffinity -3.77153707
REMARK minimizedRMSD -1
REMARK  0 active torsions:
REMARK  status: ('A' for Active; 'I' for Inactive)
ROOT
ATOM      1  C4' PXY d   1      -5.992   1.392  -0.023  0.00  0.00     0.077 C 
ATOM      2  C1' PXY d   1      -3.309   0.604   5.037  0.00  0.00     0.077 C 
ATOM      3  C1  PXY d   1      -4.024   0.808   3.716  0.00  0.00    -0.082 A 
ATOM      4  C2  PXY d   1      -3.360   0.652   2.582  0.00  0.00     0.003 A 
ATOM      5  C3  PXY d   1      -3.983   0.864   1.379  0.00  0.00     0.003 A 
ATOM      6  C4  PXY d   1      -5.313   1.187   1.335  0.00  0.00    -0.082 A 
ATOM      7  C5  PXY d   1      -6.000   1.337   2.487  0.00  0.00     0.003 A 
ATOM      8  C6  PXY d   1      -5.339   1.158   3.699  0.00  0.00     0.003 A 
ENDROOT
TORSDOF 0
ENDMDL
