MODEL 1
REMARK minimizedAffinity 3.80636859
REMARK minimizedRMSD -1
REMARK  0 active torsions:
REMARK  status: ('A' for Active; 'I' for Inactive)
ROOT
ATOM      1  C4' PXY d   1      -4.419  -0.626  -1.527  0.00  0.00     0.077 C 
ATOM      2  C1' PXY d   1      -2.055   0.548   3.616  0.00  0.00     0.077 C 
ATOM      3  C1  PXY d   1      -2.687   0.245   2.272  0.00  0.00    -0.082 A 
ATOM      4  C2  PXY d   1      -2.142  -0.668   1.484  0.00  0.00     0.003 A 
ATOM      5  C3  PXY d   1      -2.681  -0.932   0.252  0.00  0.00     0.003 A 
ATOM      6  C4  PXY d   1      -3.821  -0.293  -0.157  0.00  0.00    -0.082 A 
ATOM      7  C5  PXY d   1      -4.389   0.632   0.645  0.00  0.00     0.003 A 
ATOM      8  C6  PXY d   1      -3.803   0.915   1.875  0.00  0.00     0.003 A 
ENDROOT
TORSDOF 0
ENDMDL
