MODEL 1
REMARK minimizedAffinity 3.26944447
REMARK minimizedRMSD -1
REMARK  0 active torsions:
REMARK  status: ('A' for Active; 'I' for Inactive)
ROOT
ATOM      1  C4' PXY d   1      -3.297   1.550   3.609  0.00  0.00     0.077 C 
ATOM      2  C1' PXY d   1       0.377  -2.608   1.988  0.00  0.00     0.077 C 
ATOM      3  C1  PXY d   1      -0.590  -1.516   2.401  0.00  0.00    -0.082 A 
ATOM      4  C2  PXY d   1      -0.398  -0.867   3.538  0.00  0.00     0.003 A 
ATOM      5  C3  PXY d   1      -1.280   0.101   3.942  0.00  0.00     0.003 A 
ATOM      6  C4  PXY d   1      -2.341   0.446   3.148  0.00  0.00    -0.082 A 
ATOM      7  C5  PXY d   1      -2.538  -0.203   1.981  0.00  0.00     0.003 A 
ATOM      8  C6  PXY d   1      -1.654  -1.212   1.609  0.00  0.00     0.003 A 
ENDROOT
TORSDOF 0
ENDMDL
