MODEL 1
REMARK minimizedAffinity 2.70939898
REMARK minimizedRMSD -1
REMARK  0 active torsions:
REMARK  status: ('A' for Active; 'I' for Inactive)
ROOT
ATOM      1  C4' PXY d   1      -4.928   2.534   3.665  0.00  0.00     0.077 C 
ATOM      2  C1' PXY d   1      -1.191  -1.042   1.083  0.00  0.00     0.077 C 
ATOM      3  C1  PXY d   1      -2.174  -0.099   1.749  0.00  0.00    -0.082 A 
ATOM      4  C2  PXY d   1      -2.008   0.228   3.020  0.00  0.00     0.003 A 
ATOM      5  C3  PXY d   1      -2.906   1.054   3.646  0.00  0.00     0.003 A 
ATOM      6  C4  PXY d   1      -3.954   1.593   2.950  0.00  0.00    -0.082 A 
ATOM      7  C5  PXY d   1      -4.124   1.272   1.649  0.00  0.00     0.003 A 
ATOM      8  C6  PXY d   1      -3.225   0.400   1.043  0.00  0.00     0.003 A 
ENDROOT
TORSDOF 0
ENDMDL
