MODEL 1
REMARK minimizedAffinity 9.58993912
REMARK minimizedRMSD -1
REMARK  0 active torsions:
REMARK  status: ('A' for Active; 'I' for Inactive)
ROOT
ATOM      1  C4' PXY d   1       5.608   5.503  -0.809  0.00  0.00     0.077 C 
ATOM      2  C1' PXY d   1       4.183   3.395  -6.000  0.00  0.00     0.077 C 
ATOM      3  C1  PXY d   1       4.544   3.947  -4.635  0.00  0.00    -0.082 A 
ATOM      4  C2  PXY d   1       5.600   4.734  -4.506  0.00  0.00     0.003 A 
ATOM      5  C3  PXY d   1       5.959   5.216  -3.273  0.00  0.00     0.003 A 
ATOM      6  C4  PXY d   1       5.200   4.931  -2.170  0.00  0.00    -0.082 A 
ATOM      7  C5  PXY d   1       4.116   4.137  -2.295  0.00  0.00     0.003 A 
ATOM      8  C6  PXY d   1       3.791   3.625  -3.548  0.00  0.00     0.003 A 
ENDROOT
TORSDOF 0
ENDMDL
