MODEL 1
REMARK minimizedAffinity -2.34974122
REMARK minimizedRMSD -1
REMARK  0 active torsions:
REMARK  status: ('A' for Active; 'I' for Inactive)
ROOT
ATOM      1  C4' PXY d   1      -3.439  -4.909  -4.883  0.00  0.00     0.077 C 
ATOM      2  C1' PXY d   1       2.285  -5.662  -5.170  0.00  0.00     0.077 C 
ATOM      3  C1  PXY d   1       0.785  -5.462  -5.082  0.00  0.00    -0.082 A 
ATOM      4  C2  PXY d   1      -0.002  -6.000  -6.000  0.00  0.00     0.003 A 
ATOM      5  C3  PXY d   1      -1.358  -5.803  -5.953  0.00  0.00     0.003 A 
ATOM      6  C4  PXY d   1      -1.920  -5.092  -4.927  0.00  0.00    -0.082 A 
ATOM      7  C5  PXY d   1      -1.125  -4.549  -3.981  0.00  0.00     0.003 A 
ATOM      8  C6  PXY d   1       0.253  -4.726  -4.069  0.00  0.00     0.003 A 
ENDROOT
TORSDOF 0
ENDMDL
