MODEL 1
REMARK minimizedAffinity 3.06677127
REMARK minimizedRMSD -1
REMARK  0 active torsions:
REMARK  status: ('A' for Active; 'I' for Inactive)
ROOT
ATOM      1  C4' PXY d   1      -4.891   0.774   0.944  0.00  0.00     0.077 C 
ATOM      2  C1' PXY d   1       0.063  -1.346   3.038  0.00  0.00     0.077 C 
ATOM      3  C1  PXY d   1      -1.238  -0.784   2.501  0.00  0.00    -0.082 A 
ATOM      4  C2  PXY d   1      -1.833  -1.376   1.477  0.00  0.00     0.003 A 
ATOM      5  C3  PXY d   1      -2.994  -0.863   0.958  0.00  0.00     0.003 A 
ATOM      6  C4  PXY d   1      -3.580   0.236   1.526  0.00  0.00    -0.082 A 
ATOM      7  C5  PXY d   1      -2.985   0.840   2.577  0.00  0.00     0.003 A 
ATOM      8  C6  PXY d   1      -1.786   0.328   3.063  0.00  0.00     0.003 A 
ENDROOT
TORSDOF 0
ENDMDL
