MODEL 1
REMARK minimizedAffinity 7.83154678
REMARK minimizedRMSD -1
REMARK  0 active torsions:
REMARK  status: ('A' for Active; 'I' for Inactive)
ROOT
ATOM      1  C4' PXY d   1      -2.787   0.618   3.194  0.00  0.00     0.077 C 
ATOM      2  C1' PXY d   1      -4.872  -0.228  -2.131  0.00  0.00     0.077 C 
ATOM      3  C1  PXY d   1      -4.318  -0.017  -0.735  0.00  0.00    -0.082 A 
ATOM      4  C2  PXY d   1      -4.995   0.716   0.133  0.00  0.00     0.003 A 
ATOM      5  C3  PXY d   1      -4.494   0.943   1.389  0.00  0.00     0.003 A 
ATOM      6  C4  PXY d   1      -3.312   0.371   1.777  0.00  0.00    -0.082 A 
ATOM      7  C5  PXY d   1      -2.620  -0.387   0.900  0.00  0.00     0.003 A 
ATOM      8  C6  PXY d   1      -3.126  -0.571  -0.383  0.00  0.00     0.003 A 
ENDROOT
TORSDOF 0
ENDMDL
