MODEL 1
REMARK minimizedAffinity 7.81185102
REMARK minimizedRMSD -1
REMARK  0 active torsions:
REMARK  status: ('A' for Active; 'I' for Inactive)
ROOT
ATOM      1  C4' PXY d   1       0.230   4.937  -2.664  0.00  0.00     0.077 C 
ATOM      2  C1' PXY d   1       6.000   4.803  -3.000  0.00  0.00     0.077 C 
ATOM      3  C1  PXY d   1       4.486   4.829  -2.920  0.00  0.00    -0.082 A 
ATOM      4  C2  PXY d   1       3.868   5.941  -2.556  0.00  0.00     0.003 A 
ATOM      5  C3  PXY d   1       2.502   5.972  -2.448  0.00  0.00     0.003 A 
ATOM      6  C4  PXY d   1       1.756   4.869  -2.767  0.00  0.00    -0.082 A 
ATOM      7  C5  PXY d   1       2.378   3.733  -3.150  0.00  0.00     0.003 A 
ATOM      8  C6  PXY d   1       3.769   3.710  -3.213  0.00  0.00     0.003 A 
ENDROOT
TORSDOF 0
ENDMDL
