MODEL 1
REMARK minimizedAffinity 6.32053661
REMARK minimizedRMSD -1
REMARK  0 active torsions:
REMARK  status: ('A' for Active; 'I' for Inactive)
ROOT
ATOM      1  C4' PXY d   1      -4.387   2.376   3.368  0.00  0.00     0.077 C 
ATOM      2  C1' PXY d   1      -1.465  -2.044   1.056  0.00  0.00     0.077 C 
ATOM      3  C1  PXY d   1      -2.236  -0.882   1.651  0.00  0.00    -0.082 A 
ATOM      4  C2  PXY d   1      -1.857  -0.371   2.811  0.00  0.00     0.003 A 
ATOM      5  C3  PXY d   1      -2.561   0.660   3.378  0.00  0.00     0.003 A 
ATOM      6  C4  PXY d   1      -3.633   1.208   2.726  0.00  0.00    -0.082 A 
ATOM      7  C5  PXY d   1      -4.019   0.699   1.536  0.00  0.00     0.003 A 
ATOM      8  C6  PXY d   1      -3.316  -0.374   0.997  0.00  0.00     0.003 A 
ENDROOT
TORSDOF 0
ENDMDL
