MODEL 1
REMARK minimizedAffinity 6.7905097
REMARK minimizedRMSD -1
REMARK  0 active torsions:
REMARK  status: ('A' for Active; 'I' for Inactive)
ROOT
ATOM      1  C4' PXY d   1      -3.195  -0.190   0.634  0.00  0.00     0.077 C 
ATOM      2  C1' PXY d   1       1.102  -1.742   4.176  0.00  0.00     0.077 C 
ATOM      3  C1  PXY d   1      -0.032  -1.331   3.258  0.00  0.00    -0.082 A 
ATOM      4  C2  PXY d   1      -0.168  -1.921   2.081  0.00  0.00     0.003 A 
ATOM      5  C3  PXY d   1      -1.168  -1.539   1.225  0.00  0.00     0.003 A 
ATOM      6  C4  PXY d   1      -2.071  -0.580   1.598  0.00  0.00    -0.082 A 
ATOM      7  C5  PXY d   1      -1.945   0.020   2.801  0.00  0.00     0.003 A 
ATOM      8  C6  PXY d   1      -0.899  -0.353   3.639  0.00  0.00     0.003 A 
ENDROOT
TORSDOF 0
ENDMDL
