MODEL 1
REMARK minimizedAffinity 14.8252869
REMARK minimizedRMSD -1
REMARK  0 active torsions:
REMARK  status: ('A' for Active; 'I' for Inactive)
ROOT
ATOM      1  C4' PXY d   1       6.000   4.947  -4.860  0.00  0.00     0.077 C 
ATOM      2  C1' PXY d   1       1.816   1.924  -2.257  0.00  0.00     0.077 C 
ATOM      3  C1  PXY d   1       2.915   2.707  -2.948  0.00  0.00    -0.082 A 
ATOM      4  C2  PXY d   1       3.558   3.655  -2.286  0.00  0.00     0.003 A 
ATOM      5  C3  PXY d   1       4.533   4.394  -2.905  0.00  0.00     0.003 A 
ATOM      6  C4  PXY d   1       4.889   4.124  -4.199  0.00  0.00    -0.082 A 
ATOM      7  C5  PXY d   1       4.246   3.151  -4.878  0.00  0.00     0.003 A 
ATOM      8  C6  PXY d   1       3.231   2.440  -4.244  0.00  0.00     0.003 A 
ENDROOT
TORSDOF 0
ENDMDL
