MODEL 1
REMARK minimizedAffinity 7.9685421
REMARK minimizedRMSD -1
REMARK  0 active torsions:
REMARK  status: ('A' for Active; 'I' for Inactive)
ROOT
ATOM      1  C4' PXY d   1       0.552   2.328  -2.827  0.00  0.00     0.077 C 
ATOM      2  C1' PXY d   1       3.732   0.702   1.718  0.00  0.00     0.077 C 
ATOM      3  C1  PXY d   1       2.908   1.134   0.521  0.00  0.00    -0.082 A 
ATOM      4  C2  PXY d   1       1.601   1.294   0.649  0.00  0.00     0.003 A 
ATOM      5  C3  PXY d   1       0.837   1.653  -0.431  0.00  0.00     0.003 A 
ATOM      6  C4  PXY d   1       1.424   1.902  -1.643  0.00  0.00    -0.082 A 
ATOM      7  C5  PXY d   1       2.758   1.751  -1.779  0.00  0.00     0.003 A 
ATOM      8  C6  PXY d   1       3.511   1.346  -0.681  0.00  0.00     0.003 A 
ENDROOT
TORSDOF 0
ENDMDL
