MODEL 1
REMARK minimizedAffinity 7.55619478
REMARK minimizedRMSD -1
REMARK  0 active torsions:
REMARK  status: ('A' for Active; 'I' for Inactive)
ROOT
ATOM      1  C4' PXY d   1       1.121  -1.765   2.296  0.00  0.00     0.077 C 
ATOM      2  C1' PXY d   1      -4.272   0.295   2.000  0.00  0.00     0.077 C 
ATOM      3  C1  PXY d   1      -2.862  -0.258   2.076  0.00  0.00    -0.082 A 
ATOM      4  C2  PXY d   1      -1.931   0.413   2.735  0.00  0.00     0.003 A 
ATOM      5  C3  PXY d   1      -0.644  -0.056   2.786  0.00  0.00     0.003 A 
ATOM      6  C4  PXY d   1      -0.317  -1.250   2.201  0.00  0.00    -0.082 A 
ATOM      7  C5  PXY d   1      -1.264  -1.945   1.536  0.00  0.00     0.003 A 
ATOM      8  C6  PXY d   1      -2.555  -1.432   1.460  0.00  0.00     0.003 A 
ENDROOT
TORSDOF 0
ENDMDL
