MODEL 1
REMARK minimizedAffinity 4.30471659
REMARK minimizedRMSD -1
REMARK  0 active torsions:
REMARK  status: ('A' for Active; 'I' for Inactive)
ROOT
ATOM      1  C4' PXY d   1       6.000   6.000  -4.128  0.00  0.00     0.077 C 
ATOM      2  C1' PXY d   1       1.846   2.340  -2.465  0.00  0.00     0.077 C 
ATOM      3  C1  PXY d   1       2.941   3.290  -2.907  0.00  0.00    -0.082 A 
ATOM      4  C2  PXY d   1       3.189   4.379  -2.198  0.00  0.00     0.003 A 
ATOM      5  C3  PXY d   1       4.154   5.265  -2.601  0.00  0.00     0.003 A 
ATOM      6  C4  PXY d   1       4.910   5.008  -3.713  0.00  0.00    -0.082 A 
ATOM      7  C5  PXY d   1       4.671   3.893  -4.437  0.00  0.00     0.003 A 
ATOM      8  C6  PXY d   1       3.659   3.027  -4.033  0.00  0.00     0.003 A 
ENDROOT
TORSDOF 0
ENDMDL
