MODEL 1
REMARK minimizedAffinity 6.1265645
REMARK minimizedRMSD -1
REMARK  0 active torsions:
REMARK  status: ('A' for Active; 'I' for Inactive)
ROOT
ATOM      1  C4' PXY d   1      -4.912   2.694   5.999  0.00  0.00     0.077 C 
ATOM      2  C1' PXY d   1      -2.296  -0.383   1.864  0.00  0.00     0.077 C 
ATOM      3  C1  PXY d   1      -2.990   0.430   2.939  0.00  0.00    -0.082 A 
ATOM      4  C2  PXY d   1      -2.365   0.673   4.080  0.00  0.00     0.003 A 
ATOM      5  C3  PXY d   1      -2.990   1.379   5.076  0.00  0.00     0.003 A 
ATOM      6  C4  PXY d   1      -4.247   1.886   4.882  0.00  0.00    -0.082 A 
ATOM      7  C5  PXY d   1      -4.886   1.652   3.716  0.00  0.00     0.003 A 
ATOM      8  C6  PXY d   1      -4.251   0.898   2.734  0.00  0.00     0.003 A 
ENDROOT
TORSDOF 0
ENDMDL
