MODEL 1
REMARK minimizedAffinity 5.95343971
REMARK minimizedRMSD -1
REMARK  0 active torsions:
REMARK  status: ('A' for Active; 'I' for Inactive)
ROOT
ATOM      1  C4' PXY d   1      -5.996   3.990  -0.594  0.00  0.00     0.077 C 
ATOM      2  C1' PXY d   1      -3.727   5.969  -5.528  0.00  0.00     0.077 C 
ATOM      3  C1  PXY d   1      -4.310   5.450  -4.229  0.00  0.00    -0.082 A 
ATOM      4  C2  PXY d   1      -5.442   4.764  -4.247  0.00  0.00     0.003 A 
ATOM      5  C3  PXY d   1      -6.000   4.316  -3.078  0.00  0.00     0.003 A 
ATOM      6  C4  PXY d   1      -5.366   4.525  -1.883  0.00  0.00    -0.082 A 
ATOM      7  C5  PXY d   1      -4.205   5.214  -1.857  0.00  0.00     0.003 A 
ATOM      8  C6  PXY d   1      -3.677   5.697  -3.050  0.00  0.00     0.003 A 
ENDROOT
TORSDOF 0
ENDMDL
