MODEL 1
REMARK minimizedAffinity 5.76499653
REMARK minimizedRMSD -1
REMARK  0 active torsions:
REMARK  status: ('A' for Active; 'I' for Inactive)
ROOT
ATOM      1  C4' PXY d   1      -3.312   5.671  -5.429  0.00  0.00     0.077 C 
ATOM      2  C1' PXY d   1      -5.999   4.742  -0.395  0.00  0.00     0.077 C 
ATOM      3  C1  PXY d   1      -5.302   4.977  -1.721  0.00  0.00    -0.082 A 
ATOM      4  C2  PXY d   1      -4.064   5.445  -1.736  0.00  0.00     0.003 A 
ATOM      5  C3  PXY d   1      -3.431   5.693  -2.926  0.00  0.00     0.003 A 
ATOM      6  C4  PXY d   1      -4.051   5.410  -4.114  0.00  0.00    -0.082 A 
ATOM      7  C5  PXY d   1      -5.310   4.922  -4.107  0.00  0.00     0.003 A 
ATOM      8  C6  PXY d   1      -5.951   4.716  -2.888  0.00  0.00     0.003 A 
ENDROOT
TORSDOF 0
ENDMDL
