MODEL 1
REMARK minimizedAffinity 6.06758308
REMARK minimizedRMSD -1
REMARK  0 active torsions:
REMARK  status: ('A' for Active; 'I' for Inactive)
ROOT
ATOM      1  C4' PXY d   1       1.337  -4.451  -4.358  0.00  0.00     0.077 C 
ATOM      2  C1' PXY d   1      -4.160  -5.629  -5.705  0.00  0.00     0.077 C 
ATOM      3  C1  PXY d   1      -2.715  -5.332  -5.356  0.00  0.00    -0.082 A 
ATOM      4  C2  PXY d   1      -2.438  -4.428  -4.430  0.00  0.00     0.003 A 
ATOM      5  C3  PXY d   1      -1.136  -4.124  -4.125  0.00  0.00     0.003 A 
ATOM      6  C4  PXY d   1      -0.108  -4.790  -4.736  0.00  0.00    -0.082 A 
ATOM      7  C5  PXY d   1      -0.382  -5.721  -5.674  0.00  0.00     0.003 A 
ATOM      8  C6  PXY d   1      -1.709  -5.985  -5.999  0.00  0.00     0.003 A 
ENDROOT
TORSDOF 0
ENDMDL
