MODEL 1
REMARK minimizedAffinity 4.83978701
REMARK minimizedRMSD -1
REMARK  0 active torsions:
REMARK  status: ('A' for Active; 'I' for Inactive)
ROOT
ATOM      1  C4' PXY d   1      -1.780  -0.783   1.883  0.00  0.00     0.077 C 
ATOM      2  C1' PXY d   1      -4.470   2.256   5.999  0.00  0.00     0.077 C 
ATOM      3  C1  PXY d   1      -3.776   1.455   4.915  0.00  0.00    -0.082 A 
ATOM      4  C2  PXY d   1      -2.517   1.082   5.082  0.00  0.00     0.003 A 
ATOM      5  C3  PXY d   1      -1.865   0.385   4.098  0.00  0.00     0.003 A 
ATOM      6  C4  PXY d   1      -2.523   0.019   2.955  0.00  0.00    -0.082 A 
ATOM      7  C5  PXY d   1      -3.811   0.386   2.782  0.00  0.00     0.003 A 
ATOM      8  C6  PXY d   1      -4.443   1.130   3.775  0.00  0.00     0.003 A 
ENDROOT
TORSDOF 0
ENDMDL
