MODEL 1
REMARK minimizedAffinity -1.59108388
REMARK minimizedRMSD -1
REMARK  0 active torsions:
REMARK  status: ('A' for Active; 'I' for Inactive)
ROOT
ATOM      1  C   UNL d   1      -0.764   1.472  -0.540  0.00  0.00    -0.002 A 
ATOM      2  C1  UNL d   1       0.431   2.078  -0.180  0.00  0.00     0.010 A 
ATOM      3  C2  UNL d   1       1.599   1.324  -0.050  0.00  0.00     0.041 A 
ATOM      4  C3  UNL d   1       1.545  -0.063  -0.294  0.00  0.00    -0.075 A 
ATOM      5  S   UNL d   1       2.849  -1.187  -0.197  0.00  0.00     0.015 SA
ATOM      6  C4  UNL d   1       1.850  -2.497  -0.634  0.00  0.00     0.022 A 
ATOM      7  C5  UNL d   1       0.550  -2.105  -0.851  0.00  0.00     0.026 A 
ATOM      8  C6  UNL d   1       0.353  -0.695  -0.659  0.00  0.00    -0.082 A 
ATOM      9  C7  UNL d   1      -0.814   0.097  -0.781  0.00  0.00     0.045 A 
ENDROOT
TORSDOF 0
ENDMDL
