MODEL 1
REMARK minimizedAffinity -3.62312031
REMARK minimizedRMSD -1
REMARK  0 active torsions:
REMARK  status: ('A' for Active; 'I' for Inactive)
ROOT
ATOM      1  C   UNL d   1       2.957  -1.537   0.678  0.00  0.00    -0.002 A 
ATOM      2  C1  UNL d   1       2.875  -0.249   1.188  0.00  0.00     0.010 A 
ATOM      3  C2  UNL d   1       1.722   0.516   1.001  0.00  0.00     0.041 A 
ATOM      4  C3  UNL d   1       0.642  -0.041   0.289  0.00  0.00    -0.075 A 
ATOM      5  S   UNL d   1      -0.870   0.709  -0.061  0.00  0.00     0.015 SA
ATOM      6  C4  UNL d   1      -1.443  -0.663  -0.894  0.00  0.00     0.022 A 
ATOM      7  C5  UNL d   1      -0.516  -1.678  -0.915  0.00  0.00     0.026 A 
ATOM      8  C6  UNL d   1       0.701  -1.337  -0.233  0.00  0.00    -0.082 A 
ATOM      9  C7  UNL d   1       1.884  -2.087  -0.028  0.00  0.00     0.045 A 
ENDROOT
TORSDOF 0
ENDMDL
