MODEL 1
REMARK minimizedAffinity 0.414836466
REMARK minimizedRMSD -1
REMARK  0 active torsions:
REMARK  status: ('A' for Active; 'I' for Inactive)
ROOT
ATOM      1  C   UNL d   1       0.599  -3.188  -0.336  0.00  0.00    -0.002 A 
ATOM      2  C1  UNL d   1       1.900  -2.703  -0.355  0.00  0.00     0.010 A 
ATOM      3  C2  UNL d   1       2.147  -1.330  -0.309  0.00  0.00     0.041 A 
ATOM      4  C3  UNL d   1       1.054  -0.443  -0.240  0.00  0.00    -0.075 A 
ATOM      5  S   UNL d   1       1.116   1.279  -0.172  0.00  0.00     0.015 SA
ATOM      6  C4  UNL d   1      -0.582   1.412  -0.116  0.00  0.00     0.022 A 
ATOM      7  C5  UNL d   1      -1.197   0.183  -0.147  0.00  0.00     0.026 A 
ATOM      8  C6  UNL d   1      -0.264  -0.907  -0.218  0.00  0.00    -0.082 A 
ATOM      9  C7  UNL d   1      -0.482  -2.305  -0.268  0.00  0.00     0.045 A 
ENDROOT
TORSDOF 0
ENDMDL
