MODEL 1
REMARK minimizedAffinity -1.21726418
REMARK minimizedRMSD -1
REMARK  0 active torsions:
REMARK  status: ('A' for Active; 'I' for Inactive)
ROOT
ATOM      1  C   UNL d   1       2.302  -1.903   0.297  0.00  0.00    -0.002 A 
ATOM      2  C1  UNL d   1       2.927  -0.729   0.696  0.00  0.00     0.010 A 
ATOM      3  C2  UNL d   1       2.248   0.490   0.643  0.00  0.00     0.041 A 
ATOM      4  C3  UNL d   1       0.918   0.510   0.180  0.00  0.00    -0.075 A 
ATOM      5  S   UNL d   1      -0.110   1.886   0.030  0.00  0.00     0.015 SA
ATOM      6  C4  UNL d   1      -1.403   0.948  -0.566  0.00  0.00     0.022 A 
ATOM      7  C5  UNL d   1      -1.076  -0.384  -0.654  0.00  0.00     0.026 A 
ATOM      8  C6  UNL d   1       0.267  -0.659  -0.225  0.00  0.00    -0.082 A 
ATOM      9  C7  UNL d   1       0.982  -1.879  -0.161  0.00  0.00     0.045 A 
ENDROOT
TORSDOF 0
ENDMDL
