MODEL 1
REMARK minimizedAffinity -2.21366739
REMARK minimizedRMSD -1
REMARK  0 active torsions:
REMARK  status: ('A' for Active; 'I' for Inactive)
ROOT
ATOM      1  C   UNL d   1       1.817  -0.317   0.459  0.00  0.00    -0.002 A 
ATOM      2  C1  UNL d   1       1.973   1.059   0.371  0.00  0.00     0.010 A 
ATOM      3  C2  UNL d   1       0.878   1.882   0.104  0.00  0.00     0.041 A 
ATOM      4  C3  UNL d   1      -0.390   1.294  -0.074  0.00  0.00    -0.075 A 
ATOM      5  S   UNL d   1      -1.874   2.104  -0.409  0.00  0.00     0.015 SA
ATOM      6  C4  UNL d   1      -2.751   0.643  -0.443  0.00  0.00     0.022 A 
ATOM      7  C5  UNL d   1      -1.946  -0.447  -0.206  0.00  0.00     0.026 A 
ATOM      8  C6  UNL d   1      -0.572  -0.089   0.011  0.00  0.00    -0.082 A 
ATOM      9  C7  UNL d   1       0.558  -0.897   0.283  0.00  0.00     0.045 A 
ENDROOT
TORSDOF 0
ENDMDL
