MODEL 1
REMARK minimizedAffinity -2.7782712
REMARK minimizedRMSD -1
REMARK  0 active torsions:
REMARK  status: ('A' for Active; 'I' for Inactive)
ROOT
ATOM      1  C2' OXE d   1       0.209  -0.736  -0.840  0.00  0.00     0.078 C 
ATOM      2  C1' OXE d   1       2.327  -1.124   0.960  0.00  0.00     0.078 C 
ATOM      3  C1  OXE d   1       0.988  -0.721   1.526  0.00  0.00    -0.078 A 
ATOM      4  C2  OXE d   1      -0.031  -0.488   0.634  0.00  0.00    -0.078 A 
ATOM      5  C3  OXE d   1      -1.300  -0.168   1.106  0.00  0.00     0.003 A 
ATOM      6  C4  OXE d   1      -1.510   0.069   2.470  0.00  0.00    -0.002 A 
ATOM      7  C5  OXE d   1      -0.476  -0.125   3.392  0.00  0.00    -0.002 A 
ATOM      8  C6  OXE d   1       0.766  -0.560   2.941  0.00  0.00     0.003 A 
ENDROOT
TORSDOF 0
ENDMDL
