MODEL 1
REMARK minimizedAffinity -5.21580076
REMARK minimizedRMSD -1
REMARK  0 active torsions:
REMARK  status: ('A' for Active; 'I' for Inactive)
ROOT
ATOM      1  C2' OXE d   1       2.254  -0.567   2.252  0.00  0.00     0.078 C 
ATOM      2  C1' OXE d   1      -0.057   0.651   3.281  0.00  0.00     0.078 C 
ATOM      3  C1  OXE d   1      -0.090   0.174   1.851  0.00  0.00    -0.078 A 
ATOM      4  C2  OXE d   1       1.060  -0.379   1.341  0.00  0.00    -0.078 A 
ATOM      5  C3  OXE d   1       1.066  -0.885   0.044  0.00  0.00     0.003 A 
ATOM      6  C4  OXE d   1      -0.039  -0.698  -0.795  0.00  0.00    -0.002 A 
ATOM      7  C5  OXE d   1      -1.207  -0.102  -0.308  0.00  0.00    -0.002 A 
ATOM      8  C6  OXE d   1      -1.264   0.300   1.022  0.00  0.00     0.003 A 
ENDROOT
TORSDOF 0
ENDMDL
