MODEL 1
REMARK minimizedAffinity -2.99657202
REMARK minimizedRMSD -1
REMARK  0 active torsions:
REMARK  status: ('A' for Active; 'I' for Inactive)
ROOT
ATOM      1  C2' OXE d   1      -2.195   1.423  -0.571  0.00  0.00     0.078 C 
ATOM      2  C1' OXE d   1      -1.035   1.303   1.982  0.00  0.00     0.078 C 
ATOM      3  C1  OXE d   1      -0.302   0.637   0.845  0.00  0.00    -0.078 A 
ATOM      4  C2  OXE d   1      -0.900   0.660  -0.392  0.00  0.00    -0.078 A 
ATOM      5  C3  OXE d   1      -0.241   0.108  -1.487  0.00  0.00     0.003 A 
ATOM      6  C4  OXE d   1       0.952  -0.604  -1.311  0.00  0.00    -0.002 A 
ATOM      7  C5  OXE d   1       1.558  -0.674  -0.053  0.00  0.00    -0.002 A 
ATOM      8  C6  OXE d   1       0.967  -0.024   1.025  0.00  0.00     0.003 A 
ENDROOT
TORSDOF 0
ENDMDL
