MODEL 1
REMARK minimizedAffinity -1.66599429
REMARK minimizedRMSD -1
REMARK  0 active torsions:
REMARK  status: ('A' for Active; 'I' for Inactive)
ROOT
ATOM      1  C2' OXE d   1       0.323  -0.939  -0.872  0.00  0.00     0.078 C 
ATOM      2  C1' OXE d   1      -2.219   0.237  -0.674  0.00  0.00     0.078 C 
ATOM      3  C1  OXE d   1      -1.332   0.270   0.545  0.00  0.00    -0.078 A 
ATOM      4  C2  OXE d   1      -0.108  -0.348   0.454  0.00  0.00    -0.078 A 
ATOM      5  C3  OXE d   1       0.771  -0.299   1.531  0.00  0.00     0.003 A 
ATOM      6  C4  OXE d   1       0.361   0.240   2.757  0.00  0.00    -0.002 A 
ATOM      7  C5  OXE d   1      -0.896   0.840   2.883  0.00  0.00    -0.002 A 
ATOM      8  C6  OXE d   1      -1.736   0.901   1.777  0.00  0.00     0.003 A 
ENDROOT
TORSDOF 0
ENDMDL
