MODEL 1
REMARK minimizedAffinity -6.42362547
REMARK minimizedRMSD -1
REMARK  0 active torsions:
REMARK  status: ('A' for Active; 'I' for Inactive)
ROOT
ATOM      1  C2' OXE d   1       2.019   0.023   2.605  0.00  0.00     0.078 C 
ATOM      2  C1' OXE d   1      -0.268   1.239   3.689  0.00  0.00     0.078 C 
ATOM      3  C1  OXE d   1      -0.361   0.688   2.288  0.00  0.00    -0.078 A 
ATOM      4  C2  OXE d   1       0.777   0.136   1.748  0.00  0.00    -0.078 A 
ATOM      5  C3  OXE d   1       0.731  -0.436   0.480  0.00  0.00     0.003 A 
ATOM      6  C4  OXE d   1      -0.419  -0.318  -0.310  0.00  0.00    -0.002 A 
ATOM      7  C5  OXE d   1      -1.577   0.276   0.206  0.00  0.00    -0.002 A 
ATOM      8  C6  OXE d   1      -1.577   0.744   1.515  0.00  0.00     0.003 A 
ENDROOT
TORSDOF 0
ENDMDL
