MODEL 1
REMARK minimizedAffinity -5.53077316
REMARK minimizedRMSD -1
REMARK  0 active torsions:
REMARK  status: ('A' for Active; 'I' for Inactive)
ROOT
ATOM      1  C2' OXE d   1       0.370  -0.387  -0.828  0.00  0.00     0.078 C 
ATOM      2  C1' OXE d   1       2.044  -1.078   1.317  0.00  0.00     0.078 C 
ATOM      3  C1  OXE d   1       0.797  -0.289   1.625  0.00  0.00    -0.078 A 
ATOM      4  C2  OXE d   1       0.007   0.085   0.564  0.00  0.00    -0.078 A 
ATOM      5  C3  OXE d   1      -1.184   0.767   0.797  0.00  0.00     0.003 A 
ATOM      6  C4  OXE d   1      -1.507   1.209   2.086  0.00  0.00    -0.002 A 
ATOM      7  C5  OXE d   1      -0.696   0.873   3.175  0.00  0.00    -0.002 A 
ATOM      8  C6  OXE d   1       0.434   0.090   2.968  0.00  0.00     0.003 A 
ENDROOT
TORSDOF 0
ENDMDL
