MODEL 1
REMARK minimizedAffinity -5.88471603
REMARK minimizedRMSD -1
REMARK  0 active torsions:
REMARK  status: ('A' for Active; 'I' for Inactive)
ROOT
ATOM      1  C2' OXE d   1      -2.033   0.341  -0.176  0.00  0.00     0.078 C 
ATOM      2  C1' OXE d   1       0.595  -0.457  -0.756  0.00  0.00     0.078 C 
ATOM      3  C1  OXE d   1       0.276  -0.066   0.665  0.00  0.00    -0.078 A 
ATOM      4  C2  OXE d   1      -1.000   0.368   0.930  0.00  0.00    -0.078 A 
ATOM      5  C3  OXE d   1      -1.363   0.688   2.236  0.00  0.00     0.003 A 
ATOM      6  C4  OXE d   1      -0.399   0.720   3.251  0.00  0.00    -0.002 A 
ATOM      7  C5  OXE d   1       0.916   0.320   2.994  0.00  0.00    -0.002 A 
ATOM      8  C6  OXE d   1       1.260  -0.116   1.719  0.00  0.00     0.003 A 
ENDROOT
TORSDOF 0
ENDMDL
