MODEL 1
REMARK minimizedAffinity -2.33362031
REMARK minimizedRMSD -1
REMARK  0 active torsions:
REMARK  status: ('A' for Active; 'I' for Inactive)
ROOT
ATOM      1  C2' OXE d   1      -0.716   1.252  -1.011  0.00  0.00     0.078 C 
ATOM      2  C1' OXE d   1      -2.926   0.424   0.510  0.00  0.00     0.078 C 
ATOM      3  C1  OXE d   1      -1.571   0.408   1.172  0.00  0.00    -0.078 A 
ATOM      4  C2  OXE d   1      -0.489   0.770   0.406  0.00  0.00    -0.078 A 
ATOM      5  C3  OXE d   1       0.777   0.826   0.983  0.00  0.00     0.003 A 
ATOM      6  C4  OXE d   1       0.980   0.370   2.292  0.00  0.00    -0.002 A 
ATOM      7  C5  OXE d   1      -0.103  -0.041   3.076  0.00  0.00    -0.002 A 
ATOM      8  C6  OXE d   1      -1.387   0.012   2.546  0.00  0.00     0.003 A 
ENDROOT
TORSDOF 0
ENDMDL
