MODEL 1
REMARK minimizedAffinity -0.940105557
REMARK minimizedRMSD -1
REMARK  0 active torsions:
REMARK  status: ('A' for Active; 'I' for Inactive)
ROOT
ATOM      1  C   UNL d   1       2.033  -2.035  -0.030  0.00  0.00     0.172 C 
ATOM      2  N   UNL d   1       2.732  -0.802  -0.305  0.00  0.00    -0.070 N 
ATOM      3  C1  UNL d   1       2.289   0.454   0.013  0.00  0.00    -0.004 A 
ATOM      4  C2  UNL d   1       3.238   1.357  -0.415  0.00  0.00    -0.047 A 
ATOM      5  C3  UNL d   1       4.287   0.618  -1.011  0.00  0.00    -0.047 A 
ATOM      6  C4  UNL d   1       3.948  -0.716  -0.930  0.00  0.00    -0.004 A 
ENDROOT
TORSDOF 0
ENDMDL
