MODEL 1
REMARK minimizedAffinity 1.11524653
REMARK minimizedRMSD -1
REMARK  0 active torsions:
REMARK  status: ('A' for Active; 'I' for Inactive)
ROOT
ATOM      1  C   UNL d   1       1.395   1.198   0.364  0.00  0.00     0.172 C 
ATOM      2  N   UNL d   1       1.856  -0.165   0.245  0.00  0.00    -0.070 N 
ATOM      3  C1  UNL d   1       1.563  -1.185   1.111  0.00  0.00    -0.004 A 
ATOM      4  C2  UNL d   1       2.189  -2.323   0.650  0.00  0.00    -0.047 A 
ATOM      5  C3  UNL d   1       2.882  -1.975  -0.534  0.00  0.00    -0.047 A 
ATOM      6  C4  UNL d   1       2.659  -0.633  -0.761  0.00  0.00    -0.004 A 
ENDROOT
TORSDOF 0
ENDMDL
