MODEL 1
REMARK minimizedAffinity -3.14011312
REMARK minimizedRMSD -1
REMARK  0 active torsions:
REMARK  status: ('A' for Active; 'I' for Inactive)
ROOT
ATOM      1  C   UNL d   1       1.044   1.905   0.214  0.00  0.00     0.172 C 
ATOM      2  N   UNL d   1       0.850   0.480   0.081  0.00  0.00    -0.070 N 
ATOM      3  C1  UNL d   1      -0.354  -0.149  -0.093  0.00  0.00    -0.004 A 
ATOM      4  C2  UNL d   1      -0.115  -1.503  -0.175  0.00  0.00    -0.047 A 
ATOM      5  C3  UNL d   1       1.281  -1.695  -0.045  0.00  0.00    -0.047 A 
ATOM      6  C4  UNL d   1       1.854  -0.451   0.113  0.00  0.00    -0.004 A 
ENDROOT
TORSDOF 0
ENDMDL
