MODEL 1
REMARK minimizedAffinity 2.67346716
REMARK minimizedRMSD -1
REMARK  0 active torsions:
REMARK  status: ('A' for Active; 'I' for Inactive)
ROOT
ATOM      1  C   UNL d   1       3.002   0.529  -1.061  0.00  0.00     0.172 C 
ATOM      2  N   UNL d   1       2.739  -0.626  -0.235  0.00  0.00    -0.070 N 
ATOM      3  C1  UNL d   1       2.243  -1.825  -0.674  0.00  0.00    -0.004 A 
ATOM      4  C2  UNL d   1       2.138  -2.662   0.416  0.00  0.00    -0.047 A 
ATOM      5  C3  UNL d   1       2.585  -1.941   1.549  0.00  0.00    -0.047 A 
ATOM      6  C4  UNL d   1       2.952  -0.683   1.117  0.00  0.00    -0.004 A 
ENDROOT
TORSDOF 0
ENDMDL
