MODEL 1
REMARK minimizedAffinity -1.21636724
REMARK minimizedRMSD -1
REMARK  0 active torsions:
REMARK  status: ('A' for Active; 'I' for Inactive)
ROOT
ATOM      1  C   UNL d   1       1.834  -1.918  -0.343  0.00  0.00     0.172 C 
ATOM      2  N   UNL d   1       0.702  -2.643  -0.872  0.00  0.00    -0.070 N 
ATOM      3  C1  UNL d   1      -0.250  -2.132  -1.713  0.00  0.00    -0.004 A 
ATOM      4  C2  UNL d   1      -1.154  -3.136  -1.987  0.00  0.00    -0.047 A 
ATOM      5  C3  UNL d   1      -0.730  -4.290  -1.286  0.00  0.00    -0.047 A 
ATOM      6  C4  UNL d   1       0.421  -3.956  -0.604  0.00  0.00    -0.004 A 
ENDROOT
TORSDOF 0
ENDMDL
