MODEL 1
REMARK minimizedAffinity 3.68546677
REMARK minimizedRMSD -1
REMARK  0 active torsions:
REMARK  status: ('A' for Active; 'I' for Inactive)
ROOT
ATOM      1  C   UNL d   1      -0.764  -2.241  -2.646  0.00  0.00     0.172 C 
ATOM      2  N   UNL d   1       0.065  -1.779  -1.558  0.00  0.00    -0.070 N 
ATOM      3  C1  UNL d   1      -0.216  -0.724  -0.732  0.00  0.00    -0.004 A 
ATOM      4  C2  UNL d   1       0.818  -0.608   0.172  0.00  0.00    -0.047 A 
ATOM      5  C3  UNL d   1       1.753  -1.629  -0.121  0.00  0.00    -0.047 A 
ATOM      6  C4  UNL d   1       1.262  -2.339  -1.196  0.00  0.00    -0.004 A 
ENDROOT
TORSDOF 0
ENDMDL
