MODEL 1
REMARK minimizedAffinity 1.13158083
REMARK minimizedRMSD -1
REMARK  0 active torsions:
REMARK  status: ('A' for Active; 'I' for Inactive)
ROOT
ATOM      1  C   UNL d   1       1.497  -3.066   4.140  0.00  0.00     0.172 C 
ATOM      2  N   UNL d   1       0.613  -4.036   4.742  0.00  0.00    -0.070 N 
ATOM      3  C1  UNL d   1       0.614  -5.382   4.490  0.00  0.00    -0.004 A 
ATOM      4  C2  UNL d   1      -0.375  -5.956   5.260  0.00  0.00    -0.047 A 
ATOM      5  C3  UNL d   1      -0.991  -4.919   6.000  0.00  0.00    -0.047 A 
ATOM      6  C4  UNL d   1      -0.361  -3.741   5.660  0.00  0.00    -0.004 A 
ENDROOT
TORSDOF 0
ENDMDL
