MODEL 1
REMARK minimizedAffinity -1.16512311
REMARK minimizedRMSD -1
REMARK  0 active torsions:
REMARK  status: ('A' for Active; 'I' for Inactive)
ROOT
ATOM      1  C   UNL d   1      -0.413  -2.379   5.999  0.00  0.00     0.172 C 
ATOM      2  N   UNL d   1      -0.643  -3.804   5.995  0.00  0.00    -0.070 N 
ATOM      3  C1  UNL d   1       0.328  -4.770   5.984  0.00  0.00    -0.004 A 
ATOM      4  C2  UNL d   1      -0.298  -5.998   5.983  0.00  0.00    -0.047 A 
ATOM      5  C3  UNL d   1      -1.693  -5.762   5.993  0.00  0.00    -0.047 A 
ATOM      6  C4  UNL d   1      -1.879  -4.396   6.000  0.00  0.00    -0.004 A 
ENDROOT
TORSDOF 0
ENDMDL
