MODEL 1
REMARK minimizedAffinity 21.638504
REMARK minimizedRMSD -1
REMARK  0 active torsions:
REMARK  status: ('A' for Active; 'I' for Inactive)
ROOT
ATOM      1  C2' OXE d   1       2.602  -2.691  -0.320  0.00  0.00     0.078 C 
ATOM      2  C1' OXE d   1       4.965  -2.637   1.195  0.00  0.00     0.078 C 
ATOM      3  C1  OXE d   1       3.793  -1.828   1.691  0.00  0.00    -0.078 A 
ATOM      4  C2  OXE d   1       2.656  -1.823   0.918  0.00  0.00    -0.078 A 
ATOM      5  C3  OXE d   1       1.527  -1.137   1.358  0.00  0.00     0.003 A 
ATOM      6  C4  OXE d   1       1.588  -0.328   2.499  0.00  0.00    -0.002 A 
ATOM      7  C5  OXE d   1       2.749  -0.288   3.279  0.00  0.00    -0.002 A 
ATOM      8  C6  OXE d   1       3.844  -1.063   2.912  0.00  0.00     0.003 A 
ENDROOT
TORSDOF 0
ENDMDL
