MODEL 1
REMARK minimizedAffinity 15.158164
REMARK minimizedRMSD -1
REMARK  0 active torsions:
REMARK  status: ('A' for Active; 'I' for Inactive)
ROOT
ATOM      1  C2' OXE d   1       3.716  -1.369   1.631  0.00  0.00     0.078 C 
ATOM      2  C1' OXE d   1       4.946  -3.804   0.971  0.00  0.00     0.078 C 
ATOM      3  C1  OXE d   1       3.642  -3.469   0.292  0.00  0.00    -0.078 A 
ATOM      4  C2  OXE d   1       3.023  -2.297   0.656  0.00  0.00    -0.078 A 
ATOM      5  C3  OXE d   1       1.846  -1.913   0.020  0.00  0.00     0.003 A 
ATOM      6  C4  OXE d   1       1.207  -2.781  -0.873  0.00  0.00    -0.002 A 
ATOM      7  C5  OXE d   1       1.800  -3.998  -1.227  0.00  0.00    -0.002 A 
ATOM      8  C6  OXE d   1       3.036  -4.336  -0.687  0.00  0.00     0.003 A 
ENDROOT
TORSDOF 0
ENDMDL
