MODEL 1
REMARK minimizedAffinity 15.4447384
REMARK minimizedRMSD -1
REMARK  0 active torsions:
REMARK  status: ('A' for Active; 'I' for Inactive)
ROOT
ATOM      1  C2' OXE d   1       2.946  -1.496   1.277  0.00  0.00     0.078 C 
ATOM      2  C1' OXE d   1       1.118  -0.054  -0.291  0.00  0.00     0.078 C 
ATOM      3  C1  OXE d   1       1.283  -1.525  -0.577  0.00  0.00    -0.078 A 
ATOM      4  C2  OXE d   1       2.214  -2.213   0.163  0.00  0.00    -0.078 A 
ATOM      5  C3  OXE d   1       2.367  -3.584  -0.023  0.00  0.00     0.003 A 
ATOM      6  C4  OXE d   1       1.693  -4.238  -1.062  0.00  0.00    -0.002 A 
ATOM      7  C5  OXE d   1       0.770  -3.547  -1.854  0.00  0.00    -0.002 A 
ATOM      8  C6  OXE d   1       0.522  -2.203  -1.598  0.00  0.00     0.003 A 
ENDROOT
TORSDOF 0
ENDMDL
