MODEL 1
REMARK minimizedAffinity 18.1870632
REMARK minimizedRMSD -1
REMARK  0 active torsions:
REMARK  status: ('A' for Active; 'I' for Inactive)
ROOT
ATOM      1  C2' OXE d   1       1.570  -4.251  -2.527  0.00  0.00     0.078 C 
ATOM      2  C1' OXE d   1       3.258  -3.263  -4.541  0.00  0.00     0.078 C 
ATOM      3  C1  OXE d   1       3.878  -4.103  -3.453  0.00  0.00    -0.078 A 
ATOM      4  C2  OXE d   1       3.052  -4.543  -2.446  0.00  0.00    -0.078 A 
ATOM      5  C3  OXE d   1       3.563  -5.367  -1.447  0.00  0.00     0.003 A 
ATOM      6  C4  OXE d   1       4.937  -5.625  -1.374  0.00  0.00    -0.002 A 
ATOM      7  C5  OXE d   1       5.802  -5.153  -2.367  0.00  0.00    -0.002 A 
ATOM      8  C6  OXE d   1       5.283  -4.428  -3.434  0.00  0.00     0.003 A 
ENDROOT
TORSDOF 0
ENDMDL
