MODEL 1
REMARK minimizedAffinity 16.5552406
REMARK minimizedRMSD -1
REMARK  0 active torsions:
REMARK  status: ('A' for Active; 'I' for Inactive)
ROOT
ATOM      1  C2' OXE d   1       5.250  -4.500   0.784  0.00  0.00     0.078 C 
ATOM      2  C1' OXE d   1       4.500  -5.950  -1.500  0.00  0.00     0.078 C 
ATOM      3  C1  OXE d   1       3.562  -4.875  -1.010  0.00  0.00    -0.078 A 
ATOM      4  C2  OXE d   1       3.915  -4.202   0.135  0.00  0.00    -0.078 A 
ATOM      5  C3  OXE d   1       3.113  -3.164   0.600  0.00  0.00     0.003 A 
ATOM      6  C4  OXE d   1       1.875  -2.902   0.000  0.00  0.00    -0.002 A 
ATOM      7  C5  OXE d   1       1.478  -3.602  -1.144  0.00  0.00    -0.002 A 
ATOM      8  C6  OXE d   1       2.328  -4.561  -1.686  0.00  0.00     0.003 A 
ENDROOT
TORSDOF 0
ENDMDL
