MODEL 1
REMARK minimizedAffinity 2.56107759
REMARK minimizedRMSD -1
REMARK  0 active torsions:
REMARK  status: ('A' for Active; 'I' for Inactive)
ROOT
ATOM      1  C2' OXE d   1      -4.114   5.996  -5.356  0.00  0.00     0.078 C 
ATOM      2  C1' OXE d   1      -1.641   5.121  -4.356  0.00  0.00     0.078 C 
ATOM      3  C1  OXE d   1      -2.758   4.112  -4.451  0.00  0.00    -0.078 A 
ATOM      4  C2  OXE d   1      -3.978   4.560  -4.898  0.00  0.00    -0.078 A 
ATOM      5  C3  OXE d   1      -5.027   3.659  -5.056  0.00  0.00     0.003 A 
ATOM      6  C4  OXE d   1      -4.896   2.335  -4.620  0.00  0.00    -0.002 A 
ATOM      7  C5  OXE d   1      -3.674   1.868  -4.125  0.00  0.00    -0.002 A 
ATOM      8  C6  OXE d   1      -2.585   2.731  -4.074  0.00  0.00     0.003 A 
ENDROOT
TORSDOF 0
ENDMDL
