MODEL 1
REMARK minimizedAffinity 12.5728884
REMARK minimizedRMSD -1
REMARK  0 active torsions:
REMARK  status: ('A' for Active; 'I' for Inactive)
ROOT
ATOM      1  C2' OXE d   1       2.690  -0.946   0.586  0.00  0.00     0.078 C 
ATOM      2  C1' OXE d   1       1.900  -3.596   0.100  0.00  0.00     0.078 C 
ATOM      3  C1  OXE d   1       3.322  -3.356   0.543  0.00  0.00    -0.078 A 
ATOM      4  C2  OXE d   1       3.713  -2.052   0.733  0.00  0.00    -0.078 A 
ATOM      5  C3  OXE d   1       4.998  -1.778   1.194  0.00  0.00     0.003 A 
ATOM      6  C4  OXE d   1       5.941  -2.806   1.318  0.00  0.00    -0.002 A 
ATOM      7  C5  OXE d   1       5.574  -4.137   1.091  0.00  0.00    -0.002 A 
ATOM      8  C6  OXE d   1       4.260  -4.432   0.745  0.00  0.00     0.003 A 
ENDROOT
TORSDOF 0
ENDMDL
