MODEL 1
REMARK minimizedAffinity 7.31466198
REMARK minimizedRMSD -1
REMARK  0 active torsions:
REMARK  status: ('A' for Active; 'I' for Inactive)
ROOT
ATOM      1  C2' OXE d   1       2.466  -1.450   0.727  0.00  0.00     0.078 C 
ATOM      2  C1' OXE d   1       2.029  -4.069  -0.184  0.00  0.00     0.078 C 
ATOM      3  C1  OXE d   1       3.433  -3.688   0.214  0.00  0.00    -0.078 A 
ATOM      4  C2  OXE d   1       3.646  -2.391   0.614  0.00  0.00    -0.078 A 
ATOM      5  C3  OXE d   1       4.912  -2.002   1.044  0.00  0.00     0.003 A 
ATOM      6  C4  OXE d   1       6.000  -2.875   0.927  0.00  0.00    -0.002 A 
ATOM      7  C5  OXE d   1       5.812  -4.189   0.484  0.00  0.00    -0.002 A 
ATOM      8  C6  OXE d   1       4.530  -4.623   0.165  0.00  0.00     0.003 A 
ENDROOT
TORSDOF 0
ENDMDL
