MODEL 1
REMARK minimizedAffinity 18.1423664
REMARK minimizedRMSD -1
REMARK  0 active torsions:
REMARK  status: ('A' for Active; 'I' for Inactive)
ROOT
ATOM      1  C2' OXE d   1      -5.450  -5.303   5.989  0.00  0.00     0.078 C 
ATOM      2  C1' OXE d   1      -4.575  -2.733   5.276  0.00  0.00     0.078 C 
ATOM      3  C1  OXE d   1      -5.084  -3.633   4.178  0.00  0.00    -0.078 A 
ATOM      4  C2  OXE d   1      -5.467  -4.905   4.529  0.00  0.00    -0.078 A 
ATOM      5  C3  OXE d   1      -5.995  -5.757   3.564  0.00  0.00     0.003 A 
ATOM      6  C4  OXE d   1      -5.998  -5.384   2.214  0.00  0.00    -0.002 A 
ATOM      7  C5  OXE d   1      -5.576  -4.107   1.829  0.00  0.00    -0.002 A 
ATOM      8  C6  OXE d   1      -5.157  -3.206   2.802  0.00  0.00     0.003 A 
ENDROOT
TORSDOF 0
ENDMDL
