MODEL 1
REMARK minimizedAffinity 11.4508171
REMARK minimizedRMSD -1
REMARK  0 active torsions:
REMARK  status: ('A' for Active; 'I' for Inactive)
ROOT
ATOM      1  C2' OXE d   1       0.156   2.073   0.680  0.00  0.00     0.078 C 
ATOM      2  C1' OXE d   1       1.001  -0.426   1.639  0.00  0.00     0.078 C 
ATOM      3  C1  OXE d   1      -0.351   0.076   2.080  0.00  0.00    -0.078 A 
ATOM      4  C2  OXE d   1      -0.736   1.320   1.643  0.00  0.00    -0.078 A 
ATOM      5  C3  OXE d   1      -1.997   1.808   1.976  0.00  0.00     0.003 A 
ATOM      6  C4  OXE d   1      -2.812   1.110   2.876  0.00  0.00    -0.002 A 
ATOM      7  C5  OXE d   1      -2.421  -0.141   3.365  0.00  0.00    -0.002 A 
ATOM      8  C6  OXE d   1      -1.215  -0.691   2.944  0.00  0.00     0.003 A 
ENDROOT
TORSDOF 0
ENDMDL
