MODEL 1
REMARK minimizedAffinity 8.03560257
REMARK minimizedRMSD -1
REMARK  0 active torsions:
REMARK  status: ('A' for Active; 'I' for Inactive)
ROOT
ATOM      1  C2' OXE d   1       3.190  -2.508   0.750  0.00  0.00     0.078 C 
ATOM      2  C1' OXE d   1       2.869  -3.695  -1.774  0.00  0.00     0.078 C 
ATOM      3  C1  OXE d   1       3.857  -4.322  -0.822  0.00  0.00    -0.078 A 
ATOM      4  C2  OXE d   1       4.041  -3.708   0.393  0.00  0.00    -0.078 A 
ATOM      5  C3  OXE d   1       4.900  -4.277   1.329  0.00  0.00     0.003 A 
ATOM      6  C4  OXE d   1       5.691  -5.380   0.988  0.00  0.00    -0.002 A 
ATOM      7  C5  OXE d   1       5.547  -5.998  -0.259  0.00  0.00    -0.002 A 
ATOM      8  C6  OXE d   1       4.606  -5.508  -1.158  0.00  0.00     0.003 A 
ENDROOT
TORSDOF 0
ENDMDL
