MODEL 1
REMARK minimizedAffinity 13.9128284
REMARK minimizedRMSD -1
REMARK  0 active torsions:
REMARK  status: ('A' for Active; 'I' for Inactive)
ROOT
ATOM      1  C2' OXE d   1       1.223   4.151  -0.249  0.00  0.00     0.078 C 
ATOM      2  C1' OXE d   1       0.063   1.770   0.680  0.00  0.00     0.078 C 
ATOM      3  C1  OXE d   1      -0.350   2.269  -0.682  0.00  0.00    -0.078 A 
ATOM      4  C2  OXE d   1       0.188   3.459  -1.109  0.00  0.00    -0.078 A 
ATOM      5  C3  OXE d   1      -0.117   3.937  -2.381  0.00  0.00     0.003 A 
ATOM      6  C4  OXE d   1      -1.083   3.296  -3.166  0.00  0.00    -0.002 A 
ATOM      7  C5  OXE d   1      -1.672   2.103  -2.733  0.00  0.00    -0.002 A 
ATOM      8  C6  OXE d   1      -1.286   1.555  -1.515  0.00  0.00     0.003 A 
ENDROOT
TORSDOF 0
ENDMDL
