MODEL 1
REMARK minimizedAffinity 4.64671373
REMARK minimizedRMSD -1
REMARK  0 active torsions:
REMARK  status: ('A' for Active; 'I' for Inactive)
ROOT
ATOM      1  C2' OXE d   1      -3.702  -4.097   3.752  0.00  0.00     0.078 C 
ATOM      2  C1' OXE d   1      -3.002  -1.851   5.284  0.00  0.00     0.078 C 
ATOM      3  C1  OXE d   1      -2.050  -3.021   5.275  0.00  0.00    -0.078 A 
ATOM      4  C2  OXE d   1      -2.423  -4.134   4.560  0.00  0.00    -0.078 A 
ATOM      5  C3  OXE d   1      -1.556  -5.220   4.475  0.00  0.00     0.003 A 
ATOM      6  C4  OXE d   1      -0.380  -5.250   5.233  0.00  0.00    -0.002 A 
ATOM      7  C5  OXE d   1      -0.001  -4.142   6.000  0.00  0.00    -0.002 A 
ATOM      8  C6  OXE d   1      -0.802  -3.006   5.998  0.00  0.00     0.003 A 
ENDROOT
TORSDOF 0
ENDMDL
