MODEL 1
REMARK minimizedAffinity 6.23935413
REMARK minimizedRMSD -1
REMARK  0 active torsions:
REMARK  status: ('A' for Active; 'I' for Inactive)
ROOT
ATOM      1  C2' OXE d   1      -1.316   2.449   1.282  0.00  0.00     0.078 C 
ATOM      2  C1' OXE d   1      -2.170   5.037   0.609  0.00  0.00     0.078 C 
ATOM      3  C1  OXE d   1      -1.059   4.427  -0.209  0.00  0.00    -0.078 A 
ATOM      4  C2  OXE d   1      -0.616   3.179   0.157  0.00  0.00    -0.078 A 
ATOM      5  C3  OXE d   1       0.370   2.549  -0.598  0.00  0.00     0.003 A 
ATOM      6  C4  OXE d   1       1.020   3.236  -1.630  0.00  0.00    -0.002 A 
ATOM      7  C5  OXE d   1       0.611   4.523  -1.994  0.00  0.00    -0.002 A 
ATOM      8  C6  OXE d   1      -0.453   5.115  -1.322  0.00  0.00     0.003 A 
ENDROOT
TORSDOF 0
ENDMDL
