MODEL 1
REMARK minimizedAffinity 19.5544891
REMARK minimizedRMSD -1
REMARK  0 active torsions:
REMARK  status: ('A' for Active; 'I' for Inactive)
ROOT
ATOM      1  C2' OXE d   1       2.949  -0.722  -4.902  0.00  0.00     0.078 C 
ATOM      2  C1' OXE d   1       2.567   0.630  -2.472  0.00  0.00     0.078 C 
ATOM      3  C1  OXE d   1       1.794   1.112  -3.674  0.00  0.00    -0.078 A 
ATOM      4  C2  OXE d   1       2.022   0.474  -4.870  0.00  0.00    -0.078 A 
ATOM      5  C3  OXE d   1       1.294   0.843  -5.998  0.00  0.00     0.003 A 
ATOM      6  C4  OXE d   1       0.446   1.956  -5.961  0.00  0.00    -0.002 A 
ATOM      7  C5  OXE d   1       0.230   2.645  -4.763  0.00  0.00    -0.002 A 
ATOM      8  C6  OXE d   1       0.862   2.210  -3.603  0.00  0.00     0.003 A 
ENDROOT
TORSDOF 0
ENDMDL
