MODEL 1
REMARK minimizedAffinity 17.9433861
REMARK minimizedRMSD -1
REMARK  0 active torsions:
REMARK  status: ('A' for Active; 'I' for Inactive)
ROOT
ATOM      1  C2' OXE d   1      -1.489   1.493   3.088  0.00  0.00     0.078 C 
ATOM      2  C1' OXE d   1      -3.247   2.972   1.475  0.00  0.00     0.078 C 
ATOM      3  C1  OXE d   1      -1.884   2.649   0.917  0.00  0.00    -0.078 A 
ATOM      4  C2  OXE d   1      -1.013   1.966   1.731  0.00  0.00    -0.078 A 
ATOM      5  C3  OXE d   1       0.237   1.594   1.245  0.00  0.00     0.003 A 
ATOM      6  C4  OXE d   1       0.673   2.044  -0.008  0.00  0.00    -0.002 A 
ATOM      7  C5  OXE d   1      -0.184   2.775  -0.837  0.00  0.00    -0.002 A 
ATOM      8  C6  OXE d   1      -1.478   3.049  -0.408  0.00  0.00     0.003 A 
ENDROOT
TORSDOF 0
ENDMDL
