MODEL 1
REMARK minimizedAffinity 24.8004303
REMARK minimizedRMSD -1
REMARK  0 active torsions:
REMARK  status: ('A' for Active; 'I' for Inactive)
ROOT
ATOM      1  C2' OXE d   1      -1.653   0.655   3.127  0.00  0.00     0.078 C 
ATOM      2  C1' OXE d   1       1.000   1.551   3.331  0.00  0.00     0.078 C 
ATOM      3  C1  OXE d   1       0.174   2.055   2.174  0.00  0.00    -0.078 A 
ATOM      4  C2  OXE d   1      -1.108   1.575   2.056  0.00  0.00    -0.078 A 
ATOM      5  C3  OXE d   1      -1.931   2.050   1.038  0.00  0.00     0.003 A 
ATOM      6  C4  OXE d   1      -1.417   2.893   0.045  0.00  0.00    -0.002 A 
ATOM      7  C5  OXE d   1      -0.101   3.362   0.124  0.00  0.00    -0.002 A 
ATOM      8  C6  OXE d   1       0.692   2.988   1.203  0.00  0.00     0.003 A 
ENDROOT
TORSDOF 0
ENDMDL
