MODEL 1
REMARK minimizedAffinity 11.7412043
REMARK minimizedRMSD -1
REMARK  0 active torsions:
REMARK  status: ('A' for Active; 'I' for Inactive)
ROOT
ATOM      1  C2' OXE d   1      -0.403   1.279   0.841  0.00  0.00     0.078 C 
ATOM      2  C1' OXE d   1      -1.841   1.124  -1.565  0.00  0.00     0.078 C 
ATOM      3  C1  OXE d   1      -1.089   2.399  -1.276  0.00  0.00    -0.078 A 
ATOM      4  C2  OXE d   1      -0.426   2.484  -0.075  0.00  0.00    -0.078 A 
ATOM      5  C3  OXE d   1       0.328   3.616   0.217  0.00  0.00     0.003 A 
ATOM      6  C4  OXE d   1       0.293   4.730  -0.631  0.00  0.00    -0.002 A 
ATOM      7  C5  OXE d   1      -0.408   4.679  -1.840  0.00  0.00    -0.002 A 
ATOM      8  C6  OXE d   1      -1.068   3.508  -2.197  0.00  0.00     0.003 A 
ENDROOT
TORSDOF 0
ENDMDL
