MODEL 1
REMARK minimizedAffinity -2.1438098
REMARK minimizedRMSD -1
REMARK  0 active torsions:
REMARK  status: ('A' for Active; 'I' for Inactive)
ROOT
ATOM      1  C   UNL d   1      -0.382   1.569   0.337  0.00  0.00     0.172 C 
ATOM      2  N   UNL d   1      -1.753   1.268   0.676  0.00  0.00    -0.070 N 
ATOM      3  C1  UNL d   1      -2.390   1.640   1.830  0.00  0.00    -0.004 A 
ATOM      4  C2  UNL d   1      -3.681   1.162   1.771  0.00  0.00    -0.047 A 
ATOM      5  C3  UNL d   1      -3.825   0.479   0.540  0.00  0.00    -0.047 A 
ATOM      6  C4  UNL d   1      -2.616   0.560  -0.118  0.00  0.00    -0.004 A 
ENDROOT
TORSDOF 0
ENDMDL
