MODEL 1
REMARK minimizedAffinity -3.63438821
REMARK minimizedRMSD -1
REMARK  0 active torsions:
REMARK  status: ('A' for Active; 'I' for Inactive)
ROOT
ATOM      1  C   UNL d   1      -0.064   1.131  -0.602  0.00  0.00     0.172 C 
ATOM      2  N   UNL d   1       0.661  -0.043  -0.174  0.00  0.00    -0.070 N 
ATOM      3  C1  UNL d   1       1.573  -0.090   0.846  0.00  0.00    -0.004 A 
ATOM      4  C2  UNL d   1       2.037  -1.384   0.937  0.00  0.00    -0.047 A 
ATOM      5  C3  UNL d   1       1.382  -2.141  -0.063  0.00  0.00    -0.047 A 
ATOM      6  C4  UNL d   1       0.535  -1.286  -0.736  0.00  0.00    -0.004 A 
ENDROOT
TORSDOF 0
ENDMDL
