MODEL 1
REMARK minimizedAffinity -2.12999845
REMARK minimizedRMSD -1
REMARK  0 active torsions:
REMARK  status: ('A' for Active; 'I' for Inactive)
ROOT
ATOM      1  C   UNL d   1      -0.729   0.604  -0.335  0.00  0.00     0.172 C 
ATOM      2  N   UNL d   1       0.421  -0.231  -0.078  0.00  0.00    -0.070 N 
ATOM      3  C1  UNL d   1       0.919  -1.186  -0.924  0.00  0.00    -0.004 A 
ATOM      4  C2  UNL d   1       2.017  -1.756  -0.316  0.00  0.00    -0.047 A 
ATOM      5  C3  UNL d   1       2.184  -1.122   0.938  0.00  0.00    -0.047 A 
ATOM      6  C4  UNL d   1       1.182  -0.182   1.060  0.00  0.00    -0.004 A 
ENDROOT
TORSDOF 0
ENDMDL
