MODEL 1
REMARK minimizedAffinity -3.57173562
REMARK minimizedRMSD -1
REMARK  0 active torsions:
REMARK  status: ('A' for Active; 'I' for Inactive)
ROOT
ATOM      1  C   UNL d   1      -0.587  -1.094  -1.066  0.00  0.00     0.172 C 
ATOM      2  N   UNL d   1       0.654  -0.793  -0.393  0.00  0.00    -0.070 N 
ATOM      3  C1  UNL d   1       1.653  -1.690  -0.122  0.00  0.00    -0.004 A 
ATOM      4  C2  UNL d   1       2.663  -1.014   0.527  0.00  0.00    -0.047 A 
ATOM      5  C3  UNL d   1       2.257   0.336   0.651  0.00  0.00    -0.047 A 
ATOM      6  C4  UNL d   1       1.010   0.445   0.073  0.00  0.00    -0.004 A 
ENDROOT
TORSDOF 0
ENDMDL
