MODEL 1
REMARK minimizedAffinity -2.8861227
REMARK minimizedRMSD -1
REMARK  0 active torsions:
REMARK  status: ('A' for Active; 'I' for Inactive)
ROOT
ATOM      1  C   UNL d   1       2.447  -1.734   0.147  0.00  0.00     0.172 C 
ATOM      2  N   UNL d   1       1.298  -0.904  -0.128  0.00  0.00    -0.070 N 
ATOM      3  C1  UNL d   1      -0.010  -1.299  -0.048  0.00  0.00    -0.004 A 
ATOM      4  C2  UNL d   1      -0.799  -0.221  -0.386  0.00  0.00    -0.047 A 
ATOM      5  C3  UNL d   1       0.066   0.860  -0.682  0.00  0.00    -0.047 A 
ATOM      6  C4  UNL d   1       1.358   0.410  -0.514  0.00  0.00    -0.004 A 
ENDROOT
TORSDOF 0
ENDMDL
