MODEL 1
REMARK minimizedAffinity -3.71235776
REMARK minimizedRMSD -1
REMARK  0 active torsions:
REMARK  status: ('A' for Active; 'I' for Inactive)
ROOT
ATOM      1  C   UNL d   1       2.734  -1.410   0.714  0.00  0.00     0.172 C 
ATOM      2  N   UNL d   1       1.553  -0.968   0.011  0.00  0.00    -0.070 N 
ATOM      3  C1  UNL d   1       1.056   0.308   0.008  0.00  0.00    -0.004 A 
ATOM      4  C2  UNL d   1      -0.076   0.318  -0.777  0.00  0.00    -0.047 A 
ATOM      5  C3  UNL d   1      -0.267  -0.997  -1.262  0.00  0.00    -0.047 A 
ATOM      6  C4  UNL d   1       0.755  -1.773  -0.759  0.00  0.00    -0.004 A 
ENDROOT
TORSDOF 0
ENDMDL
