MODEL 1
REMARK minimizedAffinity -4.89768839
REMARK minimizedRMSD -1
REMARK  1 active torsions:
REMARK  status: ('A' for Active; 'I' for Inactive)
REMARK    1  A    between atoms: N_2  and  C1_3 
ROOT
ATOM      1  C1  UNL d   1      -0.428  -0.015  -0.339  0.00  0.00     0.143 A 
ATOM      2  C2  UNL d   1      -1.082   0.755  -1.307  0.00  0.00    -0.057 A 
ATOM      3  C3  UNL d   1      -2.475   0.718  -1.444  0.00  0.00     0.033 A 
ATOM      4  C4  UNL d   1      -3.238  -0.114  -0.632  0.00  0.00    -0.042 A 
ATOM      5  C5  UNL d   1      -2.607  -0.906   0.320  0.00  0.00     0.033 A 
ATOM      6  C6  UNL d   1      -1.217  -0.861   0.457  0.00  0.00    -0.057 A 
ENDROOT
BRANCH   1   7
ATOM      7  N   UNL d   1       0.962  -0.097  -0.219  0.00  0.00    -0.732 N 
ATOM      8  C   UNL d   1       1.737   1.060   0.174  0.00  0.00     0.284 C 
ATOM      9  H3  UNL d   1       1.263  -0.967   0.214  0.00  0.00     0.395 HD
ENDBRANCH   1   7
TORSDOF 1
ENDMDL
