MODEL 1
REMARK minimizedAffinity -2.76708364
REMARK minimizedRMSD -1
REMARK  1 active torsions:
REMARK  status: ('A' for Active; 'I' for Inactive)
REMARK    1  A    between atoms: N_2  and  C1_3 
ROOT
ATOM      1  C1  UNL d   1       1.472   0.846   0.415  0.00  0.00     0.143 A 
ATOM      2  C2  UNL d   1       2.117   1.941  -0.169  0.00  0.00    -0.057 A 
ATOM      3  C3  UNL d   1       2.725   2.929   0.616  0.00  0.00     0.033 A 
ATOM      4  C4  UNL d   1       2.672   2.854   2.004  0.00  0.00    -0.042 A 
ATOM      5  C5  UNL d   1       2.014   1.787   2.606  0.00  0.00     0.033 A 
ATOM      6  C6  UNL d   1       1.415   0.800   1.817  0.00  0.00    -0.057 A 
ENDROOT
BRANCH   1   7
ATOM      7  N   UNL d   1       0.765  -0.117  -0.308  0.00  0.00    -0.732 N 
ATOM      8  C   UNL d   1      -0.139   0.274  -1.369  0.00  0.00     0.284 C 
ATOM      9  H3  UNL d   1       1.331  -0.934  -0.526  0.00  0.00     0.395 HD
ENDBRANCH   1   7
TORSDOF 1
ENDMDL
