MODEL 1
REMARK minimizedAffinity -4.56177521
REMARK minimizedRMSD -1
REMARK  1 active torsions:
REMARK  status: ('A' for Active; 'I' for Inactive)
REMARK    1  A    between atoms: N_2  and  C1_3 
ROOT
ATOM      1  C1  UNL d   1       0.638   0.235   0.289  0.00  0.00     0.143 A 
ATOM      2  C2  UNL d   1       0.724  -0.857   1.160  0.00  0.00    -0.057 A 
ATOM      3  C3  UNL d   1      -0.404  -1.623   1.477  0.00  0.00     0.033 A 
ATOM      4  C4  UNL d   1      -1.648  -1.292   0.951  0.00  0.00    -0.042 A 
ATOM      5  C5  UNL d   1      -1.762  -0.195   0.103  0.00  0.00     0.033 A 
ATOM      6  C6  UNL d   1      -0.630   0.561  -0.215  0.00  0.00    -0.057 A 
ENDROOT
BRANCH   1   7
ATOM      7  N   UNL d   1       1.704   1.094   0.012  0.00  0.00    -0.732 N 
ATOM      8  C   UNL d   1       1.906   2.294   0.795  0.00  0.00     0.284 C 
ATOM      9  H3  UNL d   1       2.561   0.592  -0.207  0.00  0.00     0.395 HD
ENDBRANCH   1   7
TORSDOF 1
ENDMDL
