MODEL 1
REMARK minimizedAffinity -0.568305194
REMARK minimizedRMSD -1
REMARK  1 active torsions:
REMARK  status: ('A' for Active; 'I' for Inactive)
REMARK    1  A    between atoms: N_2  and  C1_3 
ROOT
ATOM      1  C1  UNL d   1       0.315   0.827   0.246  0.00  0.00     0.143 A 
ATOM      2  C2  UNL d   1      -1.013   1.256   0.151  0.00  0.00    -0.057 A 
ATOM      3  C3  UNL d   1      -1.868   0.757  -0.839  0.00  0.00     0.033 A 
ATOM      4  C4  UNL d   1      -1.400  -0.161  -1.773  0.00  0.00    -0.042 A 
ATOM      5  C5  UNL d   1      -0.076  -0.583  -1.713  0.00  0.00     0.033 A 
ATOM      6  C6  UNL d   1       0.771  -0.086  -0.718  0.00  0.00    -0.057 A 
ENDROOT
BRANCH   1   7
ATOM      7  N   UNL d   1       1.242   1.359   1.147  0.00  0.00    -0.732 N 
ATOM      8  C   UNL d   1       1.787   2.685   0.946  0.00  0.00     0.284 C 
ATOM      9  H3  UNL d   1       1.009   1.147   2.114  0.00  0.00     0.395 HD
ENDBRANCH   1   7
TORSDOF 1
ENDMDL
