MODEL 1
REMARK minimizedAffinity -4.06006956
REMARK minimizedRMSD -1
REMARK  1 active torsions:
REMARK  status: ('A' for Active; 'I' for Inactive)
REMARK    1  A    between atoms: N_2  and  C1_3 
ROOT
ATOM      1  C1  UNL d   1       0.123   0.159  -0.009  0.00  0.00     0.143 A 
ATOM      2  C2  UNL d   1      -0.549   0.263  -1.231  0.00  0.00    -0.057 A 
ATOM      3  C3  UNL d   1      -1.907  -0.060  -1.343  0.00  0.00     0.033 A 
ATOM      4  C4  UNL d   1      -2.611  -0.523  -0.237  0.00  0.00    -0.042 A 
ATOM      5  C5  UNL d   1      -1.957  -0.658   0.983  0.00  0.00     0.033 A 
ATOM      6  C6  UNL d   1      -0.603  -0.327   1.090  0.00  0.00    -0.057 A 
ENDROOT
BRANCH   1   7
ATOM      7  N   UNL d   1       1.495   0.371   0.145  0.00  0.00    -0.732 N 
ATOM      8  C   UNL d   1       1.996   1.221   1.204  0.00  0.00     0.284 C 
ATOM      9  H3  UNL d   1       2.038  -0.478   0.001  0.00  0.00     0.395 HD
ENDBRANCH   1   7
TORSDOF 1
ENDMDL
