MODEL 1
REMARK minimizedAffinity -4.18851709
REMARK minimizedRMSD -1
REMARK  1 active torsions:
REMARK  status: ('A' for Active; 'I' for Inactive)
REMARK    1  A    between atoms: N_2  and  C1_3 
ROOT
ATOM      1  C1  UNL d   1      -0.139  -0.075  -0.138  0.00  0.00     0.143 A 
ATOM      2  C2  UNL d   1      -0.819   0.058  -1.353  0.00  0.00    -0.057 A 
ATOM      3  C3  UNL d   1      -2.149  -0.357  -1.490  0.00  0.00     0.033 A 
ATOM      4  C4  UNL d   1      -2.815  -0.941  -0.418  0.00  0.00    -0.042 A 
ATOM      5  C5  UNL d   1      -2.151  -1.106   0.793  0.00  0.00     0.033 A 
ATOM      6  C6  UNL d   1      -0.825  -0.683   0.925  0.00  0.00    -0.057 A 
ENDROOT
BRANCH   1   7
ATOM      7  N   UNL d   1       1.214   0.228   0.034  0.00  0.00    -0.732 N 
ATOM      8  C   UNL d   1       1.626   1.551   0.451  0.00  0.00     0.284 C 
ATOM      9  H3  UNL d   1       1.728  -0.527   0.482  0.00  0.00     0.395 HD
ENDBRANCH   1   7
TORSDOF 1
ENDMDL
