MODEL 1
REMARK minimizedAffinity -4.22089195
REMARK minimizedRMSD -1
REMARK  1 active torsions:
REMARK  status: ('A' for Active; 'I' for Inactive)
REMARK    1  A    between atoms: N_2  and  C1_3 
ROOT
ATOM      1  C1  UNL d   1       0.810   0.382   0.532  0.00  0.00     0.143 A 
ATOM      2  C2  UNL d   1       0.774  -0.849   1.194  0.00  0.00    -0.057 A 
ATOM      3  C3  UNL d   1      -0.397  -1.615   1.240  0.00  0.00     0.033 A 
ATOM      4  C4  UNL d   1      -1.565  -1.147   0.646  0.00  0.00    -0.042 A 
ATOM      5  C5  UNL d   1      -1.559   0.086   0.004  0.00  0.00     0.033 A 
ATOM      6  C6  UNL d   1      -0.384   0.843  -0.044  0.00  0.00    -0.057 A 
ENDROOT
BRANCH   1   7
ATOM      7  N   UNL d   1       1.916   1.236   0.536  0.00  0.00    -0.732 N 
ATOM      8  C   UNL d   1       2.135   2.153   1.634  0.00  0.00     0.284 C 
ATOM      9  H3  UNL d   1       2.761   0.778   0.202  0.00  0.00     0.395 HD
ENDBRANCH   1   7
TORSDOF 1
ENDMDL
