MODEL 1
REMARK minimizedAffinity -5.17253399
REMARK minimizedRMSD -1
REMARK  1 active torsions:
REMARK  status: ('A' for Active; 'I' for Inactive)
REMARK    1  A    between atoms: N_2  and  C1_3 
ROOT
ATOM      1  C1  UNL d   1       0.011  -0.510   0.072  0.00  0.00     0.143 A 
ATOM      2  C2  UNL d   1      -0.578  -0.161  -1.148  0.00  0.00    -0.057 A 
ATOM      3  C3  UNL d   1      -1.922  -0.450  -1.414  0.00  0.00     0.033 A 
ATOM      4  C4  UNL d   1      -2.695  -1.122  -0.473  0.00  0.00    -0.042 A 
ATOM      5  C5  UNL d   1      -2.123  -1.501   0.736  0.00  0.00     0.033 A 
ATOM      6  C6  UNL d   1      -0.783  -1.203   0.999  0.00  0.00    -0.057 A 
ENDROOT
BRANCH   1   7
ATOM      7  N   UNL d   1       1.368  -0.338   0.358  0.00  0.00    -0.732 N 
ATOM      8  C   UNL d   1       1.948   0.987   0.407  0.00  0.00     0.284 C 
ATOM      9  H3  UNL d   1       1.692  -0.962   1.094  0.00  0.00     0.395 HD
ENDBRANCH   1   7
TORSDOF 1
ENDMDL
