MODEL 1
REMARK minimizedAffinity -3.6834116
REMARK minimizedRMSD -1
REMARK  1 active torsions:
REMARK  status: ('A' for Active; 'I' for Inactive)
REMARK    1  A    between atoms: N_2  and  C1_3 
ROOT
ATOM      1  C1  UNL d   1       0.876   0.466   0.862  0.00  0.00     0.143 A 
ATOM      2  C2  UNL d   1       1.632   1.092  -0.135  0.00  0.00    -0.057 A 
ATOM      3  C3  UNL d   1       2.440   2.198   0.153  0.00  0.00     0.033 A 
ATOM      4  C4  UNL d   1       2.485   2.717   1.442  0.00  0.00    -0.042 A 
ATOM      5  C5  UNL d   1       1.724   2.126   2.444  0.00  0.00     0.033 A 
ATOM      6  C6  UNL d   1       0.924   1.018   2.152  0.00  0.00    -0.057 A 
ENDROOT
BRANCH   1   7
ATOM      7  N   UNL d   1      -0.022  -0.576   0.619  0.00  0.00    -0.732 N 
ATOM      8  C   UNL d   1      -1.257  -0.333  -0.096  0.00  0.00     0.284 C 
ATOM      9  H3  UNL d   1       0.447  -1.440   0.357  0.00  0.00     0.395 HD
ENDBRANCH   1   7
TORSDOF 1
ENDMDL
