MODEL 1
REMARK minimizedAffinity -1.1907841
REMARK minimizedRMSD -1
REMARK  1 active torsions:
REMARK  status: ('A' for Active; 'I' for Inactive)
REMARK    1  A    between atoms: C1_2  and  C2_3 
ROOT
ATOM      1  C2  UNL d   1      -0.018  -0.086  -1.775  0.00  0.00    -0.073 A 
ATOM      2  C3  UNL d   1       0.840   0.146  -0.694  0.00  0.00    -0.002 A 
ATOM      3  C4  UNL d   1       0.357   0.086   0.614  0.00  0.00     0.004 A 
ATOM      4  C5  UNL d   1      -0.984  -0.213   0.854  0.00  0.00    -0.004 A 
ATOM      5  C6  UNL d   1      -1.854  -0.459  -0.213  0.00  0.00    -0.075 A 
ATOM      6  C7  UNL d   1      -3.300  -0.780   0.028  0.00  0.00     0.076 C 
ATOM      7  C8  UNL d   1      -1.362  -0.394  -1.524  0.00  0.00     0.001 A 
ENDROOT
BRANCH   1   8
ATOM      8  C1  UNL d   1       0.500  -0.028  -3.189  0.00  0.00     0.053 C 
ATOM      9  C   UNL d   1       1.924  -0.551  -3.296  0.00  0.00     0.018 C 
ENDBRANCH   1   8
TORSDOF 1
ENDMDL
