MODEL 1
REMARK minimizedAffinity -1.7821672
REMARK minimizedRMSD -1
REMARK  1 active torsions:
REMARK  status: ('A' for Active; 'I' for Inactive)
REMARK    1  A    between atoms: C1_2  and  C2_3 
ROOT
ATOM      1  C2  UNL d   1       0.369   1.874   0.997  0.00  0.00    -0.073 A 
ATOM      2  C3  UNL d   1       1.290   0.901   0.596  0.00  0.00    -0.002 A 
ATOM      3  C4  UNL d   1       0.872  -0.408   0.350  0.00  0.00     0.004 A 
ATOM      4  C5  UNL d   1      -0.472  -0.754   0.495  0.00  0.00    -0.004 A 
ATOM      5  C6  UNL d   1      -1.410   0.208   0.883  0.00  0.00    -0.075 A 
ATOM      6  C7  UNL d   1      -2.858  -0.149   1.045  0.00  0.00     0.076 C 
ATOM      7  C8  UNL d   1      -0.981   1.519   1.131  0.00  0.00     0.001 A 
ENDROOT
BRANCH   1   8
ATOM      8  C1  UNL d   1       0.815   3.290   1.258  0.00  0.00     0.053 C 
ATOM      9  C   UNL d   1       2.307   3.374   1.540  0.00  0.00     0.018 C 
ENDBRANCH   1   8
TORSDOF 1
ENDMDL
