MODEL 1
REMARK minimizedAffinity -4.85913181
REMARK minimizedRMSD -1
REMARK  1 active torsions:
REMARK  status: ('A' for Active; 'I' for Inactive)
REMARK    1  A    between atoms: C1_2  and  C2_3 
ROOT
ATOM      1  C2  UNL d   1      -0.045  -0.113  -1.683  0.00  0.00    -0.073 A 
ATOM      2  C3  UNL d   1       0.831  -0.204  -0.595  0.00  0.00    -0.002 A 
ATOM      3  C4  UNL d   1       0.345  -0.502   0.679  0.00  0.00     0.004 A 
ATOM      4  C5  UNL d   1      -1.019  -0.718   0.876  0.00  0.00    -0.004 A 
ATOM      5  C6  UNL d   1      -1.909  -0.643  -0.200  0.00  0.00    -0.075 A 
ATOM      6  C7  UNL d   1      -3.379  -0.871  -0.004  0.00  0.00     0.076 C 
ATOM      7  C8  UNL d   1      -1.413  -0.341  -1.476  0.00  0.00     0.001 A 
ENDROOT
BRANCH   1   8
ATOM      8  C1  UNL d   1       0.476   0.202  -3.061  0.00  0.00     0.053 C 
ATOM      9  C   UNL d   1       1.820  -0.457  -3.326  0.00  0.00     0.018 C 
ENDBRANCH   1   8
TORSDOF 1
ENDMDL
