MODEL 1
REMARK minimizedAffinity -1.97421944
REMARK minimizedRMSD -1
REMARK  1 active torsions:
REMARK  status: ('A' for Active; 'I' for Inactive)
REMARK    1  A    between atoms: C1_2  and  C2_3 
ROOT
ATOM      1  C2  UNL d   1       0.888  -0.252  -1.499  0.00  0.00    -0.073 A 
ATOM      2  C3  UNL d   1       1.710  -0.468  -0.387  0.00  0.00    -0.002 A 
ATOM      3  C4  UNL d   1       1.150  -0.694   0.870  0.00  0.00     0.004 A 
ATOM      4  C5  UNL d   1      -0.236  -0.714   1.028  0.00  0.00    -0.004 A 
ATOM      5  C6  UNL d   1      -1.074  -0.513  -0.073  0.00  0.00    -0.075 A 
ATOM      6  C7  UNL d   1      -2.567  -0.529   0.081  0.00  0.00     0.076 C 
ATOM      7  C8  UNL d   1      -0.504  -0.284  -1.332  0.00  0.00     0.001 A 
ENDROOT
BRANCH   1   8
ATOM      8  C1  UNL d   1       1.488  -0.014  -2.861  0.00  0.00     0.053 C 
ATOM      9  C   UNL d   1       2.682  -0.919  -3.124  0.00  0.00     0.018 C 
ENDBRANCH   1   8
TORSDOF 1
ENDMDL
