MODEL 1
REMARK minimizedAffinity -4.0377202
REMARK minimizedRMSD -1
REMARK  1 active torsions:
REMARK  status: ('A' for Active; 'I' for Inactive)
REMARK    1  A    between atoms: C1_2  and  C2_3 
ROOT
ATOM      1  C2  UNL d   1       1.595   0.143   0.401  0.00  0.00    -0.073 A 
ATOM      2  C3  UNL d   1       2.336  -0.044  -0.772  0.00  0.00    -0.002 A 
ATOM      3  C4  UNL d   1       3.277   0.906  -1.170  0.00  0.00     0.004 A 
ATOM      4  C5  UNL d   1       3.492   2.047  -0.397  0.00  0.00    -0.004 A 
ATOM      5  C6  UNL d   1       2.771   2.246   0.784  0.00  0.00    -0.075 A 
ATOM      6  C7  UNL d   1       2.989   3.469   1.625  0.00  0.00     0.076 C 
ATOM      7  C8  UNL d   1       1.825   1.288   1.175  0.00  0.00     0.001 A 
ENDROOT
BRANCH   1   8
ATOM      8  C1  UNL d   1       0.582  -0.884   0.837  0.00  0.00     0.053 C 
ATOM      9  C   UNL d   1      -0.835  -0.334   0.809  0.00  0.00     0.018 C 
ENDBRANCH   1   8
TORSDOF 1
ENDMDL
