MODEL 1
REMARK minimizedAffinity -3.93010545
REMARK minimizedRMSD -1
REMARK  1 active torsions:
REMARK  status: ('A' for Active; 'I' for Inactive)
REMARK    1  A    between atoms: C1_2  and  C2_3 
ROOT
ATOM      1  C2  UNL d   1      -1.369  -0.280  -0.386  0.00  0.00    -0.073 A 
ATOM      2  C3  UNL d   1      -0.498  -0.353   0.706  0.00  0.00    -0.002 A 
ATOM      3  C4  UNL d   1       0.883  -0.305   0.511  0.00  0.00     0.004 A 
ATOM      4  C5  UNL d   1       1.406  -0.178  -0.776  0.00  0.00    -0.004 A 
ATOM      5  C6  UNL d   1       0.552  -0.091  -1.879  0.00  0.00    -0.075 A 
ATOM      6  C7  UNL d   1       1.098   0.044  -3.270  0.00  0.00     0.076 C 
ATOM      7  C8  UNL d   1      -0.834  -0.142  -1.675  0.00  0.00     0.001 A 
ENDROOT
BRANCH   1   8
ATOM      8  C1  UNL d   1      -2.861  -0.324  -0.180  0.00  0.00     0.053 C 
ATOM      9  C   UNL d   1      -3.562  -1.132  -1.261  0.00  0.00     0.018 C 
ENDBRANCH   1   8
TORSDOF 1
ENDMDL
