MODEL 1
REMARK minimizedAffinity -6.19735098
REMARK minimizedRMSD -1
REMARK  1 active torsions:
REMARK  status: ('A' for Active; 'I' for Inactive)
REMARK    1  A    between atoms: C1_2  and  C2_3 
ROOT
ATOM      1  C2  UNL d   1       0.913   0.010  -2.092  0.00  0.00    -0.073 A 
ATOM      2  C3  UNL d   1       1.870  -0.707  -2.821  0.00  0.00    -0.002 A 
ATOM      3  C4  UNL d   1       1.886  -0.643  -4.215  0.00  0.00     0.004 A 
ATOM      4  C5  UNL d   1       0.954   0.141  -4.893  0.00  0.00    -0.004 A 
ATOM      5  C6  UNL d   1      -0.002   0.874  -4.182  0.00  0.00    -0.075 A 
ATOM      6  C7  UNL d   1      -1.014   1.720  -4.897  0.00  0.00     0.076 C 
ATOM      7  C8  UNL d   1      -0.015   0.803  -2.783  0.00  0.00     0.001 A 
ENDROOT
BRANCH   1   8
ATOM      8  C1  UNL d   1       0.895  -0.050  -0.587  0.00  0.00     0.053 C 
ATOM      9  C   UNL d   1      -0.521  -0.076  -0.034  0.00  0.00     0.018 C 
ENDBRANCH   1   8
TORSDOF 1
ENDMDL
