MODEL 1
REMARK minimizedAffinity -5.03272247
REMARK minimizedRMSD -1
REMARK  1 active torsions:
REMARK  status: ('A' for Active; 'I' for Inactive)
REMARK    1  A    between atoms: C1_2  and  C2_3 
ROOT
ATOM      1  C2  UNL d   1      -1.996  -0.591  -0.662  0.00  0.00    -0.073 A 
ATOM      2  C3  UNL d   1      -3.045  -0.955   0.190  0.00  0.00    -0.002 A 
ATOM      3  C4  UNL d   1      -2.778  -1.575   1.411  0.00  0.00     0.004 A 
ATOM      4  C5  UNL d   1      -1.462  -1.831   1.796  0.00  0.00    -0.004 A 
ATOM      5  C6  UNL d   1      -0.400  -1.464   0.964  0.00  0.00    -0.075 A 
ATOM      6  C7  UNL d   1       1.021  -1.734   1.363  0.00  0.00     0.076 C 
ATOM      7  C8  UNL d   1      -0.676  -0.843  -0.262  0.00  0.00     0.001 A 
ENDROOT
BRANCH   1   8
ATOM      8  C1  UNL d   1      -2.278   0.085  -1.979  0.00  0.00     0.053 C 
ATOM      9  C   UNL d   1      -1.002   0.417  -2.735  0.00  0.00     0.018 C 
ENDBRANCH   1   8
TORSDOF 1
ENDMDL
