MODEL 1
REMARK minimizedAffinity -2.26049018
REMARK minimizedRMSD -1
REMARK  1 active torsions:
REMARK  status: ('A' for Active; 'I' for Inactive)
REMARK    1  A    between atoms: C1_2  and  C2_3 
ROOT
ATOM      1  C2  UNL d   1       0.223  -0.357  -1.334  0.00  0.00    -0.073 A 
ATOM      2  C3  UNL d   1       0.961  -0.965  -0.312  0.00  0.00    -0.002 A 
ATOM      3  C4  UNL d   1       0.352  -1.288   0.901  0.00  0.00     0.004 A 
ATOM      4  C5  UNL d   1      -1.001  -1.013   1.102  0.00  0.00    -0.004 A 
ATOM      5  C6  UNL d   1      -1.758  -0.416   0.089  0.00  0.00    -0.075 A 
ATOM      6  C7  UNL d   1      -3.213  -0.112   0.291  0.00  0.00     0.076 C 
ATOM      7  C8  UNL d   1      -1.138  -0.093  -1.125  0.00  0.00     0.001 A 
ENDROOT
BRANCH   1   8
ATOM      8  C1  UNL d   1       0.875  -0.012  -2.648  0.00  0.00     0.053 C 
ATOM      9  C   UNL d   1       2.217  -0.706  -2.818  0.00  0.00     0.018 C 
ENDBRANCH   1   8
TORSDOF 1
ENDMDL
