MODEL 1
REMARK minimizedAffinity -4.21103334
REMARK minimizedRMSD -1
REMARK  1 active torsions:
REMARK  status: ('A' for Active; 'I' for Inactive)
REMARK    1  A    between atoms: C1_2  and  C2_3 
ROOT
ATOM      1  C2  UNL d   1      -0.694   0.363   0.197  0.00  0.00    -0.073 A 
ATOM      2  C3  UNL d   1      -1.657  -0.035   1.132  0.00  0.00    -0.002 A 
ATOM      3  C4  UNL d   1      -2.714  -0.861   0.747  0.00  0.00     0.004 A 
ATOM      4  C5  UNL d   1      -2.815  -1.303  -0.572  0.00  0.00    -0.004 A 
ATOM      5  C6  UNL d   1      -1.856  -0.926  -1.518  0.00  0.00    -0.075 A 
ATOM      6  C7  UNL d   1      -1.952  -1.391  -2.941  0.00  0.00     0.076 C 
ATOM      7  C8  UNL d   1      -0.800  -0.094  -1.124  0.00  0.00     0.001 A 
ENDROOT
BRANCH   1   8
ATOM      8  C1  UNL d   1       0.452   1.250   0.609  0.00  0.00     0.053 C 
ATOM      9  C   UNL d   1       1.763   0.484   0.696  0.00  0.00     0.018 C 
ENDBRANCH   1   8
TORSDOF 1
ENDMDL
