MODEL 1
REMARK minimizedAffinity -3.88106227
REMARK minimizedRMSD -1
REMARK  1 active torsions:
REMARK  status: ('A' for Active; 'I' for Inactive)
REMARK    1  A    between atoms: C1_2  and  C2_3 
ROOT
ATOM      1  C2  UNL d   1       0.163  -0.049   0.606  0.00  0.00    -0.073 A 
ATOM      2  C3  UNL d   1       0.684  -0.973   1.518  0.00  0.00    -0.002 A 
ATOM      3  C4  UNL d   1      -0.079  -2.067   1.927  0.00  0.00     0.004 A 
ATOM      4  C5  UNL d   1      -1.368  -2.251   1.426  0.00  0.00    -0.004 A 
ATOM      5  C6  UNL d   1      -1.902  -1.345   0.504  0.00  0.00    -0.075 A 
ATOM      6  C7  UNL d   1      -3.287  -1.527  -0.043  0.00  0.00     0.076 C 
ATOM      7  C8  UNL d   1      -1.130  -0.247   0.100  0.00  0.00     0.001 A 
ENDROOT
BRANCH   1   8
ATOM      8  C1  UNL d   1       0.986   1.130   0.155  0.00  0.00     0.053 C 
ATOM      9  C   UNL d   1       1.757   1.760   1.305  0.00  0.00     0.018 C 
ENDBRANCH   1   8
TORSDOF 1
ENDMDL
