MODEL 1
REMARK minimizedAffinity -4.0008359
REMARK minimizedRMSD -1
REMARK  1 active torsions:
REMARK  status: ('A' for Active; 'I' for Inactive)
REMARK    1  A    between atoms: C1_2  and  C2_3 
ROOT
ATOM      1  C2  UNL d   1       0.034  -0.214  -1.593  0.00  0.00    -0.073 A 
ATOM      2  C3  UNL d   1       0.837  -0.239  -0.447  0.00  0.00    -0.002 A 
ATOM      3  C4  UNL d   1       0.281  -0.543   0.797  0.00  0.00     0.004 A 
ATOM      4  C5  UNL d   1      -1.079  -0.832   0.906  0.00  0.00    -0.004 A 
ATOM      5  C6  UNL d   1      -1.895  -0.823  -0.229  0.00  0.00    -0.075 A 
ATOM      6  C7  UNL d   1      -3.361  -1.129  -0.128  0.00  0.00     0.076 C 
ATOM      7  C8  UNL d   1      -1.331  -0.515  -1.474  0.00  0.00     0.001 A 
ENDROOT
BRANCH   1   8
ATOM      8  C1  UNL d   1       0.631   0.107  -2.939  0.00  0.00     0.053 C 
ATOM      9  C   UNL d   1       1.950  -0.614  -3.164  0.00  0.00     0.018 C 
ENDBRANCH   1   8
TORSDOF 1
ENDMDL
