MODEL 1
REMARK minimizedAffinity -2.47738695
REMARK minimizedRMSD -1
REMARK  1 active torsions:
REMARK  status: ('A' for Active; 'I' for Inactive)
REMARK    1  A    between atoms: C1_2  and  C2_3 
ROOT
ATOM      1  C2  UNL d   1       1.963   0.208   0.171  0.00  0.00    -0.076 A 
ATOM      2  C3  UNL d   1       1.262  -0.919  -0.292  0.00  0.00     0.004 A 
ATOM      3  C4  UNL d   1      -0.014  -0.797  -0.839  0.00  0.00    -0.003 A 
ATOM      4  C5  UNL d   1      -0.610   0.456  -0.933  0.00  0.00     0.000 A 
ATOM      5  C6  UNL d   1       0.077   1.588  -0.495  0.00  0.00     0.000 A 
ATOM      6  C7  UNL d   1       1.371   1.483   0.044  0.00  0.00    -0.073 A 
ATOM      7  C8  UNL d   1       2.064   2.736   0.506  0.00  0.00     0.078 C 
ENDROOT
BRANCH   1   8
ATOM      8  C1  UNL d   1       3.333   0.010   0.779  0.00  0.00     0.053 C 
ATOM      9  C   UNL d   1       3.975  -1.302   0.355  0.00  0.00     0.018 C 
ENDBRANCH   1   8
TORSDOF 1
ENDMDL
