MODEL 1
REMARK minimizedAffinity -3.39106345
REMARK minimizedRMSD -1
REMARK  1 active torsions:
REMARK  status: ('A' for Active; 'I' for Inactive)
REMARK    1  A    between atoms: C1_2  and  C2_3 
ROOT
ATOM      1  C2  UNL d   1       0.679   0.379   0.086  0.00  0.00    -0.076 A 
ATOM      2  C3  UNL d   1       1.647   0.962   0.923  0.00  0.00     0.004 A 
ATOM      3  C4  UNL d   1       2.866   0.329   1.160  0.00  0.00    -0.003 A 
ATOM      4  C5  UNL d   1       3.138  -0.896   0.562  0.00  0.00     0.000 A 
ATOM      5  C6  UNL d   1       2.197  -1.481  -0.285  0.00  0.00     0.000 A 
ATOM      6  C7  UNL d   1       0.969  -0.848  -0.547  0.00  0.00    -0.073 A 
ATOM      7  C8  UNL d   1      -0.011  -1.526  -1.464  0.00  0.00     0.078 C 
ENDROOT
BRANCH   1   8
ATOM      8  C1  UNL d   1      -0.636   1.099  -0.111  0.00  0.00     0.053 C 
ATOM      9  C   UNL d   1      -1.733   0.569   0.799  0.00  0.00     0.018 C 
ENDBRANCH   1   8
TORSDOF 1
ENDMDL
