MODEL 1
REMARK minimizedAffinity -4.13742304
REMARK minimizedRMSD -1
REMARK  0 active torsions:
REMARK  status: ('A' for Active; 'I' for Inactive)
ROOT
ATOM      1  O1  BZF d   1       3.300  -2.189  -0.244  0.00  0.00    -0.204 OA
ATOM      2  C2  BZF d   1       3.477  -3.550  -0.402  0.00  0.00     0.174 A 
ATOM      3  C3  BZF d   1       2.342  -4.218  -0.112  0.00  0.00    -0.012 A 
ATOM      4  C3A BZF d   1       1.369  -3.204   0.161  0.00  0.00    -0.107 A 
ATOM      5  C4  BZF d   1       0.045  -3.239   0.495  0.00  0.00     0.055 A 
ATOM      6  C5  BZF d   1      -0.598  -2.074   0.765  0.00  0.00    -0.016 A 
ATOM      7  C6  BZF d   1       0.051  -0.857   0.716  0.00  0.00     0.022 A 
ATOM      8  C7  BZF d   1       1.362  -0.772   0.385  0.00  0.00     0.029 A 
ATOM      9  C7A BZF d   1       2.007  -1.945   0.079  0.00  0.00     0.058 A 
ENDROOT
TORSDOF 0
ENDMDL
