MODEL 1
REMARK minimizedAffinity 0.773198783
REMARK minimizedRMSD -1
REMARK  0 active torsions:
REMARK  status: ('A' for Active; 'I' for Inactive)
ROOT
ATOM      1  O1  BZF d   1      -0.474  -1.865   2.343  0.00  0.00    -0.204 OA
ATOM      2  C2  BZF d   1      -0.551  -0.487   2.271  0.00  0.00     0.174 A 
ATOM      3  C3  BZF d   1       0.277  -0.012   1.319  0.00  0.00    -0.012 A 
ATOM      4  C3A BZF d   1       0.843  -1.171   0.699  0.00  0.00    -0.107 A 
ATOM      5  C4  BZF d   1       1.727  -1.350  -0.326  0.00  0.00     0.055 A 
ATOM      6  C5  BZF d   1       2.130  -2.610  -0.638  0.00  0.00    -0.016 A 
ATOM      7  C6  BZF d   1       1.673  -3.711   0.056  0.00  0.00     0.022 A 
ATOM      8  C7  BZF d   1       0.791  -3.584   1.077  0.00  0.00     0.029 A 
ATOM      9  C7A BZF d   1       0.357  -2.315   1.373  0.00  0.00     0.058 A 
ENDROOT
TORSDOF 0
ENDMDL
