MODEL 1
REMARK minimizedAffinity -4.90422535
REMARK minimizedRMSD -1
REMARK  0 active torsions:
REMARK  status: ('A' for Active; 'I' for Inactive)
ROOT
ATOM      1  O1  BZF d   1      -1.670  -1.520   0.836  0.00  0.00    -0.204 OA
ATOM      2  C2  BZF d   1      -1.724  -0.159   1.063  0.00  0.00     0.174 A 
ATOM      3  C3  BZF d   1      -0.483   0.361   1.157  0.00  0.00    -0.012 A 
ATOM      4  C3A BZF d   1       0.403  -0.730   0.886  0.00  0.00    -0.107 A 
ATOM      5  C4  BZF d   1       1.762  -0.840   0.816  0.00  0.00     0.055 A 
ATOM      6  C5  BZF d   1       2.315  -2.062   0.604  0.00  0.00    -0.016 A 
ATOM      7  C6  BZF d   1       1.541  -3.195   0.461  0.00  0.00     0.022 A 
ATOM      8  C7  BZF d   1       0.188  -3.135   0.517  0.00  0.00     0.029 A 
ATOM      9  C7A BZF d   1      -0.375  -1.896   0.699  0.00  0.00     0.058 A 
ENDROOT
TORSDOF 0
ENDMDL
