MODEL 1
REMARK minimizedAffinity -3.57719183
REMARK minimizedRMSD -1
REMARK  0 active torsions:
REMARK  status: ('A' for Active; 'I' for Inactive)
ROOT
ATOM      1  O1  BZF d   1       3.568  -2.353   0.164  0.00  0.00    -0.204 OA
ATOM      2  C2  BZF d   1       3.437  -3.728   0.144  0.00  0.00     0.174 A 
ATOM      3  C3  BZF d   1       2.183  -4.094   0.476  0.00  0.00    -0.012 A 
ATOM      4  C3A BZF d   1       1.461  -2.868   0.630  0.00  0.00    -0.107 A 
ATOM      5  C4  BZF d   1       0.164  -2.575   0.941  0.00  0.00     0.055 A 
ATOM      6  C5  BZF d   1      -0.203  -1.274   1.083  0.00  0.00    -0.016 A 
ATOM      7  C6  BZF d   1       0.701  -0.243   0.928  0.00  0.00     0.022 A 
ATOM      8  C7  BZF d   1       1.997  -0.485   0.614  0.00  0.00     0.029 A 
ATOM      9  C7A BZF d   1       2.363  -1.796   0.437  0.00  0.00     0.058 A 
ENDROOT
TORSDOF 0
ENDMDL
