MODEL 1
REMARK minimizedAffinity -4.20920277
REMARK minimizedRMSD -1
REMARK  0 active torsions:
REMARK  status: ('A' for Active; 'I' for Inactive)
ROOT
ATOM      1  O1  BZF d   1       1.499  -4.097   0.040  0.00  0.00    -0.204 OA
ATOM      2  C2  BZF d   1       2.879  -4.053   0.020  0.00  0.00     0.174 A 
ATOM      3  C3  BZF d   1       3.322  -2.801   0.257  0.00  0.00    -0.012 A 
ATOM      4  C3A BZF d   1       2.146  -2.032   0.528  0.00  0.00    -0.107 A 
ATOM      5  C4  BZF d   1       1.936  -0.721   0.849  0.00  0.00     0.055 A 
ATOM      6  C5  BZF d   1       0.660  -0.269   0.977  0.00  0.00    -0.016 A 
ATOM      7  C6  BZF d   1      -0.426  -1.098   0.786  0.00  0.00     0.022 A 
ATOM      8  C7  BZF d   1      -0.267  -2.406   0.471  0.00  0.00     0.029 A 
ATOM      9  C7A BZF d   1       1.021  -2.874   0.373  0.00  0.00     0.058 A 
ENDROOT
TORSDOF 0
ENDMDL
