MODEL 1
REMARK minimizedAffinity -3.40591717
REMARK minimizedRMSD -1
REMARK  0 active torsions:
REMARK  status: ('A' for Active; 'I' for Inactive)
ROOT
ATOM      1  O1  BZF d   1       3.484  -2.551   0.151  0.00  0.00    -0.204 OA
ATOM      2  C2  BZF d   1       3.217  -3.889  -0.068  0.00  0.00     0.174 A 
ATOM      3  C3  BZF d   1       1.903  -4.147   0.089  0.00  0.00    -0.012 A 
ATOM      4  C3A BZF d   1       1.297  -2.875   0.335  0.00  0.00    -0.107 A 
ATOM      5  C4  BZF d   1       0.009  -2.475   0.555  0.00  0.00     0.055 A 
ATOM      6  C5  BZF d   1      -0.238  -1.168   0.835  0.00  0.00    -0.016 A 
ATOM      7  C6  BZF d   1       0.777  -0.237   0.909  0.00  0.00     0.022 A 
ATOM      8  C7  BZF d   1       2.069  -0.585   0.694  0.00  0.00     0.029 A 
ATOM      9  C7A BZF d   1       2.319  -1.898   0.378  0.00  0.00     0.058 A 
ENDROOT
TORSDOF 0
ENDMDL
