MODEL 1
REMARK minimizedAffinity -1.75545943
REMARK minimizedRMSD -1
REMARK  0 active torsions:
REMARK  status: ('A' for Active; 'I' for Inactive)
ROOT
ATOM      1  O1  BZF d   1      -5.891  -3.672   5.252  0.00  0.00    -0.204 OA
ATOM      2  C2  BZF d   1      -6.000  -4.830   5.997  0.00  0.00     0.174 A 
ATOM      3  C3  BZF d   1      -5.886  -5.918   5.209  0.00  0.00    -0.012 A 
ATOM      4  C3A BZF d   1      -5.600  -5.408   3.903  0.00  0.00    -0.107 A 
ATOM      5  C4  BZF d   1      -5.366  -6.000   2.694  0.00  0.00     0.055 A 
ATOM      6  C5  BZF d   1      -5.193  -5.216   1.598  0.00  0.00    -0.016 A 
ATOM      7  C6  BZF d   1      -5.254  -3.840   1.672  0.00  0.00     0.022 A 
ATOM      8  C7  BZF d   1      -5.479  -3.208   2.849  0.00  0.00     0.029 A 
ATOM      9  C7A BZF d   1      -5.621  -3.996   3.965  0.00  0.00     0.058 A 
ENDROOT
TORSDOF 0
ENDMDL
