MODEL 1
REMARK minimizedAffinity 1.03272152
REMARK minimizedRMSD -1
REMARK  0 active torsions:
REMARK  status: ('A' for Active; 'I' for Inactive)
ROOT
ATOM      1  O1  BZF d   1      -6.000  -5.999   4.600  0.00  0.00    -0.204 OA
ATOM      2  C2  BZF d   1      -5.571  -5.393   5.765  0.00  0.00     0.174 A 
ATOM      3  C3  BZF d   1      -4.969  -4.216   5.498  0.00  0.00    -0.012 A 
ATOM      4  C3A BZF d   1      -5.107  -4.034   4.085  0.00  0.00    -0.107 A 
ATOM      5  C4  BZF d   1      -4.725  -3.045   3.224  0.00  0.00     0.055 A 
ATOM      6  C5  BZF d   1      -4.946  -3.207   1.893  0.00  0.00    -0.016 A 
ATOM      7  C6  BZF d   1      -5.541  -4.345   1.389  0.00  0.00     0.022 A 
ATOM      8  C7  BZF d   1      -5.941  -5.351   2.205  0.00  0.00     0.029 A 
ATOM      9  C7A BZF d   1      -5.749  -5.176   3.553  0.00  0.00     0.058 A 
ENDROOT
TORSDOF 0
ENDMDL
