MODEL 1
REMARK minimizedAffinity -4.49356222
REMARK minimizedRMSD -1
REMARK  0 active torsions:
REMARK  status: ('A' for Active; 'I' for Inactive)
ROOT
ATOM      1  O1  BZF d   1       3.252  -2.329   0.123  0.00  0.00    -0.204 OA
ATOM      2  C2  BZF d   1       3.177  -3.681  -0.151  0.00  0.00     0.174 A 
ATOM      3  C3  BZF d   1       1.902  -4.114  -0.083  0.00  0.00    -0.012 A 
ATOM      4  C3A BZF d   1       1.120  -2.942   0.164  0.00  0.00    -0.107 A 
ATOM      5  C4  BZF d   1      -0.220  -2.721   0.316  0.00  0.00     0.055 A 
ATOM      6  C5  BZF d   1      -0.653  -1.470   0.619  0.00  0.00    -0.016 A 
ATOM      7  C6  BZF d   1       0.224  -0.417   0.782  0.00  0.00     0.022 A 
ATOM      8  C7  BZF d   1       1.561  -0.586   0.636  0.00  0.00     0.029 A 
ATOM      9  C7A BZF d   1       1.999  -1.843   0.297  0.00  0.00     0.058 A 
ENDROOT
TORSDOF 0
ENDMDL
