MODEL 1
REMARK minimizedAffinity -1.28349209
REMARK minimizedRMSD -1
REMARK  0 active torsions:
REMARK  status: ('A' for Active; 'I' for Inactive)
ROOT
ATOM      1  O1  BZF d   1       0.214  -2.875   0.743  0.00  0.00    -0.204 OA
ATOM      2  C2  BZF d   1       0.202  -1.515   0.984  0.00  0.00     0.174 A 
ATOM      3  C3  BZF d   1       1.452  -1.011   0.947  0.00  0.00    -0.012 A 
ATOM      4  C3A BZF d   1       2.289  -2.109   0.573  0.00  0.00    -0.107 A 
ATOM      5  C4  BZF d   1       3.632  -2.235   0.356  0.00  0.00     0.055 A 
ATOM      6  C5  BZF d   1       4.143  -3.463   0.075  0.00  0.00    -0.016 A 
ATOM      7  C6  BZF d   1       3.343  -4.585   0.009  0.00  0.00     0.022 A 
ATOM      8  C7  BZF d   1       2.005  -4.509   0.212  0.00  0.00     0.029 A 
ATOM      9  C7A BZF d   1       1.481  -3.264   0.464  0.00  0.00     0.058 A 
ENDROOT
TORSDOF 0
ENDMDL
