MODEL 1
REMARK minimizedAffinity 1.22419214
REMARK minimizedRMSD -1
REMARK  0 active torsions:
REMARK  status: ('A' for Active; 'I' for Inactive)
ROOT
ATOM      1  O1  BZF d   1       0.823  -4.292  -0.168  0.00  0.00    -0.204 OA
ATOM      2  C2  BZF d   1       2.177  -4.564  -0.184  0.00  0.00     0.174 A 
ATOM      3  C3  BZF d   1       2.888  -3.477   0.178  0.00  0.00    -0.012 A 
ATOM      4  C3A BZF d   1       1.914  -2.489   0.526  0.00  0.00    -0.107 A 
ATOM      5  C4  BZF d   1       2.000  -1.203   0.978  0.00  0.00     0.055 A 
ATOM      6  C5  BZF d   1       0.859  -0.486   1.151  0.00  0.00    -0.016 A 
ATOM      7  C6  BZF d   1      -0.383  -1.020   0.878  0.00  0.00     0.022 A 
ATOM      8  C7  BZF d   1      -0.519  -2.292   0.432  0.00  0.00     0.029 A 
ATOM      9  C7A BZF d   1       0.630  -3.031   0.287  0.00  0.00     0.058 A 
ENDROOT
TORSDOF 0
ENDMDL
