MODEL 1
REMARK minimizedAffinity -2.91390061
REMARK minimizedRMSD -1
REMARK  0 active torsions:
REMARK  status: ('A' for Active; 'I' for Inactive)
ROOT
ATOM      1  O1  BZF d   1       2.922   4.322  -5.584  0.00  0.00    -0.204 OA
ATOM      2  C2  BZF d   1       3.424   3.645  -4.490  0.00  0.00     0.174 A 
ATOM      3  C3  BZF d   1       2.594   3.760  -3.434  0.00  0.00    -0.012 A 
ATOM      4  C3A BZF d   1       1.459   4.481  -3.923  0.00  0.00    -0.107 A 
ATOM      5  C4  BZF d   1       0.290   4.893  -3.351  0.00  0.00     0.055 A 
ATOM      6  C5  BZF d   1      -0.576   5.641  -4.083  0.00  0.00    -0.016 A 
ATOM      7  C6  BZF d   1      -0.304   5.999  -5.387  0.00  0.00     0.022 A 
ATOM      8  C7  BZF d   1       0.841   5.610  -6.000  0.00  0.00     0.029 A 
ATOM      9  C7A BZF d   1       1.704   4.826  -5.273  0.00  0.00     0.058 A 
ENDROOT
TORSDOF 0
ENDMDL
