MODEL 1
REMARK minimizedAffinity 4.83426142
REMARK minimizedRMSD -1
REMARK  0 active torsions:
REMARK  status: ('A' for Active; 'I' for Inactive)
ROOT
ATOM      1  O1  BZF d   1       2.029  -2.972   0.422  0.00  0.00    -0.204 OA
ATOM      2  C2  BZF d   1       1.229  -4.016  -0.001  0.00  0.00     0.174 A 
ATOM      3  C3  BZF d   1      -0.072  -3.661   0.021  0.00  0.00    -0.012 A 
ATOM      4  C3A BZF d   1      -0.079  -2.281   0.400  0.00  0.00    -0.107 A 
ATOM      5  C4  BZF d   1      -1.073  -1.362   0.579  0.00  0.00     0.055 A 
ATOM      6  C5  BZF d   1      -0.750  -0.118   1.022  0.00  0.00    -0.016 A 
ATOM      7  C6  BZF d   1       0.553   0.238   1.300  0.00  0.00     0.022 A 
ATOM      8  C7  BZF d   1       1.574  -0.638   1.132  0.00  0.00     0.029 A 
ATOM      9  C7A BZF d   1       1.255  -1.885   0.653  0.00  0.00     0.058 A 
ENDROOT
TORSDOF 0
ENDMDL
