MODEL 1
REMARK minimizedAffinity -0.705649376
REMARK minimizedRMSD -1
REMARK  0 active torsions:
REMARK  status: ('A' for Active; 'I' for Inactive)
ROOT
ATOM      1  O1  BZF d   1      -0.513  -1.714   0.768  0.00  0.00    -0.204 OA
ATOM      2  C2  BZF d   1      -0.151  -0.390   0.932  0.00  0.00     0.174 A 
ATOM      3  C3  BZF d   1       1.180  -0.236   0.779  0.00  0.00    -0.012 A 
ATOM      4  C3A BZF d   1       1.669  -1.529   0.411  0.00  0.00    -0.107 A 
ATOM      5  C4  BZF d   1       2.910  -2.012   0.109  0.00  0.00     0.055 A 
ATOM      6  C5  BZF d   1       3.060  -3.340  -0.136  0.00  0.00    -0.016 A 
ATOM      7  C6  BZF d   1       1.994  -4.213  -0.083  0.00  0.00     0.022 A 
ATOM      8  C7  BZF d   1       0.743  -3.780   0.208  0.00  0.00     0.029 A 
ATOM      9  C7A BZF d   1       0.582  -2.433   0.424  0.00  0.00     0.058 A 
ENDROOT
TORSDOF 0
ENDMDL
