MODEL 1
REMARK minimizedAffinity 4.46859884
REMARK minimizedRMSD -1
REMARK  0 active torsions:
REMARK  status: ('A' for Active; 'I' for Inactive)
ROOT
ATOM      1  O1  BZF d   1       0.202  -3.912  -0.418  0.00  0.00    -0.204 OA
ATOM      2  C2  BZF d   1       1.487  -4.406  -0.297  0.00  0.00     0.174 A 
ATOM      3  C3  BZF d   1       2.266  -3.547   0.391  0.00  0.00    -0.012 A 
ATOM      4  C3A BZF d   1       1.393  -2.490   0.799  0.00  0.00    -0.107 A 
ATOM      5  C4  BZF d   1       1.576  -1.348   1.526  0.00  0.00     0.055 A 
ATOM      6  C5  BZF d   1       0.533  -0.491   1.683  0.00  0.00    -0.016 A 
ATOM      7  C6  BZF d   1      -0.703  -0.741   1.123  0.00  0.00     0.022 A 
ATOM      8  C7  BZF d   1      -0.934  -1.862   0.398  0.00  0.00     0.029 A 
ATOM      9  C7A BZF d   1       0.109  -2.747   0.265  0.00  0.00     0.058 A 
ENDROOT
TORSDOF 0
ENDMDL
