MODEL 1
REMARK minimizedAffinity -1.90051639
REMARK minimizedRMSD -1
REMARK  0 active torsions:
REMARK  status: ('A' for Active; 'I' for Inactive)
ROOT
ATOM      1  O1  BZF d   1       3.151  -2.043  -0.317  0.00  0.00    -0.204 OA
ATOM      2  C2  BZF d   1       3.135  -3.415  -0.472  0.00  0.00     0.174 A 
ATOM      3  C3  BZF d   1       1.933  -3.921  -0.130  0.00  0.00    -0.012 A 
ATOM      4  C3A BZF d   1       1.119  -2.785   0.176  0.00  0.00    -0.107 A 
ATOM      5  C4  BZF d   1      -0.181  -2.639   0.565  0.00  0.00     0.055 A 
ATOM      6  C5  BZF d   1      -0.649  -1.396   0.853  0.00  0.00    -0.016 A 
ATOM      7  C6  BZF d   1       0.157  -0.279   0.768  0.00  0.00     0.022 A 
ATOM      8  C7  BZF d   1       1.452  -0.373   0.382  0.00  0.00     0.029 A 
ATOM      9  C7A BZF d   1       1.919  -1.624   0.058  0.00  0.00     0.058 A 
ENDROOT
TORSDOF 0
ENDMDL
