MODEL 1
REMARK minimizedAffinity -4.04117107
REMARK minimizedRMSD -1
REMARK  0 active torsions:
REMARK  status: ('A' for Active; 'I' for Inactive)
ROOT
ATOM      1  N1  IND d   1      -0.348   1.280   0.596  0.00  0.00    -0.196 N 
ATOM      2  C2  IND d   1       0.779   0.933  -0.095  0.00  0.00     0.054 A 
ATOM      3  C3  IND d   1       1.108  -0.354   0.156  0.00  0.00    -0.031 A 
ATOM      4  C4  IND d   1      -0.120  -2.106   1.588  0.00  0.00     0.051 A 
ATOM      5  C5  IND d   1      -1.177  -2.249   2.443  0.00  0.00    -0.031 A 
ATOM      6  C6  IND d   1      -2.030  -1.203   2.730  0.00  0.00     0.015 A 
ATOM      7  C7  IND d   1      -1.864   0.027   2.161  0.00  0.00    -0.016 A 
ATOM      8  C8  IND d   1      -0.788   0.179   1.297  0.00  0.00    -0.047 A 
ATOM      9  C9  IND d   1       0.106  -0.867   1.036  0.00  0.00    -0.096 A 
ATOM     10  HN1 IND d   1      -0.720   2.055   0.593  0.00  0.00     0.298 HD
ENDROOT
TORSDOF 0
ENDMDL
