MODEL 1
REMARK minimizedAffinity -0.21562387
REMARK minimizedRMSD -1
REMARK  0 active torsions:
REMARK  status: ('A' for Active; 'I' for Inactive)
ROOT
ATOM      1  N1  IND d   1      -1.877   1.555   0.962  0.00  0.00    -0.196 N 
ATOM      2  C2  IND d   1      -2.681   0.468   1.165  0.00  0.00     0.054 A 
ATOM      3  C3  IND d   1      -2.022  -0.670   0.852  0.00  0.00    -0.031 A 
ATOM      4  C4  IND d   1       0.414  -0.991   0.085  0.00  0.00     0.051 A 
ATOM      5  C5  IND d   1       1.530  -0.291  -0.279  0.00  0.00    -0.031 A 
ATOM      6  C6  IND d   1       1.569   1.088  -0.244  0.00  0.00     0.015 A 
ATOM      7  C7  IND d   1       0.493   1.821   0.168  0.00  0.00    -0.016 A 
ATOM      8  C8  IND d   1      -0.645   1.114   0.532  0.00  0.00    -0.047 A 
ATOM      9  C9  IND d   1      -0.704  -0.284   0.458  0.00  0.00    -0.096 A 
ATOM     10  HN1 IND d   1      -2.102   2.376   1.083  0.00  0.00     0.298 HD
ENDROOT
TORSDOF 0
ENDMDL
