MODEL 1
REMARK minimizedAffinity -4.85414362
REMARK minimizedRMSD -1
REMARK  0 active torsions:
REMARK  status: ('A' for Active; 'I' for Inactive)
ROOT
ATOM      1  N1  IND d   1       4.021   2.584  -3.390  0.00  0.00    -0.196 N 
ATOM      2  C2  IND d   1       4.493   2.118  -2.195  0.00  0.00     0.054 A 
ATOM      3  C3  IND d   1       3.469   1.720  -1.408  0.00  0.00    -0.031 A 
ATOM      4  C4  IND d   1       0.946   1.650  -1.916  0.00  0.00     0.051 A 
ATOM      5  C5  IND d   1       0.028   2.007  -2.864  0.00  0.00    -0.031 A 
ATOM      6  C6  IND d   1       0.402   2.584  -4.060  0.00  0.00     0.015 A 
ATOM      7  C7  IND d   1       1.714   2.816  -4.360  0.00  0.00    -0.016 A 
ATOM      8  C8  IND d   1       2.649   2.461  -3.398  0.00  0.00    -0.047 A 
ATOM      9  C9  IND d   1       2.273   1.915  -2.164  0.00  0.00    -0.096 A 
ATOM     10  HN1 IND d   1       4.500   2.902  -4.030  0.00  0.00     0.298 HD
ENDROOT
TORSDOF 0
ENDMDL
