MODEL 1
REMARK minimizedAffinity -5.59564781
REMARK minimizedRMSD -1
REMARK  0 active torsions:
REMARK  status: ('A' for Active; 'I' for Inactive)
ROOT
ATOM      1  N1  IND d   1       0.116   0.776   0.043  0.00  0.00    -0.196 N 
ATOM      2  C2  IND d   1       0.694   0.938  -1.185  0.00  0.00     0.054 A 
ATOM      3  C3  IND d   1       0.839  -0.258  -1.798  0.00  0.00    -0.031 A 
ATOM      4  C4  IND d   1       0.103  -2.598  -1.014  0.00  0.00     0.051 A 
ATOM      5  C5  IND d   1      -0.435  -3.255   0.057  0.00  0.00    -0.031 A 
ATOM      6  C6  IND d   1      -0.827  -2.588   1.200  0.00  0.00     0.015 A 
ATOM      7  C7  IND d   1      -0.706  -1.232   1.310  0.00  0.00    -0.016 A 
ATOM      8  C8  IND d   1      -0.154  -0.562   0.228  0.00  0.00    -0.047 A 
ATOM      9  C9  IND d   1       0.286  -1.238  -0.918  0.00  0.00    -0.096 A 
ATOM     10  HN1 IND d   1      -0.051   1.405   0.606  0.00  0.00     0.298 HD
ENDROOT
TORSDOF 0
ENDMDL
