MODEL 1
REMARK minimizedAffinity -4.46826792
REMARK minimizedRMSD -1
REMARK  0 active torsions:
REMARK  status: ('A' for Active; 'I' for Inactive)
ROOT
ATOM      1  N1  IND d   1      -2.237  -0.533   2.196  0.00  0.00    -0.196 N 
ATOM      2  C2  IND d   1      -1.943  -1.867   2.239  0.00  0.00     0.054 A 
ATOM      3  C3  IND d   1      -0.862  -2.136   1.473  0.00  0.00    -0.031 A 
ATOM      4  C4  IND d   1       0.641  -0.523   0.143  0.00  0.00     0.051 A 
ATOM      5  C5  IND d   1       0.750   0.787  -0.230  0.00  0.00    -0.031 A 
ATOM      6  C6  IND d   1      -0.147   1.744   0.199  0.00  0.00     0.015 A 
ATOM      7  C7  IND d   1      -1.185   1.427   1.028  0.00  0.00    -0.016 A 
ATOM      8  C8  IND d   1      -1.304   0.096   1.402  0.00  0.00    -0.047 A 
ATOM      9  C9  IND d   1      -0.421  -0.887   0.937  0.00  0.00    -0.096 A 
ATOM     10  HN1 IND d   1      -2.895  -0.151   2.598  0.00  0.00     0.298 HD
ENDROOT
TORSDOF 0
ENDMDL
