MODEL 1
REMARK minimizedAffinity -4.20333099
REMARK minimizedRMSD -1
REMARK  0 active torsions:
REMARK  status: ('A' for Active; 'I' for Inactive)
ROOT
ATOM      1  N1  IND d   1       0.877   0.285   1.096  0.00  0.00    -0.196 N 
ATOM      2  C2  IND d   1       0.329   1.457   0.654  0.00  0.00     0.054 A 
ATOM      3  C3  IND d   1      -0.959   1.266   0.291  0.00  0.00    -0.031 A 
ATOM      4  C4  IND d   1      -2.401  -0.862   0.434  0.00  0.00     0.051 A 
ATOM      5  C5  IND d   1      -2.330  -2.193   0.738  0.00  0.00    -0.031 A 
ATOM      6  C6  IND d   1      -1.164  -2.777   1.188  0.00  0.00     0.015 A 
ATOM      7  C7  IND d   1      -0.023  -2.046   1.363  0.00  0.00    -0.016 A 
ATOM      8  C8  IND d   1      -0.089  -0.696   1.049  0.00  0.00    -0.047 A 
ATOM      9  C9  IND d   1      -1.258  -0.107   0.551  0.00  0.00    -0.096 A 
ATOM     10  HN1 IND d   1       1.689   0.178   1.359  0.00  0.00     0.298 HD
ENDROOT
TORSDOF 0
ENDMDL
