MODEL 1
REMARK minimizedAffinity -5.03015661
REMARK minimizedRMSD -1
REMARK  0 active torsions:
REMARK  status: ('A' for Active; 'I' for Inactive)
ROOT
ATOM      1  N1  IND d   1       0.737   0.666   0.770  0.00  0.00    -0.196 N 
ATOM      2  C2  IND d   1       0.920   1.178  -0.485  0.00  0.00     0.054 A 
ATOM      3  C3  IND d   1       0.337   0.382  -1.408  0.00  0.00    -0.031 A 
ATOM      4  C4  IND d   1      -1.058  -1.757  -1.076  0.00  0.00     0.051 A 
ATOM      5  C5  IND d   1      -1.470  -2.636  -0.114  0.00  0.00    -0.031 A 
ATOM      6  C6  IND d   1      -1.163  -2.454   1.219  0.00  0.00     0.015 A 
ATOM      7  C7  IND d   1      -0.440  -1.375   1.643  0.00  0.00    -0.016 A 
ATOM      8  C8  IND d   1      -0.014  -0.484   0.668  0.00  0.00    -0.047 A 
ATOM      9  C9  IND d   1      -0.286  -0.686  -0.691  0.00  0.00    -0.096 A 
ATOM     10  HN1 IND d   1       1.040   1.005   1.499  0.00  0.00     0.298 HD
ENDROOT
TORSDOF 0
ENDMDL
