MODEL 1
REMARK minimizedAffinity -2.17233586
REMARK minimizedRMSD -1
REMARK  0 active torsions:
REMARK  status: ('A' for Active; 'I' for Inactive)
ROOT
ATOM      1  N1  IND d   1       0.310   0.103  -0.800  0.00  0.00    -0.196 N 
ATOM      2  C2  IND d   1       1.527   0.294  -0.208  0.00  0.00     0.054 A 
ATOM      3  C3  IND d   1       1.593  -0.382   0.960  0.00  0.00    -0.031 A 
ATOM      4  C4  IND d   1      -0.139  -1.948   2.044  0.00  0.00     0.051 A 
ATOM      5  C5  IND d   1      -1.418  -2.407   1.896  0.00  0.00    -0.031 A 
ATOM      6  C6  IND d   1      -2.201  -2.048   0.818  0.00  0.00     0.015 A 
ATOM      7  C7  IND d   1      -1.728  -1.222  -0.162  0.00  0.00    -0.016 A 
ATOM      8  C8  IND d   1      -0.433  -0.748  -0.011  0.00  0.00    -0.047 A 
ATOM      9  C9  IND d   1       0.352  -1.075   1.103  0.00  0.00    -0.096 A 
ATOM     10  HN1 IND d   1       0.051   0.454  -1.541  0.00  0.00     0.298 HD
ENDROOT
TORSDOF 0
ENDMDL
