MODEL 1
REMARK minimizedAffinity -4.37733889
REMARK minimizedRMSD -1
REMARK  0 active torsions:
REMARK  status: ('A' for Active; 'I' for Inactive)
ROOT
ATOM      1  N1  IND d   1       0.356   0.341  -0.278  0.00  0.00    -0.196 N 
ATOM      2  C2  IND d   1       1.678   0.312   0.070  0.00  0.00     0.054 A 
ATOM      3  C3  IND d   1       1.941  -0.775   0.830  0.00  0.00    -0.031 A 
ATOM      4  C4  IND d   1       0.375  -2.692   1.539  0.00  0.00     0.051 A 
ATOM      5  C5  IND d   1      -0.932  -3.088   1.494  0.00  0.00    -0.031 A 
ATOM      6  C6  IND d   1      -1.896  -2.347   0.839  0.00  0.00     0.015 A 
ATOM      7  C7  IND d   1      -1.584  -1.184   0.194  0.00  0.00    -0.016 A 
ATOM      8  C8  IND d   1      -0.259  -0.775   0.245  0.00  0.00    -0.047 A 
ATOM      9  C9  IND d   1       0.715  -1.500   0.943  0.00  0.00    -0.096 A 
ATOM     10  HN1 IND d   1      -0.026   0.954  -0.744  0.00  0.00     0.298 HD
ENDROOT
TORSDOF 0
ENDMDL
