MODEL 1
REMARK minimizedAffinity -0.564209223
REMARK minimizedRMSD -1
REMARK  0 active torsions:
REMARK  status: ('A' for Active; 'I' for Inactive)
ROOT
ATOM      1  N1  IND d   1      -0.439   1.035   0.348  0.00  0.00    -0.196 N 
ATOM      2  C2  IND d   1      -0.114   1.403  -0.927  0.00  0.00     0.054 A 
ATOM      3  C3  IND d   1       0.454   0.368  -1.586  0.00  0.00    -0.031 A 
ATOM      4  C4  IND d   1       0.855  -2.050  -0.797  0.00  0.00     0.051 A 
ATOM      5  C5  IND d   1       0.757  -2.854   0.303  0.00  0.00    -0.031 A 
ATOM      6  C6  IND d   1       0.243  -2.394   1.499  0.00  0.00     0.015 A 
ATOM      7  C7  IND d   1      -0.205  -1.111   1.635  0.00  0.00    -0.016 A 
ATOM      8  C8  IND d   1      -0.101  -0.290   0.522  0.00  0.00    -0.047 A 
ATOM      9  C9  IND d   1       0.459  -0.738  -0.682  0.00  0.00    -0.096 A 
ATOM     10  HN1 IND d   1      -0.795   1.544   0.943  0.00  0.00     0.298 HD
ENDROOT
TORSDOF 0
ENDMDL
