MODEL 1
REMARK minimizedAffinity -4.89617586
REMARK minimizedRMSD -1
REMARK  0 active torsions:
REMARK  status: ('A' for Active; 'I' for Inactive)
ROOT
ATOM      1  N1  IND d   1      -0.001   0.576  -3.737  0.00  0.00    -0.196 N 
ATOM      2  C2  IND d   1       0.497   1.706  -4.323  0.00  0.00     0.054 A 
ATOM      3  C3  IND d   1       1.023   2.528  -3.388  0.00  0.00    -0.031 A 
ATOM      4  C4  IND d   1       1.267   2.174  -0.850  0.00  0.00     0.051 A 
ATOM      5  C5  IND d   1       0.930   1.311   0.155  0.00  0.00    -0.031 A 
ATOM      6  C6  IND d   1       0.253   0.134  -0.092  0.00  0.00     0.015 A 
ATOM      7  C7  IND d   1      -0.102  -0.231  -1.359  0.00  0.00    -0.016 A 
ATOM      8  C8  IND d   1       0.233   0.646  -2.381  0.00  0.00    -0.047 A 
ATOM      9  C9  IND d   1       0.882   1.862  -2.132  0.00  0.00    -0.096 A 
ATOM     10  HN1 IND d   1      -0.394  -0.070  -4.146  0.00  0.00     0.298 HD
ENDROOT
TORSDOF 0
ENDMDL
