MODEL 1
REMARK minimizedAffinity -2.28361583
REMARK minimizedRMSD -1
REMARK  0 active torsions:
REMARK  status: ('A' for Active; 'I' for Inactive)
ROOT
ATOM      1  N1  IND d   1       1.202   0.399  -3.498  0.00  0.00    -0.196 N 
ATOM      2  C2  IND d   1       1.253   1.758  -3.631  0.00  0.00     0.054 A 
ATOM      3  C3  IND d   1       0.900   2.358  -2.471  0.00  0.00    -0.031 A 
ATOM      4  C4  IND d   1       0.299   1.302  -0.201  0.00  0.00     0.051 A 
ATOM      5  C5  IND d   1       0.081   0.095   0.401  0.00  0.00    -0.031 A 
ATOM      6  C6  IND d   1       0.231  -1.096  -0.278  0.00  0.00     0.015 A 
ATOM      7  C7  IND d   1       0.618  -1.126  -1.588  0.00  0.00    -0.016 A 
ATOM      8  C8  IND d   1       0.833   0.098  -2.205  0.00  0.00    -0.047 A 
ATOM      9  C9  IND d   1       0.641   1.312  -1.533  0.00  0.00    -0.096 A 
ATOM     10  HN1 IND d   1       1.371  -0.172  -4.118  0.00  0.00     0.298 HD
ENDROOT
TORSDOF 0
ENDMDL
