MODEL 1
REMARK minimizedAffinity -4.15029907
REMARK minimizedRMSD -1
REMARK  0 active torsions:
REMARK  status: ('A' for Active; 'I' for Inactive)
ROOT
ATOM      1  N1  IND d   1      -1.452  -1.571   1.454  0.00  0.00    -0.196 N 
ATOM      2  C2  IND d   1      -0.813  -2.743   1.748  0.00  0.00     0.054 A 
ATOM      3  C3  IND d   1       0.405  -2.773   1.163  0.00  0.00    -0.031 A 
ATOM      4  C4  IND d   1       1.594  -0.968  -0.236  0.00  0.00     0.051 A 
ATOM      5  C5  IND d   1       1.395   0.260  -0.803  0.00  0.00    -0.031 A 
ATOM      6  C6  IND d   1       0.214   0.955  -0.641  0.00  0.00     0.015 A 
ATOM      7  C7  IND d   1      -0.813   0.452   0.107  0.00  0.00    -0.016 A 
ATOM      8  C8  IND d   1      -0.617  -0.798   0.678  0.00  0.00    -0.047 A 
ATOM      9  C9  IND d   1       0.563  -1.527   0.483  0.00  0.00    -0.096 A 
ATOM     10  HN1 IND d   1      -2.244  -1.353   1.711  0.00  0.00     0.298 HD
ENDROOT
TORSDOF 0
ENDMDL
