MODEL 1
REMARK minimizedAffinity -2.54614353
REMARK minimizedRMSD -1
REMARK  0 active torsions:
REMARK  status: ('A' for Active; 'I' for Inactive)
ROOT
ATOM      1  N1  IND d   1       0.402  -1.600  -0.537  0.00  0.00    -0.196 N 
ATOM      2  C2  IND d   1       0.469  -1.361   0.808  0.00  0.00     0.054 A 
ATOM      3  C3  IND d   1       0.904  -0.102   1.040  0.00  0.00    -0.031 A 
ATOM      4  C4  IND d   1       1.467   1.769  -0.636  0.00  0.00     0.051 A 
ATOM      5  C5  IND d   1       1.592   2.015  -1.975  0.00  0.00    -0.031 A 
ATOM      6  C6  IND d   1       1.318   1.049  -2.922  0.00  0.00     0.015 A 
ATOM      7  C7  IND d   1       0.897  -0.200  -2.564  0.00  0.00    -0.016 A 
ATOM      8  C8  IND d   1       0.775  -0.455  -1.205  0.00  0.00    -0.047 A 
ATOM      9  C9  IND d   1       1.092   0.507  -0.238  0.00  0.00    -0.096 A 
ATOM     10  HN1 IND d   1       0.166  -2.342  -0.903  0.00  0.00     0.298 HD
ENDROOT
TORSDOF 0
ENDMDL
