MODEL 1
REMARK minimizedAffinity -1.82720017
REMARK minimizedRMSD -1
REMARK  0 active torsions:
REMARK  status: ('A' for Active; 'I' for Inactive)
ROOT
ATOM      1  N1  IND d   1       1.697   0.335  -3.120  0.00  0.00    -0.196 N 
ATOM      2  C2  IND d   1       1.832   1.687  -2.971  0.00  0.00     0.054 A 
ATOM      3  C3  IND d   1       1.487   2.058  -1.717  0.00  0.00    -0.031 A 
ATOM      4  C4  IND d   1       0.771   0.602   0.281  0.00  0.00     0.051 A 
ATOM      5  C5  IND d   1       0.468  -0.687   0.621  0.00  0.00    -0.031 A 
ATOM      6  C6  IND d   1       0.563  -1.722  -0.286  0.00  0.00     0.015 A 
ATOM      7  C7  IND d   1       0.978  -1.508  -1.570  0.00  0.00    -0.016 A 
ATOM      8  C8  IND d   1       1.281  -0.200  -1.921  0.00  0.00    -0.047 A 
ATOM      9  C9  IND d   1       1.145   0.861  -1.016  0.00  0.00    -0.096 A 
ATOM     10  HN1 IND d   1       1.847  -0.108  -3.842  0.00  0.00     0.298 HD
ENDROOT
TORSDOF 0
ENDMDL
