MODEL 1
REMARK minimizedAffinity -1.22368908
REMARK minimizedRMSD -1
REMARK  0 active torsions:
REMARK  status: ('A' for Active; 'I' for Inactive)
ROOT
ATOM      1  N1  IND d   1       2.095   0.605  -2.849  0.00  0.00    -0.196 N 
ATOM      2  C2  IND d   1       2.221   1.965  -2.897  0.00  0.00     0.054 A 
ATOM      3  C3  IND d   1       1.572   2.535  -1.856  0.00  0.00    -0.031 A 
ATOM      4  C4  IND d   1       0.326   1.420   0.101  0.00  0.00     0.051 A 
ATOM      5  C5  IND d   1      -0.087   0.201   0.561  0.00  0.00    -0.031 A 
ATOM      6  C6  IND d   1       0.214  -0.969  -0.105  0.00  0.00     0.015 A 
ATOM      7  C7  IND d   1       0.953  -0.965  -1.254  0.00  0.00    -0.016 A 
ATOM      8  C8  IND d   1       1.369   0.271  -1.727  0.00  0.00    -0.047 A 
ATOM      9  C9  IND d   1       1.030   1.466  -1.079  0.00  0.00    -0.096 A 
ATOM     10  HN1 IND d   1       2.416   0.051  -3.423  0.00  0.00     0.298 HD
ENDROOT
TORSDOF 0
ENDMDL
