MODEL 1
REMARK minimizedAffinity -2.49583435
REMARK minimizedRMSD -1
REMARK  0 active torsions:
REMARK  status: ('A' for Active; 'I' for Inactive)
ROOT
ATOM      1  N1  IND d   1      -0.310   0.569  -1.575  0.00  0.00    -0.196 N 
ATOM      2  C2  IND d   1       0.340   1.755  -1.376  0.00  0.00     0.054 A 
ATOM      3  C3  IND d   1       1.269   1.625  -0.402  0.00  0.00    -0.031 A 
ATOM      4  C4  IND d   1       1.961  -0.467   0.928  0.00  0.00     0.051 A 
ATOM      5  C5  IND d   1       1.628  -1.778   1.124  0.00  0.00    -0.031 A 
ATOM      6  C6  IND d   1       0.613  -2.387   0.414  0.00  0.00     0.015 A 
ATOM      7  C7  IND d   1      -0.102  -1.707  -0.531  0.00  0.00    -0.016 A 
ATOM      8  C8  IND d   1       0.229  -0.374  -0.727  0.00  0.00    -0.047 A 
ATOM      9  C9  IND d   1       1.229   0.261   0.020  0.00  0.00    -0.096 A 
ATOM     10  HN1 IND d   1      -0.948   0.434  -2.135  0.00  0.00     0.298 HD
ENDROOT
TORSDOF 0
ENDMDL
