MODEL 1
REMARK minimizedAffinity 6.7749753
REMARK minimizedRMSD -1
REMARK  0 active torsions:
REMARK  status: ('A' for Active; 'I' for Inactive)
ROOT
ATOM      1  C   UNL d   1      -1.424   5.811  -2.963  0.00  0.00     0.172 C 
ATOM      2  N   UNL d   1      -0.890   4.642  -2.305  0.00  0.00    -0.070 N 
ATOM      3  C1  UNL d   1      -1.256   3.347  -2.558  0.00  0.00    -0.004 A 
ATOM      4  C2  UNL d   1      -0.520   2.530  -1.727  0.00  0.00    -0.047 A 
ATOM      5  C3  UNL d   1       0.317   3.363  -0.947  0.00  0.00    -0.047 A 
ATOM      6  C4  UNL d   1       0.067   4.666  -1.326  0.00  0.00    -0.004 A 
ENDROOT
TORSDOF 0
ENDMDL
