MODEL 1
REMARK minimizedAffinity 3.39171648
REMARK minimizedRMSD -1
REMARK  0 active torsions:
REMARK  status: ('A' for Active; 'I' for Inactive)
ROOT
ATOM      1  C   UNL d   1      -2.429  -2.137  -6.000  0.00  0.00     0.172 C 
ATOM      2  N   UNL d   1      -2.057  -3.533  -5.998  0.00  0.00    -0.070 N 
ATOM      3  C1  UNL d   1      -0.776  -4.017  -5.999  0.00  0.00    -0.004 A 
ATOM      4  C2  UNL d   1      -0.846  -5.394  -5.995  0.00  0.00    -0.047 A 
ATOM      5  C3  UNL d   1      -2.216  -5.749  -5.993  0.00  0.00    -0.047 A 
ATOM      6  C4  UNL d   1      -2.943  -4.577  -5.994  0.00  0.00    -0.004 A 
ENDROOT
TORSDOF 0
ENDMDL
