MODEL 1
REMARK minimizedAffinity -2.01343489
REMARK minimizedRMSD -1
REMARK  0 active torsions:
REMARK  status: ('A' for Active; 'I' for Inactive)
ROOT
ATOM      1  C   UNL d   1      -5.797  -5.987  -5.851  0.00  0.00     0.172 C 
ATOM      2  N   UNL d   1      -4.505  -5.343  -5.891  0.00  0.00    -0.070 N 
ATOM      3  C1  UNL d   1      -4.288  -3.995  -5.992  0.00  0.00    -0.004 A 
ATOM      4  C2  UNL d   1      -2.925  -3.786  -5.998  0.00  0.00    -0.047 A 
ATOM      5  C3  UNL d   1      -2.302  -5.053  -5.899  0.00  0.00    -0.047 A 
ATOM      6  C4  UNL d   1      -3.303  -5.999  -5.834  0.00  0.00    -0.004 A 
ENDROOT
TORSDOF 0
ENDMDL
