MODEL 1
REMARK minimizedAffinity -1.7338475
REMARK minimizedRMSD -1
REMARK  0 active torsions:
REMARK  status: ('A' for Active; 'I' for Inactive)
ROOT
ATOM      1  C   UNL d   1      -5.486  -5.819  -5.900  0.00  0.00     0.172 C 
ATOM      2  N   UNL d   1      -4.155  -5.258  -5.924  0.00  0.00    -0.070 N 
ATOM      3  C1  UNL d   1      -2.987  -5.970  -5.874  0.00  0.00    -0.004 A 
ATOM      4  C2  UNL d   1      -1.943  -5.072  -5.920  0.00  0.00    -0.047 A 
ATOM      5  C3  UNL d   1      -2.503  -3.775  -5.999  0.00  0.00    -0.047 A 
ATOM      6  C4  UNL d   1      -3.874  -3.919  -6.000  0.00  0.00    -0.004 A 
ENDROOT
TORSDOF 0
ENDMDL
