MODEL 1
REMARK minimizedAffinity 1.43181109
REMARK minimizedRMSD -1
REMARK  0 active torsions:
REMARK  status: ('A' for Active; 'I' for Inactive)
ROOT
ATOM      1  C   UNL d   1      -4.071  -5.792  -5.954  0.00  0.00     0.172 C 
ATOM      2  N   UNL d   1      -2.809  -5.090  -5.972  0.00  0.00    -0.070 N 
ATOM      3  C1  UNL d   1      -1.570  -5.674  -5.985  0.00  0.00    -0.004 A 
ATOM      4  C2  UNL d   1      -0.630  -4.667  -6.000  0.00  0.00    -0.047 A 
ATOM      5  C3  UNL d   1      -1.327  -3.435  -5.994  0.00  0.00    -0.047 A 
ATOM      6  C4  UNL d   1      -2.675  -3.727  -5.976  0.00  0.00    -0.004 A 
ENDROOT
TORSDOF 0
ENDMDL
