MODEL 1
REMARK minimizedAffinity 2.50903487
REMARK minimizedRMSD -1
REMARK  0 active torsions:
REMARK  status: ('A' for Active; 'I' for Inactive)
ROOT
ATOM      1  C   UNL d   1      -0.706  -3.463  -5.643  0.00  0.00     0.172 C 
ATOM      2  N   UNL d   1      -2.037  -4.007  -5.772  0.00  0.00    -0.070 N 
ATOM      3  C1  UNL d   1      -3.189  -3.278  -5.903  0.00  0.00    -0.004 A 
ATOM      4  C2  UNL d   1      -4.241  -4.163  -5.999  0.00  0.00    -0.047 A 
ATOM      5  C3  UNL d   1      -3.703  -5.470  -5.922  0.00  0.00    -0.047 A 
ATOM      6  C4  UNL d   1      -2.337  -5.344  -5.782  0.00  0.00    -0.004 A 
ENDROOT
TORSDOF 0
ENDMDL
