MODEL 1
REMARK minimizedAffinity 0.627935886
REMARK minimizedRMSD -1
REMARK  0 active torsions:
REMARK  status: ('A' for Active; 'I' for Inactive)
ROOT
ATOM      1  C   UNL d   1      -3.257  -5.889  -5.986  0.00  0.00     0.172 C 
ATOM      2  N   UNL d   1      -2.175  -4.933  -5.992  0.00  0.00    -0.070 N 
ATOM      3  C1  UNL d   1      -2.314  -3.570  -5.995  0.00  0.00    -0.004 A 
ATOM      4  C2  UNL d   1      -1.052  -3.017  -6.000  0.00  0.00    -0.047 A 
ATOM      5  C3  UNL d   1      -0.122  -4.084  -6.000  0.00  0.00    -0.047 A 
ATOM      6  C4  UNL d   1      -0.844  -5.259  -5.995  0.00  0.00    -0.004 A 
ENDROOT
TORSDOF 0
ENDMDL
