MODEL 1
REMARK minimizedAffinity -1.01450288
REMARK minimizedRMSD -1
REMARK  0 active torsions:
REMARK  status: ('A' for Active; 'I' for Inactive)
ROOT
ATOM      1  C   UNL d   1      -2.838  -5.873  -5.968  0.00  0.00     0.172 C 
ATOM      2  N   UNL d   1      -2.326  -4.523  -5.979  0.00  0.00    -0.070 N 
ATOM      3  C1  UNL d   1      -1.002  -4.172  -5.978  0.00  0.00    -0.004 A 
ATOM      4  C2  UNL d   1      -0.931  -2.796  -5.991  0.00  0.00    -0.047 A 
ATOM      5  C3  UNL d   1      -2.257  -2.303  -6.000  0.00  0.00    -0.047 A 
ATOM      6  C4  UNL d   1      -3.101  -3.394  -5.992  0.00  0.00    -0.004 A 
ENDROOT
TORSDOF 0
ENDMDL
