MODEL 1
REMARK minimizedAffinity -4.29106712
REMARK minimizedRMSD -1
REMARK  2 active torsions:
REMARK  status: ('A' for Active; 'I' for Inactive)
REMARK    1  A    between atoms: C2'_3  and  C1'_4 
REMARK    2  A    between atoms: C1'_4  and  C1_5 
ROOT
ATOM      1  C1  I4B d   1      -0.334  -0.542  -1.358  0.00  0.00    -0.075 A 
ATOM      2  C2  I4B d   1      -0.996   0.599  -1.741  0.00  0.00     0.003 A 
ATOM      3  C3  I4B d   1      -1.635   0.662  -3.003  0.00  0.00     0.002 A 
ATOM      4  C4  I4B d   1      -1.546  -0.412  -3.865  0.00  0.00    -0.004 A 
ATOM      5  C5  I4B d   1      -0.894  -1.575  -3.466  0.00  0.00     0.002 A 
ATOM      6  C6  I4B d   1      -0.295  -1.646  -2.200  0.00  0.00     0.003 A 
ENDROOT
BRANCH   1   7
ATOM      7  C1' I4B d   1       0.358  -0.563  -0.033  0.00  0.00     0.060 C 
BRANCH   7   8
ATOM      8  C2' I4B d   1       0.700  -2.002   0.293  0.00  0.00    -0.013 C 
ATOM      9  C4' I4B d   1       2.191  -2.215   0.325  0.00  0.00     0.013 C 
ATOM     10  C3' I4B d   1       0.076  -2.339   1.614  0.00  0.00     0.013 C 
ENDBRANCH   7   8
ENDBRANCH   1   7
TORSDOF 2
ENDMDL
