MODEL 1
REMARK minimizedAffinity -2.12932038
REMARK minimizedRMSD -1
REMARK  2 active torsions:
REMARK  status: ('A' for Active; 'I' for Inactive)
REMARK    1  A    between atoms: C2'_3  and  C1'_4 
REMARK    2  A    between atoms: C1'_4  and  C1_5 
ROOT
ATOM      1  C1  I4B d   1      -0.261  -0.056   0.203  0.00  0.00    -0.075 A 
ATOM      2  C2  I4B d   1      -0.042  -1.125  -0.630  0.00  0.00     0.003 A 
ATOM      3  C3  I4B d   1       1.195  -1.815  -0.594  0.00  0.00     0.002 A 
ATOM      4  C4  I4B d   1       2.195  -1.373   0.248  0.00  0.00    -0.004 A 
ATOM      5  C5  I4B d   1       1.962  -0.304   1.108  0.00  0.00     0.002 A 
ATOM      6  C6  I4B d   1       0.722   0.352   1.095  0.00  0.00     0.003 A 
ENDROOT
BRANCH   1   7
ATOM      7  C1' I4B d   1      -1.566   0.669   0.115  0.00  0.00     0.060 C 
BRANCH   7   8
ATOM      8  C2' I4B d   1      -2.492   0.094   1.167  0.00  0.00    -0.013 C 
ATOM      9  C4' I4B d   1      -2.718   1.073   2.289  0.00  0.00     0.013 C 
ATOM     10  C3' I4B d   1      -3.783  -0.271   0.498  0.00  0.00     0.013 C 
ENDBRANCH   7   8
ENDBRANCH   1   7
TORSDOF 2
ENDMDL
