MODEL 1
REMARK minimizedAffinity 1.14138067
REMARK minimizedRMSD -1
REMARK  2 active torsions:
REMARK  status: ('A' for Active; 'I' for Inactive)
REMARK    1  A    between atoms: C2'_3  and  C1'_4 
REMARK    2  A    between atoms: C1'_4  and  C1_5 
ROOT
ATOM      1  C1  I4B d   1      -0.005  -0.243  -1.235  0.00  0.00    -0.075 A 
ATOM      2  C2  I4B d   1       1.233  -0.800  -1.030  0.00  0.00     0.003 A 
ATOM      3  C3  I4B d   1       2.251  -0.056  -0.386  0.00  0.00     0.002 A 
ATOM      4  C4  I4B d   1       2.006   1.249  -0.011  0.00  0.00    -0.004 A 
ATOM      5  C5  I4B d   1       0.743   1.804  -0.199  0.00  0.00     0.002 A 
ATOM      6  C6  I4B d   1      -0.273   1.049  -0.803  0.00  0.00     0.003 A 
ENDROOT
BRANCH   1   7
ATOM      7  C1' I4B d   1      -1.047  -1.046  -1.948  0.00  0.00     0.060 C 
BRANCH   7   8
ATOM      8  C2' I4B d   1      -0.745  -0.989  -3.432  0.00  0.00    -0.013 C 
ATOM      9  C4' I4B d   1      -1.257  -2.216  -4.140  0.00  0.00     0.013 C 
ATOM     10  C3' I4B d   1      -1.371   0.256  -3.984  0.00  0.00     0.013 C 
ENDBRANCH   7   8
ENDBRANCH   1   7
TORSDOF 2
ENDMDL
