MODEL 1
REMARK minimizedAffinity -3.6452105
REMARK minimizedRMSD -1
REMARK  2 active torsions:
REMARK  status: ('A' for Active; 'I' for Inactive)
REMARK    1  A    between atoms: C2'_3  and  C1'_4 
REMARK    2  A    between atoms: C1'_4  and  C1_5 
ROOT
ATOM      1  C1  I4B d   1      -2.679   0.455  -0.417  0.00  0.00    -0.075 A 
ATOM      2  C2  I4B d   1      -3.751  -0.265  -0.883  0.00  0.00     0.003 A 
ATOM      3  C3  I4B d   1      -4.980  -0.251  -0.179  0.00  0.00     0.002 A 
ATOM      4  C4  I4B d   1      -5.076   0.451   1.005  0.00  0.00    -0.004 A 
ATOM      5  C5  I4B d   1      -3.995   1.199   1.464  0.00  0.00     0.002 A 
ATOM      6  C6  I4B d   1      -2.793   1.211   0.742  0.00  0.00     0.003 A 
ENDROOT
BRANCH   1   7
ATOM      7  C1' I4B d   1      -1.387   0.391  -1.168  0.00  0.00     0.060 C 
BRANCH   7   8
ATOM      8  C2' I4B d   1      -0.259   0.544  -0.169  0.00  0.00    -0.013 C 
ATOM      9  C4' I4B d   1       0.647  -0.659  -0.182  0.00  0.00     0.013 C 
ATOM     10  C3' I4B d   1       0.496   1.794  -0.511  0.00  0.00     0.013 C 
ENDBRANCH   7   8
ENDBRANCH   1   7
TORSDOF 2
ENDMDL
