MODEL 1
REMARK minimizedAffinity -1.82789838
REMARK minimizedRMSD -1
REMARK  2 active torsions:
REMARK  status: ('A' for Active; 'I' for Inactive)
REMARK    1  A    between atoms: C2'_3  and  C1'_4 
REMARK    2  A    between atoms: C1'_4  and  C1_5 
ROOT
ATOM      1  C1  I4B d   1       0.266  -1.466  -0.872  0.00  0.00    -0.075 A 
ATOM      2  C2  I4B d   1      -0.070  -0.632   0.166  0.00  0.00     0.003 A 
ATOM      3  C3  I4B d   1       0.894  -0.287   1.144  0.00  0.00     0.002 A 
ATOM      4  C4  I4B d   1       2.159  -0.835   1.075  0.00  0.00    -0.004 A 
ATOM      5  C5  I4B d   1       2.505  -1.661   0.009  0.00  0.00     0.002 A 
ATOM      6  C6  I4B d   1       1.557  -1.969  -0.977  0.00  0.00     0.003 A 
ENDROOT
BRANCH   1   7
ATOM      7  C1' I4B d   1      -0.785  -1.835  -1.869  0.00  0.00     0.060 C 
BRANCH   7   8
ATOM      8  C2' I4B d   1      -0.922  -0.689  -2.850  0.00  0.00    -0.013 C 
ATOM      9  C4' I4B d   1      -1.051  -1.193  -4.263  0.00  0.00     0.013 C 
ATOM     10  C3' I4B d   1      -2.120   0.121  -2.452  0.00  0.00     0.013 C 
ENDBRANCH   7   8
ENDBRANCH   1   7
TORSDOF 2
ENDMDL
