MODEL 1
REMARK minimizedAffinity -4.06625938
REMARK minimizedRMSD -1
REMARK  2 active torsions:
REMARK  status: ('A' for Active; 'I' for Inactive)
REMARK    1  A    between atoms: C2'_3  and  C1'_4 
REMARK    2  A    between atoms: C1'_4  and  C1_5 
ROOT
ATOM      1  C1  I4B d   1       0.374  -1.544  -0.957  0.00  0.00    -0.075 A 
ATOM      2  C2  I4B d   1       0.112  -0.298  -0.444  0.00  0.00     0.003 A 
ATOM      3  C3  I4B d   1       1.049   0.333   0.410  0.00  0.00     0.002 A 
ATOM      4  C4  I4B d   1       2.204  -0.334   0.762  0.00  0.00    -0.004 A 
ATOM      5  C5  I4B d   1       2.479  -1.587   0.222  0.00  0.00     0.002 A 
ATOM      6  C6  I4B d   1       1.565  -2.191  -0.652  0.00  0.00     0.003 A 
ENDROOT
BRANCH   1   7
ATOM      7  C1' I4B d   1      -0.652  -2.195  -1.829  0.00  0.00     0.060 C 
BRANCH   7   8
ATOM      8  C2' I4B d   1      -0.486  -1.650  -3.232  0.00  0.00    -0.013 C 
ATOM      9  C4' I4B d   1      -1.036  -2.606  -4.257  0.00  0.00     0.013 C 
ATOM     10  C3' I4B d   1      -1.183  -0.324  -3.299  0.00  0.00     0.013 C 
ENDBRANCH   7   8
ENDBRANCH   1   7
TORSDOF 2
ENDMDL
