MODEL 1
REMARK minimizedAffinity 2.63770485
REMARK minimizedRMSD -1
REMARK  2 active torsions:
REMARK  status: ('A' for Active; 'I' for Inactive)
REMARK    1  A    between atoms: C2'_3  and  C1'_4 
REMARK    2  A    between atoms: C1'_4  and  C1_5 
ROOT
ATOM      1  C1  I4B d   1      -0.852  -0.317  -1.492  0.00  0.00    -0.075 A 
ATOM      2  C2  I4B d   1      -1.475   0.782  -2.030  0.00  0.00     0.003 A 
ATOM      3  C3  I4B d   1      -1.954   0.749  -3.362  0.00  0.00     0.002 A 
ATOM      4  C4  I4B d   1      -1.746  -0.378  -4.131  0.00  0.00    -0.004 A 
ATOM      5  C5  I4B d   1      -1.136  -1.499  -3.577  0.00  0.00     0.002 A 
ATOM      6  C6  I4B d   1      -0.697  -1.473  -2.245  0.00  0.00     0.003 A 
ENDROOT
BRANCH   1   7
ATOM      7  C1' I4B d   1      -0.329  -0.236  -0.093  0.00  0.00     0.060 C 
BRANCH   7   8
ATOM      8  C2' I4B d   1       0.794   0.781  -0.073  0.00  0.00    -0.013 C 
ATOM      9  C4' I4B d   1       0.435   1.973   0.774  0.00  0.00     0.013 C 
ATOM     10  C3' I4B d   1       2.026   0.100   0.445  0.00  0.00     0.013 C 
ENDBRANCH   7   8
ENDBRANCH   1   7
TORSDOF 2
ENDMDL
