MODEL 1
REMARK minimizedAffinity 0.424400926
REMARK minimizedRMSD -1
REMARK  2 active torsions:
REMARK  status: ('A' for Active; 'I' for Inactive)
REMARK    1  A    between atoms: C2'_3  and  C1'_4 
REMARK    2  A    between atoms: C1'_4  and  C1_5 
ROOT
ATOM      1  C1  I4B d   1      -0.299   0.616   0.327  0.00  0.00    -0.075 A 
ATOM      2  C2  I4B d   1       0.290  -0.401   1.036  0.00  0.00     0.003 A 
ATOM      3  C3  I4B d   1       1.615  -0.261   1.516  0.00  0.00     0.002 A 
ATOM      4  C4  I4B d   1       2.327   0.884   1.222  0.00  0.00    -0.004 A 
ATOM      5  C5  I4B d   1       1.721   1.923   0.522  0.00  0.00     0.002 A 
ATOM      6  C6  I4B d   1       0.395   1.794   0.082  0.00  0.00     0.003 A 
ENDROOT
BRANCH   1   7
ATOM      7  C1' I4B d   1      -1.688   0.422  -0.193  0.00  0.00     0.060 C 
BRANCH   7   8
ATOM      8  C2' I4B d   1      -2.613   0.261   0.996  0.00  0.00    -0.013 C 
ATOM      9  C4' I4B d   1      -2.782   1.562   1.736  0.00  0.00     0.013 C 
ATOM     10  C3' I4B d   1      -3.930  -0.250   0.493  0.00  0.00     0.013 C 
ENDBRANCH   7   8
ENDBRANCH   1   7
TORSDOF 2
ENDMDL
