MODEL 1
REMARK minimizedAffinity -2.72074986
REMARK minimizedRMSD -1
REMARK  0 active torsions:
REMARK  status: ('A' for Active; 'I' for Inactive)
ROOT
ATOM      1  C1  BNZ d   1      -5.201   3.872  -3.800  0.00  0.00     0.000 A 
ATOM      2  C2  BNZ d   1      -4.767   5.171  -3.773  0.00  0.00     0.000 A 
ATOM      3  C3  BNZ d   1      -4.966   5.998  -4.842  0.00  0.00     0.000 A 
ATOM      4  C4  BNZ d   1      -5.563   5.516  -5.951  0.00  0.00     0.000 A 
ATOM      5  C5  BNZ d   1      -5.998   4.207  -5.998  0.00  0.00     0.000 A 
ATOM      6  C6  BNZ d   1      -5.830   3.387  -4.905  0.00  0.00     0.000 A 
ENDROOT
TORSDOF 0
ENDMDL
