MODEL 1
REMARK minimizedAffinity 1.57418466
REMARK minimizedRMSD -1
REMARK  0 active torsions:
REMARK  status: ('A' for Active; 'I' for Inactive)
ROOT
ATOM      1  C1  BNZ d   1      -0.312   1.682  -1.193  0.00  0.00     0.000 A 
ATOM      2  C2  BNZ d   1      -0.456   2.908  -1.787  0.00  0.00     0.000 A 
ATOM      3  C3  BNZ d   1      -0.431   4.054  -1.043  0.00  0.00     0.000 A 
ATOM      4  C4  BNZ d   1      -0.303   3.972   0.297  0.00  0.00     0.000 A 
ATOM      5  C5  BNZ d   1      -0.166   2.743   0.912  0.00  0.00     0.000 A 
ATOM      6  C6  BNZ d   1      -0.153   1.594   0.156  0.00  0.00     0.000 A 
ENDROOT
TORSDOF 0
ENDMDL
