MODEL 1
REMARK minimizedAffinity 9.42124557
REMARK minimizedRMSD -1
REMARK  0 active torsions:
REMARK  status: ('A' for Active; 'I' for Inactive)
ROOT
ATOM      1  C1  BNZ d   1      -1.548   1.675  -1.073  0.00  0.00     0.000 A 
ATOM      2  C2  BNZ d   1      -2.163   2.273  -0.005  0.00  0.00     0.000 A 
ATOM      3  C3  BNZ d   1      -1.445   2.643   1.098  0.00  0.00     0.000 A 
ATOM      4  C4  BNZ d   1      -0.124   2.378   1.149  0.00  0.00     0.000 A 
ATOM      5  C5  BNZ d   1       0.508   1.766   0.085  0.00  0.00     0.000 A 
ATOM      6  C6  BNZ d   1      -0.210   1.431  -1.040  0.00  0.00     0.000 A 
ENDROOT
TORSDOF 0
ENDMDL
