MODEL 1
REMARK minimizedAffinity 2.38202262
REMARK minimizedRMSD -1
REMARK  0 active torsions:
REMARK  status: ('A' for Active; 'I' for Inactive)
ROOT
ATOM      1  C1  BNZ d   1       0.938   0.179  -1.901  0.00  0.00     0.000 A 
ATOM      2  C2  BNZ d   1       2.112  -0.419  -1.529  0.00  0.00     0.000 A 
ATOM      3  C3  BNZ d   1       2.169  -1.765  -1.294  0.00  0.00     0.000 A 
ATOM      4  C4  BNZ d   1       1.044  -2.503  -1.392  0.00  0.00     0.000 A 
ATOM      5  C5  BNZ d   1      -0.149  -1.913  -1.758  0.00  0.00     0.000 A 
ATOM      6  C6  BNZ d   1      -0.194  -0.565  -2.031  0.00  0.00     0.000 A 
ENDROOT
TORSDOF 0
ENDMDL
