MODEL 1
REMARK minimizedAffinity 10.4402924
REMARK minimizedRMSD -1
REMARK  0 active torsions:
REMARK  status: ('A' for Active; 'I' for Inactive)
ROOT
ATOM      1  C   UNL d   1       3.112  -0.955  -1.093  0.00  0.00     0.020 A 
ATOM      2  C1  UNL d   1       2.014  -0.725  -1.920  0.00  0.00     0.020 A 
ATOM      3  C2  UNL d   1       1.298  -1.803  -2.446  0.00  0.00     0.034 A 
ATOM      4  C3  UNL d   1       1.680  -3.116  -2.145  0.00  0.00     0.017 A 
ATOM      5  C4  UNL d   1       2.783  -3.345  -1.315  0.00  0.00     0.017 A 
ATOM      6  C5  UNL d   1       3.496  -2.263  -0.791  0.00  0.00     0.034 A 
ATOM      7 Cl   UNL d   1       3.314  -4.937  -0.899  0.00  0.00    -0.070 Cl
ATOM      8 Cl1  UNL d   1       0.749  -4.400  -2.830  0.00  0.00    -0.070 Cl
ENDROOT
TORSDOF 0
ENDMDL
