MODEL 1
REMARK minimizedAffinity 9.69728184
REMARK minimizedRMSD -1
REMARK  0 active torsions:
REMARK  status: ('A' for Active; 'I' for Inactive)
ROOT
ATOM      1  C   UNL d   1      -3.507  -1.024   3.406  0.00  0.00     0.020 A 
ATOM      2  C1  UNL d   1      -3.989   0.281   3.311  0.00  0.00     0.020 A 
ATOM      3  C2  UNL d   1      -3.109   1.333   3.049  0.00  0.00     0.034 A 
ATOM      4  C3  UNL d   1      -1.742   1.082   2.880  0.00  0.00     0.017 A 
ATOM      5  C4  UNL d   1      -1.259  -0.228   2.975  0.00  0.00     0.017 A 
ATOM      6  C5  UNL d   1      -2.145  -1.277   3.238  0.00  0.00     0.034 A 
ATOM      7 Cl   UNL d   1       0.414  -0.616   2.779  0.00  0.00    -0.070 Cl
ATOM      8 Cl1  UNL d   1      -0.711   2.431   2.558  0.00  0.00    -0.070 Cl
ENDROOT
TORSDOF 0
ENDMDL
