MODEL 1
REMARK minimizedAffinity 15.5302553
REMARK minimizedRMSD -1
REMARK  0 active torsions:
REMARK  status: ('A' for Active; 'I' for Inactive)
ROOT
ATOM      1  C   UNL d   1      -4.821  -3.392  -5.535  0.00  0.00     0.020 A 
ATOM      2  C1  UNL d   1      -3.748  -2.630  -5.994  0.00  0.00     0.020 A 
ATOM      3  C2  UNL d   1      -2.540  -2.633  -5.294  0.00  0.00     0.034 A 
ATOM      4  C3  UNL d   1      -2.402  -3.401  -4.132  0.00  0.00     0.017 A 
ATOM      5  C4  UNL d   1      -3.480  -4.166  -3.672  0.00  0.00     0.017 A 
ATOM      6  C5  UNL d   1      -4.687  -4.159  -4.377  0.00  0.00     0.034 A 
ATOM      7 Cl   UNL d   1      -3.385  -5.138  -2.246  0.00  0.00    -0.070 Cl
ATOM      8 Cl1  UNL d   1      -0.878  -3.358  -3.317  0.00  0.00    -0.070 Cl
ENDROOT
TORSDOF 0
ENDMDL
