MODEL 1
REMARK minimizedAffinity -0.809465706
REMARK minimizedRMSD -1
REMARK  0 active torsions:
REMARK  status: ('A' for Active; 'I' for Inactive)
ROOT
ATOM      1  C   UNL d   1      -4.873  -4.401  -5.447  0.00  0.00     0.020 A 
ATOM      2  C1  UNL d   1      -3.789  -3.721  -6.000  0.00  0.00     0.020 A 
ATOM      3  C2  UNL d   1      -2.560  -3.707  -5.336  0.00  0.00     0.034 A 
ATOM      4  C3  UNL d   1      -2.413  -4.376  -4.115  0.00  0.00     0.017 A 
ATOM      5  C4  UNL d   1      -3.501  -5.059  -3.561  0.00  0.00     0.017 A 
ATOM      6  C5  UNL d   1      -4.729  -5.069  -4.230  0.00  0.00     0.034 A 
ATOM      7 Cl   UNL d   1      -3.396  -5.907  -2.059  0.00  0.00    -0.070 Cl
ATOM      8 Cl1  UNL d   1      -0.865  -4.318  -3.350  0.00  0.00    -0.070 Cl
ENDROOT
TORSDOF 0
ENDMDL
