MODEL 1
REMARK minimizedAffinity 9.5667038
REMARK minimizedRMSD -1
REMARK  0 active torsions:
REMARK  status: ('A' for Active; 'I' for Inactive)
ROOT
ATOM      1  C   UNL d   1      -0.268  -1.173  -3.223  0.00  0.00     0.020 A 
ATOM      2  C1  UNL d   1      -1.622  -0.954  -3.476  0.00  0.00     0.020 A 
ATOM      3  C2  UNL d   1      -2.524  -2.018  -3.414  0.00  0.00     0.034 A 
ATOM      4  C3  UNL d   1      -2.074  -3.305  -3.098  0.00  0.00     0.017 A 
ATOM      5  C4  UNL d   1      -0.716  -3.523  -2.844  0.00  0.00     0.017 A 
ATOM      6  C5  UNL d   1       0.184  -2.455  -2.907  0.00  0.00     0.034 A 
ATOM      7 Cl   UNL d   1      -0.086  -5.083  -2.447  0.00  0.00    -0.070 Cl
ATOM      8 Cl1  UNL d   1      -3.246  -4.574  -3.038  0.00  0.00    -0.070 Cl
ENDROOT
TORSDOF 0
ENDMDL
