MODEL 1
REMARK minimizedAffinity 13.5760527
REMARK minimizedRMSD -1
REMARK  0 active torsions:
REMARK  status: ('A' for Active; 'I' for Inactive)
ROOT
ATOM      1  C   UNL d   1       2.822  -6.000  -1.255  0.00  0.00     0.020 A 
ATOM      2  C1  UNL d   1       3.466  -4.989  -0.543  0.00  0.00     0.020 A 
ATOM      3  C2  UNL d   1       3.199  -3.650  -0.836  0.00  0.00     0.034 A 
ATOM      4  C3  UNL d   1       2.287  -3.318  -1.844  0.00  0.00     0.017 A 
ATOM      5  C4  UNL d   1       1.641  -4.334  -2.559  0.00  0.00     0.017 A 
ATOM      6  C5  UNL d   1       1.912  -5.673  -2.260  0.00  0.00     0.034 A 
ATOM      7 Cl   UNL d   1       0.503  -4.003  -3.816  0.00  0.00    -0.070 Cl
ATOM      8 Cl1  UNL d   1       2.005  -1.642  -2.154  0.00  0.00    -0.070 Cl
ENDROOT
TORSDOF 0
ENDMDL
