MODEL 1
REMARK minimizedAffinity 14.0517225
REMARK minimizedRMSD -1
REMARK  0 active torsions:
REMARK  status: ('A' for Active; 'I' for Inactive)
ROOT
ATOM      1  C   UNL d   1      -3.536  -3.148  -4.705  0.00  0.00     0.020 A 
ATOM      2  C1  UNL d   1      -2.323  -2.840  -5.321  0.00  0.00     0.020 A 
ATOM      3  C2  UNL d   1      -1.130  -3.355  -4.810  0.00  0.00     0.034 A 
ATOM      4  C3  UNL d   1      -1.147  -4.182  -3.680  0.00  0.00     0.017 A 
ATOM      5  C4  UNL d   1      -2.364  -4.491  -3.063  0.00  0.00     0.017 A 
ATOM      6  C5  UNL d   1      -3.556  -3.972  -3.579  0.00  0.00     0.034 A 
ATOM      7 Cl   UNL d   1      -2.465  -5.504  -1.667  0.00  0.00    -0.070 Cl
ATOM      8 Cl1  UNL d   1       0.366  -4.784  -3.103  0.00  0.00    -0.070 Cl
ENDROOT
TORSDOF 0
ENDMDL
