MODEL 1
REMARK minimizedAffinity 10.5183191
REMARK minimizedRMSD -1
REMARK  0 active torsions:
REMARK  status: ('A' for Active; 'I' for Inactive)
ROOT
ATOM      1  C   UNL d   1      -0.297   1.084   2.803  0.00  0.00     0.020 A 
ATOM      2  C1  UNL d   1      -1.513   1.744   2.627  0.00  0.00     0.020 A 
ATOM      3  C2  UNL d   1      -2.685   1.010   2.438  0.00  0.00     0.034 A 
ATOM      4  C3  UNL d   1      -2.645  -0.389   2.424  0.00  0.00     0.017 A 
ATOM      5  C4  UNL d   1      -1.425  -1.051   2.600  0.00  0.00     0.017 A 
ATOM      6  C5  UNL d   1      -0.254  -0.311   2.789  0.00  0.00     0.034 A 
ATOM      7 Cl   UNL d   1      -1.296  -2.775   2.595  0.00  0.00    -0.070 Cl
ATOM      8 Cl1  UNL d   1      -4.134  -1.233   2.185  0.00  0.00    -0.070 Cl
ENDROOT
TORSDOF 0
ENDMDL
