MODEL 1
REMARK minimizedAffinity 8.15688324
REMARK minimizedRMSD -1
REMARK  0 active torsions:
REMARK  status: ('A' for Active; 'I' for Inactive)
ROOT
ATOM      1  C   UNL d   1      -3.525  -2.625  -4.828  0.00  0.00     0.020 A 
ATOM      2  C1  UNL d   1      -4.500  -3.566  -4.500  0.00  0.00     0.020 A 
ATOM      3  C2  UNL d   1      -4.201  -4.600  -3.610  0.00  0.00     0.034 A 
ATOM      4  C3  UNL d   1      -2.924  -4.696  -3.045  0.00  0.00     0.017 A 
ATOM      5  C4  UNL d   1      -1.946  -3.750  -3.375  0.00  0.00     0.017 A 
ATOM      6  C5  UNL d   1      -2.251  -2.717  -4.266  0.00  0.00     0.034 A 
ATOM      7 Cl   UNL d   1      -0.348  -3.802  -2.718  0.00  0.00    -0.070 Cl
ATOM      8 Cl1  UNL d   1      -2.624  -6.000  -1.953  0.00  0.00    -0.070 Cl
ENDROOT
TORSDOF 0
ENDMDL
