MODEL 1
REMARK minimizedAffinity 6.23555136
REMARK minimizedRMSD -1
REMARK  0 active torsions:
REMARK  status: ('A' for Active; 'I' for Inactive)
ROOT
ATOM      1  C   UNL d   1      -5.017  -3.772  -5.440  0.00  0.00     0.020 A 
ATOM      2  C1  UNL d   1      -4.022  -2.971  -6.000  0.00  0.00     0.020 A 
ATOM      3  C2  UNL d   1      -2.701  -3.091  -5.563  0.00  0.00     0.034 A 
ATOM      4  C3  UNL d   1      -2.371  -4.014  -4.564  0.00  0.00     0.017 A 
ATOM      5  C4  UNL d   1      -3.371  -4.817  -4.003  0.00  0.00     0.017 A 
ATOM      6  C5  UNL d   1      -4.692  -4.693  -4.444  0.00  0.00     0.034 A 
ATOM      7 Cl   UNL d   1      -3.041  -5.978  -2.766  0.00  0.00    -0.070 Cl
ATOM      8 Cl1  UNL d   1      -0.718  -4.109  -4.072  0.00  0.00    -0.070 Cl
ENDROOT
TORSDOF 0
ENDMDL
