MODEL 1
REMARK minimizedAffinity 4.97534752
REMARK minimizedRMSD -1
REMARK  0 active torsions:
REMARK  status: ('A' for Active; 'I' for Inactive)
ROOT
ATOM      1  C   UNL d   1      -3.216  -3.160  -5.633  0.00  0.00     0.020 A 
ATOM      2  C1  UNL d   1      -4.275  -3.779  -4.969  0.00  0.00     0.020 A 
ATOM      3  C2  UNL d   1      -4.029  -4.561  -3.839  0.00  0.00     0.034 A 
ATOM      4  C3  UNL d   1      -2.721  -4.728  -3.370  0.00  0.00     0.017 A 
ATOM      5  C4  UNL d   1      -1.659  -4.107  -4.037  0.00  0.00     0.017 A 
ATOM      6  C5  UNL d   1      -1.911  -3.324  -5.168  0.00  0.00     0.034 A 
ATOM      7 Cl   UNL d   1      -0.018  -4.266  -3.518  0.00  0.00    -0.070 Cl
ATOM      8 Cl1  UNL d   1      -2.489  -5.710  -1.966  0.00  0.00    -0.070 Cl
ENDROOT
TORSDOF 0
ENDMDL
