MODEL 1
REMARK minimizedAffinity 19.8716621
REMARK minimizedRMSD -1
REMARK  0 active torsions:
REMARK  status: ('A' for Active; 'I' for Inactive)
ROOT
ATOM      1  C   UNL d   1      -3.020   0.757   1.503  0.00  0.00     0.020 A 
ATOM      2  C1  UNL d   1      -2.359   0.890   2.724  0.00  0.00     0.020 A 
ATOM      3  C2  UNL d   1      -2.748   0.112   3.816  0.00  0.00     0.034 A 
ATOM      4  C3  UNL d   1      -3.801  -0.802   3.691  0.00  0.00     0.017 A 
ATOM      5  C4  UNL d   1      -4.464  -0.934   2.465  0.00  0.00     0.017 A 
ATOM      6  C5  UNL d   1      -4.070  -0.153   1.374  0.00  0.00     0.034 A 
ATOM      7 Cl   UNL d   1      -5.771  -2.040   2.234  0.00  0.00    -0.070 Cl
ATOM      8 Cl1  UNL d   1      -4.228  -1.731   5.083  0.00  0.00    -0.070 Cl
ENDROOT
TORSDOF 0
ENDMDL
