MODEL 1
REMARK minimizedAffinity 2.40466809
REMARK minimizedRMSD -1
REMARK  0 active torsions:
REMARK  status: ('A' for Active; 'I' for Inactive)
ROOT
ATOM      1  C   UNL d   1      -3.105  -3.564  -6.000  0.00  0.00     0.020 A 
ATOM      2  C1  UNL d   1      -4.272  -3.949  -5.341  0.00  0.00     0.020 A 
ATOM      3  C2  UNL d   1      -4.200  -4.523  -4.071  0.00  0.00     0.034 A 
ATOM      4  C3  UNL d   1      -2.958  -4.716  -3.455  0.00  0.00     0.017 A 
ATOM      5  C4  UNL d   1      -1.787  -4.329  -4.116  0.00  0.00     0.017 A 
ATOM      6  C5  UNL d   1      -1.865  -3.754  -5.388  0.00  0.00     0.034 A 
ATOM      7 Cl   UNL d   1      -0.218  -4.535  -3.420  0.00  0.00    -0.070 Cl
ATOM      8 Cl1  UNL d   1      -2.944  -5.432  -1.882  0.00  0.00    -0.070 Cl
ENDROOT
TORSDOF 0
ENDMDL
