MODEL 1
REMARK minimizedAffinity 11.6831436
REMARK minimizedRMSD -1
REMARK  0 active torsions:
REMARK  status: ('A' for Active; 'I' for Inactive)
ROOT
ATOM      1  C   UNL d   1       0.060   1.331   2.538  0.00  0.00     0.020 A 
ATOM      2  C1  UNL d   1       0.321   0.000   2.864  0.00  0.00     0.020 A 
ATOM      3  C2  UNL d   1      -0.719  -0.834   3.279  0.00  0.00     0.034 A 
ATOM      4  C3  UNL d   1      -2.025  -0.340   3.369  0.00  0.00     0.017 A 
ATOM      5  C4  UNL d   1      -2.286   0.996   3.043  0.00  0.00     0.017 A 
ATOM      6  C5  UNL d   1      -1.242   1.827   2.627  0.00  0.00     0.034 A 
ATOM      7 Cl   UNL d   1      -3.872   1.678   3.130  0.00  0.00    -0.070 Cl
ATOM      8 Cl1  UNL d   1      -3.262  -1.428   3.890  0.00  0.00    -0.070 Cl
ENDROOT
TORSDOF 0
ENDMDL
