MODEL 1
REMARK minimizedAffinity 5.65316534
REMARK minimizedRMSD -1
REMARK  0 active torsions:
REMARK  status: ('A' for Active; 'I' for Inactive)
ROOT
ATOM      1  C   UNL d   1      -0.025   0.407   1.834  0.00  0.00     0.020 A 
ATOM      2  C1  UNL d   1       0.110   1.344   2.857  0.00  0.00     0.020 A 
ATOM      3  C2  UNL d   1      -1.021   1.810   3.532  0.00  0.00     0.034 A 
ATOM      4  C3  UNL d   1      -2.292   1.339   3.183  0.00  0.00     0.017 A 
ATOM      5  C4  UNL d   1      -2.427   0.398   2.156  0.00  0.00     0.017 A 
ATOM      6  C5  UNL d   1      -1.291  -0.065   1.484  0.00  0.00     0.034 A 
ATOM      7 Cl   UNL d   1      -3.962  -0.230   1.670  0.00  0.00    -0.070 Cl
ATOM      8 Cl1  UNL d   1      -3.646   1.958   4.060  0.00  0.00    -0.070 Cl
ENDROOT
TORSDOF 0
ENDMDL
