MODEL 1
REMARK minimizedAffinity 10.9125547
REMARK minimizedRMSD -1
REMARK  0 active torsions:
REMARK  status: ('A' for Active; 'I' for Inactive)
ROOT
ATOM      1  C   UNL d   1      -1.351   4.011  -6.000  0.00  0.00     0.020 A 
ATOM      2  C1  UNL d   1      -2.613   3.515  -5.674  0.00  0.00     0.020 A 
ATOM      3  C2  UNL d   1      -2.730   2.386  -4.861  0.00  0.00     0.034 A 
ATOM      4  C3  UNL d   1      -1.584   1.749  -4.371  0.00  0.00     0.017 A 
ATOM      5  C4  UNL d   1      -0.318   2.247  -4.699  0.00  0.00     0.017 A 
ATOM      6  C5  UNL d   1      -0.207   3.379  -5.514  0.00  0.00     0.034 A 
ATOM      7 Cl   UNL d   1       1.141   1.515  -4.133  0.00  0.00    -0.070 Cl
ATOM      8 Cl1  UNL d   1      -1.804   0.357  -3.371  0.00  0.00    -0.070 Cl
ENDROOT
TORSDOF 0
ENDMDL
