MODEL 1
REMARK minimizedAffinity -0.0104461946
REMARK minimizedRMSD -1
REMARK  0 active torsions:
REMARK  status: ('A' for Active; 'I' for Inactive)
ROOT
ATOM      1  C   UNL d   1      -3.192  -3.768  -5.794  0.00  0.00     0.020 A 
ATOM      2  C1  UNL d   1      -4.283  -4.282  -5.094  0.00  0.00     0.020 A 
ATOM      3  C2  UNL d   1      -4.090  -4.902  -3.857  0.00  0.00     0.034 A 
ATOM      4  C3  UNL d   1      -2.803  -5.010  -3.317  0.00  0.00     0.017 A 
ATOM      5  C4  UNL d   1      -1.709  -4.493  -4.021  0.00  0.00     0.017 A 
ATOM      6  C5  UNL d   1      -1.908  -3.873  -5.258  0.00  0.00     0.034 A 
ATOM      7 Cl   UNL d   1      -0.091  -4.588  -3.419  0.00  0.00    -0.070 Cl
ATOM      8 Cl1  UNL d   1      -2.637  -5.789  -1.784  0.00  0.00    -0.070 Cl
ENDROOT
TORSDOF 0
ENDMDL
