MODEL 1
REMARK minimizedAffinity 12.9723558
REMARK minimizedRMSD -1
REMARK  0 active torsions:
REMARK  status: ('A' for Active; 'I' for Inactive)
ROOT
ATOM      1  C   UNL d   1       0.448   0.497   5.929  0.00  0.00     0.020 A 
ATOM      2  C1  UNL d   1       0.266   1.878   6.000  0.00  0.00     0.020 A 
ATOM      3  C2  UNL d   1       0.136   2.626   4.827  0.00  0.00     0.034 A 
ATOM      4  C3  UNL d   1       0.186   1.993   3.580  0.00  0.00     0.017 A 
ATOM      5  C4  UNL d   1       0.369   0.607   3.510  0.00  0.00     0.017 A 
ATOM      6  C5  UNL d   1       0.499  -0.136   4.687  0.00  0.00     0.034 A 
ATOM      7 Cl   UNL d   1       0.441  -0.244   2.007  0.00  0.00    -0.070 Cl
ATOM      8 Cl1  UNL d   1       0.017   2.980   2.171  0.00  0.00    -0.070 Cl
ENDROOT
TORSDOF 0
ENDMDL
