MODEL 1
REMARK minimizedAffinity 0.91664356
REMARK minimizedRMSD -1
REMARK  0 active torsions:
REMARK  status: ('A' for Active; 'I' for Inactive)
ROOT
ATOM      1  C   UNL d   1       0.993  -4.611  -2.981  0.00  0.00     0.020 A 
ATOM      2  C1  UNL d   1       2.113  -5.432  -2.870  0.00  0.00     0.020 A 
ATOM      3  C2  UNL d   1       3.189  -5.041  -2.070  0.00  0.00     0.034 A 
ATOM      4  C3  UNL d   1       3.146  -3.826  -1.377  0.00  0.00     0.017 A 
ATOM      5  C4  UNL d   1       2.020  -3.002  -1.490  0.00  0.00     0.017 A 
ATOM      6  C5  UNL d   1       0.946  -3.398  -2.292  0.00  0.00     0.034 A 
ATOM      7 Cl   UNL d   1       1.894  -1.487  -0.666  0.00  0.00    -0.070 Cl
ATOM      8 Cl1  UNL d   1       4.512  -3.406  -0.406  0.00  0.00    -0.070 Cl
ENDROOT
TORSDOF 0
ENDMDL
