MODEL 1
REMARK minimizedAffinity 11.7095823
REMARK minimizedRMSD -1
REMARK  1 active torsions:
REMARK  status: ('A' for Active; 'I' for Inactive)
REMARK    1  A    between atoms: N_2  and  C1_3 
ROOT
ATOM      1  C1  UNL d   1      -4.536   1.032  -2.720  0.00  0.00     0.143 A 
ATOM      2  C2  UNL d   1      -4.343   0.430  -3.968  0.00  0.00    -0.057 A 
ATOM      3  C3  UNL d   1      -3.833   1.154  -5.052  0.00  0.00     0.033 A 
ATOM      4  C4  UNL d   1      -3.533   2.506  -4.914  0.00  0.00    -0.042 A 
ATOM      5  C5  UNL d   1      -3.741   3.131  -3.689  0.00  0.00     0.033 A 
ATOM      6  C6  UNL d   1      -4.244   2.400  -2.609  0.00  0.00    -0.057 A 
ENDROOT
BRANCH   1   7
ATOM      7  N   UNL d   1      -5.132   0.390  -1.631  0.00  0.00    -0.732 N 
ATOM      8  C   UNL d   1      -4.370   0.110  -0.433  0.00  0.00     0.284 C 
ATOM      9  H3  UNL d   1      -6.077   0.723  -1.454  0.00  0.00     0.395 HD
ENDBRANCH   1   7
TORSDOF 1
ENDMDL
