MODEL 1
REMARK minimizedAffinity 7.80337572
REMARK minimizedRMSD -1
REMARK  1 active torsions:
REMARK  status: ('A' for Active; 'I' for Inactive)
REMARK    1  A    between atoms: N_2  and  C1_3 
ROOT
ATOM      1  C1  UNL d   1       4.331  -4.012  -0.571  0.00  0.00     0.143 A 
ATOM      2  C2  UNL d   1       3.935  -2.682  -0.392  0.00  0.00    -0.057 A 
ATOM      3  C3  UNL d   1       2.617  -2.278  -0.634  0.00  0.00     0.033 A 
ATOM      4  C4  UNL d   1       1.675  -3.195  -1.090  0.00  0.00    -0.042 A 
ATOM      5  C5  UNL d   1       2.052  -4.516  -1.300  0.00  0.00     0.033 A 
ATOM      6  C6  UNL d   1       3.369  -4.915  -1.049  0.00  0.00    -0.057 A 
ENDROOT
BRANCH   1   7
ATOM      7  N   UNL d   1       5.650  -4.455  -0.442  0.00  0.00    -0.732 N 
ATOM      8  C   UNL d   1       5.951  -5.669   0.285  0.00  0.00     0.284 C 
ATOM      9  H3  UNL d   1       6.184  -4.340  -1.300  0.00  0.00     0.395 HD
ENDBRANCH   1   7
TORSDOF 1
ENDMDL
