MODEL 1
REMARK minimizedAffinity 4.77046061
REMARK minimizedRMSD -1
REMARK  1 active torsions:
REMARK  status: ('A' for Active; 'I' for Inactive)
REMARK    1  A    between atoms: N_2  and  C1_3 
ROOT
ATOM      1  C1  UNL d   1       0.529   2.860  -0.126  0.00  0.00     0.143 A 
ATOM      2  C2  UNL d   1       1.192   1.935   0.688  0.00  0.00    -0.057 A 
ATOM      3  C3  UNL d   1       0.635   1.503   1.898  0.00  0.00     0.033 A 
ATOM      4  C4  UNL d   1      -0.586   2.011   2.330  0.00  0.00    -0.042 A 
ATOM      5  C5  UNL d   1      -1.250   2.950   1.549  0.00  0.00     0.033 A 
ATOM      6  C6  UNL d   1      -0.692   3.373   0.338  0.00  0.00    -0.057 A 
ENDROOT
BRANCH   1   7
ATOM      7  N   UNL d   1       1.076   3.403  -1.291  0.00  0.00    -0.732 N 
ATOM      8  C   UNL d   1       2.003   4.512  -1.223  0.00  0.00     0.284 C 
ATOM      9  H3  UNL d   1       1.331   2.689  -1.970  0.00  0.00     0.395 HD
ENDBRANCH   1   7
TORSDOF 1
ENDMDL
