MODEL 1
REMARK minimizedAffinity 10.6189041
REMARK minimizedRMSD -1
REMARK  1 active torsions:
REMARK  status: ('A' for Active; 'I' for Inactive)
REMARK    1  A    between atoms: N_2  and  C1_3 
ROOT
ATOM      1  C1  UNL d   1      -2.309  -4.845  -5.517  0.00  0.00     0.143 A 
ATOM      2  C2  UNL d   1      -2.935  -3.610  -5.716  0.00  0.00    -0.057 A 
ATOM      3  C3  UNL d   1      -4.314  -3.523  -5.941  0.00  0.00     0.033 A 
ATOM      4  C4  UNL d   1      -5.090  -4.676  -6.000  0.00  0.00    -0.042 A 
ATOM      5  C5  UNL d   1      -4.485  -5.916  -5.829  0.00  0.00     0.033 A 
ATOM      6  C6  UNL d   1      -3.109  -5.996  -5.598  0.00  0.00    -0.057 A 
ENDROOT
BRANCH   1   7
ATOM      7  N   UNL d   1      -0.927  -5.005  -5.387  0.00  0.00    -0.732 N 
ATOM      8  C   UNL d   1      -0.019  -3.982  -5.859  0.00  0.00     0.284 C 
ATOM      9  H3  UNL d   1      -0.666  -5.413  -4.493  0.00  0.00     0.395 HD
ENDBRANCH   1   7
TORSDOF 1
ENDMDL
