MODEL 1
REMARK minimizedAffinity 14.4365435
REMARK minimizedRMSD -1
REMARK  1 active torsions:
REMARK  status: ('A' for Active; 'I' for Inactive)
REMARK    1  A    between atoms: N_2  and  C1_3 
ROOT
ATOM      1  C1  UNL d   1       1.483  -4.657  -1.705  0.00  0.00     0.143 A 
ATOM      2  C2  UNL d   1       0.868  -4.361  -2.925  0.00  0.00    -0.057 A 
ATOM      3  C3  UNL d   1       1.594  -4.355  -4.122  0.00  0.00     0.033 A 
ATOM      4  C4  UNL d   1       2.960  -4.617  -4.115  0.00  0.00    -0.042 A 
ATOM      5  C5  UNL d   1       3.598  -4.889  -2.910  0.00  0.00     0.033 A 
ATOM      6  C6  UNL d   1       2.866  -4.900  -1.719  0.00  0.00    -0.057 A 
ENDROOT
BRANCH   1   7
ATOM      7  N   UNL d   1       0.836  -4.583  -0.469  0.00  0.00    -0.732 N 
ATOM      8  C   UNL d   1       1.283  -3.649   0.542  0.00  0.00     0.284 C 
ATOM      9  H3  UNL d   1      -0.176  -4.648  -0.556  0.00  0.00     0.395 HD
ENDBRANCH   1   7
TORSDOF 1
ENDMDL
