MODEL 1
REMARK minimizedAffinity 6.62448645
REMARK minimizedRMSD -1
REMARK  1 active torsions:
REMARK  status: ('A' for Active; 'I' for Inactive)
REMARK    1  A    between atoms: N_2  and  C1_3 
ROOT
ATOM      1  C1  UNL d   1       1.214   3.755  -1.005  0.00  0.00     0.143 A 
ATOM      2  C2  UNL d   1       1.372   2.490  -0.428  0.00  0.00    -0.057 A 
ATOM      3  C3  UNL d   1       0.297   1.830   0.180  0.00  0.00     0.033 A 
ATOM      4  C4  UNL d   1      -0.952   2.439   0.248  0.00  0.00    -0.042 A 
ATOM      5  C5  UNL d   1      -1.126   3.706  -0.297  0.00  0.00     0.033 A 
ATOM      6  C6  UNL d   1      -0.050   4.357  -0.909  0.00  0.00    -0.057 A 
ENDROOT
BRANCH   1   7
ATOM      7  N   UNL d   1       2.267   4.504  -1.537  0.00  0.00    -0.732 N 
ATOM      8  C   UNL d   1       2.187   5.947  -1.597  0.00  0.00     0.284 C 
ATOM      9  H3  UNL d   1       3.177   4.149  -1.255  0.00  0.00     0.395 HD
ENDBRANCH   1   7
TORSDOF 1
ENDMDL
