MODEL 1
REMARK minimizedAffinity 2.88390684
REMARK minimizedRMSD -1
REMARK  2 active torsions:
REMARK  status: ('A' for Active; 'I' for Inactive)
REMARK    1  A    between atoms: C1_2  and  C2_3 
REMARK    2  A    between atoms: C2_3  and  C3_4 
ROOT
ATOM      1  C3  UNL d   1      -0.433  -1.101  -3.517  0.00  0.00    -0.075 A 
ATOM      2  C4  UNL d   1      -0.090   0.257  -3.590  0.00  0.00     0.002 A 
ATOM      3  C5  UNL d   1       0.138   0.865  -4.825  0.00  0.00     0.002 A 
ATOM      4  C6  UNL d   1       0.037   0.122  -5.999  0.00  0.00    -0.004 A 
ATOM      5  C7  UNL d   1      -0.288  -1.231  -5.938  0.00  0.00     0.002 A 
ATOM      6  C8  UNL d   1      -0.521  -1.841  -4.704  0.00  0.00     0.002 A 
ENDROOT
BRANCH   1   7
ATOM      7  C2  UNL d   1      -0.710  -1.757  -2.185  0.00  0.00     0.056 C 
BRANCH   7   8
ATOM      8  C1  UNL d   1      -1.790  -1.055  -1.356  0.00  0.00     0.007 C 
ATOM      9  C   UNL d   1      -1.719  -1.389   0.128  0.00  0.00     0.009 C 
ENDBRANCH   7   8
ENDBRANCH   1   7
TORSDOF 2
ENDMDL
