MODEL 1
REMARK minimizedAffinity 5.39020348
REMARK minimizedRMSD -1
REMARK  2 active torsions:
REMARK  status: ('A' for Active; 'I' for Inactive)
REMARK    1  A    between atoms: C1_2  and  C2_3 
REMARK    2  A    between atoms: C2_3  and  C3_4 
ROOT
ATOM      1  C3  UNL d   1      -1.779  -1.233   1.155  0.00  0.00    -0.075 A 
ATOM      2  C4  UNL d   1      -0.464  -1.534   1.541  0.00  0.00     0.002 A 
ATOM      3  C5  UNL d   1       0.131  -0.865   2.611  0.00  0.00     0.002 A 
ATOM      4  C6  UNL d   1      -0.575   0.118   3.301  0.00  0.00    -0.004 A 
ATOM      5  C7  UNL d   1      -1.875   0.436   2.916  0.00  0.00     0.002 A 
ATOM      6  C8  UNL d   1      -2.475  -0.234   1.849  0.00  0.00     0.002 A 
ENDROOT
BRANCH   1   7
ATOM      7  C2  UNL d   1      -2.439  -1.974   0.017  0.00  0.00     0.056 C 
BRANCH   7   8
ATOM      8  C1  UNL d   1      -3.480  -3.005   0.465  0.00  0.00     0.007 C 
ATOM      9  C   UNL d   1      -4.530  -3.299  -0.598  0.00  0.00     0.009 C 
ENDBRANCH   7   8
ENDBRANCH   1   7
TORSDOF 2
ENDMDL
