MODEL 1
REMARK minimizedAffinity 2.95437312
REMARK minimizedRMSD -1
REMARK  2 active torsions:
REMARK  status: ('A' for Active; 'I' for Inactive)
REMARK    1  A    between atoms: C1_2  and  C2_3 
REMARK    2  A    between atoms: C2_3  and  C3_4 
ROOT
ATOM      1  C3  UNL d   1      -1.426  -0.519  -4.734  0.00  0.00    -0.075 A 
ATOM      2  C4  UNL d   1      -1.078  -0.485  -3.376  0.00  0.00     0.002 A 
ATOM      3  C5  UNL d   1      -0.124  -1.367  -2.867  0.00  0.00     0.002 A 
ATOM      4  C6  UNL d   1       0.484  -2.299  -3.705  0.00  0.00    -0.004 A 
ATOM      5  C7  UNL d   1       0.134  -2.352  -5.053  0.00  0.00     0.002 A 
ATOM      6  C8  UNL d   1      -0.817  -1.468  -5.565  0.00  0.00     0.002 A 
ENDROOT
BRANCH   1   7
ATOM      7  C2  UNL d   1      -2.436   0.453  -5.297  0.00  0.00     0.056 C 
BRANCH   7   8
ATOM      8  C1  UNL d   1      -3.728  -0.206  -5.791  0.00  0.00     0.007 C 
ATOM      9  C   UNL d   1      -4.527  -0.870  -4.678  0.00  0.00     0.009 C 
ENDBRANCH   7   8
ENDBRANCH   1   7
TORSDOF 2
ENDMDL
