MODEL 1
REMARK minimizedAffinity 3.99075937
REMARK minimizedRMSD -1
REMARK  2 active torsions:
REMARK  status: ('A' for Active; 'I' for Inactive)
REMARK    1  A    between atoms: C1_2  and  C2_3 
REMARK    2  A    between atoms: C2_3  and  C3_4 
ROOT
ATOM      1  C3  UNL d   1      -1.562   0.361  -5.287  0.00  0.00    -0.075 A 
ATOM      2  C4  UNL d   1      -1.184  -0.990  -5.305  0.00  0.00     0.002 A 
ATOM      3  C5  UNL d   1       0.117  -1.357  -5.652  0.00  0.00     0.002 A 
ATOM      4  C6  UNL d   1       1.051  -0.382  -5.996  0.00  0.00    -0.004 A 
ATOM      5  C7  UNL d   1       0.682   0.961  -5.997  0.00  0.00     0.002 A 
ATOM      6  C8  UNL d   1      -0.617   1.332  -5.646  0.00  0.00     0.002 A 
ENDROOT
BRANCH   1   7
ATOM      7  C2  UNL d   1      -2.959   0.767  -4.883  0.00  0.00     0.056 C 
BRANCH   7   8
ATOM      8  C1  UNL d   1      -4.064  -0.077  -5.528  0.00  0.00     0.007 C 
ATOM      9  C   UNL d   1      -5.466   0.368  -5.133  0.00  0.00     0.009 C 
ENDBRANCH   7   8
ENDBRANCH   1   7
TORSDOF 2
ENDMDL
