MODEL 1
REMARK minimizedAffinity 0.285915822
REMARK minimizedRMSD -1
REMARK  2 active torsions:
REMARK  status: ('A' for Active; 'I' for Inactive)
REMARK    1  A    between atoms: C1_2  and  C2_3 
REMARK    2  A    between atoms: C2_3  and  C3_4 
ROOT
ATOM      1  C3  UNL d   1      -1.830  -1.285   0.003  0.00  0.00    -0.075 A 
ATOM      2  C4  UNL d   1      -3.040  -0.576  -0.009  0.00  0.00     0.002 A 
ATOM      3  C5  UNL d   1      -3.321   0.361   0.987  0.00  0.00     0.002 A 
ATOM      4  C6  UNL d   1      -2.403   0.592   2.009  0.00  0.00    -0.004 A 
ATOM      5  C7  UNL d   1      -1.205  -0.120   2.039  0.00  0.00     0.002 A 
ATOM      6  C8  UNL d   1      -0.920  -1.054   1.042  0.00  0.00     0.002 A 
ENDROOT
BRANCH   1   7
ATOM      7  C2  UNL d   1      -1.507  -2.279  -1.088  0.00  0.00     0.056 C 
BRANCH   7   8
ATOM      8  C1  UNL d   1      -0.570  -1.734  -2.171  0.00  0.00     0.007 C 
ATOM      9  C   UNL d   1      -0.810  -2.354  -3.540  0.00  0.00     0.009 C 
ENDBRANCH   7   8
ENDBRANCH   1   7
TORSDOF 2
ENDMDL
