MODEL 1
REMARK minimizedAffinity 1.64608431
REMARK minimizedRMSD -1
REMARK  1 active torsions:
REMARK  status: ('A' for Active; 'I' for Inactive)
REMARK    1  A    between atoms: C1_2  and  C2_3 
ROOT
ATOM      1  C2  UNL d   1       2.455   4.216  -3.788  0.00  0.00    -0.081 A 
ATOM      2  C3  UNL d   1       2.505   5.425  -4.493  0.00  0.00     0.006 A 
ATOM      3  C4  UNL d   1       3.655   5.786  -5.199  0.00  0.00     0.002 A 
ATOM      4  C5  UNL d   1       4.770   4.941  -5.219  0.00  0.00    -0.080 A 
ATOM      5  C6  UNL d   1       6.000   5.303  -5.998  0.00  0.00     0.076 C 
ATOM      6  C7  UNL d   1       4.726   3.741  -4.501  0.00  0.00     0.002 A 
ATOM      7  C8  UNL d   1       3.577   3.380  -3.794  0.00  0.00     0.006 A 
ENDROOT
BRANCH   1   8
ATOM      8  C1  UNL d   1       1.193   3.794  -3.079  0.00  0.00     0.054 C 
ATOM      9  C   UNL d   1       1.422   2.548  -2.237  0.00  0.00     0.018 C 
ENDBRANCH   1   8
TORSDOF 1
ENDMDL
