MODEL 1
REMARK minimizedAffinity 7.51534653
REMARK minimizedRMSD -1
REMARK  1 active torsions:
REMARK  status: ('A' for Active; 'I' for Inactive)
REMARK    1  A    between atoms: C1_2  and  C2_3 
ROOT
ATOM      1  C2  UNL d   1       0.536   1.730  -1.961  0.00  0.00    -0.081 A 
ATOM      2  C3  UNL d   1      -0.196   0.621  -2.405  0.00  0.00     0.006 A 
ATOM      3  C4  UNL d   1      -0.076  -0.611  -1.758  0.00  0.00     0.002 A 
ATOM      4  C5  UNL d   1       0.770  -0.754  -0.653  0.00  0.00    -0.080 A 
ATOM      5  C6  UNL d   1       0.884  -2.064   0.069  0.00  0.00     0.076 C 
ATOM      6  C7  UNL d   1       1.513   0.349  -0.220  0.00  0.00     0.002 A 
ATOM      7  C8  UNL d   1       1.395   1.581  -0.866  0.00  0.00     0.006 A 
ENDROOT
BRANCH   1   8
ATOM      8  C1  UNL d   1       0.360   3.076  -2.615  0.00  0.00     0.054 C 
ATOM      9  C   UNL d   1      -0.599   3.955  -1.825  0.00  0.00     0.018 C 
ENDBRANCH   1   8
TORSDOF 1
ENDMDL
