MODEL 1
REMARK minimizedAffinity 10.8571453
REMARK minimizedRMSD -1
REMARK  1 active torsions:
REMARK  status: ('A' for Active; 'I' for Inactive)
REMARK    1  A    between atoms: C1_2  and  C2_3 
ROOT
ATOM      1  C2  UNL d   1      -1.280   2.133   2.691  0.00  0.00    -0.081 A 
ATOM      2  C3  UNL d   1      -0.145   1.325   2.833  0.00  0.00     0.006 A 
ATOM      3  C4  UNL d   1       1.014   1.598   2.103  0.00  0.00     0.002 A 
ATOM      4  C5  UNL d   1       1.060   2.686   1.225  0.00  0.00    -0.080 A 
ATOM      5  C6  UNL d   1       2.307   3.008   0.457  0.00  0.00     0.076 C 
ATOM      6  C7  UNL d   1      -0.080   3.483   1.069  0.00  0.00     0.002 A 
ATOM      7  C8  UNL d   1      -1.239   3.210   1.799  0.00  0.00     0.006 A 
ENDROOT
BRANCH   1   8
ATOM      8  C1  UNL d   1      -2.510   1.880   3.526  0.00  0.00     0.054 C 
ATOM      9  C   UNL d   1      -3.608   1.217   2.707  0.00  0.00     0.018 C 
ENDBRANCH   1   8
TORSDOF 1
ENDMDL
