MODEL 1
REMARK minimizedAffinity 10.3559675
REMARK minimizedRMSD -1
REMARK  1 active torsions:
REMARK  status: ('A' for Active; 'I' for Inactive)
REMARK    1  A    between atoms: C1_2  and  C2_3 
ROOT
ATOM      1  C2  UNL d   1       2.934   1.361  -1.971  0.00  0.00    -0.081 A 
ATOM      2  C3  UNL d   1       2.470   0.132  -1.486  0.00  0.00     0.006 A 
ATOM      3  C4  UNL d   1       1.235  -0.372  -1.900  0.00  0.00     0.002 A 
ATOM      4  C5  UNL d   1       0.446   0.341  -2.810  0.00  0.00    -0.080 A 
ATOM      5  C6  UNL d   1      -0.868  -0.203  -3.285  0.00  0.00     0.076 C 
ATOM      6  C7  UNL d   1       0.901   1.577  -3.280  0.00  0.00     0.002 A 
ATOM      7  C8  UNL d   1       2.136   2.081  -2.867  0.00  0.00     0.006 A 
ENDROOT
BRANCH   1   8
ATOM      8  C1  UNL d   1       4.295   1.876  -1.577  0.00  0.00     0.054 C 
ATOM      9  C   UNL d   1       5.049   2.423  -2.780  0.00  0.00     0.018 C 
ENDBRANCH   1   8
TORSDOF 1
ENDMDL
