MODEL 1
REMARK minimizedAffinity 7.25153828
REMARK minimizedRMSD -1
REMARK  1 active torsions:
REMARK  status: ('A' for Active; 'I' for Inactive)
REMARK    1  A    between atoms: C1_2  and  C2_3 
ROOT
ATOM      1  C2  UNL d   1       2.197   0.220  -0.450  0.00  0.00    -0.081 A 
ATOM      2  C3  UNL d   1       1.619   0.471   0.800  0.00  0.00     0.006 A 
ATOM      3  C4  UNL d   1       1.722   1.733   1.389  0.00  0.00     0.002 A 
ATOM      4  C5  UNL d   1       2.398   2.768   0.733  0.00  0.00    -0.080 A 
ATOM      5  C6  UNL d   1       2.490   4.137   1.340  0.00  0.00     0.076 C 
ATOM      6  C7  UNL d   1       2.991   2.514  -0.508  0.00  0.00     0.002 A 
ATOM      7  C8  UNL d   1       2.889   1.251  -1.096  0.00  0.00     0.006 A 
ENDROOT
BRANCH   1   8
ATOM      8  C1  UNL d   1       2.032  -1.122  -1.116  0.00  0.00     0.054 C 
ATOM      9  C   UNL d   1       1.062  -1.043  -2.287  0.00  0.00     0.018 C 
ENDBRANCH   1   8
TORSDOF 1
ENDMDL
