MODEL 1
REMARK minimizedAffinity -0.0117690321
REMARK minimizedRMSD -1
REMARK  1 active torsions:
REMARK  status: ('A' for Active; 'I' for Inactive)
REMARK    1  A    between atoms: C1_2  and  C2_3 
ROOT
ATOM      1  C2  UNL d   1       1.152   0.650   1.300  0.00  0.00    -0.081 A 
ATOM      2  C3  UNL d   1       0.285   0.125   2.265  0.00  0.00     0.006 A 
ATOM      3  C4  UNL d   1      -0.102  -1.217   2.216  0.00  0.00     0.002 A 
ATOM      4  C5  UNL d   1       0.378  -2.057   1.205  0.00  0.00    -0.080 A 
ATOM      5  C6  UNL d   1      -0.005  -3.506   1.158  0.00  0.00     0.076 C 
ATOM      6  C7  UNL d   1       1.231  -1.528   0.231  0.00  0.00     0.002 A 
ATOM      7  C8  UNL d   1       1.618  -0.187   0.279  0.00  0.00     0.006 A 
ENDROOT
BRANCH   1   8
ATOM      8  C1  UNL d   1       1.622   2.079   1.388  0.00  0.00     0.054 C 
ATOM      9  C   UNL d   1       0.485   3.012   1.778  0.00  0.00     0.018 C 
ENDBRANCH   1   8
TORSDOF 1
ENDMDL
