MODEL 1
REMARK minimizedAffinity 9.86328888
REMARK minimizedRMSD -1
REMARK  1 active torsions:
REMARK  status: ('A' for Active; 'I' for Inactive)
REMARK    1  A    between atoms: C1_2  and  C2_3 
ROOT
ATOM      1  C2  UNL d   1       1.699   1.602  -0.102  0.00  0.00    -0.081 A 
ATOM      2  C3  UNL d   1       2.051   0.276   0.177  0.00  0.00     0.006 A 
ATOM      3  C4  UNL d   1       1.736  -0.745  -0.723  0.00  0.00     0.002 A 
ATOM      4  C5  UNL d   1       1.070  -0.456  -1.919  0.00  0.00    -0.080 A 
ATOM      5  C6  UNL d   1       0.753  -1.538  -2.908  0.00  0.00     0.076 C 
ATOM      6  C7  UNL d   1       0.703   0.867  -2.190  0.00  0.00     0.002 A 
ATOM      7  C8  UNL d   1       1.017   1.888  -1.290  0.00  0.00     0.006 A 
ENDROOT
BRANCH   1   8
ATOM      8  C1  UNL d   1       2.095   2.714   0.836  0.00  0.00     0.054 C 
ATOM      9  C   UNL d   1       0.899   3.581   1.202  0.00  0.00     0.018 C 
ENDBRANCH   1   8
TORSDOF 1
ENDMDL
