MODEL 1
REMARK minimizedAffinity 6.73897171
REMARK minimizedRMSD -1
REMARK  1 active torsions:
REMARK  status: ('A' for Active; 'I' for Inactive)
REMARK    1  A    between atoms: C1_2  and  C2_3 
ROOT
ATOM      1  C2  UNL d   1       1.164   2.022   1.777  0.00  0.00    -0.081 A 
ATOM      2  C3  UNL d   1       1.162   3.244   1.093  0.00  0.00     0.006 A 
ATOM      3  C4  UNL d   1       1.681   3.331  -0.201  0.00  0.00     0.002 A 
ATOM      4  C5  UNL d   1       2.204   2.198  -0.834  0.00  0.00    -0.080 A 
ATOM      5  C6  UNL d   1       2.737   2.272  -2.234  0.00  0.00     0.076 C 
ATOM      6  C7  UNL d   1       2.222   0.982  -0.144  0.00  0.00     0.002 A 
ATOM      7  C8  UNL d   1       1.703   0.894   1.150  0.00  0.00     0.006 A 
ENDROOT
BRANCH   1   8
ATOM      8  C1  UNL d   1       0.545   1.911   3.147  0.00  0.00     0.054 C 
ATOM      9  C   UNL d   1       1.362   0.998   4.051  0.00  0.00     0.018 C 
ENDBRANCH   1   8
TORSDOF 1
ENDMDL
