MODEL 1
REMARK minimizedAffinity 5.64887857
REMARK minimizedRMSD -1
REMARK  1 active torsions:
REMARK  status: ('A' for Active; 'I' for Inactive)
REMARK    1  A    between atoms: C1_2  and  C2_3 
ROOT
ATOM      1  C2  UNL d   1       1.696   0.100   0.429  0.00  0.00    -0.081 A 
ATOM      2  C3  UNL d   1       0.369  -0.179   0.775  0.00  0.00     0.006 A 
ATOM      3  C4  UNL d   1      -0.321   0.650   1.663  0.00  0.00     0.002 A 
ATOM      4  C5  UNL d   1       0.302   1.776   2.212  0.00  0.00    -0.080 A 
ATOM      5  C6  UNL d   1      -0.436   2.692   3.143  0.00  0.00     0.076 C 
ATOM      6  C7  UNL d   1       1.634   2.045   1.880  0.00  0.00     0.002 A 
ATOM      7  C8  UNL d   1       2.324   1.216   0.993  0.00  0.00     0.006 A 
ENDROOT
BRANCH   1   8
ATOM      8  C1  UNL d   1       2.422  -0.755  -0.578  0.00  0.00     0.054 C 
ATOM      9  C   UNL d   1       2.053  -0.367  -2.003  0.00  0.00     0.018 C 
ENDBRANCH   1   8
TORSDOF 1
ENDMDL
