MODEL 1
REMARK minimizedAffinity 0.643511832
REMARK minimizedRMSD -1
REMARK  1 active torsions:
REMARK  status: ('A' for Active; 'I' for Inactive)
REMARK    1  A    between atoms: C1_2  and  C2_3 
ROOT
ATOM      1  C2  UNL d   1      -3.172  -5.153  -2.167  0.00  0.00    -0.081 A 
ATOM      2  C3  UNL d   1      -1.833  -5.523  -2.342  0.00  0.00     0.006 A 
ATOM      3  C4  UNL d   1      -0.956  -5.543  -1.255  0.00  0.00     0.002 A 
ATOM      4  C5  UNL d   1      -1.405  -5.202   0.025  0.00  0.00    -0.080 A 
ATOM      5  C6  UNL d   1      -0.481  -5.248   1.206  0.00  0.00     0.076 C 
ATOM      6  C7  UNL d   1      -2.738  -4.815   0.197  0.00  0.00     0.002 A 
ATOM      7  C8  UNL d   1      -3.615  -4.794  -0.890  0.00  0.00     0.006 A 
ENDROOT
BRANCH   1   8
ATOM      8  C1  UNL d   1      -4.135  -5.193  -3.326  0.00  0.00     0.054 C 
ATOM      9  C   UNL d   1      -5.566  -5.395  -2.849  0.00  0.00     0.018 C 
ENDBRANCH   1   8
TORSDOF 1
ENDMDL
