MODEL 1
REMARK minimizedAffinity 3.51466274
REMARK minimizedRMSD -1
REMARK  1 active torsions:
REMARK  status: ('A' for Active; 'I' for Inactive)
REMARK    1  A    between atoms: C1_2  and  C2_3 
ROOT
ATOM      1  C2  UNL d   1       0.488   0.097  -1.151  0.00  0.00    -0.081 A 
ATOM      2  C3  UNL d   1      -0.213  -1.044  -0.742  0.00  0.00     0.006 A 
ATOM      3  C4  UNL d   1      -0.376  -1.326   0.617  0.00  0.00     0.002 A 
ATOM      4  C5  UNL d   1       0.152  -0.468   1.588  0.00  0.00    -0.080 A 
ATOM      5  C6  UNL d   1      -0.041  -0.743   3.049  0.00  0.00     0.076 C 
ATOM      6  C7  UNL d   1       0.868   0.662   1.179  0.00  0.00     0.002 A 
ATOM      7  C8  UNL d   1       1.032   0.944  -0.179  0.00  0.00     0.006 A 
ENDROOT
BRANCH   1   8
ATOM      8  C1  UNL d   1       0.610   0.438  -2.614  0.00  0.00     0.054 C 
ATOM      9  C   UNL d   1      -0.174   1.697  -2.956  0.00  0.00     0.018 C 
ENDBRANCH   1   8
TORSDOF 1
ENDMDL
