MODEL 1
REMARK minimizedAffinity 3.35633659
REMARK minimizedRMSD -1
REMARK  1 active torsions:
REMARK  status: ('A' for Active; 'I' for Inactive)
REMARK    1  A    between atoms: C1_2  and  C2_3 
ROOT
ATOM      1  C2  UNL d   1       1.792   0.764   0.234  0.00  0.00    -0.081 A 
ATOM      2  C3  UNL d   1       2.992   0.997   0.917  0.00  0.00     0.006 A 
ATOM      3  C4  UNL d   1       2.979   1.372   2.263  0.00  0.00     0.002 A 
ATOM      4  C5  UNL d   1       1.769   1.511   2.949  0.00  0.00    -0.080 A 
ATOM      5  C6  UNL d   1       1.742   1.883   4.402  0.00  0.00     0.076 C 
ATOM      6  C7  UNL d   1       0.569   1.294   2.262  0.00  0.00     0.002 A 
ATOM      7  C8  UNL d   1       0.581   0.921   0.917  0.00  0.00     0.006 A 
ENDROOT
BRANCH   1   8
ATOM      8  C1  UNL d   1       1.804   0.297  -1.200  0.00  0.00     0.054 C 
ATOM      9  C   UNL d   1       3.107  -0.412  -1.539  0.00  0.00     0.018 C 
ENDBRANCH   1   8
TORSDOF 1
ENDMDL
