MODEL 1
REMARK minimizedAffinity 12.9396982
REMARK minimizedRMSD -1
REMARK  1 active torsions:
REMARK  status: ('A' for Active; 'I' for Inactive)
REMARK    1  A    between atoms: C1_2  and  C2_3 
ROOT
ATOM      1  C2  UNL d   1      -2.929  -2.935  -4.273  0.00  0.00    -0.081 A 
ATOM      2  C3  UNL d   1      -2.291  -3.914  -3.502  0.00  0.00     0.006 A 
ATOM      3  C4  UNL d   1      -1.417  -3.549  -2.475  0.00  0.00     0.002 A 
ATOM      4  C5  UNL d   1      -1.174  -2.199  -2.196  0.00  0.00    -0.080 A 
ATOM      5  C6  UNL d   1      -0.263  -1.794  -1.077  0.00  0.00     0.076 C 
ATOM      6  C7  UNL d   1      -1.799  -1.221  -2.977  0.00  0.00     0.002 A 
ATOM      7  C8  UNL d   1      -2.672  -1.586  -4.005  0.00  0.00     0.006 A 
ENDROOT
BRANCH   1   8
ATOM      8  C1  UNL d   1      -3.922  -3.324  -5.339  0.00  0.00     0.054 C 
ATOM      9  C   UNL d   1      -4.951  -4.308  -4.803  0.00  0.00     0.018 C 
ENDBRANCH   1   8
TORSDOF 1
ENDMDL
