MODEL 1
REMARK minimizedAffinity 16.1950054
REMARK minimizedRMSD -1
REMARK  1 active torsions:
REMARK  status: ('A' for Active; 'I' for Inactive)
REMARK    1  A    between atoms: C1_2  and  C2_3 
ROOT
ATOM      1  C2  UNL d   1       5.242   2.670  -1.504  0.00  0.00    -0.081 A 
ATOM      2  C3  UNL d   1       4.086   1.943  -1.815  0.00  0.00     0.006 A 
ATOM      3  C4  UNL d   1       3.354   1.312  -0.807  0.00  0.00     0.002 A 
ATOM      4  C5  UNL d   1       3.759   1.404   0.529  0.00  0.00    -0.080 A 
ATOM      5  C6  UNL d   1       2.964   0.757   1.624  0.00  0.00     0.076 C 
ATOM      6  C7  UNL d   1       4.923   2.116   0.838  0.00  0.00     0.002 A 
ATOM      7  C8  UNL d   1       5.656   2.747  -0.170  0.00  0.00     0.006 A 
ENDROOT
BRANCH   1   8
ATOM      8  C1  UNL d   1       5.998   3.406  -2.581  0.00  0.00     0.054 C 
ATOM      9  C   UNL d   1       5.389   4.775  -2.848  0.00  0.00     0.018 C 
ENDBRANCH   1   8
TORSDOF 1
ENDMDL
