MODEL 1
REMARK minimizedAffinity 8.88111973
REMARK minimizedRMSD -1
REMARK  1 active torsions:
REMARK  status: ('A' for Active; 'I' for Inactive)
REMARK    1  A    between atoms: C1_2  and  C2_3 
ROOT
ATOM      1  C2  UNL d   1       5.122   2.087  -1.547  0.00  0.00    -0.081 A 
ATOM      2  C3  UNL d   1       5.472   2.296  -0.208  0.00  0.00     0.006 A 
ATOM      3  C4  UNL d   1       4.691   1.762   0.820  0.00  0.00     0.002 A 
ATOM      4  C5  UNL d   1       3.552   1.005   0.525  0.00  0.00    -0.080 A 
ATOM      5  C6  UNL d   1       2.721   0.400   1.618  0.00  0.00     0.076 C 
ATOM      6  C7  UNL d   1       3.193   0.810  -0.813  0.00  0.00     0.002 A 
ATOM      7  C8  UNL d   1       3.973   1.344  -1.840  0.00  0.00     0.006 A 
ENDROOT
BRANCH   1   8
ATOM      8  C1  UNL d   1       5.999   2.607  -2.658  0.00  0.00     0.054 C 
ATOM      9  C   UNL d   1       5.967   4.127  -2.723  0.00  0.00     0.018 C 
ENDBRANCH   1   8
TORSDOF 1
ENDMDL
