MODEL 1
REMARK minimizedAffinity 7.82347012
REMARK minimizedRMSD -1
REMARK  1 active torsions:
REMARK  status: ('A' for Active; 'I' for Inactive)
REMARK    1  A    between atoms: C1_2  and  C2_3 
ROOT
ATOM      1  C2  UNL d   1       4.266   1.377  -1.156  0.00  0.00    -0.081 A 
ATOM      2  C3  UNL d   1       4.848   1.814   0.041  0.00  0.00     0.006 A 
ATOM      3  C4  UNL d   1       4.379   1.343   1.269  0.00  0.00     0.002 A 
ATOM      4  C5  UNL d   1       3.327   0.422   1.322  0.00  0.00    -0.080 A 
ATOM      5  C6  UNL d   1       2.835  -0.115   2.633  0.00  0.00     0.076 C 
ATOM      6  C7  UNL d   1       2.735  -0.002   0.128  0.00  0.00     0.002 A 
ATOM      7  C8  UNL d   1       3.202   0.470  -1.101  0.00  0.00     0.006 A 
ENDROOT
BRANCH   1   8
ATOM      8  C1  UNL d   1       4.812   1.834  -2.485  0.00  0.00     0.054 C 
ATOM      9  C   UNL d   1       5.983   2.788  -2.303  0.00  0.00     0.018 C 
ENDBRANCH   1   8
TORSDOF 1
ENDMDL
