MODEL 1
REMARK minimizedAffinity 12.2630758
REMARK minimizedRMSD -1
REMARK  0 active torsions:
REMARK  status: ('A' for Active; 'I' for Inactive)
ROOT
ATOM      1  C1  DEN d   1       2.692  -0.138   3.338  0.00  0.00     0.130 A 
ATOM      2  C2  DEN d   1       3.784  -0.329   2.387  0.00  0.00    -0.031 A 
ATOM      3  C3  DEN d   1       3.212  -0.873   1.139  0.00  0.00     0.027 A 
ATOM      4  C4  DEN d   1       0.755  -1.431   0.588  0.00  0.00     0.027 A 
ATOM      5  C5  DEN d   1      -0.530  -1.448   1.082  0.00  0.00    -0.003 A 
ATOM      6  C6  DEN d   1      -0.825  -1.065   2.364  0.00  0.00     0.001 A 
ATOM      7  C7  DEN d   1       0.174  -0.606   3.181  0.00  0.00     0.017 A 
ATOM      8  C8  DEN d   1       1.473  -0.592   2.692  0.00  0.00    -0.094 A 
ATOM      9  C9  DEN d   1       1.749  -0.972   1.389  0.00  0.00    -0.072 A 
ENDROOT
TORSDOF 0
ENDMDL
