MODEL 1
REMARK minimizedAffinity 8.37091446
REMARK minimizedRMSD -1
REMARK  0 active torsions:
REMARK  status: ('A' for Active; 'I' for Inactive)
ROOT
ATOM      1  C1  DEN d   1       4.589  -0.212   1.468  0.00  0.00     0.130 A 
ATOM      2  C2  DEN d   1       4.233  -0.414   2.870  0.00  0.00    -0.031 A 
ATOM      3  C3  DEN d   1       2.765  -0.544   2.955  0.00  0.00     0.027 A 
ATOM      4  C4  DEN d   1       1.017  -0.457   1.060  0.00  0.00     0.027 A 
ATOM      5  C5  DEN d   1       0.838  -0.293  -0.296  0.00  0.00    -0.003 A 
ATOM      6  C6  DEN d   1       1.885  -0.059  -1.147  0.00  0.00     0.001 A 
ATOM      7  C7  DEN d   1       3.164  -0.027  -0.657  0.00  0.00     0.017 A 
ATOM      8  C8  DEN d   1       3.351  -0.184   0.710  0.00  0.00    -0.094 A 
ATOM      9  C9  DEN d   1       2.281  -0.432   1.552  0.00  0.00    -0.072 A 
ENDROOT
TORSDOF 0
ENDMDL
