MODEL 1
REMARK minimizedAffinity 1.22570193
REMARK minimizedRMSD -1
REMARK  0 active torsions:
REMARK  status: ('A' for Active; 'I' for Inactive)
ROOT
ATOM      1  C1  DEN d   1      -0.193   0.029   1.323  0.00  0.00     0.130 A 
ATOM      2  C2  DEN d   1       0.648  -0.876   0.543  0.00  0.00    -0.031 A 
ATOM      3  C3  DEN d   1      -0.190  -1.482  -0.511  0.00  0.00     0.027 A 
ATOM      4  C4  DEN d   1      -2.692  -1.106  -1.013  0.00  0.00     0.027 A 
ATOM      5  C5  DEN d   1      -3.828  -0.438  -0.615  0.00  0.00    -0.003 A 
ATOM      6  C6  DEN d   1      -3.841   0.400   0.469  0.00  0.00     0.001 A 
ATOM      7  C7  DEN d   1      -2.683   0.626   1.165  0.00  0.00     0.017 A 
ATOM      8  C8  DEN d   1      -1.535  -0.050   0.774  0.00  0.00    -0.094 A 
ATOM      9  C9  DEN d   1      -1.540  -0.883  -0.331  0.00  0.00    -0.072 A 
ENDROOT
TORSDOF 0
ENDMDL
