MODEL 1
REMARK minimizedAffinity 11.6849346
REMARK minimizedRMSD -1
REMARK  0 active torsions:
REMARK  status: ('A' for Active; 'I' for Inactive)
ROOT
ATOM      1  C1  DEN d   1       0.337  -1.939   1.081  0.00  0.00     0.130 A 
ATOM      2  C2  DEN d   1       0.024  -1.023   2.174  0.00  0.00    -0.031 A 
ATOM      3  C3  DEN d   1      -1.440  -0.832   2.204  0.00  0.00     0.027 A 
ATOM      4  C4  DEN d   1      -3.243  -1.863   0.674  0.00  0.00     0.027 A 
ATOM      5  C5  DEN d   1      -3.459  -2.692  -0.404  0.00  0.00    -0.003 A 
ATOM      6  C6  DEN d   1      -2.432  -3.297  -1.079  0.00  0.00     0.001 A 
ATOM      7  C7  DEN d   1      -1.142  -3.116  -0.654  0.00  0.00     0.017 A 
ATOM      8  C8  DEN d   1      -0.915  -2.276   0.428  0.00  0.00    -0.094 A 
ATOM      9  C9  DEN d   1      -1.968  -1.684   1.105  0.00  0.00    -0.072 A 
ENDROOT
TORSDOF 0
ENDMDL
