MODEL 1
REMARK minimizedAffinity -0.890840292
REMARK minimizedRMSD -1
REMARK  0 active torsions:
REMARK  status: ('A' for Active; 'I' for Inactive)
ROOT
ATOM      1  C1  DEN d   1      -5.443  -5.999   1.399  0.00  0.00     0.130 A 
ATOM      2  C2  DEN d   1      -4.493  -5.338   2.289  0.00  0.00    -0.031 A 
ATOM      3  C3  DEN d   1      -3.574  -4.534   1.459  0.00  0.00     0.027 A 
ATOM      4  C4  DEN d   1      -3.533  -4.247  -1.104  0.00  0.00     0.027 A 
ATOM      5  C5  DEN d   1      -4.135  -4.620  -2.285  0.00  0.00    -0.003 A 
ATOM      6  C6  DEN d   1      -5.186  -5.499  -2.323  0.00  0.00     0.001 A 
ATOM      7  C7  DEN d   1      -5.695  -5.999  -1.154  0.00  0.00     0.017 A 
ATOM      8  C8  DEN d   1      -5.088  -5.632   0.040  0.00  0.00    -0.094 A 
ATOM      9  C9  DEN d   1      -4.035  -4.734   0.059  0.00  0.00    -0.072 A 
ENDROOT
TORSDOF 0
ENDMDL
