MODEL 1
REMARK minimizedAffinity 6.6133728
REMARK minimizedRMSD -1
REMARK  0 active torsions:
REMARK  status: ('A' for Active; 'I' for Inactive)
ROOT
ATOM      1  C1  DEN d   1       0.091  -2.881   1.060  0.00  0.00     0.130 A 
ATOM      2  C2  DEN d   1      -0.468  -1.730   1.764  0.00  0.00    -0.031 A 
ATOM      3  C3  DEN d   1      -1.858  -1.543   1.302  0.00  0.00     0.027 A 
ATOM      4  C4  DEN d   1      -3.193  -2.919  -0.423  0.00  0.00     0.027 A 
ATOM      5  C5  DEN d   1      -3.138  -3.984  -1.295  0.00  0.00    -0.003 A 
ATOM      6  C6  DEN d   1      -2.001  -4.729  -1.467  0.00  0.00     0.001 A 
ATOM      7  C7  DEN d   1      -0.886  -4.446  -0.722  0.00  0.00     0.017 A 
ATOM      8  C8  DEN d   1      -0.932  -3.369   0.153  0.00  0.00    -0.094 A 
ATOM      9  C9  DEN d   1      -2.094  -2.636   0.321  0.00  0.00    -0.072 A 
ENDROOT
TORSDOF 0
ENDMDL
