MODEL 1
REMARK minimizedAffinity 12.815279
REMARK minimizedRMSD -1
REMARK  0 active torsions:
REMARK  status: ('A' for Active; 'I' for Inactive)
ROOT
ATOM      1  C1  DEN d   1      -0.345  -0.622   3.204  0.00  0.00     0.130 A 
ATOM      2  C2  DEN d   1      -1.350  -0.935   2.192  0.00  0.00    -0.031 A 
ATOM      3  C3  DEN d   1      -0.704  -0.860   0.867  0.00  0.00     0.027 A 
ATOM      4  C4  DEN d   1       1.746  -0.297   0.286  0.00  0.00     0.027 A 
ATOM      5  C5  DEN d   1       2.972   0.051   0.809  0.00  0.00    -0.003 A 
ATOM      6  C6  DEN d   1       3.169   0.230   2.153  0.00  0.00     0.001 A 
ATOM      7  C7  DEN d   1       2.133   0.018   3.024  0.00  0.00     0.017 A 
ATOM      8  C8  DEN d   1       0.892  -0.325   2.504  0.00  0.00    -0.094 A 
ATOM      9  C9  DEN d   1       0.717  -0.513   1.144  0.00  0.00    -0.072 A 
ENDROOT
TORSDOF 0
ENDMDL
