MODEL 1
REMARK minimizedAffinity 14.4660063
REMARK minimizedRMSD -1
REMARK  0 active torsions:
REMARK  status: ('A' for Active; 'I' for Inactive)
ROOT
ATOM      1  C1  DEN d   1       1.424   2.681  -0.876  0.00  0.00     0.130 A 
ATOM      2  C2  DEN d   1       2.259   3.878  -0.833  0.00  0.00    -0.031 A 
ATOM      3  C3  DEN d   1       3.508   3.538  -0.121  0.00  0.00     0.027 A 
ATOM      4  C4  DEN d   1       4.226   1.285   0.909  0.00  0.00     0.027 A 
ATOM      5  C5  DEN d   1       3.845  -0.019   1.132  0.00  0.00    -0.003 A 
ATOM      6  C6  DEN d   1       2.626  -0.502   0.736  0.00  0.00     0.001 A 
ATOM      7  C7  DEN d   1       1.762   0.314   0.054  0.00  0.00     0.017 A 
ATOM      8  C8  DEN d   1       2.137   1.632  -0.169  0.00  0.00    -0.094 A 
ATOM      9  C9  DEN d   1       3.378   2.098   0.229  0.00  0.00    -0.072 A 
ENDROOT
TORSDOF 0
ENDMDL
