MODEL 1
REMARK minimizedAffinity 16.7193432
REMARK minimizedRMSD -1
REMARK  0 active torsions:
REMARK  status: ('A' for Active; 'I' for Inactive)
ROOT
ATOM      1  C1  DEN d   1       0.683   0.251  -0.140  0.00  0.00     0.130 A 
ATOM      2  C2  DEN d   1       1.089  -0.396   1.105  0.00  0.00    -0.031 A 
ATOM      3  C3  DEN d   1       1.373  -1.815   0.810  0.00  0.00     0.027 A 
ATOM      4  C4  DEN d   1       1.229  -3.065  -1.442  0.00  0.00     0.027 A 
ATOM      5  C5  DEN d   1       0.919  -2.938  -2.778  0.00  0.00    -0.003 A 
ATOM      6  C6  DEN d   1       0.480  -1.759  -3.317  0.00  0.00     0.001 A 
ATOM      7  C7  DEN d   1       0.381  -0.645  -2.525  0.00  0.00     0.017 A 
ATOM      8  C8  DEN d   1       0.685  -0.766  -1.175  0.00  0.00    -0.094 A 
ATOM      9  C9  DEN d   1       1.139  -1.965  -0.652  0.00  0.00    -0.072 A 
ENDROOT
TORSDOF 0
ENDMDL
