MODEL 1
REMARK minimizedAffinity 12.6908751
REMARK minimizedRMSD -1
REMARK  0 active torsions:
REMARK  status: ('A' for Active; 'I' for Inactive)
ROOT
ATOM      1  C1  DEN d   1      -0.731  -1.623   5.037  0.00  0.00     0.130 A 
ATOM      2  C2  DEN d   1      -1.433  -2.864   5.354  0.00  0.00    -0.031 A 
ATOM      3  C3  DEN d   1      -1.846  -3.493   4.083  0.00  0.00     0.027 A 
ATOM      4  C4  DEN d   1      -1.463  -2.673   1.668  0.00  0.00     0.027 A 
ATOM      5  C5  DEN d   1      -0.926  -1.666   0.896  0.00  0.00    -0.003 A 
ATOM      6  C6  DEN d   1      -0.322  -0.567   1.446  0.00  0.00     0.001 A 
ATOM      7  C7  DEN d   1      -0.199  -0.470   2.807  0.00  0.00     0.017 A 
ATOM      8  C8  DEN d   1      -0.745  -1.477   3.593  0.00  0.00    -0.094 A 
ATOM      9  C9  DEN d   1      -1.341  -2.587   3.017  0.00  0.00    -0.072 A 
ENDROOT
TORSDOF 0
ENDMDL
