MODEL 1
REMARK minimizedAffinity -4.39458227
REMARK minimizedRMSD -1
REMARK  0 active torsions:
REMARK  status: ('A' for Active; 'I' for Inactive)
ROOT
ATOM      1  C1  DEN d   1       0.834  -1.040   1.372  0.00  0.00     0.130 A 
ATOM      2  C2  DEN d   1       0.954  -2.400   0.856  0.00  0.00    -0.031 A 
ATOM      3  C3  DEN d   1      -0.072  -2.583  -0.191  0.00  0.00     0.027 A 
ATOM      4  C4  DEN d   1      -1.821  -0.899  -1.061  0.00  0.00     0.027 A 
ATOM      5  C5  DEN d   1      -2.316   0.379  -0.920  0.00  0.00    -0.003 A 
ATOM      6  C6  DEN d   1      -1.823   1.254   0.011  0.00  0.00     0.001 A 
ATOM      7  C7  DEN d   1      -0.773   0.879   0.806  0.00  0.00     0.017 A 
ATOM      8  C8  DEN d   1      -0.273  -0.410   0.675  0.00  0.00    -0.094 A 
ATOM      9  C9  DEN d   1      -0.777  -1.276  -0.280  0.00  0.00    -0.072 A 
ENDROOT
TORSDOF 0
ENDMDL
