MODEL 1
REMARK minimizedAffinity -2.55464101
REMARK minimizedRMSD -1
REMARK  0 active torsions:
REMARK  status: ('A' for Active; 'I' for Inactive)
ROOT
ATOM      1  C   UNL d   1      -0.370  -0.110  -1.246  0.00  0.00     0.020 A 
ATOM      2  C1  UNL d   1       0.724  -0.974  -1.222  0.00  0.00     0.020 A 
ATOM      3  C2  UNL d   1       1.578  -0.988  -0.118  0.00  0.00     0.034 A 
ATOM      4  C3  UNL d   1       1.340  -0.136   0.967  0.00  0.00     0.017 A 
ATOM      5  C4  UNL d   1       0.242   0.731   0.942  0.00  0.00     0.017 A 
ATOM      6  C5  UNL d   1      -0.611   0.740  -0.167  0.00  0.00     0.034 A 
ATOM      7 Cl   UNL d   1      -0.116   1.811   2.243  0.00  0.00    -0.070 Cl
ATOM      8 Cl1  UNL d   1       2.438  -0.206   2.300  0.00  0.00    -0.070 Cl
ENDROOT
TORSDOF 0
ENDMDL
