MODEL 1
REMARK minimizedAffinity -2.07992959
REMARK minimizedRMSD -1
REMARK  0 active torsions:
REMARK  status: ('A' for Active; 'I' for Inactive)
ROOT
ATOM      1  C   UNL d   1       1.687   0.469  -4.095  0.00  0.00     0.020 A 
ATOM      2  C1  UNL d   1       0.620   1.317  -3.802  0.00  0.00     0.020 A 
ATOM      3  C2  UNL d   1      -0.104   1.144  -2.620  0.00  0.00     0.034 A 
ATOM      4  C3  UNL d   1       0.238   0.121  -1.728  0.00  0.00     0.017 A 
ATOM      5  C4  UNL d   1       1.309  -0.730  -2.024  0.00  0.00     0.017 A 
ATOM      6  C5  UNL d   1       2.031  -0.552  -3.209  0.00  0.00     0.034 A 
ATOM      7 Cl   UNL d   1       1.790  -2.014  -0.973  0.00  0.00    -0.070 Cl
ATOM      8 Cl1  UNL d   1      -0.701  -0.035  -0.286  0.00  0.00    -0.070 Cl
ENDROOT
TORSDOF 0
ENDMDL
