MODEL 1
REMARK minimizedAffinity -1.85163999
REMARK minimizedRMSD -1
REMARK  0 active torsions:
REMARK  status: ('A' for Active; 'I' for Inactive)
ROOT
ATOM      1  C   UNL d   1      -0.955   0.082  -0.244  0.00  0.00     0.020 A 
ATOM      2  C1  UNL d   1       0.030   1.000   0.117  0.00  0.00     0.020 A 
ATOM      3  C2  UNL d   1       0.092   1.477   1.428  0.00  0.00     0.034 A 
ATOM      4  C3  UNL d   1      -0.831   1.035   2.383  0.00  0.00     0.017 A 
ATOM      5  C4  UNL d   1      -1.820   0.113   2.019  0.00  0.00     0.017 A 
ATOM      6  C5  UNL d   1      -1.878  -0.361   0.705  0.00  0.00     0.034 A 
ATOM      7 Cl   UNL d   1      -2.994  -0.478   3.141  0.00  0.00    -0.070 Cl
ATOM      8 Cl1  UNL d   1      -0.695   1.666   3.985  0.00  0.00    -0.070 Cl
ENDROOT
TORSDOF 0
ENDMDL
