MODEL 1
REMARK minimizedAffinity -2.80385494
REMARK minimizedRMSD -1
REMARK  0 active torsions:
REMARK  status: ('A' for Active; 'I' for Inactive)
ROOT
ATOM      1  C   UNL d   1       0.151  -1.316  -1.008  0.00  0.00     0.020 A 
ATOM      2  C1  UNL d   1      -1.152  -0.876  -0.780  0.00  0.00     0.020 A 
ATOM      3  C2  UNL d   1      -1.442  -0.109   0.351  0.00  0.00     0.034 A 
ATOM      4  C3  UNL d   1      -0.428   0.220   1.257  0.00  0.00     0.017 A 
ATOM      5  C4  UNL d   1       0.880  -0.222   1.027  0.00  0.00     0.017 A 
ATOM      6  C5  UNL d   1       1.165  -0.989  -0.106  0.00  0.00     0.034 A 
ATOM      7 Cl   UNL d   1       2.184   0.144   2.101  0.00  0.00    -0.070 Cl
ATOM      8 Cl1  UNL d   1      -0.858   1.172   2.634  0.00  0.00    -0.070 Cl
ENDROOT
TORSDOF 0
ENDMDL
