MODEL 1
REMARK minimizedAffinity -2.62502646
REMARK minimizedRMSD -1
REMARK  0 active torsions:
REMARK  status: ('A' for Active; 'I' for Inactive)
ROOT
ATOM      1  C   UNL d   1       0.283   0.903   2.291  0.00  0.00     0.020 A 
ATOM      2  C1  UNL d   1      -1.036   1.225   2.609  0.00  0.00     0.020 A 
ATOM      3  C2  UNL d   1      -2.047   1.036   1.665  0.00  0.00     0.034 A 
ATOM      4  C3  UNL d   1      -1.742   0.524   0.399  0.00  0.00     0.017 A 
ATOM      5  C4  UNL d   1      -0.417   0.202   0.081  0.00  0.00     0.017 A 
ATOM      6  C5  UNL d   1       0.591   0.393   1.030  0.00  0.00     0.034 A 
ATOM      7 Cl   UNL d   1       0.037  -0.434  -1.461  0.00  0.00    -0.070 Cl
ATOM      8 Cl1  UNL d   1      -3.043   0.316  -0.719  0.00  0.00    -0.070 Cl
ENDROOT
TORSDOF 0
ENDMDL
