MODEL 1
REMARK minimizedAffinity -5.04329205
REMARK minimizedRMSD -1
REMARK  0 active torsions:
REMARK  status: ('A' for Active; 'I' for Inactive)
ROOT
ATOM      1  C   UNL d   1      -0.387  -1.003  -0.761  0.00  0.00     0.020 A 
ATOM      2  C1  UNL d   1      -1.625  -0.482  -0.387  0.00  0.00     0.020 A 
ATOM      3  C2  UNL d   1      -1.720   0.372   0.713  0.00  0.00     0.034 A 
ATOM      4  C3  UNL d   1      -0.575   0.709   1.444  0.00  0.00     0.017 A 
ATOM      5  C4  UNL d   1       0.668   0.186   1.068  0.00  0.00     0.017 A 
ATOM      6  C5  UNL d   1       0.757  -0.670  -0.035  0.00  0.00     0.034 A 
ATOM      7 Cl   UNL d   1       2.125   0.555   1.920  0.00  0.00    -0.070 Cl
ATOM      8 Cl1  UNL d   1      -0.766   1.771   2.793  0.00  0.00    -0.070 Cl
ENDROOT
TORSDOF 0
ENDMDL
