MODEL 1
REMARK minimizedAffinity -5.40621901
REMARK minimizedRMSD -1
REMARK  0 active torsions:
REMARK  status: ('A' for Active; 'I' for Inactive)
ROOT
ATOM      1  C   UNL d   1      -1.498   0.664   2.093  0.00  0.00     0.020 A 
ATOM      2  C1  UNL d   1      -0.632   0.348   3.140  0.00  0.00     0.020 A 
ATOM      3  C2  UNL d   1       0.620  -0.207   2.867  0.00  0.00     0.034 A 
ATOM      4  C3  UNL d   1       1.010  -0.450   1.545  0.00  0.00     0.017 A 
ATOM      5  C4  UNL d   1       0.140  -0.133   0.495  0.00  0.00     0.017 A 
ATOM      6  C5  UNL d   1      -1.112   0.424   0.774  0.00  0.00     0.034 A 
ATOM      7 Cl   UNL d   1       0.550  -0.402  -1.162  0.00  0.00    -0.070 Cl
ATOM      8 Cl1  UNL d   1       2.572  -1.138   1.281  0.00  0.00    -0.070 Cl
ENDROOT
TORSDOF 0
ENDMDL
