MODEL 1
REMARK minimizedAffinity -3.07409525
REMARK minimizedRMSD -1
REMARK  0 active torsions:
REMARK  status: ('A' for Active; 'I' for Inactive)
ROOT
ATOM      1  C   UNL d   1       0.381   1.306   2.290  0.00  0.00     0.020 A 
ATOM      2  C1  UNL d   1      -0.948   1.239   2.708  0.00  0.00     0.020 A 
ATOM      3  C2  UNL d   1      -1.927   0.745   1.844  0.00  0.00     0.034 A 
ATOM      4  C3  UNL d   1      -1.580   0.317   0.557  0.00  0.00     0.017 A 
ATOM      5  C4  UNL d   1      -0.246   0.385   0.139  0.00  0.00     0.017 A 
ATOM      6  C5  UNL d   1       0.731   0.880   1.008  0.00  0.00     0.034 A 
ATOM      7 Cl   UNL d   1       0.260  -0.125  -1.433  0.00  0.00    -0.070 Cl
ATOM      8 Cl1  UNL d   1      -2.842  -0.283  -0.458  0.00  0.00    -0.070 Cl
ENDROOT
TORSDOF 0
ENDMDL
