MODEL 1
REMARK minimizedAffinity -0.314823985
REMARK minimizedRMSD -1
REMARK  0 active torsions:
REMARK  status: ('A' for Active; 'I' for Inactive)
ROOT
ATOM      1  C   UNL d   1      -1.953   0.577   2.436  0.00  0.00     0.020 A 
ATOM      2  C1  UNL d   1      -2.452   0.772   1.149  0.00  0.00     0.020 A 
ATOM      3  C2  UNL d   1      -1.650   0.500   0.040  0.00  0.00     0.034 A 
ATOM      4  C3  UNL d   1      -0.343   0.029   0.215  0.00  0.00     0.017 A 
ATOM      5  C4  UNL d   1       0.157  -0.167   1.507  0.00  0.00     0.017 A 
ATOM      6  C5  UNL d   1      -0.651   0.108   2.615  0.00  0.00     0.034 A 
ATOM      7 Cl   UNL d   1       1.759  -0.744   1.803  0.00  0.00    -0.070 Cl
ATOM      8 Cl1  UNL d   1       0.593  -0.288  -1.202  0.00  0.00    -0.070 Cl
ENDROOT
TORSDOF 0
ENDMDL
