MODEL 1
REMARK minimizedAffinity -5.12731743
REMARK minimizedRMSD -1
REMARK  2 active torsions:
REMARK  status: ('A' for Active; 'I' for Inactive)
REMARK    1  A    between atoms: C1_2  and  C2_3 
REMARK    2  A    between atoms: C2_3  and  C3_4 
ROOT
ATOM      1  C3  UNL d   1      -0.221  -0.191   0.158  0.00  0.00    -0.075 A 
ATOM      2  C4  UNL d   1      -0.831  -0.199   1.421  0.00  0.00     0.002 A 
ATOM      3  C5  UNL d   1      -0.079  -0.449   2.569  0.00  0.00     0.002 A 
ATOM      4  C6  UNL d   1       1.287  -0.703   2.470  0.00  0.00    -0.004 A 
ATOM      5  C7  UNL d   1       1.900  -0.713   1.219  0.00  0.00     0.002 A 
ATOM      6  C8  UNL d   1       1.151  -0.459   0.068  0.00  0.00     0.002 A 
ENDROOT
BRANCH   1   7
ATOM      7  C2  UNL d   1      -1.024   0.108  -1.085  0.00  0.00     0.056 C 
BRANCH   7   8
ATOM      8  C1  UNL d   1      -0.991   1.580  -1.510  0.00  0.00     0.007 C 
ATOM      9  C   UNL d   1      -2.239   2.014  -2.268  0.00  0.00     0.009 C 
ENDBRANCH   7   8
ENDBRANCH   1   7
TORSDOF 2
ENDMDL
