MODEL 1
REMARK minimizedAffinity -5.35430431
REMARK minimizedRMSD -1
REMARK  2 active torsions:
REMARK  status: ('A' for Active; 'I' for Inactive)
REMARK    1  A    between atoms: C1_2  and  C2_3 
REMARK    2  A    between atoms: C2_3  and  C3_4 
ROOT
ATOM      1  C3  UNL d   1       0.426  -0.229   1.410  0.00  0.00    -0.075 A 
ATOM      2  C4  UNL d   1       0.591   0.028   2.778  0.00  0.00     0.002 A 
ATOM      3  C5  UNL d   1       1.623  -0.581   3.494  0.00  0.00     0.002 A 
ATOM      4  C6  UNL d   1       2.495  -1.459   2.854  0.00  0.00    -0.004 A 
ATOM      5  C7  UNL d   1       2.330  -1.735   1.498  0.00  0.00     0.002 A 
ATOM      6  C8  UNL d   1       1.301  -1.124   0.779  0.00  0.00     0.002 A 
ENDROOT
BRANCH   1   7
ATOM      7  C2  UNL d   1      -0.670   0.449   0.623  0.00  0.00     0.056 C 
BRANCH   7   8
ATOM      8  C1  UNL d   1      -0.639   0.147  -0.879  0.00  0.00     0.007 C 
ATOM      9  C   UNL d   1      -0.682   1.399  -1.744  0.00  0.00     0.009 C 
ENDBRANCH   7   8
ENDBRANCH   1   7
TORSDOF 2
ENDMDL
