MODEL 1
REMARK minimizedAffinity -5.2177
REMARK minimizedRMSD -1
REMARK  2 active torsions:
REMARK  status: ('A' for Active; 'I' for Inactive)
REMARK    1  A    between atoms: C1_2  and  C2_3 
REMARK    2  A    between atoms: C2_3  and  C3_4 
ROOT
ATOM      1  C3  UNL d   1       0.082  -0.053  -0.001  0.00  0.00    -0.075 A 
ATOM      2  C4  UNL d   1       1.458  -0.150   0.255  0.00  0.00     0.002 A 
ATOM      3  C5  UNL d   1       1.919  -0.514   1.520  0.00  0.00     0.002 A 
ATOM      4  C6  UNL d   1       1.014  -0.776   2.546  0.00  0.00    -0.004 A 
ATOM      5  C7  UNL d   1      -0.355  -0.667   2.308  0.00  0.00     0.002 A 
ATOM      6  C8  UNL d   1      -0.819  -0.307   1.041  0.00  0.00     0.002 A 
ENDROOT
BRANCH   1   7
ATOM      7  C2  UNL d   1      -0.424   0.311  -1.376  0.00  0.00     0.056 C 
BRANCH   7   8
ATOM      8  C1  UNL d   1      -0.106   1.750  -1.796  0.00  0.00     0.007 C 
ATOM      9  C   UNL d   1      -0.598   2.090  -3.197  0.00  0.00     0.009 C 
ENDBRANCH   7   8
ENDBRANCH   1   7
TORSDOF 2
ENDMDL
