MODEL 1
REMARK minimizedAffinity -6.12748146
REMARK minimizedRMSD -1
REMARK  2 active torsions:
REMARK  status: ('A' for Active; 'I' for Inactive)
REMARK    1  A    between atoms: C1_2  and  C2_3 
REMARK    2  A    between atoms: C2_3  and  C3_4 
ROOT
ATOM      1  C3  UNL d   1       0.880  -0.667  -0.044  0.00  0.00    -0.075 A 
ATOM      2  C4  UNL d   1       1.993  -1.512   0.071  0.00  0.00     0.002 A 
ATOM      3  C5  UNL d   1       2.470  -1.890   1.326  0.00  0.00     0.002 A 
ATOM      4  C6  UNL d   1       1.847  -1.421   2.481  0.00  0.00    -0.004 A 
ATOM      5  C7  UNL d   1       0.751  -0.568   2.379  0.00  0.00     0.002 A 
ATOM      6  C8  UNL d   1       0.269  -0.192   1.124  0.00  0.00     0.002 A 
ENDROOT
BRANCH   1   7
ATOM      7  C2  UNL d   1       0.342  -0.278  -1.400  0.00  0.00     0.056 C 
BRANCH   7   8
ATOM      8  C1  UNL d   1      -0.921   0.589  -1.344  0.00  0.00     0.007 C 
ATOM      9  C   UNL d   1      -0.795   1.885  -2.133  0.00  0.00     0.009 C 
ENDBRANCH   7   8
ENDBRANCH   1   7
TORSDOF 2
ENDMDL
