MODEL 1
REMARK minimizedAffinity -4.15009832
REMARK minimizedRMSD -1
REMARK  2 active torsions:
REMARK  status: ('A' for Active; 'I' for Inactive)
REMARK    1  A    between atoms: C1_2  and  C2_3 
REMARK    2  A    between atoms: C2_3  and  C3_4 
ROOT
ATOM      1  C3  UNL d   1      -1.790  -0.457  -0.905  0.00  0.00    -0.075 A 
ATOM      2  C4  UNL d   1      -2.340  -0.690   0.364  0.00  0.00     0.002 A 
ATOM      3  C5  UNL d   1      -1.512  -0.932   1.461  0.00  0.00     0.002 A 
ATOM      4  C6  UNL d   1      -0.129  -0.955   1.302  0.00  0.00    -0.004 A 
ATOM      5  C7  UNL d   1       0.428  -0.742   0.042  0.00  0.00     0.002 A 
ATOM      6  C8  UNL d   1      -0.398  -0.495  -1.056  0.00  0.00     0.002 A 
ENDROOT
BRANCH   1   7
ATOM      7  C2  UNL d   1      -2.680  -0.165  -2.090  0.00  0.00     0.056 C 
BRANCH   7   8
ATOM      8  C1  UNL d   1      -3.071   1.310  -2.227  0.00  0.00     0.007 C 
ATOM      9  C   UNL d   1      -4.543   1.511  -2.562  0.00  0.00     0.009 C 
ENDBRANCH   7   8
ENDBRANCH   1   7
TORSDOF 2
ENDMDL
