MODEL 1
REMARK minimizedAffinity -1.22632551
REMARK minimizedRMSD -1
REMARK  0 active torsions:
REMARK  status: ('A' for Active; 'I' for Inactive)
ROOT
ATOM      1  C   UNL d   1      -2.058  -3.066  -1.906  0.00  0.00     0.020 A 
ATOM      2  C1  UNL d   1      -0.822  -3.629  -2.221  0.00  0.00     0.020 A 
ATOM      3  C2  UNL d   1       0.316  -3.261  -1.501  0.00  0.00     0.034 A 
ATOM      4  C3  UNL d   1       0.221  -2.327  -0.463  0.00  0.00     0.017 A 
ATOM      5  C4  UNL d   1      -1.020  -1.763  -0.147  0.00  0.00     0.017 A 
ATOM      6  C5  UNL d   1      -2.157  -2.135  -0.871  0.00  0.00     0.034 A 
ATOM      7 Cl   UNL d   1      -1.216  -0.604   1.120  0.00  0.00    -0.070 Cl
ATOM      8 Cl1  UNL d   1       1.670  -1.919   0.386  0.00  0.00    -0.070 Cl
ENDROOT
TORSDOF 0
ENDMDL
