MODEL 1
REMARK minimizedAffinity -3.54238772
REMARK minimizedRMSD -1
REMARK  0 active torsions:
REMARK  status: ('A' for Active; 'I' for Inactive)
ROOT
ATOM      1  C   UNL d   1      -1.103   1.830   0.774  0.00  0.00     0.020 A 
ATOM      2  C1  UNL d   1      -2.172   1.296   0.056  0.00  0.00     0.020 A 
ATOM      3  C2  UNL d   1      -2.161  -0.050  -0.316  0.00  0.00     0.034 A 
ATOM      4  C3  UNL d   1      -1.078  -0.866   0.030  0.00  0.00     0.017 A 
ATOM      5  C4  UNL d   1      -0.005  -0.330   0.751  0.00  0.00     0.017 A 
ATOM      6  C5  UNL d   1      -0.022   1.019   1.121  0.00  0.00     0.034 A 
ATOM      7 Cl   UNL d   1       1.366  -1.275   1.214  0.00  0.00    -0.070 Cl
ATOM      8 Cl1  UNL d   1      -1.131  -2.522  -0.462  0.00  0.00    -0.070 Cl
ENDROOT
TORSDOF 0
ENDMDL
