MODEL 1
REMARK minimizedAffinity -0.264600426
REMARK minimizedRMSD -1
REMARK  0 active torsions:
REMARK  status: ('A' for Active; 'I' for Inactive)
ROOT
ATOM      1  C   UNL d   1      -1.106   1.879   1.080  0.00  0.00     0.020 A 
ATOM      2  C1  UNL d   1      -2.188   1.187   0.537  0.00  0.00     0.020 A 
ATOM      3  C2  UNL d   1      -1.988  -0.050  -0.079  0.00  0.00     0.034 A 
ATOM      4  C3  UNL d   1      -0.702  -0.599  -0.154  0.00  0.00     0.017 A 
ATOM      5  C4  UNL d   1       0.383   0.097   0.391  0.00  0.00     0.017 A 
ATOM      6  C5  UNL d   1       0.177   1.335   1.006  0.00  0.00     0.034 A 
ATOM      7 Cl   UNL d   1       1.998  -0.516   0.336  0.00  0.00    -0.070 Cl
ATOM      8 Cl1  UNL d   1      -0.528  -2.133  -0.930  0.00  0.00    -0.070 Cl
ENDROOT
TORSDOF 0
ENDMDL
