MODEL 1
REMARK minimizedAffinity -2.21182609
REMARK minimizedRMSD -1
REMARK  0 active torsions:
REMARK  status: ('A' for Active; 'I' for Inactive)
ROOT
ATOM      1  C   UNL d   1       0.388  -1.539  -0.135  0.00  0.00     0.020 A 
ATOM      2  C1  UNL d   1      -0.853  -0.907  -0.203  0.00  0.00     0.020 A 
ATOM      3  C2  UNL d   1      -0.940   0.479  -0.060  0.00  0.00     0.034 A 
ATOM      4  C3  UNL d   1       0.217   1.238   0.152  0.00  0.00     0.017 A 
ATOM      5  C4  UNL d   1       1.462   0.603   0.220  0.00  0.00     0.017 A 
ATOM      6  C5  UNL d   1       1.543  -0.785   0.076  0.00  0.00     0.034 A 
ATOM      7 Cl   UNL d   1       2.933   1.473   0.479  0.00  0.00    -0.070 Cl
ATOM      8 Cl1  UNL d   1       0.036   2.949   0.319  0.00  0.00    -0.070 Cl
ENDROOT
TORSDOF 0
ENDMDL
