MODEL 1
REMARK minimizedAffinity -4.78786278
REMARK minimizedRMSD -1
REMARK  0 active torsions:
REMARK  status: ('A' for Active; 'I' for Inactive)
ROOT
ATOM      1  C   UNL d   1      -1.368   0.795   0.497  0.00  0.00     0.020 A 
ATOM      2  C1  UNL d   1      -0.573  -0.349   0.433  0.00  0.00     0.020 A 
ATOM      3  C2  UNL d   1       0.814  -0.230   0.324  0.00  0.00     0.034 A 
ATOM      4  C3  UNL d   1       1.410   1.036   0.278  0.00  0.00     0.017 A 
ATOM      5  C4  UNL d   1       0.611   2.183   0.343  0.00  0.00     0.017 A 
ATOM      6  C5  UNL d   1      -0.777   2.058   0.452  0.00  0.00     0.034 A 
ATOM      7 Cl   UNL d   1       1.274   3.779   0.292  0.00  0.00    -0.070 Cl
ATOM      8 Cl1  UNL d   1       3.131   1.109   0.143  0.00  0.00    -0.070 Cl
ENDROOT
TORSDOF 0
ENDMDL
