MODEL 1
REMARK minimizedAffinity -2.05102658
REMARK minimizedRMSD -1
REMARK  0 active torsions:
REMARK  status: ('A' for Active; 'I' for Inactive)
ROOT
ATOM      1  C   UNL d   1      -1.249   1.914   0.255  0.00  0.00     0.020 A 
ATOM      2  C1  UNL d   1      -0.020   2.467   0.613  0.00  0.00     0.020 A 
ATOM      3  C2  UNL d   1       1.109   1.652   0.713  0.00  0.00     0.034 A 
ATOM      4  C3  UNL d   1       1.012   0.280   0.453  0.00  0.00     0.017 A 
ATOM      5  C4  UNL d   1      -0.221  -0.274   0.093  0.00  0.00     0.017 A 
ATOM      6  C5  UNL d   1      -1.349   0.547  -0.005  0.00  0.00     0.034 A 
ATOM      7 Cl   UNL d   1      -0.419  -1.958  -0.243  0.00  0.00    -0.070 Cl
ATOM      8 Cl1  UNL d   1       2.450  -0.668   0.595  0.00  0.00    -0.070 Cl
ENDROOT
TORSDOF 0
ENDMDL
