MODEL 1
REMARK minimizedAffinity -4.53931522
REMARK minimizedRMSD -1
REMARK  0 active torsions:
REMARK  status: ('A' for Active; 'I' for Inactive)
ROOT
ATOM      1  C   UNL d   1       1.925  -0.345   0.582  0.00  0.00     0.020 A 
ATOM      2  C1  UNL d   1       0.992  -1.347   0.844  0.00  0.00     0.020 A 
ATOM      3  C2  UNL d   1      -0.351  -1.017   1.040  0.00  0.00     0.034 A 
ATOM      4  C3  UNL d   1      -0.764   0.318   0.974  0.00  0.00     0.017 A 
ATOM      5  C4  UNL d   1       0.173   1.324   0.710  0.00  0.00     0.017 A 
ATOM      6  C5  UNL d   1       1.517   0.987   0.515  0.00  0.00     0.034 A 
ATOM      7 Cl   UNL d   1      -0.261   2.994   0.613  0.00  0.00    -0.070 Cl
ATOM      8 Cl1  UNL d   1      -2.440   0.654   1.227  0.00  0.00    -0.070 Cl
ENDROOT
TORSDOF 0
ENDMDL
