MODEL 1
REMARK minimizedAffinity -3.94552183
REMARK minimizedRMSD -1
REMARK  0 active torsions:
REMARK  status: ('A' for Active; 'I' for Inactive)
ROOT
ATOM      1  C   UNL d   1      -0.755   0.203   0.618  0.00  0.00     0.020 A 
ATOM      2  C1  UNL d   1       0.503   0.684   0.256  0.00  0.00     0.020 A 
ATOM      3  C2  UNL d   1       1.387  -0.135  -0.449  0.00  0.00     0.034 A 
ATOM      4  C3  UNL d   1       1.014  -1.439  -0.795  0.00  0.00     0.017 A 
ATOM      5  C4  UNL d   1      -0.249  -1.921  -0.432  0.00  0.00     0.017 A 
ATOM      6  C5  UNL d   1      -1.130  -1.096   0.274  0.00  0.00     0.034 A 
ATOM      7 Cl   UNL d   1      -0.779  -3.518  -0.823  0.00  0.00    -0.070 Cl
ATOM      8 Cl1  UNL d   1       2.158  -2.397  -1.668  0.00  0.00    -0.070 Cl
ENDROOT
TORSDOF 0
ENDMDL
