MODEL 1
REMARK minimizedAffinity -0.643778384
REMARK minimizedRMSD -1
REMARK  0 active torsions:
REMARK  status: ('A' for Active; 'I' for Inactive)
ROOT
ATOM      1  C   UNL d   1       0.358  -2.967  -1.985  0.00  0.00     0.020 A 
ATOM      2  C1  UNL d   1      -0.945  -3.161  -1.530  0.00  0.00     0.020 A 
ATOM      3  C2  UNL d   1      -1.474  -2.323  -0.547  0.00  0.00     0.034 A 
ATOM      4  C3  UNL d   1      -0.699  -1.286  -0.015  0.00  0.00     0.017 A 
ATOM      5  C4  UNL d   1       0.610  -1.092  -0.472  0.00  0.00     0.017 A 
ATOM      6  C5  UNL d   1       1.134  -1.935  -1.457  0.00  0.00     0.034 A 
ATOM      7 Cl   UNL d   1       1.627   0.166   0.136  0.00  0.00    -0.070 Cl
ATOM      8 Cl1  UNL d   1      -1.417  -0.287   1.198  0.00  0.00    -0.070 Cl
ENDROOT
TORSDOF 0
ENDMDL
