MODEL 1
REMARK minimizedAffinity 1.2975049
REMARK minimizedRMSD -1
REMARK  0 active torsions:
REMARK  status: ('A' for Active; 'I' for Inactive)
ROOT
ATOM      1  C   UNL d   1      -1.315   0.371   0.061  0.00  0.00     0.020 A 
ATOM      2  C1  UNL d   1      -1.165   1.731   0.329  0.00  0.00     0.020 A 
ATOM      3  C2  UNL d   1       0.071   2.229   0.747  0.00  0.00     0.034 A 
ATOM      4  C3  UNL d   1       1.162   1.366   0.898  0.00  0.00     0.017 A 
ATOM      5  C4  UNL d   1       1.011   0.001   0.629  0.00  0.00     0.017 A 
ATOM      6  C5  UNL d   1      -0.229  -0.492   0.211  0.00  0.00     0.034 A 
ATOM      7 Cl   UNL d   1       2.312  -1.125   0.794  0.00  0.00    -0.070 Cl
ATOM      8 Cl1  UNL d   1       2.661   2.050   1.418  0.00  0.00    -0.070 Cl
ENDROOT
TORSDOF 0
ENDMDL
