MODEL 1
REMARK minimizedAffinity -0.288157731
REMARK minimizedRMSD -1
REMARK  0 active torsions:
REMARK  status: ('A' for Active; 'I' for Inactive)
ROOT
ATOM      1  C   UNL d   1      -1.056  -0.834   0.009  0.00  0.00     0.020 A 
ATOM      2  C1  UNL d   1       0.182  -1.469  -0.082  0.00  0.00     0.020 A 
ATOM      3  C2  UNL d   1       1.351  -0.768   0.224  0.00  0.00     0.034 A 
ATOM      4  C3  UNL d   1       1.284   0.573   0.621  0.00  0.00     0.017 A 
ATOM      5  C4  UNL d   1       0.040   1.209   0.712  0.00  0.00     0.017 A 
ATOM      6  C5  UNL d   1      -1.126   0.502   0.405  0.00  0.00     0.034 A 
ATOM      7 Cl   UNL d   1      -0.122   2.860   1.196  0.00  0.00    -0.070 Cl
ATOM      8 Cl1  UNL d   1       2.768   1.379   0.984  0.00  0.00    -0.070 Cl
ENDROOT
TORSDOF 0
ENDMDL
