MODEL 1
REMARK minimizedAffinity -2.34988356
REMARK minimizedRMSD -1
REMARK  0 active torsions:
REMARK  status: ('A' for Active; 'I' for Inactive)
ROOT
ATOM      1  C   UNL d   1      -0.404  -0.739   0.367  0.00  0.00     0.020 A 
ATOM      2  C1  UNL d   1      -1.341   0.286   0.492  0.00  0.00     0.020 A 
ATOM      3  C2  UNL d   1      -0.918   1.589   0.767  0.00  0.00     0.034 A 
ATOM      4  C3  UNL d   1       0.445   1.869   0.917  0.00  0.00     0.017 A 
ATOM      5  C4  UNL d   1       1.384   0.839   0.791  0.00  0.00     0.017 A 
ATOM      6  C5  UNL d   1       0.956  -0.463   0.516  0.00  0.00     0.034 A 
ATOM      7 Cl   UNL d   1       3.083   1.108   0.963  0.00  0.00    -0.070 Cl
ATOM      8 Cl1  UNL d   1       0.897   3.502   1.256  0.00  0.00    -0.070 Cl
ENDROOT
TORSDOF 0
ENDMDL
