MODEL 1
REMARK minimizedAffinity -1.1243422
REMARK minimizedRMSD -1
REMARK  0 active torsions:
REMARK  status: ('A' for Active; 'I' for Inactive)
ROOT
ATOM      1  C   UNL d   1      -1.252  -0.050  -0.041  0.00  0.00     0.020 A 
ATOM      2  C1  UNL d   1      -0.090  -0.813  -0.146  0.00  0.00     0.020 A 
ATOM      3  C2  UNL d   1       1.149  -0.243   0.156  0.00  0.00     0.034 A 
ATOM      4  C3  UNL d   1       1.227   1.093   0.566  0.00  0.00     0.017 A 
ATOM      5  C4  UNL d   1       0.060   1.858   0.671  0.00  0.00     0.017 A 
ATOM      6  C5  UNL d   1      -1.178   1.282   0.367  0.00  0.00     0.034 A 
ATOM      7 Cl   UNL d   1       0.077   3.513   1.170  0.00  0.00    -0.070 Cl
ATOM      8 Cl1  UNL d   1       2.792   1.733   0.924  0.00  0.00    -0.070 Cl
ENDROOT
TORSDOF 0
ENDMDL
