MODEL 1
REMARK minimizedAffinity -2.90953779
REMARK minimizedRMSD -1
REMARK  0 active torsions:
REMARK  status: ('A' for Active; 'I' for Inactive)
ROOT
ATOM      1  C   UNL d   1      -1.238  -3.378  -1.150  0.00  0.00     0.020 A 
ATOM      2  C1  UNL d   1      -1.049  -3.353  -2.531  0.00  0.00     0.020 A 
ATOM      3  C2  UNL d   1      -0.438  -2.250  -3.132  0.00  0.00     0.034 A 
ATOM      4  C3  UNL d   1      -0.014  -1.168  -2.352  0.00  0.00     0.017 A 
ATOM      5  C4  UNL d   1      -0.205  -1.195  -0.965  0.00  0.00     0.017 A 
ATOM      6  C5  UNL d   1      -0.817  -2.302  -0.369  0.00  0.00     0.034 A 
ATOM      7 Cl   UNL d   1       0.292   0.102   0.063  0.00  0.00    -0.070 Cl
ATOM      8 Cl1  UNL d   1       0.734   0.162  -3.162  0.00  0.00    -0.070 Cl
ENDROOT
TORSDOF 0
ENDMDL
