MODEL 1
REMARK minimizedAffinity -3.61224723
REMARK minimizedRMSD -1
REMARK  0 active torsions:
REMARK  status: ('A' for Active; 'I' for Inactive)
ROOT
ATOM      1  C   UNL d   1      -0.717  -3.149  -2.988  0.00  0.00     0.020 A 
ATOM      2  C1  UNL d   1      -1.510  -3.193  -1.842  0.00  0.00     0.020 A 
ATOM      3  C2  UNL d   1      -1.288  -2.286  -0.804  0.00  0.00     0.034 A 
ATOM      4  C3  UNL d   1      -0.269  -1.332  -0.908  0.00  0.00     0.017 A 
ATOM      5  C4  UNL d   1       0.527  -1.289  -2.059  0.00  0.00     0.017 A 
ATOM      6  C5  UNL d   1       0.300  -2.199  -3.096  0.00  0.00     0.034 A 
ATOM      7 Cl   UNL d   1       1.802  -0.140  -2.261  0.00  0.00    -0.070 Cl
ATOM      8 Cl1  UNL d   1      -0.051  -0.242   0.414  0.00  0.00    -0.070 Cl
ENDROOT
TORSDOF 0
ENDMDL
