MODEL 1
REMARK minimizedAffinity -0.344090044
REMARK minimizedRMSD -1
REMARK  0 active torsions:
REMARK  status: ('A' for Active; 'I' for Inactive)
ROOT
ATOM      1  C   UNL d   1      -0.484  -2.660  -2.191  0.00  0.00     0.020 A 
ATOM      2  C1  UNL d   1      -1.240  -3.482  -1.356  0.00  0.00     0.020 A 
ATOM      3  C2  UNL d   1      -1.427  -3.134  -0.017  0.00  0.00     0.034 A 
ATOM      4  C3  UNL d   1      -0.857  -1.961   0.491  0.00  0.00     0.017 A 
ATOM      5  C4  UNL d   1      -0.099  -1.137  -0.348  0.00  0.00     0.017 A 
ATOM      6  C5  UNL d   1       0.085  -1.490  -1.688  0.00  0.00     0.034 A 
ATOM      7 Cl   UNL d   1       0.636   0.326   0.207  0.00  0.00    -0.070 Cl
ATOM      8 Cl1  UNL d   1      -1.130  -1.591   2.157  0.00  0.00    -0.070 Cl
ENDROOT
TORSDOF 0
ENDMDL
