MODEL 1
REMARK minimizedAffinity -1.45483053
REMARK minimizedRMSD -1
REMARK  0 active torsions:
REMARK  status: ('A' for Active; 'I' for Inactive)
ROOT
ATOM      1  C   UNL d   1      -0.227   2.477   0.888  0.00  0.00     0.020 A 
ATOM      2  C1  UNL d   1      -1.311   2.034   0.132  0.00  0.00     0.020 A 
ATOM      3  C2  UNL d   1      -1.277   0.771  -0.464  0.00  0.00     0.034 A 
ATOM      4  C3  UNL d   1      -0.157  -0.052  -0.304  0.00  0.00     0.017 A 
ATOM      5  C4  UNL d   1       0.931   0.394   0.455  0.00  0.00     0.017 A 
ATOM      6  C5  UNL d   1       0.892   1.659   1.049  0.00  0.00     0.034 A 
ATOM      7 Cl   UNL d   1       2.348  -0.566   0.696  0.00  0.00    -0.070 Cl
ATOM      8 Cl1  UNL d   1      -0.183  -1.602  -1.069  0.00  0.00    -0.070 Cl
ENDROOT
TORSDOF 0
ENDMDL
