MODEL 1
REMARK minimizedAffinity -1.91943812
REMARK minimizedRMSD -1
REMARK  0 active torsions:
REMARK  status: ('A' for Active; 'I' for Inactive)
ROOT
ATOM      1  C   UNL d   1       0.920  -0.430   1.089  0.00  0.00    -0.002 A 
ATOM      2  C1  UNL d   1       1.019  -0.002  -0.228  0.00  0.00     0.010 A 
ATOM      3  C2  UNL d   1      -0.083  -0.072  -1.082  0.00  0.00     0.041 A 
ATOM      4  C3  UNL d   1      -1.299  -0.582  -0.586  0.00  0.00    -0.075 A 
ATOM      5  S   UNL d   1      -2.781  -0.761  -1.449  0.00  0.00     0.015 SA
ATOM      6  C4  UNL d   1      -3.580  -1.408  -0.090  0.00  0.00     0.022 A 
ATOM      7  C5  UNL d   1      -2.752  -1.493   1.004  0.00  0.00     0.026 A 
ATOM      8  C6  UNL d   1      -1.424  -1.018   0.736  0.00  0.00    -0.082 A 
ATOM      9  C7  UNL d   1      -0.288  -0.935   1.577  0.00  0.00     0.045 A 
ENDROOT
TORSDOF 0
ENDMDL
