MODEL 1
REMARK minimizedAffinity -2.05753088
REMARK minimizedRMSD -1
REMARK  0 active torsions:
REMARK  status: ('A' for Active; 'I' for Inactive)
ROOT
ATOM      1  C   UNL d   1       1.564  -1.189   2.881  0.00  0.00    -0.002 A 
ATOM      2  C1  UNL d   1       0.236  -1.335   3.255  0.00  0.00     0.010 A 
ATOM      3  C2  UNL d   1      -0.790  -0.890   2.419  0.00  0.00     0.041 A 
ATOM      4  C3  UNL d   1      -0.455  -0.292   1.188  0.00  0.00    -0.075 A 
ATOM      5  S   UNL d   1      -1.543   0.327   0.003  0.00  0.00     0.015 SA
ATOM      6  C4  UNL d   1      -0.270   0.798  -1.028  0.00  0.00     0.022 A 
ATOM      7  C5  UNL d   1       0.962   0.499  -0.496  0.00  0.00     0.026 A 
ATOM      8  C6  UNL d   1       0.876  -0.135   0.789  0.00  0.00    -0.082 A 
ATOM      9  C7  UNL d   1       1.893  -0.596   1.660  0.00  0.00     0.045 A 
ENDROOT
TORSDOF 0
ENDMDL
