MODEL 1
REMARK minimizedAffinity 7.83513832
REMARK minimizedRMSD -1
REMARK  0 active torsions:
REMARK  status: ('A' for Active; 'I' for Inactive)
ROOT
ATOM      1  C   UNL d   1       2.010   3.159  -5.522  0.00  0.00    -0.002 A 
ATOM      2  C1  UNL d   1       1.144   2.118  -5.826  0.00  0.00     0.010 A 
ATOM      3  C2  UNL d   1       0.050   1.842  -5.003  0.00  0.00     0.041 A 
ATOM      4  C3  UNL d   1      -0.163   2.638  -3.861  0.00  0.00    -0.075 A 
ATOM      5  S   UNL d   1      -1.437   2.486  -2.709  0.00  0.00     0.015 SA
ATOM      6  C4  UNL d   1      -0.862   3.799  -1.788  0.00  0.00     0.022 A 
ATOM      7  C5  UNL d   1       0.274   4.352  -2.331  0.00  0.00     0.026 A 
ATOM      8  C6  UNL d   1       0.695   3.693  -3.535  0.00  0.00    -0.082 A 
ATOM      9  C7  UNL d   1       1.796   3.947  -4.388  0.00  0.00     0.045 A 
ENDROOT
TORSDOF 0
ENDMDL
