MODEL 1
REMARK minimizedAffinity 1.40320885
REMARK minimizedRMSD -1
REMARK  0 active torsions:
REMARK  status: ('A' for Active; 'I' for Inactive)
ROOT
ATOM      1  C   UNL d   1      -0.445  -0.410   2.910  0.00  0.00    -0.002 A 
ATOM      2  C1  UNL d   1       0.834  -0.646   3.395  0.00  0.00     0.010 A 
ATOM      3  C2  UNL d   1       1.884  -0.930   2.520  0.00  0.00     0.041 A 
ATOM      4  C3  UNL d   1       1.625  -0.971   1.136  0.00  0.00    -0.075 A 
ATOM      5  S   UNL d   1       2.756  -1.298  -0.124  0.00  0.00     0.015 SA
ATOM      6  C4  UNL d   1       1.568  -1.131  -1.335  0.00  0.00     0.022 A 
ATOM      7  C5  UNL d   1       0.334  -0.833  -0.809  0.00  0.00     0.026 A 
ATOM      8  C6  UNL d   1       0.346  -0.736   0.623  0.00  0.00    -0.082 A 
ATOM      9  C7  UNL d   1      -0.698  -0.451   1.537  0.00  0.00     0.045 A 
ENDROOT
TORSDOF 0
ENDMDL
