MODEL 1
REMARK minimizedAffinity 3.50355887
REMARK minimizedRMSD -1
REMARK  0 active torsions:
REMARK  status: ('A' for Active; 'I' for Inactive)
ROOT
ATOM      1  C   UNL d   1       3.348  -1.104   2.004  0.00  0.00    -0.002 A 
ATOM      2  C1  UNL d   1       2.416  -1.408   2.986  0.00  0.00     0.010 A 
ATOM      3  C2  UNL d   1       1.048  -1.314   2.721  0.00  0.00     0.041 A 
ATOM      4  C3  UNL d   1       0.629  -0.906   1.439  0.00  0.00    -0.075 A 
ATOM      5  S   UNL d   1      -0.993  -0.720   0.886  0.00  0.00     0.015 SA
ATOM      6  C4  UNL d   1      -0.487  -0.232  -0.667  0.00  0.00     0.022 A 
ATOM      7  C5  UNL d   1       0.883  -0.207  -0.778  0.00  0.00     0.026 A 
ATOM      8  C6  UNL d   1       1.549  -0.595   0.433  0.00  0.00    -0.082 A 
ATOM      9  C7  UNL d   1       2.929  -0.700   0.734  0.00  0.00     0.045 A 
ENDROOT
TORSDOF 0
ENDMDL
