MODEL 1
REMARK minimizedAffinity 0.208509684
REMARK minimizedRMSD -1
REMARK  0 active torsions:
REMARK  status: ('A' for Active; 'I' for Inactive)
ROOT
ATOM      1  C   UNL d   1       2.529  -0.502   1.034  0.00  0.00    -0.002 A 
ATOM      2  C1  UNL d   1       1.574   0.230   1.725  0.00  0.00     0.010 A 
ATOM      3  C2  UNL d   1       0.304   0.433   1.181  0.00  0.00     0.041 A 
ATOM      4  C3  UNL d   1       0.007  -0.120  -0.080  0.00  0.00    -0.075 A 
ATOM      5  S   UNL d   1      -1.482  -0.003  -0.942  0.00  0.00     0.015 SA
ATOM      6  C4  UNL d   1      -0.885  -0.923  -2.247  0.00  0.00     0.022 A 
ATOM      7  C5  UNL d   1       0.417  -1.317  -2.047  0.00  0.00     0.026 A 
ATOM      8  C6  UNL d   1       0.952  -0.862  -0.795  0.00  0.00    -0.082 A 
ATOM      9  C7  UNL d   1       2.231  -1.049  -0.217  0.00  0.00     0.045 A 
ENDROOT
TORSDOF 0
ENDMDL
