MODEL 1
REMARK minimizedAffinity 6.68823051
REMARK minimizedRMSD -1
REMARK  0 active torsions:
REMARK  status: ('A' for Active; 'I' for Inactive)
ROOT
ATOM      1  C   UNL d   1       1.932   4.148  -4.020  0.00  0.00    -0.002 A 
ATOM      2  C1  UNL d   1       1.507   3.275  -5.012  0.00  0.00     0.010 A 
ATOM      3  C2  UNL d   1       0.297   2.590  -4.885  0.00  0.00     0.041 A 
ATOM      4  C3  UNL d   1      -0.488   2.801  -3.735  0.00  0.00    -0.075 A 
ATOM      5  S   UNL d   1      -2.007   2.073  -3.364  0.00  0.00     0.015 SA
ATOM      6  C4  UNL d   1      -2.128   2.904  -1.881  0.00  0.00     0.022 A 
ATOM      7  C5  UNL d   1      -1.045   3.721  -1.658  0.00  0.00     0.026 A 
ATOM      8  C6  UNL d   1      -0.082   3.676  -2.723  0.00  0.00    -0.082 A 
ATOM      9  C7  UNL d   1       1.150   4.354  -2.880  0.00  0.00     0.045 A 
ENDROOT
TORSDOF 0
ENDMDL
