MODEL 1
REMARK minimizedAffinity 1.93100786
REMARK minimizedRMSD -1
REMARK  0 active torsions:
REMARK  status: ('A' for Active; 'I' for Inactive)
ROOT
ATOM      1  C   UNL d   1      -1.242   0.439   2.153  0.00  0.00    -0.002 A 
ATOM      2  C1  UNL d   1      -0.880   1.642   1.563  0.00  0.00     0.010 A 
ATOM      3  C2  UNL d   1      -0.123   1.660   0.391  0.00  0.00     0.041 A 
ATOM      4  C3  UNL d   1       0.268   0.435  -0.186  0.00  0.00    -0.075 A 
ATOM      5  S   UNL d   1       1.198   0.212  -1.621  0.00  0.00     0.015 SA
ATOM      6  C4  UNL d   1       1.136  -1.486  -1.486  0.00  0.00     0.022 A 
ATOM      7  C5  UNL d   1       0.428  -1.890  -0.379  0.00  0.00     0.026 A 
ATOM      8  C6  UNL d   1      -0.085  -0.789   0.388  0.00  0.00    -0.082 A 
ATOM      9  C7  UNL d   1      -0.853  -0.773   1.577  0.00  0.00     0.045 A 
ENDROOT
TORSDOF 0
ENDMDL
