MODEL 1
REMARK minimizedAffinity -6.70859051
REMARK minimizedRMSD -1
REMARK  0 active torsions:
REMARK  status: ('A' for Active; 'I' for Inactive)
ROOT
ATOM      1  C   UNL d   1      -2.381   3.018   0.553  0.00  0.00    -0.002 A 
ATOM      2  C1  UNL d   1      -2.385   1.816   1.246  0.00  0.00     0.010 A 
ATOM      3  C2  UNL d   1      -1.419   0.842   0.987  0.00  0.00     0.041 A 
ATOM      4  C3  UNL d   1      -0.437   1.100   0.010  0.00  0.00    -0.075 A 
ATOM      5  S   UNL d   1       0.846   0.056  -0.475  0.00  0.00     0.015 SA
ATOM      6  C4  UNL d   1       1.431   1.181  -1.614  0.00  0.00     0.022 A 
ATOM      7  C5  UNL d   1       0.678   2.330  -1.637  0.00  0.00     0.026 A 
ATOM      8  C6  UNL d   1      -0.411   2.303  -0.701  0.00  0.00    -0.082 A 
ATOM      9  C7  UNL d   1      -1.405   3.270  -0.415  0.00  0.00     0.045 A 
ENDROOT
TORSDOF 0
ENDMDL
