MODEL 1
REMARK minimizedAffinity -6.54100466
REMARK minimizedRMSD -1
REMARK  0 active torsions:
REMARK  status: ('A' for Active; 'I' for Inactive)
ROOT
ATOM      1  C   UNL d   1      -1.969   2.712   1.399  0.00  0.00    -0.002 A 
ATOM      2  C1  UNL d   1      -1.653   3.155   0.122  0.00  0.00     0.010 A 
ATOM      3  C2  UNL d   1      -0.924   2.345  -0.751  0.00  0.00     0.041 A 
ATOM      4  C3  UNL d   1      -0.516   1.068  -0.316  0.00  0.00    -0.075 A 
ATOM      5  S   UNL d   1       0.384  -0.097  -1.213  0.00  0.00     0.015 SA
ATOM      6  C4  UNL d   1       0.369  -1.211   0.077  0.00  0.00     0.022 A 
ATOM      7  C5  UNL d   1      -0.301  -0.722   1.173  0.00  0.00     0.026 A 
ATOM      8  C6  UNL d   1      -0.823   0.599   0.964  0.00  0.00    -0.082 A 
ATOM      9  C7  UNL d   1      -1.563   1.445   1.826  0.00  0.00     0.045 A 
ENDROOT
TORSDOF 0
ENDMDL
