MODEL 1
REMARK minimizedAffinity -5.22459173
REMARK minimizedRMSD -1
REMARK  0 active torsions:
REMARK  status: ('A' for Active; 'I' for Inactive)
ROOT
ATOM      1  C   UNL d   1      -1.591  -2.402  -2.074  0.00  0.00    -0.002 A 
ATOM      2  C1  UNL d   1      -0.381  -2.787  -2.633  0.00  0.00     0.010 A 
ATOM      3  C2  UNL d   1       0.684  -1.887  -2.710  0.00  0.00     0.041 A 
ATOM      4  C3  UNL d   1       0.511  -0.582  -2.209  0.00  0.00    -0.075 A 
ATOM      5  S   UNL d   1       1.676   0.689  -2.195  0.00  0.00     0.015 SA
ATOM      6  C4  UNL d   1       0.596   1.772  -1.445  0.00  0.00     0.022 A 
ATOM      7  C5  UNL d   1      -0.629   1.195  -1.204  0.00  0.00     0.026 A 
ATOM      8  C6  UNL d   1      -0.697  -0.171  -1.639  0.00  0.00    -0.082 A 
ATOM      9  C7  UNL d   1      -1.759  -1.106  -1.577  0.00  0.00     0.045 A 
ENDROOT
TORSDOF 0
ENDMDL
