MODEL 1
REMARK minimizedAffinity -3.20016289
REMARK minimizedRMSD -1
REMARK  0 active torsions:
REMARK  status: ('A' for Active; 'I' for Inactive)
ROOT
ATOM      1  C   UNL d   1       1.890  -3.356  -2.331  0.00  0.00    -0.002 A 
ATOM      2  C1  UNL d   1       0.691  -3.356  -3.030  0.00  0.00     0.010 A 
ATOM      3  C2  UNL d   1      -0.297  -2.410  -2.747  0.00  0.00     0.041 A 
ATOM      4  C3  UNL d   1      -0.056  -1.454  -1.742  0.00  0.00    -0.075 A 
ATOM      5  S   UNL d   1      -1.119  -0.199  -1.225  0.00  0.00     0.015 SA
ATOM      6  C4  UNL d   1      -0.007   0.368  -0.064  0.00  0.00     0.022 A 
ATOM      7  C5  UNL d   1       1.152  -0.371  -0.057  0.00  0.00     0.026 A 
ATOM      8  C6  UNL d   1       1.144  -1.432  -1.024  0.00  0.00    -0.082 A 
ATOM      9  C7  UNL d   1       2.125  -2.405  -1.334  0.00  0.00     0.045 A 
ENDROOT
TORSDOF 0
ENDMDL
