MODEL 1
REMARK minimizedAffinity -4.88986778
REMARK minimizedRMSD -1
REMARK  0 active torsions:
REMARK  status: ('A' for Active; 'I' for Inactive)
ROOT
ATOM      1  C   UNL d   1      -2.102   2.706   0.748  0.00  0.00    -0.002 A 
ATOM      2  C1  UNL d   1      -1.548   3.397  -0.320  0.00  0.00     0.010 A 
ATOM      3  C2  UNL d   1      -0.469   2.864  -1.028  0.00  0.00     0.041 A 
ATOM      4  C3  UNL d   1       0.048   1.612  -0.642  0.00  0.00    -0.075 A 
ATOM      5  S   UNL d   1       1.364   0.764  -1.363  0.00  0.00     0.015 SA
ATOM      6  C4  UNL d   1       1.221  -0.537  -0.271  0.00  0.00     0.022 A 
ATOM      7  C5  UNL d   1       0.200  -0.345   0.629  0.00  0.00     0.026 A 
ATOM      8  C6  UNL d   1      -0.494   0.896   0.430  0.00  0.00    -0.082 A 
ATOM      9  C7  UNL d   1      -1.587   1.464   1.128  0.00  0.00     0.045 A 
ENDROOT
TORSDOF 0
ENDMDL
