MODEL 1
REMARK minimizedAffinity 0.235103279
REMARK minimizedRMSD -1
REMARK  0 active torsions:
REMARK  status: ('A' for Active; 'I' for Inactive)
ROOT
ATOM      1  C   UNL d   1      -0.922  -0.482   2.095  0.00  0.00    -0.002 A 
ATOM      2  C1  UNL d   1      -0.390  -1.125   0.986  0.00  0.00     0.010 A 
ATOM      3  C2  UNL d   1       0.081  -0.388  -0.104  0.00  0.00     0.041 A 
ATOM      4  C3  UNL d   1       0.009   1.018  -0.058  0.00  0.00    -0.075 A 
ATOM      5  S   UNL d   1       0.525   2.125  -1.274  0.00  0.00     0.015 SA
ATOM      6  C4  UNL d   1       0.053   3.477  -0.350  0.00  0.00     0.022 A 
ATOM      7  C5  UNL d   1      -0.488   3.110   0.860  0.00  0.00     0.026 A 
ATOM      8  C6  UNL d   1      -0.522   1.687   1.049  0.00  0.00    -0.082 A 
ATOM      9  C7  UNL d   1      -0.991   0.913   2.136  0.00  0.00     0.045 A 
ENDROOT
TORSDOF 0
ENDMDL
