MODEL 1
REMARK minimizedAffinity -5.12627172
REMARK minimizedRMSD -1
REMARK  0 active torsions:
REMARK  status: ('A' for Active; 'I' for Inactive)
ROOT
ATOM      1  C   UNL d   1      -1.710   4.148   0.620  0.00  0.00    -0.002 A 
ATOM      2  C1  UNL d   1      -0.801   3.934  -0.407  0.00  0.00     0.010 A 
ATOM      3  C2  UNL d   1      -0.242   2.671  -0.609  0.00  0.00     0.041 A 
ATOM      4  C3  UNL d   1      -0.617   1.615   0.245  0.00  0.00    -0.075 A 
ATOM      5  S   UNL d   1      -0.063  -0.016   0.186  0.00  0.00     0.015 SA
ATOM      6  C4  UNL d   1      -1.020  -0.468   1.522  0.00  0.00     0.022 A 
ATOM      7  C5  UNL d   1      -1.750   0.588   2.014  0.00  0.00     0.026 A 
ATOM      8  C6  UNL d   1      -1.531   1.806   1.285  0.00  0.00    -0.082 A 
ATOM      9  C7  UNL d   1      -2.079   3.099   1.465  0.00  0.00     0.045 A 
ENDROOT
TORSDOF 0
ENDMDL
