MODEL 1
REMARK minimizedAffinity -1.43891716
REMARK minimizedRMSD -1
REMARK  0 active torsions:
REMARK  status: ('A' for Active; 'I' for Inactive)
ROOT
ATOM      1  C   UNL d   1      -1.466   2.945   1.286  0.00  0.00    -0.002 A 
ATOM      2  C1  UNL d   1      -0.779   3.398   0.168  0.00  0.00     0.010 A 
ATOM      3  C2  UNL d   1       0.019   2.526  -0.576  0.00  0.00     0.041 A 
ATOM      4  C3  UNL d   1       0.114   1.179  -0.175  0.00  0.00    -0.075 A 
ATOM      5  S   UNL d   1       1.030  -0.069  -0.935  0.00  0.00     0.015 SA
ATOM      6  C4  UNL d   1       0.531  -1.232   0.207  0.00  0.00     0.022 A 
ATOM      7  C5  UNL d   1      -0.314  -0.699   1.151  0.00  0.00     0.026 A 
ATOM      8  C6  UNL d   1      -0.569   0.700   0.946  0.00  0.00    -0.082 A 
ATOM      9  C7  UNL d   1      -1.368   1.608   1.681  0.00  0.00     0.045 A 
ENDROOT
TORSDOF 0
ENDMDL
