MODEL 1
REMARK minimizedAffinity -5.04605722
REMARK minimizedRMSD -1
REMARK  0 active torsions:
REMARK  status: ('A' for Active; 'I' for Inactive)
ROOT
ATOM      1  C   UNL d   1      -1.244   3.831  -0.172  0.00  0.00    -0.002 A 
ATOM      2  C1  UNL d   1      -1.864   3.370   0.981  0.00  0.00     0.010 A 
ATOM      3  C2  UNL d   1      -1.576   2.099   1.483  0.00  0.00     0.041 A 
ATOM      4  C3  UNL d   1      -0.644   1.292   0.801  0.00  0.00    -0.075 A 
ATOM      5  S   UNL d   1      -0.135  -0.298   1.232  0.00  0.00     0.015 SA
ATOM      6  C4  UNL d   1       0.918  -0.403  -0.104  0.00  0.00     0.022 A 
ATOM      7  C5  UNL d   1       0.894   0.738  -0.871  0.00  0.00     0.026 A 
ATOM      8  C6  UNL d   1      -0.006   1.734  -0.361  0.00  0.00    -0.082 A 
ATOM      9  C7  UNL d   1      -0.320   3.027  -0.846  0.00  0.00     0.045 A 
ENDROOT
TORSDOF 0
ENDMDL
