MODEL 1
REMARK minimizedAffinity -3.60012555
REMARK minimizedRMSD -1
REMARK  0 active torsions:
REMARK  status: ('A' for Active; 'I' for Inactive)
ROOT
ATOM      1  C   UNL d   1      -0.866   4.457   0.019  0.00  0.00    -0.002 A 
ATOM      2  C1  UNL d   1       0.026   3.976  -0.929  0.00  0.00     0.010 A 
ATOM      3  C2  UNL d   1       0.321   2.613  -1.000  0.00  0.00     0.041 A 
ATOM      4  C3  UNL d   1      -0.303   1.733  -0.094  0.00  0.00    -0.075 A 
ATOM      5  S   UNL d   1      -0.095   0.024   0.005  0.00  0.00     0.015 SA
ATOM      6  C4  UNL d   1      -1.186  -0.108   1.308  0.00  0.00     0.022 A 
ATOM      7  C5  UNL d   1      -1.705   1.112   1.671  0.00  0.00     0.026 A 
ATOM      8  C6  UNL d   1      -1.205   2.193   0.869  0.00  0.00    -0.082 A 
ATOM      9  C7  UNL d   1      -1.483   3.580   0.916  0.00  0.00     0.045 A 
ENDROOT
TORSDOF 0
ENDMDL
