MODEL 1
REMARK minimizedAffinity -3.52517152
REMARK minimizedRMSD -1
REMARK  0 active torsions:
REMARK  status: ('A' for Active; 'I' for Inactive)
ROOT
ATOM      1  C   UNL d   1      -1.934   2.970   1.156  0.00  0.00    -0.002 A 
ATOM      2  C1  UNL d   1      -1.317   3.677   0.134  0.00  0.00     0.010 A 
ATOM      3  C2  UNL d   1      -0.368   3.061  -0.683  0.00  0.00     0.041 A 
ATOM      4  C3  UNL d   1      -0.047   1.708  -0.456  0.00  0.00    -0.075 A 
ATOM      5  S   UNL d   1       1.085   0.746  -1.331  0.00  0.00     0.015 SA
ATOM      6  C4  UNL d   1       0.775  -0.627  -0.370  0.00  0.00     0.022 A 
ATOM      7  C5  UNL d   1      -0.166  -0.375   0.600  0.00  0.00     0.026 A 
ATOM      8  C6  UNL d   1      -0.656   0.975   0.567  0.00  0.00    -0.082 A 
ATOM      9  C7  UNL d   1      -1.613   1.628   1.379  0.00  0.00     0.045 A 
ENDROOT
TORSDOF 0
ENDMDL
