MODEL 1
REMARK minimizedAffinity -3.8579793
REMARK minimizedRMSD -1
REMARK  0 active torsions:
REMARK  status: ('A' for Active; 'I' for Inactive)
ROOT
ATOM      1  C   UNL d   1      -0.002   4.389   0.006  0.00  0.00    -0.002 A 
ATOM      2  C1  UNL d   1       0.559   3.704  -1.063  0.00  0.00     0.010 A 
ATOM      3  C2  UNL d   1       0.557   2.308  -1.092  0.00  0.00     0.041 A 
ATOM      4  C3  UNL d   1      -0.025   1.605  -0.019  0.00  0.00    -0.075 A 
ATOM      5  S   UNL d   1      -0.143  -0.106   0.160  0.00  0.00     0.015 SA
ATOM      6  C4  UNL d   1      -0.941   0.032   1.659  0.00  0.00     0.022 A 
ATOM      7  C5  UNL d   1      -1.121   1.343   2.029  0.00  0.00     0.026 A 
ATOM      8  C6  UNL d   1      -0.597   2.272   1.068  0.00  0.00    -0.082 A 
ATOM      9  C7  UNL d   1      -0.578   3.687   1.068  0.00  0.00     0.045 A 
ENDROOT
TORSDOF 0
ENDMDL
