MODEL 1
REMARK minimizedAffinity -1.91419888
REMARK minimizedRMSD -1
REMARK  0 active torsions:
REMARK  status: ('A' for Active; 'I' for Inactive)
ROOT
ATOM      1  O1  BZF d   1       0.765   2.243  -0.199  0.00  0.00    -0.204 OA
ATOM      2  C2  BZF d   1       1.897   2.884   0.265  0.00  0.00     0.174 A 
ATOM      3  C3  BZF d   1       2.742   2.006   0.842  0.00  0.00    -0.012 A 
ATOM      4  C3A BZF d   1       2.140   0.722   0.650  0.00  0.00    -0.107 A 
ATOM      5  C4  BZF d   1       2.510  -0.548   0.986  0.00  0.00     0.055 A 
ATOM      6  C5  BZF d   1       1.662  -1.576   0.718  0.00  0.00    -0.016 A 
ATOM      7  C6  BZF d   1       0.437  -1.369   0.119  0.00  0.00     0.022 A 
ATOM      8  C7  BZF d   1       0.029  -0.127  -0.238  0.00  0.00     0.029 A 
ATOM      9  C7A BZF d   1       0.897   0.910   0.002  0.00  0.00     0.058 A 
ENDROOT
TORSDOF 0
ENDMDL
