MODEL 1
REMARK minimizedAffinity -2.50081372
REMARK minimizedRMSD -1
REMARK  0 active torsions:
REMARK  status: ('A' for Active; 'I' for Inactive)
ROOT
ATOM      1  O1  BZF d   1      -0.771   1.344  -1.226  0.00  0.00    -0.204 OA
ATOM      2  C2  BZF d   1      -1.232   0.151  -1.749  0.00  0.00     0.174 A 
ATOM      3  C3  BZF d   1      -0.482  -0.882  -1.314  0.00  0.00    -0.012 A 
ATOM      4  C3A BZF d   1       0.451  -0.309  -0.394  0.00  0.00    -0.107 A 
ATOM      5  C4  BZF d   1       1.449  -0.832   0.379  0.00  0.00     0.055 A 
ATOM      6  C5  BZF d   1       2.225   0.009   1.112  0.00  0.00    -0.016 A 
ATOM      7  C6  BZF d   1       2.035   1.375   1.093  0.00  0.00     0.022 A 
ATOM      8  C7  BZF d   1       1.055   1.939   0.346  0.00  0.00     0.029 A 
ATOM      9  C7A BZF d   1       0.248   1.090  -0.371  0.00  0.00     0.058 A 
ENDROOT
TORSDOF 0
ENDMDL
