MODEL 1
REMARK minimizedAffinity -2.45080328
REMARK minimizedRMSD -1
REMARK  0 active torsions:
REMARK  status: ('A' for Active; 'I' for Inactive)
ROOT
ATOM      1  O1  BZF d   1      -1.818   0.979   0.060  0.00  0.00    -0.204 OA
ATOM      2  C2  BZF d   1      -1.547   0.396  -1.162  0.00  0.00     0.174 A 
ATOM      3  C3  BZF d   1      -2.636  -0.238  -1.642  0.00  0.00    -0.012 A 
ATOM      4  C3A BZF d   1      -3.678   0.039  -0.701  0.00  0.00    -0.107 A 
ATOM      5  C4  BZF d   1      -4.998  -0.303  -0.635  0.00  0.00     0.055 A 
ATOM      6  C5  BZF d   1      -5.722   0.068   0.454  0.00  0.00    -0.016 A 
ATOM      7  C6  BZF d   1      -5.158   0.775   1.495  0.00  0.00     0.022 A 
ATOM      8  C7  BZF d   1      -3.853   1.141   1.472  0.00  0.00     0.029 A 
ATOM      9  C7A BZF d   1      -3.127   0.797   0.358  0.00  0.00     0.058 A 
ENDROOT
TORSDOF 0
ENDMDL
