MODEL 1
REMARK minimizedAffinity -0.72585094
REMARK minimizedRMSD -1
REMARK  0 active torsions:
REMARK  status: ('A' for Active; 'I' for Inactive)
ROOT
ATOM      1  O1  BZF d   1      -3.972  -0.523  -0.611  0.00  0.00    -0.204 OA
ATOM      2  C2  BZF d   1      -5.340  -0.635  -0.769  0.00  0.00     0.174 A 
ATOM      3  C3  BZF d   1      -5.989  -0.099   0.284  0.00  0.00    -0.012 A 
ATOM      4  C3A BZF d   1      -4.965   0.461   1.112  0.00  0.00    -0.107 A 
ATOM      5  C4  BZF d   1      -4.983   1.144   2.295  0.00  0.00     0.055 A 
ATOM      6  C5  BZF d   1      -3.804   1.487   2.877  0.00  0.00    -0.016 A 
ATOM      7  C6  BZF d   1      -2.591   1.159   2.308  0.00  0.00     0.022 A 
ATOM      8  C7  BZF d   1      -2.523   0.487   1.133  0.00  0.00     0.029 A 
ATOM      9  C7A BZF d   1      -3.713   0.167   0.526  0.00  0.00     0.058 A 
ENDROOT
TORSDOF 0
ENDMDL
