MODEL 1
REMARK minimizedAffinity -1.13712931
REMARK minimizedRMSD -1
REMARK  0 active torsions:
REMARK  status: ('A' for Active; 'I' for Inactive)
ROOT
ATOM      1  O1  BZF d   1       2.352  -2.130  -0.402  0.00  0.00    -0.204 OA
ATOM      2  C2  BZF d   1       2.998  -1.741   0.755  0.00  0.00     0.174 A 
ATOM      3  C3  BZF d   1       2.280  -0.809   1.414  0.00  0.00    -0.012 A 
ATOM      4  C3A BZF d   1       1.068  -0.669   0.665  0.00  0.00    -0.107 A 
ATOM      5  C4  BZF d   1      -0.051   0.097   0.825  0.00  0.00     0.055 A 
ATOM      6  C5  BZF d   1      -1.023   0.052  -0.124  0.00  0.00    -0.016 A 
ATOM      7  C6  BZF d   1      -0.906  -0.741  -1.246  0.00  0.00     0.022 A 
ATOM      8  C7  BZF d   1       0.183  -1.522  -1.446  0.00  0.00     0.029 A 
ATOM      9  C7A BZF d   1       1.152  -1.504  -0.472  0.00  0.00     0.058 A 
ENDROOT
TORSDOF 0
ENDMDL
