MODEL 1
REMARK minimizedAffinity -0.53619802
REMARK minimizedRMSD -1
REMARK  0 active torsions:
REMARK  status: ('A' for Active; 'I' for Inactive)
ROOT
ATOM      1  O1  BZF d   1      -0.781  -0.218  -0.923  0.00  0.00    -0.204 OA
ATOM      2  C2  BZF d   1      -1.152   1.105  -0.786  0.00  0.00     0.174 A 
ATOM      3  C3  BZF d   1      -0.331   1.746   0.071  0.00  0.00    -0.012 A 
ATOM      4  C3A BZF d   1       0.668   0.784   0.425  0.00  0.00    -0.107 A 
ATOM      5  C4  BZF d   1       1.769   0.828   1.232  0.00  0.00     0.055 A 
ATOM      6  C5  BZF d   1       2.494  -0.306   1.420  0.00  0.00    -0.016 A 
ATOM      7  C6  BZF d   1       2.145  -1.499   0.823  0.00  0.00     0.022 A 
ATOM      8  C7  BZF d   1       1.065  -1.590   0.010  0.00  0.00     0.029 A 
ATOM      9  C7A BZF d   1       0.349  -0.439  -0.209  0.00  0.00     0.058 A 
ENDROOT
TORSDOF 0
ENDMDL
