MODEL 1
REMARK minimizedAffinity 4.56513214
REMARK minimizedRMSD -1
REMARK  0 active torsions:
REMARK  status: ('A' for Active; 'I' for Inactive)
ROOT
ATOM      1  O1  BZF d   1       0.052  -1.207  -0.671  0.00  0.00    -0.204 OA
ATOM      2  C2  BZF d   1       0.056  -0.068   0.110  0.00  0.00     0.174 A 
ATOM      3  C3  BZF d   1      -0.529   0.959  -0.539  0.00  0.00    -0.012 A 
ATOM      4  C3A BZF d   1      -1.006   0.404  -1.769  0.00  0.00    -0.107 A 
ATOM      5  C4  BZF d   1      -1.687   0.924  -2.832  0.00  0.00     0.055 A 
ATOM      6  C5  BZF d   1      -1.936   0.133  -3.909  0.00  0.00    -0.016 A 
ATOM      7  C6  BZF d   1      -1.514  -1.180  -3.958  0.00  0.00     0.022 A 
ATOM      8  C7  BZF d   1      -0.839  -1.741  -2.925  0.00  0.00     0.029 A 
ATOM      9  C7A BZF d   1      -0.615  -0.954  -1.822  0.00  0.00     0.058 A 
ENDROOT
TORSDOF 0
ENDMDL
