MODEL 1
REMARK minimizedAffinity -3.6106863
REMARK minimizedRMSD -1
REMARK  0 active torsions:
REMARK  status: ('A' for Active; 'I' for Inactive)
ROOT
ATOM      1  O1  BZF d   1      -0.303   1.338  -0.412  0.00  0.00    -0.204 OA
ATOM      2  C2  BZF d   1      -1.122   0.298  -0.018  0.00  0.00     0.174 A 
ATOM      3  C3  BZF d   1      -0.507  -0.473   0.902  0.00  0.00    -0.012 A 
ATOM      4  C3A BZF d   1       0.742   0.175   1.162  0.00  0.00    -0.107 A 
ATOM      5  C4  BZF d   1       1.788  -0.102   1.996  0.00  0.00     0.055 A 
ATOM      6  C5  BZF d   1       2.891   0.691   1.957  0.00  0.00    -0.016 A 
ATOM      7  C6  BZF d   1       2.984   1.764   1.096  0.00  0.00     0.022 A 
ATOM      8  C7  BZF d   1       1.970   2.081   0.254  0.00  0.00     0.029 A 
ATOM      9  C7A BZF d   1       0.841   1.302   0.314  0.00  0.00     0.058 A 
ENDROOT
TORSDOF 0
ENDMDL
