MODEL 1
REMARK minimizedAffinity -1.24344409
REMARK minimizedRMSD -1
REMARK  1 active torsions:
REMARK  status: ('A' for Active; 'I' for Inactive)
REMARK    1  A    between atoms: C3_4  and  O_7 
ROOT
ATOM      1  C   UNL d   1      -1.590  -1.023  -0.755  0.00  0.00    -0.033 A 
ATOM      2  C1  UNL d   1      -2.261  -2.091  -0.156  0.00  0.00     0.039 A 
ATOM      3  C2  UNL d   1      -1.777  -2.644   1.031  0.00  0.00    -0.080 A 
ATOM      4  C3  UNL d   1      -0.623  -2.120   1.608  0.00  0.00     0.150 A 
ATOM      5  C4  UNL d   1       0.048  -1.054   1.019  0.00  0.00    -0.007 A 
ATOM      6  C5  UNL d   1      -0.436  -0.504  -0.167  0.00  0.00     0.039 A 
ENDROOT
BRANCH   4   7
ATOM      7  O   UNL d   1      -0.110  -2.630   2.764  0.00  0.00    -0.526 OA
ATOM      8  H5  UNL d   1      -0.662  -3.381   3.041  0.00  0.00     0.418 HD
ENDBRANCH   4   7
TORSDOF 1
ENDMDL
