MODEL 1
REMARK minimizedAffinity -4.28249788
REMARK minimizedRMSD -1
REMARK  1 active torsions:
REMARK  status: ('A' for Active; 'I' for Inactive)
REMARK    1  A    between atoms: C3_4  and  O_7 
ROOT
ATOM      1  C   UNL d   1      -1.289  -2.506   1.505  0.00  0.00    -0.033 A 
ATOM      2  C1  UNL d   1       0.056  -2.740   1.212  0.00  0.00     0.039 A 
ATOM      3  C2  UNL d   1       0.830  -1.735   0.628  0.00  0.00    -0.080 A 
ATOM      4  C3  UNL d   1       0.248  -0.502   0.344  0.00  0.00     0.150 A 
ATOM      5  C4  UNL d   1      -1.091  -0.262   0.637  0.00  0.00    -0.007 A 
ATOM      6  C5  UNL d   1      -1.862  -1.267   1.218  0.00  0.00     0.039 A 
ENDROOT
BRANCH   4   7
ATOM      7  O   UNL d   1       0.962   0.508  -0.230  0.00  0.00    -0.526 OA
ATOM      8  H5  UNL d   1       1.863   0.188  -0.401  0.00  0.00     0.418 HD
ENDBRANCH   4   7
TORSDOF 1
ENDMDL
