MODEL 1
REMARK minimizedAffinity -4.23356915
REMARK minimizedRMSD -1
REMARK  1 active torsions:
REMARK  status: ('A' for Active; 'I' for Inactive)
REMARK    1  A    between atoms: C3_4  and  O_7 
ROOT
ATOM      1  C   UNL d   1       1.056  -0.222   0.116  0.00  0.00    -0.033 A 
ATOM      2  C1  UNL d   1       1.394  -1.476   0.628  0.00  0.00     0.039 A 
ATOM      3  C2  UNL d   1       0.391  -2.375   0.996  0.00  0.00    -0.080 A 
ATOM      4  C3  UNL d   1      -0.944  -2.009   0.846  0.00  0.00     0.150 A 
ATOM      5  C4  UNL d   1      -1.288  -0.763   0.333  0.00  0.00    -0.007 A 
ATOM      6  C5  UNL d   1      -0.285   0.134  -0.033  0.00  0.00     0.039 A 
ENDROOT
BRANCH   4   7
ATOM      7  O   UNL d   1      -1.957  -2.851   1.196  0.00  0.00    -0.526 OA
ATOM      8  H5  UNL d   1      -1.570  -3.664   1.562  0.00  0.00     0.418 HD
ENDBRANCH   4   7
TORSDOF 1
ENDMDL
