MODEL 1
REMARK minimizedAffinity -2.63512683
REMARK minimizedRMSD -1
REMARK  1 active torsions:
REMARK  status: ('A' for Active; 'I' for Inactive)
REMARK    1  A    between atoms: C3_4  and  O_7 
ROOT
ATOM      1  C   UNL d   1      -0.918   1.302   0.382  0.00  0.00    -0.033 A 
ATOM      2  C1  UNL d   1      -0.125   0.254  -0.090  0.00  0.00     0.039 A 
ATOM      3  C2  UNL d   1      -0.544  -1.068   0.072  0.00  0.00    -0.080 A 
ATOM      4  C3  UNL d   1      -1.756  -1.328   0.706  0.00  0.00     0.150 A 
ATOM      5  C4  UNL d   1      -2.553  -0.288   1.175  0.00  0.00    -0.007 A 
ATOM      6  C5  UNL d   1      -2.132   1.031   1.013  0.00  0.00     0.039 A 
ENDROOT
BRANCH   4   7
ATOM      7  O   UNL d   1      -2.205  -2.601   0.891  0.00  0.00    -0.526 OA
ATOM      8  H5  UNL d   1      -1.538  -3.216   0.542  0.00  0.00     0.418 HD
ENDBRANCH   4   7
TORSDOF 1
ENDMDL
