MODEL 1
REMARK minimizedAffinity -2.78832507
REMARK minimizedRMSD -1
REMARK  1 active torsions:
REMARK  status: ('A' for Active; 'I' for Inactive)
REMARK    1  A    between atoms: C3_4  and  O_7 
ROOT
ATOM      1  C   UNL d   1       0.748  -0.852  -0.187  0.00  0.00    -0.033 A 
ATOM      2  C1  UNL d   1       1.036   0.507  -0.333  0.00  0.00     0.039 A 
ATOM      3  C2  UNL d   1       0.117   1.467   0.092  0.00  0.00    -0.080 A 
ATOM      4  C3  UNL d   1      -1.086   1.057   0.660  0.00  0.00     0.150 A 
ATOM      5  C4  UNL d   1      -1.379  -0.294   0.813  0.00  0.00    -0.007 A 
ATOM      6  C5  UNL d   1      -0.459  -1.252   0.387  0.00  0.00     0.039 A 
ENDROOT
BRANCH   4   7
ATOM      7  O   UNL d   1      -2.017   1.958   1.085  0.00  0.00    -0.526 OA
ATOM      8  H5  UNL d   1      -1.691   2.853   0.891  0.00  0.00     0.418 HD
ENDBRANCH   4   7
TORSDOF 1
ENDMDL
