MODEL 1
REMARK minimizedAffinity -3.13648915
REMARK minimizedRMSD -1
REMARK  1 active torsions:
REMARK  status: ('A' for Active; 'I' for Inactive)
REMARK    1  A    between atoms: C3_4  and  O_7 
ROOT
ATOM      1  C   UNL d   1      -0.151   0.503   0.367  0.00  0.00    -0.033 A 
ATOM      2  C1  UNL d   1      -1.524   0.468   0.116  0.00  0.00     0.039 A 
ATOM      3  C2  UNL d   1      -2.258  -0.686   0.397  0.00  0.00    -0.080 A 
ATOM      4  C3  UNL d   1      -1.608  -1.795   0.930  0.00  0.00     0.150 A 
ATOM      5  C4  UNL d   1      -0.241  -1.766   1.187  0.00  0.00    -0.007 A 
ATOM      6  C5  UNL d   1       0.490  -0.613   0.904  0.00  0.00     0.039 A 
ENDROOT
BRANCH   4   7
ATOM      7  O   UNL d   1      -2.281  -2.946   1.217  0.00  0.00    -0.526 OA
ATOM      8  H5  UNL d   1      -3.212  -2.830   0.961  0.00  0.00     0.418 HD
ENDBRANCH   4   7
TORSDOF 1
ENDMDL
