MODEL 1
REMARK minimizedAffinity -4.78010082
REMARK minimizedRMSD -1
REMARK  1 active torsions:
REMARK  status: ('A' for Active; 'I' for Inactive)
REMARK    1  A    between atoms: C3_4  and  O_7 
ROOT
ATOM      1  C   UNL d   1      -0.730  -2.649   0.844  0.00  0.00    -0.033 A 
ATOM      2  C1  UNL d   1       0.665  -2.608   0.808  0.00  0.00     0.039 A 
ATOM      3  C2  UNL d   1       1.323  -1.429   0.451  0.00  0.00    -0.080 A 
ATOM      4  C3  UNL d   1       0.574  -0.299   0.134  0.00  0.00     0.150 A 
ATOM      5  C4  UNL d   1      -0.816  -0.331   0.172  0.00  0.00    -0.007 A 
ATOM      6  C5  UNL d   1      -1.470  -1.510   0.527  0.00  0.00     0.039 A 
ENDROOT
BRANCH   4   7
ATOM      7  O   UNL d   1       1.171   0.873  -0.224  0.00  0.00    -0.526 OA
ATOM      8  H5  UNL d   1       2.133   0.738  -0.234  0.00  0.00     0.418 HD
ENDBRANCH   4   7
TORSDOF 1
ENDMDL
