MODEL 1
REMARK minimizedAffinity -3.85795212
REMARK minimizedRMSD -1
REMARK  1 active torsions:
REMARK  status: ('A' for Active; 'I' for Inactive)
REMARK    1  A    between atoms: C3_4  and  O_7 
ROOT
ATOM      1  C   UNL d   1      -0.535   1.632  -0.106  0.00  0.00    -0.033 A 
ATOM      2  C1  UNL d   1       0.272   0.562  -0.495  0.00  0.00     0.039 A 
ATOM      3  C2  UNL d   1      -0.139  -0.750  -0.251  0.00  0.00    -0.080 A 
ATOM      4  C3  UNL d   1      -1.359  -0.977   0.381  0.00  0.00     0.150 A 
ATOM      5  C4  UNL d   1      -2.170   0.084   0.768  0.00  0.00    -0.007 A 
ATOM      6  C5  UNL d   1      -1.757   1.393   0.524  0.00  0.00     0.039 A 
ENDROOT
BRANCH   4   7
ATOM      7  O   UNL d   1      -1.800  -2.240   0.644  0.00  0.00    -0.526 OA
ATOM      8  H5  UNL d   1      -1.123  -2.871   0.347  0.00  0.00     0.418 HD
ENDBRANCH   4   7
TORSDOF 1
ENDMDL
