MODEL 1
REMARK minimizedAffinity -3.86823678
REMARK minimizedRMSD -1
REMARK  1 active torsions:
REMARK  status: ('A' for Active; 'I' for Inactive)
REMARK    1  A    between atoms: C3_4  and  O_7 
ROOT
ATOM      1  C   UNL d   1       0.228  -0.113  -0.378  0.00  0.00    -0.033 A 
ATOM      2  C1  UNL d   1       0.826   1.147  -0.435  0.00  0.00     0.039 A 
ATOM      3  C2  UNL d   1       0.148   2.266   0.052  0.00  0.00    -0.080 A 
ATOM      4  C3  UNL d   1      -1.125   2.112   0.594  0.00  0.00     0.150 A 
ATOM      5  C4  UNL d   1      -1.725   0.858   0.658  0.00  0.00    -0.007 A 
ATOM      6  C5  UNL d   1      -1.047  -0.258   0.169  0.00  0.00     0.039 A 
ENDROOT
BRANCH   4   7
ATOM      7  O   UNL d   1      -1.827   3.175   1.078  0.00  0.00    -0.526 OA
ATOM      8  H5  UNL d   1      -1.300   3.980   0.942  0.00  0.00     0.418 HD
ENDBRANCH   4   7
TORSDOF 1
ENDMDL
