MODEL 1
REMARK minimizedAffinity -2.31500483
REMARK minimizedRMSD -1
REMARK  1 active torsions:
REMARK  status: ('A' for Active; 'I' for Inactive)
REMARK    1  A    between atoms: C3_4  and  O_7 
ROOT
ATOM      1  C   UNL d   1      -0.977  -1.401  -0.048  0.00  0.00    -0.033 A 
ATOM      2  C1  UNL d   1       0.358  -1.168   0.288  0.00  0.00     0.039 A 
ATOM      3  C2  UNL d   1       0.926  -1.814   1.388  0.00  0.00    -0.080 A 
ATOM      4  C3  UNL d   1       0.149  -2.690   2.142  0.00  0.00     0.150 A 
ATOM      5  C4  UNL d   1      -1.181  -2.929   1.810  0.00  0.00    -0.007 A 
ATOM      6  C5  UNL d   1      -1.746  -2.283   0.712  0.00  0.00     0.039 A 
ENDROOT
BRANCH   4   7
ATOM      7  O   UNL d   1       0.657  -3.340   3.227  0.00  0.00    -0.526 OA
ATOM      8  H5  UNL d   1       1.578  -3.055   3.353  0.00  0.00     0.418 HD
ENDBRANCH   4   7
TORSDOF 1
ENDMDL
