MODEL 1
REMARK minimizedAffinity -4.11583042
REMARK minimizedRMSD -1
REMARK  1 active torsions:
REMARK  status: ('A' for Active; 'I' for Inactive)
REMARK    1  A    between atoms: C3_4  and  O_7 
ROOT
ATOM      1  C   UNL d   1       0.755   0.391   0.032  0.00  0.00    -0.033 A 
ATOM      2  C1  UNL d   1       1.387  -0.852   0.108  0.00  0.00     0.039 A 
ATOM      3  C2  UNL d   1       0.638  -2.004   0.354  0.00  0.00    -0.080 A 
ATOM      4  C3  UNL d   1      -0.740  -1.901   0.522  0.00  0.00     0.150 A 
ATOM      5  C4  UNL d   1      -1.377  -0.666   0.443  0.00  0.00    -0.007 A 
ATOM      6  C5  UNL d   1      -0.627   0.483   0.198  0.00  0.00     0.039 A 
ENDROOT
BRANCH   4   7
ATOM      7  O   UNL d   1      -1.512  -2.997   0.769  0.00  0.00    -0.526 OA
ATOM      8  H5  UNL d   1      -0.933  -3.775   0.824  0.00  0.00     0.418 HD
ENDBRANCH   4   7
TORSDOF 1
ENDMDL
