MODEL 1
REMARK minimizedAffinity -3.41379356
REMARK minimizedRMSD -1
REMARK  1 active torsions:
REMARK  status: ('A' for Active; 'I' for Inactive)
REMARK    1  A    between atoms: C3_4  and  O_7 
ROOT
ATOM      1  C   UNL d   1      -1.184  -2.661   2.192  0.00  0.00    -0.033 A 
ATOM      2  C1  UNL d   1      -1.893  -1.527   1.792  0.00  0.00     0.039 A 
ATOM      3  C2  UNL d   1      -1.312  -0.611   0.913  0.00  0.00    -0.080 A 
ATOM      4  C3  UNL d   1      -0.022  -0.841   0.441  0.00  0.00     0.150 A 
ATOM      5  C4  UNL d   1       0.689  -1.971   0.832  0.00  0.00    -0.007 A 
ATOM      6  C5  UNL d   1       0.107  -2.884   1.711  0.00  0.00     0.039 A 
ENDROOT
BRANCH   4   7
ATOM      7  O   UNL d   1       0.589   0.027  -0.414  0.00  0.00    -0.526 OA
ATOM      8  H5  UNL d   1      -0.011   0.775  -0.574  0.00  0.00     0.418 HD
ENDBRANCH   4   7
TORSDOF 1
ENDMDL
