MODEL 1
REMARK minimizedAffinity -3.50390625
REMARK minimizedRMSD -1
REMARK  1 active torsions:
REMARK  status: ('A' for Active; 'I' for Inactive)
REMARK    1  A    between atoms: C3_4  and  O_7 
ROOT
ATOM      1  C   UNL d   1      -0.670   0.926   0.030  0.00  0.00    -0.033 A 
ATOM      2  C1  UNL d   1       0.290  -0.040  -0.282  0.00  0.00     0.039 A 
ATOM      3  C2  UNL d   1       0.102  -1.366   0.113  0.00  0.00    -0.080 A 
ATOM      4  C3  UNL d   1      -1.048  -1.713   0.816  0.00  0.00     0.150 A 
ATOM      5  C4  UNL d   1      -2.010  -0.758   1.126  0.00  0.00    -0.007 A 
ATOM      6  C5  UNL d   1      -1.820   0.566   0.733  0.00  0.00     0.039 A 
ENDROOT
BRANCH   4   7
ATOM      7  O   UNL d   1      -1.273  -2.994   1.226  0.00  0.00    -0.526 OA
ATOM      8  H5  UNL d   1      -0.512  -3.539   0.966  0.00  0.00     0.418 HD
ENDBRANCH   4   7
TORSDOF 1
ENDMDL
