MODEL 1
REMARK minimizedAffinity -0.843353868
REMARK minimizedRMSD -1
REMARK  1 active torsions:
REMARK  status: ('A' for Active; 'I' for Inactive)
REMARK    1  A    between atoms: C3_4  and  O_7 
ROOT
ATOM      1  C   UNL d   1       0.475  -2.628   0.943  0.00  0.00    -0.033 A 
ATOM      2  C1  UNL d   1      -0.630  -1.791   1.107  0.00  0.00     0.039 A 
ATOM      3  C2  UNL d   1      -0.581  -0.470   0.656  0.00  0.00    -0.080 A 
ATOM      4  C3  UNL d   1       0.578   0.000   0.044  0.00  0.00     0.150 A 
ATOM      5  C4  UNL d   1       1.681  -0.829  -0.126  0.00  0.00    -0.007 A 
ATOM      6  C5  UNL d   1       1.630  -2.147   0.325  0.00  0.00     0.039 A 
ENDROOT
BRANCH   4   7
ATOM      7  O   UNL d   1       0.675   1.283  -0.408  0.00  0.00    -0.526 OA
ATOM      8  H5  UNL d   1      -0.153   1.747  -0.197  0.00  0.00     0.418 HD
ENDBRANCH   4   7
TORSDOF 1
ENDMDL
