MODEL 1
REMARK minimizedAffinity -3.99754715
REMARK minimizedRMSD -1
REMARK  1 active torsions:
REMARK  status: ('A' for Active; 'I' for Inactive)
REMARK    1  A    between atoms: C3_4  and  O_7 
ROOT
ATOM      1  C   UNL d   1      -1.528  -1.434   2.207  0.00  0.00    -0.033 A 
ATOM      2  C1  UNL d   1      -1.935  -0.111   2.024  0.00  0.00     0.039 A 
ATOM      3  C2  UNL d   1      -1.204   0.737   1.191  0.00  0.00    -0.080 A 
ATOM      4  C3  UNL d   1      -0.069   0.251   0.547  0.00  0.00     0.150 A 
ATOM      5  C4  UNL d   1       0.340  -1.067   0.722  0.00  0.00    -0.007 A 
ATOM      6  C5  UNL d   1      -0.391  -1.912   1.555  0.00  0.00     0.039 A 
ENDROOT
BRANCH   4   7
ATOM      7  O   UNL d   1       0.679   1.043  -0.272  0.00  0.00    -0.526 OA
ATOM      8  H5  UNL d   1       0.294   1.935  -0.275  0.00  0.00     0.418 HD
ENDBRANCH   4   7
TORSDOF 1
ENDMDL
