MODEL 1
REMARK minimizedAffinity -2.83739209
REMARK minimizedRMSD -1
REMARK  1 active torsions:
REMARK  status: ('A' for Active; 'I' for Inactive)
REMARK    1  A    between atoms: C3_4  and  O_7 
ROOT
ATOM      1  C   UNL d   1       0.845   2.119  -3.142  0.00  0.00    -0.033 A 
ATOM      2  C1  UNL d   1      -0.457   1.640  -3.301  0.00  0.00     0.039 A 
ATOM      3  C2  UNL d   1      -1.112   1.024  -2.233  0.00  0.00    -0.080 A 
ATOM      4  C3  UNL d   1      -0.455   0.894  -1.013  0.00  0.00     0.150 A 
ATOM      5  C4  UNL d   1       0.840   1.372  -0.845  0.00  0.00    -0.007 A 
ATOM      6  C5  UNL d   1       1.493   1.986  -1.913  0.00  0.00     0.039 A 
ENDROOT
BRANCH   4   7
ATOM      7  O   UNL d   1      -1.052   0.296   0.057  0.00  0.00    -0.526 OA
ATOM      8  H5  UNL d   1      -1.934  -0.011  -0.214  0.00  0.00     0.418 HD
ENDBRANCH   4   7
TORSDOF 1
ENDMDL
