MODEL 1
REMARK minimizedAffinity 15.2630587
REMARK minimizedRMSD -1
REMARK  1 active torsions:
REMARK  status: ('A' for Active; 'I' for Inactive)
REMARK    1  A    between atoms: C1_2  and  C2_3 
ROOT
ATOM      1  C2  UNL d   1       4.681  -1.333   3.521  0.00  0.00    -0.073 A 
ATOM      2  C3  UNL d   1       5.557  -1.215   2.436  0.00  0.00    -0.002 A 
ATOM      3  C4  UNL d   1       5.099  -0.735   1.209  0.00  0.00     0.004 A 
ATOM      4  C5  UNL d   1       3.764  -0.361   1.055  0.00  0.00    -0.004 A 
ATOM      5  C6  UNL d   1       2.875  -0.460   2.131  0.00  0.00    -0.075 A 
ATOM      6  C7  UNL d   1       1.436  -0.065   1.982  0.00  0.00     0.076 C 
ATOM      7  C8  UNL d   1       3.342  -0.946   3.360  0.00  0.00     0.001 A 
ENDROOT
BRANCH   1   8
ATOM      8  C1  UNL d   1       5.172  -1.845   4.850  0.00  0.00     0.053 C 
ATOM      9  C   UNL d   1       5.971  -0.794   5.606  0.00  0.00     0.018 C 
ENDBRANCH   1   8
TORSDOF 1
ENDMDL
