MODEL 1
REMARK minimizedAffinity 11.0602093
REMARK minimizedRMSD -1
REMARK  1 active torsions:
REMARK  status: ('A' for Active; 'I' for Inactive)
REMARK    1  A    between atoms: C1_2  and  C2_3 
ROOT
ATOM      1  C2  UNL d   1       3.999   1.465  -1.099  0.00  0.00    -0.073 A 
ATOM      2  C3  UNL d   1       4.076   0.285  -0.350  0.00  0.00    -0.002 A 
ATOM      3  C4  UNL d   1       3.290   0.122   0.791  0.00  0.00     0.004 A 
ATOM      4  C5  UNL d   1       2.415   1.132   1.191  0.00  0.00    -0.004 A 
ATOM      5  C6  UNL d   1       2.315   2.313   0.449  0.00  0.00    -0.075 A 
ATOM      6  C7  UNL d   1       1.380   3.410   0.867  0.00  0.00     0.076 C 
ATOM      7  C8  UNL d   1       3.109   2.471  -0.694  0.00  0.00     0.001 A 
ENDROOT
BRANCH   1   8
ATOM      8  C1  UNL d   1       4.841   1.644  -2.335  0.00  0.00     0.053 C 
ATOM      9  C   UNL d   1       3.991   1.818  -3.584  0.00  0.00     0.018 C 
ENDBRANCH   1   8
TORSDOF 1
ENDMDL
