MODEL 1
REMARK minimizedAffinity 18.3211575
REMARK minimizedRMSD -1
REMARK  1 active torsions:
REMARK  status: ('A' for Active; 'I' for Inactive)
REMARK    1  A    between atoms: C1_2  and  C2_3 
ROOT
ATOM      1  C2  UNL d   1       4.940  -0.050   0.302  0.00  0.00    -0.073 A 
ATOM      2  C3  UNL d   1       5.116  -0.760   1.495  0.00  0.00    -0.002 A 
ATOM      3  C4  UNL d   1       4.129  -0.735   2.482  0.00  0.00     0.004 A 
ATOM      4  C5  UNL d   1       2.957  -0.006   2.284  0.00  0.00    -0.004 A 
ATOM      5  C6  UNL d   1       2.758   0.701   1.094  0.00  0.00    -0.075 A 
ATOM      6  C7  UNL d   1       1.503   1.491   0.866  0.00  0.00     0.076 C 
ATOM      7  C8  UNL d   1       3.754   0.673   0.109  0.00  0.00     0.001 A 
ENDROOT
BRANCH   1   8
ATOM      8  C1  UNL d   1       6.000  -0.079  -0.769  0.00  0.00     0.053 C 
ATOM      9  C   UNL d   1       5.999   1.191  -1.606  0.00  0.00     0.018 C 
ENDBRANCH   1   8
TORSDOF 1
ENDMDL
