MODEL 1
REMARK minimizedAffinity -3.38168073
REMARK minimizedRMSD -1
REMARK  1 active torsions:
REMARK  status: ('A' for Active; 'I' for Inactive)
REMARK    1  A    between atoms: C1_2  and  C2_3 
ROOT
ATOM      1  C2  UNL d   1       4.736   3.588  -4.041  0.00  0.00    -0.073 A 
ATOM      2  C3  UNL d   1       5.960   4.014  -4.569  0.00  0.00    -0.002 A 
ATOM      3  C4  UNL d   1       5.997   5.010  -5.546  0.00  0.00     0.004 A 
ATOM      4  C5  UNL d   1       4.815   5.593  -6.000  0.00  0.00    -0.004 A 
ATOM      5  C6  UNL d   1       3.583   5.189  -5.476  0.00  0.00    -0.075 A 
ATOM      6  C7  UNL d   1       2.301   5.805  -5.955  0.00  0.00     0.076 C 
ATOM      7  C8  UNL d   1       3.553   4.187  -4.497  0.00  0.00     0.001 A 
ENDROOT
BRANCH   1   8
ATOM      8  C1  UNL d   1       4.690   2.518  -2.981  0.00  0.00     0.053 C 
ATOM      9  C   UNL d   1       5.939   1.650  -2.993  0.00  0.00     0.018 C 
ENDBRANCH   1   8
TORSDOF 1
ENDMDL
