MODEL 1
REMARK minimizedAffinity 12.0041008
REMARK minimizedRMSD -1
REMARK  1 active torsions:
REMARK  status: ('A' for Active; 'I' for Inactive)
REMARK    1  A    between atoms: C1_2  and  C2_3 
ROOT
ATOM      1  C2  UNL d   1      -1.469  -4.099   1.867  0.00  0.00    -0.073 A 
ATOM      2  C3  UNL d   1      -1.590  -3.664   0.542  0.00  0.00    -0.002 A 
ATOM      3  C4  UNL d   1      -1.350  -2.330   0.213  0.00  0.00     0.004 A 
ATOM      4  C5  UNL d   1      -0.982  -1.418   1.202  0.00  0.00    -0.004 A 
ATOM      5  C6  UNL d   1      -0.845  -1.835   2.530  0.00  0.00    -0.075 A 
ATOM      6  C7  UNL d   1      -0.451  -0.867   3.607  0.00  0.00     0.076 C 
ATOM      7  C8  UNL d   1      -1.089  -3.177   2.853  0.00  0.00     0.001 A 
ENDROOT
BRANCH   1   8
ATOM      8  C1  UNL d   1      -1.721  -5.540   2.226  0.00  0.00     0.053 C 
ATOM      9  C   UNL d   1      -3.110  -5.997   1.810  0.00  0.00     0.018 C 
ENDBRANCH   1   8
TORSDOF 1
ENDMDL
