MODEL 1
REMARK minimizedAffinity 9.09258556
REMARK minimizedRMSD -1
REMARK  1 active torsions:
REMARK  status: ('A' for Active; 'I' for Inactive)
REMARK    1  A    between atoms: C1_2  and  C2_3 
ROOT
ATOM      1  C2  UNL d   1       3.121   1.743  -0.321  0.00  0.00    -0.073 A 
ATOM      2  C3  UNL d   1       3.578   0.449  -0.043  0.00  0.00    -0.002 A 
ATOM      3  C4  UNL d   1       3.042  -0.274   1.023  0.00  0.00     0.004 A 
ATOM      4  C5  UNL d   1       2.040   0.285   1.817  0.00  0.00    -0.004 A 
ATOM      5  C6  UNL d   1       1.562   1.571   1.549  0.00  0.00    -0.075 A 
ATOM      6  C7  UNL d   1       0.487   2.187   2.395  0.00  0.00     0.076 C 
ATOM      7  C8  UNL d   1       2.108   2.292   0.478  0.00  0.00     0.001 A 
ENDROOT
BRANCH   1   8
ATOM      8  C1  UNL d   1       3.693   2.525  -1.475  0.00  0.00     0.053 C 
ATOM      9  C   UNL d   1       3.694   1.720  -2.764  0.00  0.00     0.018 C 
ENDBRANCH   1   8
TORSDOF 1
ENDMDL
