MODEL 1
REMARK minimizedAffinity 2.51769209
REMARK minimizedRMSD -1
REMARK  1 active torsions:
REMARK  status: ('A' for Active; 'I' for Inactive)
REMARK    1  A    between atoms: C1_2  and  C2_3 
ROOT
ATOM      1  C2  UNL d   1       3.265   3.152  -5.323  0.00  0.00    -0.073 A 
ATOM      2  C3  UNL d   1       4.520   3.390  -5.894  0.00  0.00    -0.002 A 
ATOM      3  C4  UNL d   1       5.679   2.930  -5.267  0.00  0.00     0.004 A 
ATOM      4  C5  UNL d   1       5.594   2.223  -4.068  0.00  0.00    -0.004 A 
ATOM      5  C6  UNL d   1       4.349   1.964  -3.488  0.00  0.00    -0.075 A 
ATOM      6  C7  UNL d   1       4.241   1.207  -2.197  0.00  0.00     0.076 C 
ATOM      7  C8  UNL d   1       3.190   2.432  -4.122  0.00  0.00     0.001 A 
ENDROOT
BRANCH   1   8
ATOM      8  C1  UNL d   1       2.010   3.642  -5.999  0.00  0.00     0.053 C 
ATOM      9  C   UNL d   1       1.474   4.911  -5.356  0.00  0.00     0.018 C 
ENDBRANCH   1   8
TORSDOF 1
ENDMDL
