MODEL 1
REMARK minimizedAffinity 2.06381512
REMARK minimizedRMSD -1
REMARK  1 active torsions:
REMARK  status: ('A' for Active; 'I' for Inactive)
REMARK    1  A    between atoms: C1_2  and  C2_3 
ROOT
ATOM      1  C2  UNL d   1       5.386   3.584  -5.155  0.00  0.00    -0.073 A 
ATOM      2  C3  UNL d   1       4.239   2.925  -5.614  0.00  0.00    -0.002 A 
ATOM      3  C4  UNL d   1       3.671   1.895  -4.864  0.00  0.00     0.004 A 
ATOM      4  C5  UNL d   1       4.238   1.518  -3.646  0.00  0.00    -0.004 A 
ATOM      5  C6  UNL d   1       5.377   2.172  -3.166  0.00  0.00    -0.075 A 
ATOM      6  C7  UNL d   1       6.000   1.777  -1.859  0.00  0.00     0.076 C 
ATOM      7  C8  UNL d   1       5.943   3.205  -3.926  0.00  0.00     0.001 A 
ENDROOT
BRANCH   1   8
ATOM      8  C1  UNL d   1       5.999   4.702  -5.959  0.00  0.00     0.053 C 
ATOM      9  C   UNL d   1       5.120   5.942  -5.973  0.00  0.00     0.018 C 
ENDBRANCH   1   8
TORSDOF 1
ENDMDL
