MODEL 1
REMARK minimizedAffinity 10.4955006
REMARK minimizedRMSD -1
REMARK  1 active torsions:
REMARK  status: ('A' for Active; 'I' for Inactive)
REMARK    1  A    between atoms: C1_2  and  C2_3 
ROOT
ATOM      1  C2  UNL d   1       4.018   1.596  -4.684  0.00  0.00    -0.073 A 
ATOM      2  C3  UNL d   1       4.529   1.440  -3.390  0.00  0.00    -0.002 A 
ATOM      3  C4  UNL d   1       5.517   2.304  -2.914  0.00  0.00     0.004 A 
ATOM      4  C5  UNL d   1       5.997   3.334  -3.722  0.00  0.00    -0.004 A 
ATOM      5  C6  UNL d   1       5.490   3.513  -5.013  0.00  0.00    -0.075 A 
ATOM      6  C7  UNL d   1       5.998   4.616  -5.895  0.00  0.00     0.076 C 
ATOM      7  C8  UNL d   1       4.501   2.640  -5.485  0.00  0.00     0.001 A 
ENDROOT
BRANCH   1   8
ATOM      8  C1  UNL d   1       2.947   0.670  -5.200  0.00  0.00     0.053 C 
ATOM      9  C   UNL d   1       3.286  -0.791  -4.948  0.00  0.00     0.018 C 
ENDBRANCH   1   8
TORSDOF 1
ENDMDL
