MODEL 1
REMARK minimizedAffinity 7.59189129
REMARK minimizedRMSD -1
REMARK  3 active torsions:
REMARK  status: ('A' for Active; 'I' for Inactive)
REMARK    1  A    between atoms: C3'_2  and  C2'_3 
REMARK    2  A    between atoms: C2'_3  and  C1'_4 
REMARK    3  A    between atoms: C1'_4  and  C1_5 
ROOT
ATOM      1  C1  N4B d   1       1.203  -2.020   2.588  0.00  0.00    -0.075 A 
ATOM      2  C2  N4B d   1       0.023  -2.360   1.890  0.00  0.00     0.002 A 
ATOM      3  C3  N4B d   1      -1.172  -1.777   2.236  0.00  0.00     0.002 A 
ATOM      4  C4  N4B d   1      -1.214  -0.871   3.285  0.00  0.00    -0.004 A 
ATOM      5  C5  N4B d   1      -0.066  -0.529   3.937  0.00  0.00     0.002 A 
ATOM      6  C6  N4B d   1       1.142  -1.104   3.598  0.00  0.00     0.002 A 
ENDROOT
BRANCH   1   7
ATOM      7  C1' N4B d   1       2.516  -2.695   2.302  0.00  0.00     0.057 C 
BRANCH   7   8
ATOM      8  C2' N4B d   1       2.255  -4.026   1.604  0.00  0.00     0.009 C 
BRANCH   8   9
ATOM      9  C3' N4B d   1       3.466  -4.941   1.652  0.00  0.00     0.004 C 
ATOM     10  C4' N4B d   1       4.763  -4.190   1.616  0.00  0.00     0.003 C 
ENDBRANCH   8   9
ENDBRANCH   7   8
ENDBRANCH   1   7
TORSDOF 3
ENDMDL
