MODEL 1
REMARK minimizedAffinity 11.5493031
REMARK minimizedRMSD -1
REMARK  3 active torsions:
REMARK  status: ('A' for Active; 'I' for Inactive)
REMARK    1  A    between atoms: C3'_2  and  C2'_3 
REMARK    2  A    between atoms: C2'_3  and  C1'_4 
REMARK    3  A    between atoms: C1'_4  and  C1_5 
ROOT
ATOM      1  C1  N4B d   1       3.331  -4.189   1.405  0.00  0.00    -0.075 A 
ATOM      2  C2  N4B d   1       3.578  -4.892   0.205  0.00  0.00     0.002 A 
ATOM      3  C3  N4B d   1       4.854  -4.968  -0.296  0.00  0.00     0.002 A 
ATOM      4  C4  N4B d   1       5.892  -4.337   0.372  0.00  0.00    -0.004 A 
ATOM      5  C5  N4B d   1       5.650  -3.682   1.544  0.00  0.00     0.002 A 
ATOM      6  C6  N4B d   1       4.373  -3.601   2.062  0.00  0.00     0.002 A 
ENDROOT
BRANCH   1   7
ATOM      7  C1' N4B d   1       1.940  -4.006   1.946  0.00  0.00     0.057 C 
BRANCH   7   8
ATOM      8  C2' N4B d   1       1.703  -2.525   2.226  0.00  0.00     0.009 C 
BRANCH   8   9
ATOM      9  C3' N4B d   1       0.234  -2.154   2.116  0.00  0.00     0.004 C 
ATOM     10  C4' N4B d   1      -0.266  -1.399   3.312  0.00  0.00     0.003 C 
ENDBRANCH   8   9
ENDBRANCH   7   8
ENDBRANCH   1   7
TORSDOF 3
ENDMDL
