MODEL 1
REMARK minimizedAffinity 4.7772522
REMARK minimizedRMSD -1
REMARK  3 active torsions:
REMARK  status: ('A' for Active; 'I' for Inactive)
REMARK    1  A    between atoms: C3'_2  and  C2'_3 
REMARK    2  A    between atoms: C2'_3  and  C1'_4 
REMARK    3  A    between atoms: C1'_4  and  C1_5 
ROOT
ATOM      1  C1  N4B d   1       3.570  -3.756   3.719  0.00  0.00    -0.075 A 
ATOM      2  C2  N4B d   1       3.720  -5.160   3.713  0.00  0.00     0.002 A 
ATOM      3  C3  N4B d   1       4.129  -5.812   4.851  0.00  0.00     0.002 A 
ATOM      4  C4  N4B d   1       4.412  -5.081   5.995  0.00  0.00    -0.004 A 
ATOM      5  C5  N4B d   1       4.241  -3.728   6.000  0.00  0.00     0.002 A 
ATOM      6  C6  N4B d   1       3.826  -3.060   4.865  0.00  0.00     0.002 A 
ENDROOT
BRANCH   1   7
ATOM      7  C1' N4B d   1       3.208  -2.991   2.475  0.00  0.00     0.057 C 
BRANCH   7   8
ATOM      8  C2' N4B d   1       1.882  -3.516   1.933  0.00  0.00     0.009 C 
BRANCH   8   9
ATOM      9  C3' N4B d   1       0.869  -2.403   1.731  0.00  0.00     0.004 C 
ATOM     10  C4' N4B d   1       0.267  -1.925   3.019  0.00  0.00     0.003 C 
ENDBRANCH   8   9
ENDBRANCH   7   8
ENDBRANCH   1   7
TORSDOF 3
ENDMDL
