MODEL 1
REMARK minimizedAffinity 8.25985909
REMARK minimizedRMSD -1
REMARK  3 active torsions:
REMARK  status: ('A' for Active; 'I' for Inactive)
REMARK    1  A    between atoms: C3'_2  and  C2'_3 
REMARK    2  A    between atoms: C2'_3  and  C1'_4 
REMARK    3  A    between atoms: C1'_4  and  C1_5 
ROOT
ATOM      1  C1  N4B d   1      -3.552  -0.740  -1.789  0.00  0.00    -0.075 A 
ATOM      2  C2  N4B d   1      -4.450   0.322  -2.033  0.00  0.00     0.002 A 
ATOM      3  C3  N4B d   1      -5.309   0.264  -3.103  0.00  0.00     0.002 A 
ATOM      4  C4  N4B d   1      -5.274  -0.834  -3.951  0.00  0.00    -0.004 A 
ATOM      5  C5  N4B d   1      -4.422  -1.867  -3.694  0.00  0.00     0.002 A 
ATOM      6  C6  N4B d   1      -3.556  -1.823  -2.619  0.00  0.00     0.002 A 
ENDROOT
BRANCH   1   7
ATOM      7  C1' N4B d   1      -2.536  -0.682  -0.682  0.00  0.00     0.057 C 
BRANCH   7   8
ATOM      8  C2' N4B d   1      -1.153  -0.976  -1.256  0.00  0.00     0.009 C 
BRANCH   8   9
ATOM      9  C3' N4B d   1      -0.060  -0.221  -0.519  0.00  0.00     0.004 C 
ATOM     10  C4' N4B d   1       0.861   0.518  -1.444  0.00  0.00     0.003 C 
ENDBRANCH   8   9
ENDBRANCH   7   8
ENDBRANCH   1   7
TORSDOF 3
ENDMDL
