MODEL 1
REMARK minimizedAffinity 9.41729355
REMARK minimizedRMSD -1
REMARK  3 active torsions:
REMARK  status: ('A' for Active; 'I' for Inactive)
REMARK    1  A    between atoms: C3'_2  and  C2'_3 
REMARK    2  A    between atoms: C2'_3  and  C1'_4 
REMARK    3  A    between atoms: C1'_4  and  C1_5 
ROOT
ATOM      1  C1  N4B d   1      -3.567  -1.361  -2.132  0.00  0.00    -0.075 A 
ATOM      2  C2  N4B d   1      -4.403  -0.226  -2.231  0.00  0.00     0.002 A 
ATOM      3  C3  N4B d   1      -5.337  -0.147  -3.235  0.00  0.00     0.002 A 
ATOM      4  C4  N4B d   1      -5.441  -1.177  -4.158  0.00  0.00    -0.004 A 
ATOM      5  C5  N4B d   1      -4.647  -2.280  -4.041  0.00  0.00     0.002 A 
ATOM      6  C6  N4B d   1      -3.707  -2.375  -3.035  0.00  0.00     0.002 A 
ENDROOT
BRANCH   1   7
ATOM      7  C1' N4B d   1      -2.473  -1.454  -1.104  0.00  0.00     0.057 C 
BRANCH   7   8
ATOM      8  C2' N4B d   1      -1.336  -0.516  -1.496  0.00  0.00     0.009 C 
BRANCH   8   9
ATOM      9  C3' N4B d   1      -0.051  -0.839  -0.754  0.00  0.00     0.004 C 
ATOM     10  C4' N4B d   1       0.952   0.274  -0.818  0.00  0.00     0.003 C 
ENDBRANCH   8   9
ENDBRANCH   7   8
ENDBRANCH   1   7
TORSDOF 3
ENDMDL
