MODEL 1
REMARK minimizedAffinity 8.5633173
REMARK minimizedRMSD -1
REMARK  3 active torsions:
REMARK  status: ('A' for Active; 'I' for Inactive)
REMARK    1  A    between atoms: C3'_2  and  C2'_3 
REMARK    2  A    between atoms: C2'_3  and  C1'_4 
REMARK    3  A    between atoms: C1'_4  and  C1_5 
ROOT
ATOM      1  C1  N4B d   1       1.146  -1.107   1.067  0.00  0.00    -0.075 A 
ATOM      2  C2  N4B d   1       1.935   0.061   1.145  0.00  0.00     0.002 A 
ATOM      3  C3  N4B d   1       1.888   0.991   0.136  0.00  0.00     0.002 A 
ATOM      4  C4  N4B d   1       1.076   0.767  -0.966  0.00  0.00    -0.004 A 
ATOM      5  C5  N4B d   1       0.297  -0.352  -1.022  0.00  0.00     0.002 A 
ATOM      6  C6  N4B d   1       0.332  -1.293  -0.013  0.00  0.00     0.002 A 
ENDROOT
BRANCH   1   7
ATOM      7  C1' N4B d   1       1.229  -2.193   2.105  0.00  0.00     0.057 C 
BRANCH   7   8
ATOM      8  C2' N4B d   1       2.469  -3.041   1.843  0.00  0.00     0.009 C 
BRANCH   8   9
ATOM      9  C3' N4B d   1       2.169  -4.223   0.937  0.00  0.00     0.004 C 
ATOM     10  C4' N4B d   1       3.358  -4.652   0.129  0.00  0.00     0.003 C 
ENDBRANCH   8   9
ENDBRANCH   7   8
ENDBRANCH   1   7
TORSDOF 3
ENDMDL
