MODEL 1
REMARK minimizedAffinity -3.95414925
REMARK minimizedRMSD -1
REMARK  0 active torsions:
REMARK  status: ('A' for Active; 'I' for Inactive)
ROOT
ATOM      1  N1  IND d   1       0.748  -0.162  -0.784  0.00  0.00    -0.196 N 
ATOM      2  C2  IND d   1       0.066   0.531  -1.745  0.00  0.00     0.054 A 
ATOM      3  C3  IND d   1      -0.790   1.408  -1.173  0.00  0.00    -0.031 A 
ATOM      4  C4  IND d   1      -1.161   1.945   1.317  0.00  0.00     0.051 A 
ATOM      5  C5  IND d   1      -0.794   1.545   2.572  0.00  0.00    -0.031 A 
ATOM      6  C6  IND d   1       0.126   0.537   2.776  0.00  0.00     0.015 A 
ATOM      7  C7  IND d   1       0.725  -0.103   1.728  0.00  0.00    -0.016 A 
ATOM      8  C8  IND d   1       0.350   0.295   0.453  0.00  0.00    -0.047 A 
ATOM      9  C9  IND d   1      -0.615   1.288   0.240  0.00  0.00    -0.096 A 
ATOM     10  HN1 IND d   1       1.329  -0.779  -0.928  0.00  0.00     0.298 HD
ENDROOT
TORSDOF 0
ENDMDL
