MODEL 1
REMARK minimizedAffinity -2.98457193
REMARK minimizedRMSD -1
REMARK  0 active torsions:
REMARK  status: ('A' for Active; 'I' for Inactive)
ROOT
ATOM      1  N1  IND d   1      -0.235   1.191  -1.709  0.00  0.00    -0.196 N 
ATOM      2  C2  IND d   1       0.390   0.039  -2.099  0.00  0.00     0.054 A 
ATOM      3  C3  IND d   1       0.827  -0.647  -1.019  0.00  0.00    -0.031 A 
ATOM      4  C4  IND d   1       0.536  -0.118   1.484  0.00  0.00     0.051 A 
ATOM      5  C5  IND d   1       0.066   0.843   2.334  0.00  0.00    -0.031 A 
ATOM      6  C6  IND d   1      -0.543   1.991   1.871  0.00  0.00     0.015 A 
ATOM      7  C7  IND d   1      -0.716   2.217   0.534  0.00  0.00    -0.016 A 
ATOM      8  C8  IND d   1      -0.233   1.246  -0.332  0.00  0.00    -0.047 A 
ATOM      9  C9  IND d   1       0.424   0.099   0.131  0.00  0.00    -0.096 A 
ATOM     10  HN1 IND d   1      -0.572   1.782  -2.235  0.00  0.00     0.298 HD
ENDROOT
TORSDOF 0
ENDMDL
