MODEL 1
REMARK minimizedAffinity -4.4968276
REMARK minimizedRMSD -1
REMARK  0 active torsions:
REMARK  status: ('A' for Active; 'I' for Inactive)
ROOT
ATOM      1  N1  IND d   1       0.204   0.281  -0.830  0.00  0.00    -0.196 N 
ATOM      2  C2  IND d   1       0.526  -0.729   0.033  0.00  0.00     0.054 A 
ATOM      3  C3  IND d   1       0.469  -0.291   1.311  0.00  0.00    -0.031 A 
ATOM      4  C4  IND d   1      -0.227   2.014   2.221  0.00  0.00     0.051 A 
ATOM      5  C5  IND d   1      -0.572   3.273   1.816  0.00  0.00    -0.031 A 
ATOM      6  C6  IND d   1      -0.679   3.605   0.481  0.00  0.00     0.015 A 
ATOM      7  C7  IND d   1      -0.457   2.683  -0.503  0.00  0.00    -0.016 A 
ATOM      8  C8  IND d   1      -0.101   1.406  -0.095  0.00  0.00    -0.047 A 
ATOM      9  C9  IND d   1       0.052   1.074   1.257  0.00  0.00    -0.096 A 
ATOM     10  HN1 IND d   1       0.195   0.224  -1.688  0.00  0.00     0.298 HD
ENDROOT
TORSDOF 0
ENDMDL
