MODEL 1
REMARK minimizedAffinity -4.4616847
REMARK minimizedRMSD -1
REMARK  0 active torsions:
REMARK  status: ('A' for Active; 'I' for Inactive)
ROOT
ATOM      1  N1  IND d   1      -0.361   1.735  -1.512  0.00  0.00    -0.196 N 
ATOM      2  C2  IND d   1      -0.798   3.019  -1.685  0.00  0.00     0.054 A 
ATOM      3  C3  IND d   1      -1.041   3.599  -0.488  0.00  0.00    -0.031 A 
ATOM      4  C4  IND d   1      -0.694   2.660   1.884  0.00  0.00     0.051 A 
ATOM      5  C5  IND d   1      -0.347   1.519   2.551  0.00  0.00    -0.031 A 
ATOM      6  C6  IND d   1       0.023   0.368   1.884  0.00  0.00     0.015 A 
ATOM      7  C7  IND d   1       0.071   0.321   0.519  0.00  0.00    -0.016 A 
ATOM      8  C8  IND d   1      -0.288   1.476  -0.161  0.00  0.00    -0.047 A 
ATOM      9  C9  IND d   1      -0.705   2.633   0.509  0.00  0.00    -0.096 A 
ATOM     10  HN1 IND d   1      -0.166   1.183  -2.141  0.00  0.00     0.298 HD
ENDROOT
TORSDOF 0
ENDMDL
