MODEL 1
REMARK minimizedAffinity -4.77042532
REMARK minimizedRMSD -1
REMARK  0 active torsions:
REMARK  status: ('A' for Active; 'I' for Inactive)
ROOT
ATOM      1  N1  IND d   1       0.081   0.377  -1.356  0.00  0.00    -0.196 N 
ATOM      2  C2  IND d   1       0.502  -0.924  -1.380  0.00  0.00     0.054 A 
ATOM      3  C3  IND d   1       0.734  -1.366  -0.123  0.00  0.00    -0.031 A 
ATOM      4  C4  IND d   1       0.394  -0.159   2.125  0.00  0.00     0.051 A 
ATOM      5  C5  IND d   1       0.060   1.055   2.656  0.00  0.00    -0.031 A 
ATOM      6  C6  IND d   1      -0.293   2.127   1.861  0.00  0.00     0.015 A 
ATOM      7  C7  IND d   1      -0.337   2.019   0.499  0.00  0.00    -0.016 A 
ATOM      8  C8  IND d   1       0.008   0.790  -0.043  0.00  0.00    -0.047 A 
ATOM      9  C9  IND d   1       0.408  -0.289   0.756  0.00  0.00    -0.096 A 
ATOM     10  HN1 IND d   1      -0.106   0.856  -2.044  0.00  0.00     0.298 HD
ENDROOT
TORSDOF 0
ENDMDL
