MODEL 1
REMARK minimizedAffinity -5.1903038
REMARK minimizedRMSD -1
REMARK  0 active torsions:
REMARK  status: ('A' for Active; 'I' for Inactive)
ROOT
ATOM      1  N1  IND d   1      -0.817  -0.149  -1.009  0.00  0.00    -0.196 N 
ATOM      2  C2  IND d   1       0.250  -0.971  -1.242  0.00  0.00     0.054 A 
ATOM      3  C3  IND d   1       1.159  -0.855  -0.248  0.00  0.00    -0.031 A 
ATOM      4  C4  IND d   1       1.054   0.547   1.909  0.00  0.00     0.051 A 
ATOM      5  C5  IND d   1       0.294   1.486   2.547  0.00  0.00    -0.031 A 
ATOM      6  C6  IND d   1      -0.901   1.936   2.023  0.00  0.00     0.015 A 
ATOM      7  C7  IND d   1      -1.388   1.452   0.842  0.00  0.00    -0.016 A 
ATOM      8  C8  IND d   1      -0.615   0.503   0.187  0.00  0.00    -0.047 A 
ATOM      9  C9  IND d   1       0.619   0.074   0.693  0.00  0.00    -0.096 A 
ATOM     10  HN1 IND d   1      -1.499  -0.055  -1.524  0.00  0.00     0.298 HD
ENDROOT
TORSDOF 0
ENDMDL
