MODEL 1
REMARK minimizedAffinity -4.93154812
REMARK minimizedRMSD -1
REMARK  0 active torsions:
REMARK  status: ('A' for Active; 'I' for Inactive)
ROOT
ATOM      1  N1  IND d   1       0.146   1.471   2.413  0.00  0.00    -0.196 N 
ATOM      2  C2  IND d   1       1.088   0.664   2.988  0.00  0.00     0.054 A 
ATOM      3  C3  IND d   1       1.452  -0.317   2.133  0.00  0.00    -0.031 A 
ATOM      4  C4  IND d   1       0.707  -0.730  -0.296  0.00  0.00     0.051 A 
ATOM      5  C5  IND d   1      -0.166  -0.279  -1.247  0.00  0.00    -0.031 A 
ATOM      6  C6  IND d   1      -0.994   0.802  -1.022  0.00  0.00     0.015 A 
ATOM      7  C7  IND d   1      -0.972   1.482   0.163  0.00  0.00    -0.016 A 
ATOM      8  C8  IND d   1      -0.092   1.023   1.132  0.00  0.00    -0.047 A 
ATOM      9  C9  IND d   1       0.720  -0.100   0.926  0.00  0.00    -0.096 A 
ATOM     10  HN1 IND d   1      -0.234   2.145   2.788  0.00  0.00     0.298 HD
ENDROOT
TORSDOF 0
ENDMDL
