MODEL 1
REMARK minimizedAffinity 5.29851961
REMARK minimizedRMSD -1
REMARK  0 active torsions:
REMARK  status: ('A' for Active; 'I' for Inactive)
ROOT
ATOM      1  N1  IND d   1       0.748   0.626   0.343  0.00  0.00    -0.196 N 
ATOM      2  C2  IND d   1       1.084  -0.597  -0.167  0.00  0.00     0.054 A 
ATOM      3  C3  IND d   1       1.378  -1.459   0.832  0.00  0.00    -0.031 A 
ATOM      4  C4  IND d   1       1.274  -1.104   3.380  0.00  0.00     0.051 A 
ATOM      5  C5  IND d   1       1.056  -0.142   4.326  0.00  0.00    -0.031 A 
ATOM      6  C6  IND d   1       0.714   1.150   3.986  0.00  0.00     0.015 A 
ATOM      7  C7  IND d   1       0.566   1.528   2.681  0.00  0.00    -0.016 A 
ATOM      8  C8  IND d   1       0.794   0.556   1.718  0.00  0.00    -0.047 A 
ATOM      9  C9  IND d   1       1.183  -0.747   2.056  0.00  0.00    -0.096 A 
ATOM     10  HN1 IND d   1       0.542   1.322  -0.118  0.00  0.00     0.298 HD
ENDROOT
TORSDOF 0
ENDMDL
