MODEL 1
REMARK minimizedAffinity -2.6213448
REMARK minimizedRMSD -1
REMARK  0 active torsions:
REMARK  status: ('A' for Active; 'I' for Inactive)
ROOT
ATOM      1  N1  IND d   1       0.460   2.528   1.102  0.00  0.00    -0.196 N 
ATOM      2  C2  IND d   1       0.161   3.153   2.280  0.00  0.00     0.054 A 
ATOM      3  C3  IND d   1       0.411   2.331   3.325  0.00  0.00    -0.031 A 
ATOM      4  C4  IND d   1       1.409  -0.042   3.336  0.00  0.00     0.051 A 
ATOM      5  C5  IND d   1       1.808  -1.047   2.501  0.00  0.00    -0.031 A 
ATOM      6  C6  IND d   1       1.780  -0.908   1.128  0.00  0.00     0.015 A 
ATOM      7  C7  IND d   1       1.361   0.251   0.538  0.00  0.00    -0.016 A 
ATOM      8  C8  IND d   1       0.949   1.271   1.383  0.00  0.00    -0.047 A 
ATOM      9  C9  IND d   1       0.934   1.120   2.776  0.00  0.00    -0.096 A 
ATOM     10  HN1 IND d   1       0.361   2.864   0.316  0.00  0.00     0.298 HD
ENDROOT
TORSDOF 0
ENDMDL
