MODEL 1
REMARK minimizedAffinity -5.06381655
REMARK minimizedRMSD -1
REMARK  0 active torsions:
REMARK  status: ('A' for Active; 'I' for Inactive)
ROOT
ATOM      1  N1  IND d   1       0.665   0.658  -1.311  0.00  0.00    -0.196 N 
ATOM      2  C2  IND d   1       0.046   1.519  -2.174  0.00  0.00     0.054 A 
ATOM      3  C3  IND d   1      -0.814   2.319  -1.505  0.00  0.00    -0.031 A 
ATOM      4  C4  IND d   1      -1.289   2.458   1.022  0.00  0.00     0.051 A 
ATOM      5  C5  IND d   1      -0.993   1.848   2.208  0.00  0.00    -0.031 A 
ATOM      6  C6  IND d   1      -0.108   0.792   2.285  0.00  0.00     0.015 A 
ATOM      7  C7  IND d   1       0.524   0.310   1.173  0.00  0.00    -0.016 A 
ATOM      8  C8  IND d   1       0.220   0.922  -0.035  0.00  0.00    -0.047 A 
ATOM      9  C9  IND d   1      -0.709   1.967  -0.124  0.00  0.00    -0.096 A 
ATOM     10  HN1 IND d   1       1.237   0.054  -1.529  0.00  0.00     0.298 HD
ENDROOT
TORSDOF 0
ENDMDL
