MODEL 1
REMARK minimizedAffinity -3.23430228
REMARK minimizedRMSD -1
REMARK  0 active torsions:
REMARK  status: ('A' for Active; 'I' for Inactive)
ROOT
ATOM      1  C   UNL d   1      -4.085   0.593   1.626  0.00  0.00     0.020 A 
ATOM      2  C1  UNL d   1      -3.661  -0.383   0.725  0.00  0.00     0.020 A 
ATOM      3  C2  UNL d   1      -2.362  -0.890   0.807  0.00  0.00     0.034 A 
ATOM      4  C3  UNL d   1      -1.484  -0.422   1.791  0.00  0.00     0.017 A 
ATOM      5  C4  UNL d   1      -1.911   0.558   2.695  0.00  0.00     0.017 A 
ATOM      6  C5  UNL d   1      -3.213   1.062   2.609  0.00  0.00     0.034 A 
ATOM      7 Cl   UNL d   1      -0.885   1.185   3.936  0.00  0.00    -0.070 Cl
ATOM      8 Cl1  UNL d   1       0.107  -1.094   1.834  0.00  0.00    -0.070 Cl
ENDROOT
TORSDOF 0
ENDMDL
