MODEL 1
REMARK minimizedAffinity -4.16440964
REMARK minimizedRMSD -1
REMARK  0 active torsions:
REMARK  status: ('A' for Active; 'I' for Inactive)
ROOT
ATOM      1  C   UNL d   1      -0.675   0.017   3.315  0.00  0.00     0.020 A 
ATOM      2  C1  UNL d   1      -1.832   0.777   3.485  0.00  0.00     0.020 A 
ATOM      3  C2  UNL d   1      -2.759   0.879   2.445  0.00  0.00     0.034 A 
ATOM      4  C3  UNL d   1      -2.530   0.220   1.231  0.00  0.00     0.017 A 
ATOM      5  C4  UNL d   1      -1.369  -0.543   1.062  0.00  0.00     0.017 A 
ATOM      6  C5  UNL d   1      -0.444  -0.641   2.107  0.00  0.00     0.034 A 
ATOM      7 Cl   UNL d   1      -1.018  -1.384  -0.406  0.00  0.00    -0.070 Cl
ATOM      8 Cl1  UNL d   1      -3.719   0.390  -0.011  0.00  0.00    -0.070 Cl
ENDROOT
TORSDOF 0
ENDMDL
