MODEL 1
REMARK minimizedAffinity -3.61928654
REMARK minimizedRMSD -1
REMARK  0 active torsions:
REMARK  status: ('A' for Active; 'I' for Inactive)
ROOT
ATOM      1  C   UNL d   1      -3.367  -0.110   1.302  0.00  0.00     0.020 A 
ATOM      2  C1  UNL d   1      -2.735   0.884   2.047  0.00  0.00     0.020 A 
ATOM      3  C2  UNL d   1      -1.340   0.925   2.117  0.00  0.00     0.034 A 
ATOM      4  C3  UNL d   1      -0.574  -0.031   1.440  0.00  0.00     0.017 A 
ATOM      5  C4  UNL d   1      -1.209  -1.028   0.692  0.00  0.00     0.017 A 
ATOM      6  C5  UNL d   1      -2.606  -1.064   0.626  0.00  0.00     0.034 A 
ATOM      7 Cl   UNL d   1      -0.331  -2.241  -0.171  0.00  0.00    -0.070 Cl
ATOM      8 Cl1  UNL d   1       1.146   0.080   1.569  0.00  0.00    -0.070 Cl
ENDROOT
TORSDOF 0
ENDMDL
