MODEL 1
REMARK minimizedAffinity -4.24436045
REMARK minimizedRMSD -1
REMARK  0 active torsions:
REMARK  status: ('A' for Active; 'I' for Inactive)
ROOT
ATOM      1  C   UNL d   1       3.029  -0.887  -0.765  0.00  0.00     0.020 A 
ATOM      2  C1  UNL d   1       2.930  -1.755  -1.852  0.00  0.00     0.020 A 
ATOM      3  C2  UNL d   1       1.681  -2.231  -2.254  0.00  0.00     0.034 A 
ATOM      4  C3  UNL d   1       0.525  -1.840  -1.570  0.00  0.00     0.017 A 
ATOM      5  C4  UNL d   1       0.624  -0.969  -0.479  0.00  0.00     0.017 A 
ATOM      6  C5  UNL d   1       1.878  -0.495  -0.080  0.00  0.00     0.034 A 
ATOM      7 Cl   UNL d   1      -0.758  -0.441   0.415  0.00  0.00    -0.070 Cl
ATOM      8 Cl1  UNL d   1      -0.987  -2.467  -2.123  0.00  0.00    -0.070 Cl
ENDROOT
TORSDOF 0
ENDMDL
