MODEL 1
REMARK minimizedAffinity -5.05877161
REMARK minimizedRMSD -1
REMARK  0 active torsions:
REMARK  status: ('A' for Active; 'I' for Inactive)
ROOT
ATOM      1  C   UNL d   1      -3.079   1.255   1.930  0.00  0.00     0.020 A 
ATOM      2  C1  UNL d   1      -3.801   0.246   1.292  0.00  0.00     0.020 A 
ATOM      3  C2  UNL d   1      -3.133  -0.717   0.533  0.00  0.00     0.034 A 
ATOM      4  C3  UNL d   1      -1.739  -0.675   0.411  0.00  0.00     0.017 A 
ATOM      5  C4  UNL d   1      -1.016   0.338   1.051  0.00  0.00     0.017 A 
ATOM      6  C5  UNL d   1      -1.690   1.300   1.810  0.00  0.00     0.034 A 
ATOM      7 Cl   UNL d   1       0.705   0.456   0.947  0.00  0.00    -0.070 Cl
ATOM      8 Cl1  UNL d   1      -0.979  -1.899  -0.543  0.00  0.00    -0.070 Cl
ENDROOT
TORSDOF 0
ENDMDL
