MODEL 1
REMARK minimizedAffinity -0.347297847
REMARK minimizedRMSD -1
REMARK  0 active torsions:
REMARK  status: ('A' for Active; 'I' for Inactive)
ROOT
ATOM      1  C   UNL d   1      -0.753  -0.963  -0.403  0.00  0.00     0.020 A 
ATOM      2  C1  UNL d   1      -0.226  -0.390   0.753  0.00  0.00     0.020 A 
ATOM      3  C2  UNL d   1      -0.989  -0.345   1.922  0.00  0.00     0.034 A 
ATOM      4  C3  UNL d   1      -2.285  -0.875   1.937  0.00  0.00     0.017 A 
ATOM      5  C4  UNL d   1      -2.813  -1.451   0.776  0.00  0.00     0.017 A 
ATOM      6  C5  UNL d   1      -2.044  -1.493  -0.391  0.00  0.00     0.034 A 
ATOM      7 Cl   UNL d   1      -4.404  -2.125   0.717  0.00  0.00    -0.070 Cl
ATOM      8 Cl1  UNL d   1      -3.172  -0.786   3.417  0.00  0.00    -0.070 Cl
ENDROOT
TORSDOF 0
ENDMDL
