MODEL 1
REMARK minimizedAffinity -3.32327986
REMARK minimizedRMSD -1
REMARK  0 active torsions:
REMARK  status: ('A' for Active; 'I' for Inactive)
ROOT
ATOM      1  C   UNL d   1      -2.981   0.205   1.685  0.00  0.00     0.020 A 
ATOM      2  C1  UNL d   1      -3.539  -0.021   0.427  0.00  0.00     0.020 A 
ATOM      3  C2  UNL d   1      -2.839  -0.767  -0.524  0.00  0.00     0.034 A 
ATOM      4  C3  UNL d   1      -1.577  -1.290  -0.218  0.00  0.00     0.017 A 
ATOM      5  C4  UNL d   1      -1.018  -1.062   1.045  0.00  0.00     0.017 A 
ATOM      6  C5  UNL d   1      -1.723  -0.315   1.993  0.00  0.00     0.034 A 
ATOM      7 Cl   UNL d   1       0.535  -1.675   1.495  0.00  0.00    -0.070 Cl
ATOM      8 Cl1  UNL d   1      -0.768  -2.203  -1.442  0.00  0.00    -0.070 Cl
ENDROOT
TORSDOF 0
ENDMDL
