MODEL 1
REMARK minimizedAffinity -4.51964951
REMARK minimizedRMSD -1
REMARK  0 active torsions:
REMARK  status: ('A' for Active; 'I' for Inactive)
ROOT
ATOM      1  C   UNL d   1      -2.779   0.277   1.604  0.00  0.00     0.020 A 
ATOM      2  C1  UNL d   1      -3.413  -0.341   0.527  0.00  0.00     0.020 A 
ATOM      3  C2  UNL d   1      -2.754  -1.341  -0.191  0.00  0.00     0.034 A 
ATOM      4  C3  UNL d   1      -1.457  -1.727   0.168  0.00  0.00     0.017 A 
ATOM      5  C4  UNL d   1      -0.822  -1.107   1.249  0.00  0.00     0.017 A 
ATOM      6  C5  UNL d   1      -1.486  -0.105   1.965  0.00  0.00     0.034 A 
ATOM      7 Cl   UNL d   1       0.777  -1.529   1.752  0.00  0.00    -0.070 Cl
ATOM      8 Cl1  UNL d   1      -0.703  -2.971  -0.764  0.00  0.00    -0.070 Cl
ENDROOT
TORSDOF 0
ENDMDL
