MODEL 1
REMARK minimizedAffinity -2.51283288
REMARK minimizedRMSD -1
REMARK  0 active torsions:
REMARK  status: ('A' for Active; 'I' for Inactive)
ROOT
ATOM      1  C   UNL d   1      -2.141  -0.070   2.612  0.00  0.00     0.020 A 
ATOM      2  C1  UNL d   1      -0.811  -0.416   2.377  0.00  0.00     0.020 A 
ATOM      3  C2  UNL d   1      -0.428  -0.910   1.129  0.00  0.00     0.034 A 
ATOM      4  C3  UNL d   1      -1.375  -1.059   0.110  0.00  0.00     0.017 A 
ATOM      5  C4  UNL d   1      -2.710  -0.712   0.346  0.00  0.00     0.017 A 
ATOM      6  C5  UNL d   1      -3.089  -0.218   1.598  0.00  0.00     0.034 A 
ATOM      7 Cl   UNL d   1      -3.937  -0.868  -0.862  0.00  0.00    -0.070 Cl
ATOM      8 Cl1  UNL d   1      -0.831  -1.675  -1.410  0.00  0.00    -0.070 Cl
ENDROOT
TORSDOF 0
ENDMDL
