MODEL 1
REMARK minimizedAffinity -3.61400318
REMARK minimizedRMSD -1
REMARK  0 active torsions:
REMARK  status: ('A' for Active; 'I' for Inactive)
ROOT
ATOM      1  C   UNL d   1      -2.028  -0.085   0.035  0.00  0.00     0.023 A 
ATOM      2  C1  UNL d   1      -0.948  -0.657  -0.638  0.00  0.00     0.003 A 
ATOM      3  C2  UNL d   1       0.294  -0.757  -0.008  0.00  0.00     0.048 A 
ATOM      4  C3  UNL d   1       0.450  -0.283   1.294  0.00  0.00     0.023 A 
ATOM      5  C4  UNL d   1      -0.628   0.290   1.971  0.00  0.00     0.048 A 
ATOM      6  C5  UNL d   1      -1.869   0.387   1.338  0.00  0.00     0.003 A 
ATOM      7  I   UNL d   1       2.298  -0.429   2.233  0.00  0.00    -0.146 I 
ENDROOT
TORSDOF 0
ENDMDL
