MODEL 1
REMARK minimizedAffinity -2.8205862
REMARK minimizedRMSD -1
REMARK  0 active torsions:
REMARK  status: ('A' for Active; 'I' for Inactive)
ROOT
ATOM      1  C   UNL d   1      -1.368   1.143   2.388  0.00  0.00     0.023 A 
ATOM      2  C1  UNL d   1      -2.088   0.617   1.315  0.00  0.00     0.003 A 
ATOM      3  C2  UNL d   1      -1.415   0.104   0.205  0.00  0.00     0.048 A 
ATOM      4  C3  UNL d   1      -0.021   0.118   0.174  0.00  0.00     0.023 A 
ATOM      5  C4  UNL d   1       0.704   0.642   1.245  0.00  0.00     0.048 A 
ATOM      6  C5  UNL d   1       0.027   1.155   2.353  0.00  0.00     0.003 A 
ATOM      7  I   UNL d   1       0.983  -0.645  -1.478  0.00  0.00    -0.146 I 
ENDROOT
TORSDOF 0
ENDMDL
