MODEL 1
REMARK minimizedAffinity -4.36796236
REMARK minimizedRMSD -1
REMARK  0 active torsions:
REMARK  status: ('A' for Active; 'I' for Inactive)
ROOT
ATOM      1  C   UNL d   1       1.711  -0.782  -0.808  0.00  0.00     0.023 A 
ATOM      2  C1  UNL d   1       0.371  -0.495  -1.065  0.00  0.00     0.003 A 
ATOM      3  C2  UNL d   1      -0.448  -0.006  -0.045  0.00  0.00     0.048 A 
ATOM      4  C3  UNL d   1       0.080   0.196   1.229  0.00  0.00     0.023 A 
ATOM      5  C4  UNL d   1       1.421  -0.089   1.491  0.00  0.00     0.048 A 
ATOM      6  C5  UNL d   1       2.236  -0.579   0.469  0.00  0.00     0.003 A 
ATOM      7  I   UNL d   1      -1.137   0.924   2.748  0.00  0.00    -0.146 I 
ENDROOT
TORSDOF 0
ENDMDL
