MODEL 1
REMARK minimizedAffinity -5.41627884
REMARK minimizedRMSD -1
REMARK  0 active torsions:
REMARK  status: ('A' for Active; 'I' for Inactive)
ROOT
ATOM      1  C   UNL d   1      -0.083   0.833   3.450  0.00  0.00     0.023 A 
ATOM      2  C1  UNL d   1      -1.079   1.091   2.508  0.00  0.00     0.003 A 
ATOM      3  C2  UNL d   1      -0.925   0.658   1.190  0.00  0.00     0.048 A 
ATOM      4  C3  UNL d   1       0.228  -0.033   0.820  0.00  0.00     0.023 A 
ATOM      5  C4  UNL d   1       1.228  -0.294   1.758  0.00  0.00     0.048 A 
ATOM      6  C5  UNL d   1       1.069   0.141   3.075  0.00  0.00     0.003 A 
ATOM      7  I   UNL d   1       0.461  -0.678  -1.142  0.00  0.00    -0.146 I 
ENDROOT
TORSDOF 0
ENDMDL
