MODEL 1
REMARK minimizedAffinity -2.56754994
REMARK minimizedRMSD -1
REMARK  0 active torsions:
REMARK  status: ('A' for Active; 'I' for Inactive)
ROOT
ATOM      1  C   UNL d   1      -0.499   1.111   2.610  0.00  0.00     0.023 A 
ATOM      2  C1  UNL d   1      -1.473   0.676   1.711  0.00  0.00     0.003 A 
ATOM      3  C2  UNL d   1      -1.103   0.237   0.438  0.00  0.00     0.048 A 
ATOM      4  C3  UNL d   1       0.242   0.235   0.070  0.00  0.00     0.023 A 
ATOM      5  C4  UNL d   1       1.220   0.668   0.967  0.00  0.00     0.048 A 
ATOM      6  C5  UNL d   1       0.845   1.107   2.239  0.00  0.00     0.003 A 
ATOM      7  I   UNL d   1       0.794  -0.418  -1.824  0.00  0.00    -0.146 I 
ENDROOT
TORSDOF 0
ENDMDL
