MODEL 1
REMARK minimizedAffinity -2.72767329
REMARK minimizedRMSD -1
REMARK  0 active torsions:
REMARK  status: ('A' for Active; 'I' for Inactive)
ROOT
ATOM      1  C   UNL d   1       0.598  -0.506  -1.689  0.00  0.00     0.023 A 
ATOM      2  C1  UNL d   1      -0.535   0.291  -1.523  0.00  0.00     0.003 A 
ATOM      3  C2  UNL d   1      -0.887   0.752  -0.253  0.00  0.00     0.048 A 
ATOM      4  C3  UNL d   1      -0.100   0.413   0.848  0.00  0.00     0.023 A 
ATOM      5  C4  UNL d   1       1.035  -0.383   0.687  0.00  0.00     0.048 A 
ATOM      6  C5  UNL d   1       1.382  -0.842  -0.585  0.00  0.00     0.003 A 
ATOM      7  I   UNL d   1      -0.622   1.098   2.740  0.00  0.00    -0.146 I 
ENDROOT
TORSDOF 0
ENDMDL
