MODEL 1
REMARK minimizedAffinity -3.62892938
REMARK minimizedRMSD -1
REMARK  0 active torsions:
REMARK  status: ('A' for Active; 'I' for Inactive)
ROOT
ATOM      1  C   UNL d   1      -1.849   0.963   1.799  0.00  0.00     0.023 A 
ATOM      2  C1  UNL d   1      -0.607   0.331   1.854  0.00  0.00     0.003 A 
ATOM      3  C2  UNL d   1       0.026  -0.071   0.675  0.00  0.00     0.048 A 
ATOM      4  C3  UNL d   1      -0.589   0.163  -0.554  0.00  0.00     0.023 A 
ATOM      5  C4  UNL d   1      -1.832   0.795  -0.613  0.00  0.00     0.048 A 
ATOM      6  C5  UNL d   1      -2.461   1.194   0.567  0.00  0.00     0.003 A 
ATOM      7  I   UNL d   1       0.350  -0.435  -2.309  0.00  0.00    -0.146 I 
ENDROOT
TORSDOF 0
ENDMDL
