MODEL 1
REMARK minimizedAffinity -4.73643064
REMARK minimizedRMSD -1
REMARK  0 active torsions:
REMARK  status: ('A' for Active; 'I' for Inactive)
ROOT
ATOM      1  C   UNL d   1      -0.957   1.120   2.422  0.00  0.00     0.023 A 
ATOM      2  C1  UNL d   1       0.376   1.230   2.028  0.00  0.00     0.003 A 
ATOM      3  C2  UNL d   1       0.781   0.740   0.784  0.00  0.00     0.048 A 
ATOM      4  C3  UNL d   1      -0.153   0.143  -0.061  0.00  0.00     0.023 A 
ATOM      5  C4  UNL d   1      -1.489   0.031   0.328  0.00  0.00     0.048 A 
ATOM      6  C5  UNL d   1      -1.889   0.521   1.573  0.00  0.00     0.003 A 
ATOM      7  I   UNL d   1       0.447  -0.586  -1.913  0.00  0.00    -0.146 I 
ENDROOT
TORSDOF 0
ENDMDL
