MODEL 1
REMARK minimizedAffinity -2.55369592
REMARK minimizedRMSD -1
REMARK  0 active torsions:
REMARK  status: ('A' for Active; 'I' for Inactive)
ROOT
ATOM      1  C1  DEN d   1      -1.579  -0.047   1.541  0.00  0.00     0.130 A 
ATOM      2  C2  DEN d   1      -1.470  -1.494   1.698  0.00  0.00    -0.031 A 
ATOM      3  C3  DEN d   1      -0.643  -2.013   0.590  0.00  0.00     0.027 A 
ATOM      4  C4  DEN d   1       0.477  -0.721  -1.341  0.00  0.00     0.027 A 
ATOM      5  C5  DEN d   1       0.658   0.523  -1.902  0.00  0.00    -0.003 A 
ATOM      6  C6  DEN d   1       0.083   1.651  -1.380  0.00  0.00     0.001 A 
ATOM      7  C7  DEN d   1      -0.665   1.564  -0.235  0.00  0.00     0.017 A 
ATOM      8  C8  DEN d   1      -0.858   0.311   0.333  0.00  0.00    -0.094 A 
ATOM      9  C9  DEN d   1      -0.258  -0.815  -0.204  0.00  0.00    -0.072 A 
ENDROOT
TORSDOF 0
ENDMDL
