MODEL 1
REMARK minimizedAffinity -0.402218878
REMARK minimizedRMSD -1
REMARK  0 active torsions:
REMARK  status: ('A' for Active; 'I' for Inactive)
ROOT
ATOM      1  C1  DEN d   1      -1.047  -2.887   0.007  0.00  0.00     0.130 A 
ATOM      2  C2  DEN d   1      -1.492  -2.518   1.348  0.00  0.00    -0.031 A 
ATOM      3  C3  DEN d   1      -1.072  -1.126   1.601  0.00  0.00     0.027 A 
ATOM      4  C4  DEN d   1       0.213   0.488   0.053  0.00  0.00     0.027 A 
ATOM      5  C5  DEN d   1       0.815   0.622  -1.178  0.00  0.00    -0.003 A 
ATOM      6  C6  DEN d   1       0.867  -0.407  -2.081  0.00  0.00     0.001 A 
ATOM      7  C7  DEN d   1       0.268  -1.603  -1.783  0.00  0.00     0.017 A 
ATOM      8  C8  DEN d   1      -0.334  -1.747  -0.540  0.00  0.00    -0.094 A 
ATOM      9  C9  DEN d   1      -0.387  -0.691   0.354  0.00  0.00    -0.072 A 
ENDROOT
TORSDOF 0
ENDMDL
