MODEL 1
REMARK minimizedAffinity 7.61416531
REMARK minimizedRMSD -1
REMARK  0 active torsions:
REMARK  status: ('A' for Active; 'I' for Inactive)
ROOT
ATOM      1  C1  DEN d   1       1.139   2.676   1.428  0.00  0.00     0.130 A 
ATOM      2  C2  DEN d   1       1.700   3.840   2.107  0.00  0.00    -0.031 A 
ATOM      3  C3  DEN d   1       3.070   4.050   1.597  0.00  0.00     0.027 A 
ATOM      4  C4  DEN d   1       4.367   2.695  -0.173  0.00  0.00     0.027 A 
ATOM      5  C5  DEN d   1       4.309   1.611  -1.022  0.00  0.00    -0.003 A 
ATOM      6  C6  DEN d   1       3.212   0.793  -1.088  0.00  0.00     0.001 A 
ATOM      7  C7  DEN d   1       2.110   1.073  -0.323  0.00  0.00     0.017 A 
ATOM      8  C8  DEN d   1       2.164   2.159   0.540  0.00  0.00    -0.094 A 
ATOM      9  C9  DEN d   1       3.277   2.981   0.583  0.00  0.00    -0.072 A 
ENDROOT
TORSDOF 0
ENDMDL
