MODEL 1
REMARK minimizedAffinity 4.02655506
REMARK minimizedRMSD -1
REMARK  0 active torsions:
REMARK  status: ('A' for Active; 'I' for Inactive)
ROOT
ATOM      1  C1  DEN d   1       0.204   3.070   1.238  0.00  0.00     0.130 A 
ATOM      2  C2  DEN d   1       1.474   3.727   1.538  0.00  0.00    -0.031 A 
ATOM      3  C3  DEN d   1       2.522   3.093   0.713  0.00  0.00     0.027 A 
ATOM      4  C4  DEN d   1       2.302   1.172  -0.994  0.00  0.00     0.027 A 
ATOM      5  C5  DEN d   1       1.426   0.286  -1.581  0.00  0.00    -0.003 A 
ATOM      6  C6  DEN d   1       0.098   0.244  -1.247  0.00  0.00     0.001 A 
ATOM      7  C7  DEN d   1      -0.401   1.134  -0.333  0.00  0.00     0.017 A 
ATOM      8  C8  DEN d   1       0.478   2.025   0.268  0.00  0.00    -0.094 A 
ATOM      9  C9  DEN d   1       1.815   2.060  -0.092  0.00  0.00    -0.072 A 
ENDROOT
TORSDOF 0
ENDMDL
