MODEL 1
REMARK minimizedAffinity -5.91423273
REMARK minimizedRMSD -1
REMARK  0 active torsions:
REMARK  status: ('A' for Active; 'I' for Inactive)
ROOT
ATOM      1  C1  DEN d   1       0.781   0.648  -1.232  0.00  0.00     0.130 A 
ATOM      2  C2  DEN d   1       1.473  -0.386  -1.996  0.00  0.00    -0.031 A 
ATOM      3  C3  DEN d   1       1.054  -1.700  -1.470  0.00  0.00     0.027 A 
ATOM      4  C4  DEN d   1      -0.595  -2.232   0.441  0.00  0.00     0.027 A 
ATOM      5  C5  DEN d   1      -1.423  -1.682   1.394  0.00  0.00    -0.003 A 
ATOM      6  C6  DEN d   1      -1.548  -0.328   1.560  0.00  0.00     0.001 A 
ATOM      7  C7  DEN d   1      -0.867   0.523   0.731  0.00  0.00     0.017 A 
ATOM      8  C8  DEN d   1      -0.024  -0.024  -0.228  0.00  0.00    -0.094 A 
ATOM      9  C9  DEN d   1       0.079  -1.395  -0.388  0.00  0.00    -0.072 A 
ENDROOT
TORSDOF 0
ENDMDL
