MODEL 1
REMARK minimizedAffinity 0.853556871
REMARK minimizedRMSD -1
REMARK  0 active torsions:
REMARK  status: ('A' for Active; 'I' for Inactive)
ROOT
ATOM      1  C1  DEN d   1       1.191  -0.136  -1.897  0.00  0.00     0.130 A 
ATOM      2  C2  DEN d   1       1.724  -1.484  -2.069  0.00  0.00    -0.031 A 
ATOM      3  C3  DEN d   1       0.967  -2.391  -1.184  0.00  0.00     0.027 A 
ATOM      4  C4  DEN d   1      -0.974  -1.842   0.424  0.00  0.00     0.027 A 
ATOM      5  C5  DEN d   1      -1.768  -0.833   0.922  0.00  0.00    -0.003 A 
ATOM      6  C6  DEN d   1      -1.610   0.474   0.543  0.00  0.00     0.001 A 
ATOM      7  C7  DEN d   1      -0.665   0.800  -0.393  0.00  0.00     0.017 A 
ATOM      8  C8  DEN d   1       0.144  -0.211  -0.894  0.00  0.00    -0.094 A 
ATOM      9  C9  DEN d   1      -0.039  -1.528  -0.508  0.00  0.00    -0.072 A 
ENDROOT
TORSDOF 0
ENDMDL
