MODEL 1
REMARK minimizedAffinity -6.69654465
REMARK minimizedRMSD -1
REMARK  0 active torsions:
REMARK  status: ('A' for Active; 'I' for Inactive)
ROOT
ATOM      1  C1  DEN d   1       0.470   0.360  -1.214  0.00  0.00     0.130 A 
ATOM      2  C2  DEN d   1      -0.031   0.980   0.009  0.00  0.00    -0.031 A 
ATOM      3  C3  DEN d   1      -0.548  -0.091   0.885  0.00  0.00     0.027 A 
ATOM      4  C4  DEN d   1      -0.615  -2.636   0.470  0.00  0.00     0.027 A 
ATOM      5  C5  DEN d   1      -0.314  -3.635  -0.430  0.00  0.00    -0.003 A 
ATOM      6  C6  DEN d   1       0.232  -3.372  -1.658  0.00  0.00     0.001 A 
ATOM      7  C7  DEN d   1       0.538  -2.081  -2.002  0.00  0.00     0.017 A 
ATOM      8  C8  DEN d   1       0.232  -1.068  -1.103  0.00  0.00    -0.094 A 
ATOM      9  C9  DEN d   1      -0.310  -1.356   0.138  0.00  0.00    -0.072 A 
ENDROOT
TORSDOF 0
ENDMDL
