MODEL 1
REMARK minimizedAffinity -0.568268239
REMARK minimizedRMSD -1
REMARK  0 active torsions:
REMARK  status: ('A' for Active; 'I' for Inactive)
ROOT
ATOM      1  C1  DEN d   1      -0.766  -3.028  -1.589  0.00  0.00     0.130 A 
ATOM      2  C2  DEN d   1      -1.367  -3.659  -0.417  0.00  0.00    -0.031 A 
ATOM      3  C3  DEN d   1      -1.363  -2.675   0.684  0.00  0.00     0.027 A 
ATOM      4  C4  DEN d   1      -0.492  -0.247   0.687  0.00  0.00     0.027 A 
ATOM      5  C5  DEN d   1       0.115   0.729  -0.072  0.00  0.00    -0.003 A 
ATOM      6  C6  DEN d   1       0.499   0.512  -1.369  0.00  0.00     0.001 A 
ATOM      7  C7  DEN d   1       0.238  -0.696  -1.961  0.00  0.00     0.017 A 
ATOM      8  C8  DEN d   1      -0.367  -1.687  -1.199  0.00  0.00    -0.094 A 
ATOM      9  C9  DEN d   1      -0.758  -1.444   0.106  0.00  0.00    -0.072 A 
ENDROOT
TORSDOF 0
ENDMDL
