MODEL 1
REMARK minimizedAffinity 9.34587383
REMARK minimizedRMSD -1
REMARK  0 active torsions:
REMARK  status: ('A' for Active; 'I' for Inactive)
ROOT
ATOM      1  C1  DEN d   1      -1.781  -2.875   0.921  0.00  0.00     0.130 A 
ATOM      2  C2  DEN d   1      -3.217  -2.940   1.178  0.00  0.00    -0.031 A 
ATOM      3  C3  DEN d   1      -3.668  -1.598   1.596  0.00  0.00     0.027 A 
ATOM      4  C4  DEN d   1      -2.289   0.566   1.865  0.00  0.00     0.027 A 
ATOM      5  C5  DEN d   1      -1.028   1.112   1.771  0.00  0.00    -0.003 A 
ATOM      6  C6  DEN d   1       0.067   0.367   1.424  0.00  0.00     0.001 A 
ATOM      7  C7  DEN d   1      -0.086  -0.959   1.113  0.00  0.00     0.017 A 
ATOM      8  C8  DEN d   1      -1.352  -1.519   1.212  0.00  0.00    -0.094 A 
ATOM      9  C9  DEN d   1      -2.449  -0.745   1.553  0.00  0.00    -0.072 A 
ENDROOT
TORSDOF 0
ENDMDL
