MODEL 1
REMARK minimizedAffinity 1.2177043
REMARK minimizedRMSD -1
REMARK  0 active torsions:
REMARK  status: ('A' for Active; 'I' for Inactive)
ROOT
ATOM      1  C1  DEN d   1       0.277  -0.135  -1.079  0.00  0.00     0.130 A 
ATOM      2  C2  DEN d   1       1.665  -0.427  -1.425  0.00  0.00    -0.031 A 
ATOM      3  C3  DEN d   1       1.963  -1.808  -0.995  0.00  0.00     0.027 A 
ATOM      4  C4  DEN d   1       0.415  -3.516   0.162  0.00  0.00     0.027 A 
ATOM      5  C5  DEN d   1      -0.849  -3.722   0.670  0.00  0.00    -0.003 A 
ATOM      6  C6  DEN d   1      -1.808  -2.743   0.661  0.00  0.00     0.001 A 
ATOM      7  C7  DEN d   1      -1.532  -1.528   0.093  0.00  0.00     0.017 A 
ATOM      8  C8  DEN d   1      -0.258  -1.310  -0.414  0.00  0.00    -0.094 A 
ATOM      9  C9  DEN d   1       0.694  -2.316  -0.407  0.00  0.00    -0.072 A 
ENDROOT
TORSDOF 0
ENDMDL
