MODEL 1
REMARK minimizedAffinity -4.74025393
REMARK minimizedRMSD -1
REMARK  0 active torsions:
REMARK  status: ('A' for Active; 'I' for Inactive)
ROOT
ATOM      1  C1  DEN d   1       0.002  -0.305  -1.825  0.00  0.00     0.130 A 
ATOM      2  C2  DEN d   1      -0.219   0.615  -0.714  0.00  0.00    -0.031 A 
ATOM      3  C3  DEN d   1      -0.402  -0.186   0.513  0.00  0.00     0.027 A 
ATOM      4  C4  DEN d   1      -0.358  -2.749   0.799  0.00  0.00     0.027 A 
ATOM      5  C5  DEN d   1      -0.216  -3.950   0.139  0.00  0.00    -0.003 A 
ATOM      6  C6  DEN d   1      -0.027  -4.020  -1.216  0.00  0.00     0.001 A 
ATOM      7  C7  DEN d   1       0.071  -2.867  -1.949  0.00  0.00     0.017 A 
ATOM      8  C8  DEN d   1      -0.079  -1.653  -1.292  0.00  0.00    -0.094 A 
ATOM      9  C9  DEN d   1      -0.258  -1.602   0.080  0.00  0.00    -0.072 A 
ENDROOT
TORSDOF 0
ENDMDL
