MODEL 1
REMARK minimizedAffinity 1.80294871
REMARK minimizedRMSD -1
REMARK  0 active torsions:
REMARK  status: ('A' for Active; 'I' for Inactive)
ROOT
ATOM      1  C1  DEN d   1       1.556   2.379   2.401  0.00  0.00     0.130 A 
ATOM      2  C2  DEN d   1       1.305   3.753   1.974  0.00  0.00    -0.031 A 
ATOM      3  C3  DEN d   1       0.346   3.714   0.852  0.00  0.00     0.027 A 
ATOM      4  C4  DEN d   1      -0.773   1.672  -0.257  0.00  0.00     0.027 A 
ATOM      5  C5  DEN d   1      -0.862   0.297  -0.246  0.00  0.00    -0.003 A 
ATOM      6  C6  DEN d   1      -0.132  -0.475   0.618  0.00  0.00     0.001 A 
ATOM      7  C7  DEN d   1       0.687   0.125   1.539  0.00  0.00     0.017 A 
ATOM      8  C8  DEN d   1       0.787   1.510   1.529  0.00  0.00    -0.094 A 
ATOM      9  C9  DEN d   1       0.032   2.273   0.655  0.00  0.00    -0.072 A 
ENDROOT
TORSDOF 0
ENDMDL
