MODEL 1
REMARK minimizedAffinity -6.93022442
REMARK minimizedRMSD -1
REMARK  0 active torsions:
REMARK  status: ('A' for Active; 'I' for Inactive)
ROOT
ATOM      1  C1  DEN d   1       0.750   0.567  -1.293  0.00  0.00     0.130 A 
ATOM      2  C2  DEN d   1       0.073   0.969  -0.064  0.00  0.00    -0.031 A 
ATOM      3  C3  DEN d   1      -0.321  -0.255   0.662  0.00  0.00     0.027 A 
ATOM      4  C4  DEN d   1       0.053  -2.721   0.007  0.00  0.00     0.027 A 
ATOM      5  C5  DEN d   1       0.571  -3.561  -0.954  0.00  0.00    -0.003 A 
ATOM      6  C6  DEN d   1       1.150  -3.088  -2.102  0.00  0.00     0.001 A 
ATOM      7  C7  DEN d   1       1.266  -1.737  -2.297  0.00  0.00     0.017 A 
ATOM      8  C8  DEN d   1       0.739  -0.884  -1.336  0.00  0.00    -0.094 A 
ATOM      9  C9  DEN d   1       0.168  -1.382  -0.177  0.00  0.00    -0.072 A 
ENDROOT
TORSDOF 0
ENDMDL
