MODEL 1
REMARK minimizedAffinity -5.24307346
REMARK minimizedRMSD -1
REMARK  0 active torsions:
REMARK  status: ('A' for Active; 'I' for Inactive)
ROOT
ATOM      1  C1  DEN d   1       1.453  -0.138  -0.278  0.00  0.00     0.130 A 
ATOM      2  C2  DEN d   1       0.265  -0.519  -1.037  0.00  0.00    -0.031 A 
ATOM      3  C3  DEN d   1      -0.524   0.703  -1.293  0.00  0.00     0.027 A 
ATOM      4  C4  DEN d   1      -0.023   3.135  -0.595  0.00  0.00     0.027 A 
ATOM      5  C5  DEN d   1       0.862   3.951   0.073  0.00  0.00    -0.003 A 
ATOM      6  C6  DEN d   1       1.980   3.461   0.696  0.00  0.00     0.001 A 
ATOM      7  C7  DEN d   1       2.265   2.123   0.624  0.00  0.00     0.017 A 
ATOM      8  C8  DEN d   1       1.374   1.293  -0.042  0.00  0.00    -0.094 A 
ATOM      9  C9  DEN d   1       0.256   1.809  -0.675  0.00  0.00    -0.072 A 
ENDROOT
TORSDOF 0
ENDMDL
