MODEL 1
REMARK minimizedAffinity -1.28585172
REMARK minimizedRMSD -1
REMARK  2 active torsions:
REMARK  status: ('A' for Active; 'I' for Inactive)
REMARK    1  A    between atoms: C1_2  and  C2_3 
REMARK    2  A    between atoms: C2_3  and  C3_4 
ROOT
ATOM      1  C3  UNL d   1      -0.954   3.516   1.139  0.00  0.00    -0.075 A 
ATOM      2  C4  UNL d   1      -1.150   2.902   2.384  0.00  0.00     0.002 A 
ATOM      3  C5  UNL d   1      -2.131   3.371   3.259  0.00  0.00     0.002 A 
ATOM      4  C6  UNL d   1      -2.919   4.463   2.905  0.00  0.00    -0.004 A 
ATOM      5  C7  UNL d   1      -2.722   5.092   1.677  0.00  0.00     0.002 A 
ATOM      6  C8  UNL d   1      -1.745   4.621   0.798  0.00  0.00     0.002 A 
ENDROOT
BRANCH   1   7
ATOM      7  C2  UNL d   1       0.085   2.994   0.176  0.00  0.00     0.056 C 
BRANCH   7   8
ATOM      8  C1  UNL d   1       0.527   4.016  -0.878  0.00  0.00     0.007 C 
ATOM      9  C   UNL d   1       1.739   4.833  -0.450  0.00  0.00     0.009 C 
ENDBRANCH   7   8
ENDBRANCH   1   7
TORSDOF 2
ENDMDL
