MODEL 1
REMARK minimizedAffinity 2.38637352
REMARK minimizedRMSD -1
REMARK  2 active torsions:
REMARK  status: ('A' for Active; 'I' for Inactive)
REMARK    1  A    between atoms: C1_2  and  C2_3 
REMARK    2  A    between atoms: C2_3  and  C3_4 
ROOT
ATOM      1  C3  UNL d   1      -0.067   3.260   1.092  0.00  0.00    -0.075 A 
ATOM      2  C4  UNL d   1       0.856   3.540   0.074  0.00  0.00     0.002 A 
ATOM      3  C5  UNL d   1       0.455   4.213  -1.080  0.00  0.00     0.002 A 
ATOM      4  C6  UNL d   1      -0.873   4.605  -1.236  0.00  0.00    -0.004 A 
ATOM      5  C7  UNL d   1      -1.802   4.316  -0.239  0.00  0.00     0.002 A 
ATOM      6  C8  UNL d   1      -1.403   3.647   0.919  0.00  0.00     0.002 A 
ENDROOT
BRANCH   1   7
ATOM      7  C2  UNL d   1       0.366   2.558   2.357  0.00  0.00     0.056 C 
BRANCH   7   8
ATOM      8  C1  UNL d   1       1.878   2.594   2.603  0.00  0.00     0.007 C 
ATOM      9  C   UNL d   1       2.293   3.632   3.638  0.00  0.00     0.009 C 
ENDBRANCH   7   8
ENDBRANCH   1   7
TORSDOF 2
ENDMDL
