MODEL 1
REMARK minimizedAffinity 5.02810383
REMARK minimizedRMSD -1
REMARK  2 active torsions:
REMARK  status: ('A' for Active; 'I' for Inactive)
REMARK    1  A    between atoms: C1_2  and  C2_3 
REMARK    2  A    between atoms: C2_3  and  C3_4 
ROOT
ATOM      1  C3  UNL d   1       4.684  -3.740  -1.917  0.00  0.00    -0.075 A 
ATOM      2  C4  UNL d   1       5.024  -3.291  -3.202  0.00  0.00     0.002 A 
ATOM      3  C5  UNL d   1       4.703  -4.052  -4.326  0.00  0.00     0.002 A 
ATOM      4  C6  UNL d   1       4.050  -5.274  -4.180  0.00  0.00    -0.004 A 
ATOM      5  C7  UNL d   1       3.722  -5.738  -2.908  0.00  0.00     0.002 A 
ATOM      6  C8  UNL d   1       4.038  -4.976  -1.782  0.00  0.00     0.002 A 
ENDROOT
BRANCH   1   7
ATOM      7  C2  UNL d   1       5.002  -2.907  -0.698  0.00  0.00     0.056 C 
BRANCH   7   8
ATOM      8  C1  UNL d   1       3.867  -1.971  -0.269  0.00  0.00     0.007 C 
ATOM      9  C   UNL d   1       2.772  -2.677   0.520  0.00  0.00     0.009 C 
ENDBRANCH   7   8
ENDBRANCH   1   7
TORSDOF 2
ENDMDL
