MODEL 1
REMARK minimizedAffinity 2.72301579
REMARK minimizedRMSD -1
REMARK  2 active torsions:
REMARK  status: ('A' for Active; 'I' for Inactive)
REMARK    1  A    between atoms: C1_2  and  C2_3 
REMARK    2  A    between atoms: C2_3  and  C3_4 
ROOT
ATOM      1  C3  UNL d   1       0.303   3.184   2.212  0.00  0.00    -0.075 A 
ATOM      2  C4  UNL d   1       1.198   3.515   1.184  0.00  0.00     0.002 A 
ATOM      3  C5  UNL d   1       0.887   4.525   0.273  0.00  0.00     0.002 A 
ATOM      4  C6  UNL d   1      -0.322   5.209   0.372  0.00  0.00    -0.004 A 
ATOM      5  C7  UNL d   1      -1.225   4.878   1.379  0.00  0.00     0.002 A 
ATOM      6  C8  UNL d   1      -0.916   3.870   2.295  0.00  0.00     0.002 A 
ENDROOT
BRANCH   1   7
ATOM      7  C2  UNL d   1       0.646   2.112   3.219  0.00  0.00     0.056 C 
BRANCH   7   8
ATOM      8  C1  UNL d   1       2.144   1.993   3.518  0.00  0.00     0.007 C 
ATOM      9  C   UNL d   1       2.676   3.128   4.382  0.00  0.00     0.009 C 
ENDBRANCH   7   8
ENDBRANCH   1   7
TORSDOF 2
ENDMDL
