MODEL 1
REMARK minimizedAffinity 4.03344059
REMARK minimizedRMSD -1
REMARK  2 active torsions:
REMARK  status: ('A' for Active; 'I' for Inactive)
REMARK    1  A    between atoms: C1_2  and  C2_3 
REMARK    2  A    between atoms: C2_3  and  C3_4 
ROOT
ATOM      1  C3  UNL d   1      -5.973   3.735  -3.888  0.00  0.00    -0.075 A 
ATOM      2  C4  UNL d   1      -5.930   2.334  -3.923  0.00  0.00     0.002 A 
ATOM      3  C5  UNL d   1      -5.934   1.595  -2.740  0.00  0.00     0.002 A 
ATOM      4  C6  UNL d   1      -5.971   2.246  -1.509  0.00  0.00    -0.004 A 
ATOM      5  C7  UNL d   1      -5.997   3.638  -1.461  0.00  0.00     0.002 A 
ATOM      6  C8  UNL d   1      -5.998   4.380  -2.643  0.00  0.00     0.002 A 
ENDROOT
BRANCH   1   7
ATOM      7  C2  UNL d   1      -5.999   4.540  -5.165  0.00  0.00     0.056 C 
BRANCH   7   8
ATOM      8  C1  UNL d   1      -4.636   4.661  -5.854  0.00  0.00     0.007 C 
ATOM      9  C   UNL d   1      -3.526   5.110  -4.914  0.00  0.00     0.009 C 
ENDBRANCH   7   8
ENDBRANCH   1   7
TORSDOF 2
ENDMDL
