MODEL 1
REMARK minimizedAffinity 2.76971102
REMARK minimizedRMSD -1
REMARK  2 active torsions:
REMARK  status: ('A' for Active; 'I' for Inactive)
REMARK    1  A    between atoms: C1_2  and  C2_3 
REMARK    2  A    between atoms: C2_3  and  C3_4 
ROOT
ATOM      1  C3  UNL d   1      -5.905   3.952  -3.132  0.00  0.00    -0.075 A 
ATOM      2  C4  UNL d   1      -5.998   4.199  -1.755  0.00  0.00     0.002 A 
ATOM      3  C5  UNL d   1      -5.915   3.149  -0.840  0.00  0.00     0.002 A 
ATOM      4  C6  UNL d   1      -5.748   1.841  -1.290  0.00  0.00    -0.004 A 
ATOM      5  C7  UNL d   1      -5.670   1.582  -2.657  0.00  0.00     0.002 A 
ATOM      6  C8  UNL d   1      -5.749   2.632  -3.574  0.00  0.00     0.002 A 
ENDROOT
BRANCH   1   7
ATOM      7  C2  UNL d   1      -5.964   5.088  -4.126  0.00  0.00     0.056 C 
BRANCH   7   8
ATOM      8  C1  UNL d   1      -5.746   4.656  -5.580  0.00  0.00     0.007 C 
ATOM      9  C   UNL d   1      -4.281   4.667  -5.996  0.00  0.00     0.009 C 
ENDBRANCH   7   8
ENDBRANCH   1   7
TORSDOF 2
ENDMDL
