MODEL 1
REMARK minimizedAffinity 8.40275097
REMARK minimizedRMSD -1
REMARK  2 active torsions:
REMARK  status: ('A' for Active; 'I' for Inactive)
REMARK    1  A    between atoms: C1_2  and  C2_3 
REMARK    2  A    between atoms: C2_3  and  C3_4 
ROOT
ATOM      1  C3  UNL d   1      -0.715   3.430   0.702  0.00  0.00    -0.075 A 
ATOM      2  C4  UNL d   1      -1.711   3.631   1.668  0.00  0.00     0.002 A 
ATOM      3  C5  UNL d   1      -2.493   4.787   1.650  0.00  0.00     0.002 A 
ATOM      4  C6  UNL d   1      -2.282   5.759   0.675  0.00  0.00    -0.004 A 
ATOM      5  C7  UNL d   1      -1.284   5.577  -0.280  0.00  0.00     0.002 A 
ATOM      6  C8  UNL d   1      -0.504   4.420  -0.267  0.00  0.00     0.002 A 
ENDROOT
BRANCH   1   7
ATOM      7  C2  UNL d   1       0.114   2.168   0.697  0.00  0.00     0.056 C 
BRANCH   7   8
ATOM      8  C1  UNL d   1      -0.023   1.336  -0.582  0.00  0.00     0.007 C 
ATOM      9  C   UNL d   1       1.150   0.392  -0.812  0.00  0.00     0.009 C 
ENDBRANCH   7   8
ENDBRANCH   1   7
TORSDOF 2
ENDMDL
