MODEL 1
REMARK minimizedAffinity -3.38927746
REMARK minimizedRMSD -1
REMARK  2 active torsions:
REMARK  status: ('A' for Active; 'I' for Inactive)
REMARK    1  A    between atoms: C1_2  and  C2_3 
REMARK    2  A    between atoms: C2_3  and  C3_4 
ROOT
ATOM      1  C3  UNL d   1      -5.495   4.115  -3.399  0.00  0.00    -0.075 A 
ATOM      2  C4  UNL d   1      -5.998   2.843  -3.707  0.00  0.00     0.002 A 
ATOM      3  C5  UNL d   1      -5.548   1.717  -3.016  0.00  0.00     0.002 A 
ATOM      4  C6  UNL d   1      -4.585   1.848  -2.018  0.00  0.00    -0.004 A 
ATOM      5  C7  UNL d   1      -4.066   3.105  -1.716  0.00  0.00     0.002 A 
ATOM      6  C8  UNL d   1      -4.518   4.233  -2.403  0.00  0.00     0.002 A 
ENDROOT
BRANCH   1   7
ATOM      7  C2  UNL d   1      -6.000   5.341  -4.123  0.00  0.00     0.056 C 
BRANCH   7   8
ATOM      8  C1  UNL d   1      -5.746   5.322  -5.634  0.00  0.00     0.007 C 
ATOM      9  C   UNL d   1      -4.331   4.892  -5.999  0.00  0.00     0.009 C 
ENDBRANCH   7   8
ENDBRANCH   1   7
TORSDOF 2
ENDMDL
