MODEL 1
REMARK minimizedAffinity 10.8214083
REMARK minimizedRMSD -1
REMARK  0 active torsions:
REMARK  status: ('A' for Active; 'I' for Inactive)
ROOT
ATOM      1  C   UNL d   1       4.369   0.904  -1.307  0.00  0.00    -0.002 A 
ATOM      2  C1  UNL d   1       4.585   0.726   0.052  0.00  0.00     0.010 A 
ATOM      3  C2  UNL d   1       4.987   1.796   0.854  0.00  0.00     0.041 A 
ATOM      4  C3  UNL d   1       5.168   3.061   0.261  0.00  0.00    -0.075 A 
ATOM      5  S   UNL d   1       5.655   4.517   1.047  0.00  0.00     0.015 SA
ATOM      6  C4  UNL d   1       5.587   5.410  -0.403  0.00  0.00     0.022 A 
ATOM      7  C5  UNL d   1       5.204   4.632  -1.470  0.00  0.00     0.026 A 
ATOM      8  C6  UNL d   1       4.956   3.266  -1.105  0.00  0.00    -0.082 A 
ATOM      9  C7  UNL d   1       4.550   2.161  -1.891  0.00  0.00     0.045 A 
ENDROOT
TORSDOF 0
ENDMDL
