MODEL 1
REMARK minimizedAffinity 5.4610858
REMARK minimizedRMSD -1
REMARK  0 active torsions:
REMARK  status: ('A' for Active; 'I' for Inactive)
ROOT
ATOM      1  C   UNL d   1       4.219  -0.015  -1.323  0.00  0.00    -0.002 A 
ATOM      2  C1  UNL d   1       4.373  -0.077   0.055  0.00  0.00     0.010 A 
ATOM      3  C2  UNL d   1       4.891   1.011   0.761  0.00  0.00     0.041 A 
ATOM      4  C3  UNL d   1       5.252   2.174   0.052  0.00  0.00    -0.075 A 
ATOM      5  S   UNL d   1       5.906   3.629   0.706  0.00  0.00     0.015 SA
ATOM      6  C4  UNL d   1       5.995   4.367  -0.827  0.00  0.00     0.022 A 
ATOM      7  C5  UNL d   1       5.542   3.537  -1.826  0.00  0.00     0.026 A 
ATOM      8  C6  UNL d   1       5.106   2.260  -1.335  0.00  0.00    -0.082 A 
ATOM      9  C7  UNL d   1       4.580   1.140  -2.023  0.00  0.00     0.045 A 
ENDROOT
TORSDOF 0
ENDMDL
