MODEL 1
REMARK minimizedAffinity 13.0048027
REMARK minimizedRMSD -1
REMARK  0 active torsions:
REMARK  status: ('A' for Active; 'I' for Inactive)
ROOT
ATOM      1  C   UNL d   1      -2.532   0.393  -4.874  0.00  0.00    -0.002 A 
ATOM      2  C1  UNL d   1      -3.394   1.411  -5.257  0.00  0.00     0.010 A 
ATOM      3  C2  UNL d   1      -4.495   1.744  -4.466  0.00  0.00     0.041 A 
ATOM      4  C3  UNL d   1      -4.716   1.032  -3.271  0.00  0.00    -0.075 A 
ATOM      5  S   UNL d   1      -5.998   1.266  -2.142  0.00  0.00     0.015 SA
ATOM      6  C4  UNL d   1      -5.431   0.022  -1.125  0.00  0.00     0.022 A 
ATOM      7  C5  UNL d   1      -4.292  -0.569  -1.619  0.00  0.00     0.026 A 
ATOM      8  C6  UNL d   1      -3.861   0.004  -2.863  0.00  0.00    -0.082 A 
ATOM      9  C7  UNL d   1      -2.754  -0.311  -3.688  0.00  0.00     0.045 A 
ENDROOT
TORSDOF 0
ENDMDL
