MODEL 1
REMARK minimizedAffinity 6.886724
REMARK minimizedRMSD -1
REMARK  0 active torsions:
REMARK  status: ('A' for Active; 'I' for Inactive)
ROOT
ATOM      1  C   UNL d   1       1.149  -1.104   4.137  0.00  0.00    -0.002 A 
ATOM      2  C1  UNL d   1       0.295  -1.411   3.087  0.00  0.00     0.010 A 
ATOM      3  C2  UNL d   1      -0.324  -2.661   3.018  0.00  0.00     0.041 A 
ATOM      4  C3  UNL d   1      -0.069  -3.605   4.032  0.00  0.00    -0.075 A 
ATOM      5  S   UNL d   1      -0.715  -5.198   4.155  0.00  0.00     0.015 SA
ATOM      6  C4  UNL d   1       0.126  -5.508   5.605  0.00  0.00     0.022 A 
ATOM      7  C5  UNL d   1       0.887  -4.433   5.999  0.00  0.00     0.026 A 
ATOM      8  C6  UNL d   1       0.787  -3.318   5.100  0.00  0.00    -0.082 A 
ATOM      9  C7  UNL d   1       1.400  -2.043   5.141  0.00  0.00     0.045 A 
ENDROOT
TORSDOF 0
ENDMDL
