MODEL 1
REMARK minimizedAffinity 19.4399052
REMARK minimizedRMSD -1
REMARK  0 active torsions:
REMARK  status: ('A' for Active; 'I' for Inactive)
ROOT
ATOM      1  C   UNL d   1      -4.220   1.087  -5.618  0.00  0.00    -0.002 A 
ATOM      2  C1  UNL d   1      -2.912   1.355  -5.998  0.00  0.00     0.010 A 
ATOM      3  C2  UNL d   1      -1.844   0.703  -5.378  0.00  0.00     0.041 A 
ATOM      4  C3  UNL d   1      -2.116  -0.233  -4.361  0.00  0.00    -0.075 A 
ATOM      5  S   UNL d   1      -0.968  -1.154  -3.462  0.00  0.00     0.015 SA
ATOM      6  C4  UNL d   1      -2.186  -1.925  -2.553  0.00  0.00     0.022 A 
ATOM      7  C5  UNL d   1      -3.444  -1.503  -2.914  0.00  0.00     0.026 A 
ATOM      8  C6  UNL d   1      -3.424  -0.521  -3.962  0.00  0.00    -0.082 A 
ATOM      9  C7  UNL d   1      -4.485   0.157  -4.609  0.00  0.00     0.045 A 
ENDROOT
TORSDOF 0
ENDMDL
