MODEL 1
REMARK minimizedAffinity 14.2900276
REMARK minimizedRMSD -1
REMARK  0 active torsions:
REMARK  status: ('A' for Active; 'I' for Inactive)
ROOT
ATOM      1  C   UNL d   1       5.749   3.010  -0.698  0.00  0.00    -0.002 A 
ATOM      2  C1  UNL d   1       6.000   2.653   0.619  0.00  0.00     0.010 A 
ATOM      3  C2  UNL d   1       5.374   1.541   1.185  0.00  0.00     0.041 A 
ATOM      4  C3  UNL d   1       4.485   0.784   0.397  0.00  0.00    -0.075 A 
ATOM      5  S   UNL d   1       3.606  -0.619   0.877  0.00  0.00     0.015 SA
ATOM      6  C4  UNL d   1       2.877  -0.778  -0.655  0.00  0.00     0.022 A 
ATOM      7  C5  UNL d   1       3.283   0.207  -1.524  0.00  0.00     0.026 A 
ATOM      8  C6  UNL d   1       4.217   1.123  -0.933  0.00  0.00    -0.082 A 
ATOM      9  C7  UNL d   1       4.866   2.257  -1.477  0.00  0.00     0.045 A 
ENDROOT
TORSDOF 0
ENDMDL
