MODEL 1
REMARK minimizedAffinity 8.02010632
REMARK minimizedRMSD -1
REMARK  0 active torsions:
REMARK  status: ('A' for Active; 'I' for Inactive)
ROOT
ATOM      1  C   UNL d   1       3.370  -0.368   0.004  0.00  0.00    -0.002 A 
ATOM      2  C1  UNL d   1       3.696  -0.005  -1.295  0.00  0.00     0.010 A 
ATOM      3  C2  UNL d   1       4.485   1.120  -1.541  0.00  0.00     0.041 A 
ATOM      4  C3  UNL d   1       4.948   1.880  -0.449  0.00  0.00    -0.075 A 
ATOM      5  S   UNL d   1       5.930   3.296  -0.509  0.00  0.00     0.015 SA
ATOM      6  C4  UNL d   1       5.940   3.452   1.188  0.00  0.00     0.022 A 
ATOM      7  C5  UNL d   1       5.217   2.457   1.801  0.00  0.00     0.026 A 
ATOM      8  C6  UNL d   1       4.634   1.534   0.868  0.00  0.00    -0.082 A 
ATOM      9  C7  UNL d   1       3.831   0.389   1.085  0.00  0.00     0.045 A 
ENDROOT
TORSDOF 0
ENDMDL
