MODEL 1
REMARK minimizedAffinity -0.236475468
REMARK minimizedRMSD -1
REMARK  0 active torsions:
REMARK  status: ('A' for Active; 'I' for Inactive)
ROOT
ATOM      1  C   UNL d   1      -2.986   0.003  -4.061  0.00  0.00    -0.002 A 
ATOM      2  C1  UNL d   1      -3.000   0.721  -5.249  0.00  0.00     0.010 A 
ATOM      3  C2  UNL d   1      -3.773   1.877  -5.371  0.00  0.00     0.041 A 
ATOM      4  C3  UNL d   1      -4.538   2.305  -4.268  0.00  0.00    -0.075 A 
ATOM      5  S   UNL d   1      -5.559   3.692  -4.186  0.00  0.00     0.015 SA
ATOM      6  C4  UNL d   1      -6.000   3.364  -2.573  0.00  0.00     0.022 A 
ATOM      7  C5  UNL d   1      -5.392   2.229  -2.092  0.00  0.00     0.026 A 
ATOM      8  C6  UNL d   1      -4.539   1.599  -3.061  0.00  0.00    -0.082 A 
ATOM      9  C7  UNL d   1      -3.746   0.431  -2.969  0.00  0.00     0.045 A 
ENDROOT
TORSDOF 0
ENDMDL
