MODEL 1
REMARK minimizedAffinity -4.79375553
REMARK minimizedRMSD -1
REMARK  0 active torsions:
REMARK  status: ('A' for Active; 'I' for Inactive)
ROOT
ATOM      1  C   UNL d   1      -0.974   1.394   2.579  0.00  0.00     0.023 A 
ATOM      2  C1  UNL d   1       0.404   1.267   2.399  0.00  0.00     0.003 A 
ATOM      3  C2  UNL d   1       0.908   0.727   1.215  0.00  0.00     0.048 A 
ATOM      4  C3  UNL d   1       0.029   0.316   0.213  0.00  0.00     0.023 A 
ATOM      5  C4  UNL d   1      -1.350   0.442   0.387  0.00  0.00     0.048 A 
ATOM      6  C5  UNL d   1      -1.849   0.982   1.574  0.00  0.00     0.003 A 
ATOM      7  I   UNL d   1       0.778  -0.488  -1.552  0.00  0.00    -0.146 I 
ENDROOT
TORSDOF 0
ENDMDL
