MODEL 1
REMARK minimizedAffinity 2.25208545
REMARK minimizedRMSD -1
REMARK  0 active torsions:
REMARK  status: ('A' for Active; 'I' for Inactive)
ROOT
ATOM      1  C   UNL d   1      -2.209   0.886   1.088  0.00  0.00     0.023 A 
ATOM      2  C1  UNL d   1      -1.559   0.165   0.086  0.00  0.00     0.003 A 
ATOM      3  C2  UNL d   1      -0.203  -0.143   0.213  0.00  0.00     0.048 A 
ATOM      4  C3  UNL d   1       0.497   0.273   1.345  0.00  0.00     0.023 A 
ATOM      5  C4  UNL d   1      -0.149   0.994   2.351  0.00  0.00     0.048 A 
ATOM      6  C5  UNL d   1      -1.504   1.300   2.219  0.00  0.00     0.003 A 
ATOM      7  I   UNL d   1       2.516  -0.184   1.536  0.00  0.00    -0.146 I 
ENDROOT
TORSDOF 0
ENDMDL
