MODEL 1
REMARK minimizedAffinity 6.85915852
REMARK minimizedRMSD -1
REMARK  0 active torsions:
REMARK  status: ('A' for Active; 'I' for Inactive)
ROOT
ATOM      1  C   UNL d   1       5.300  -2.228   3.424  0.00  0.00     0.172 C 
ATOM      2  N   UNL d   1       3.896  -1.902   3.501  0.00  0.00    -0.070 N 
ATOM      3  C1  UNL d   1       3.175  -1.242   2.542  0.00  0.00    -0.004 A 
ATOM      4  C2  UNL d   1       1.878  -1.128   2.992  0.00  0.00    -0.047 A 
ATOM      5  C3  UNL d   1       1.816  -1.740   4.267  0.00  0.00    -0.047 A 
ATOM      6  C4  UNL d   1       3.079  -2.211   4.557  0.00  0.00    -0.004 A 
ENDROOT
TORSDOF 0
ENDMDL
