MODEL 1
REMARK minimizedAffinity -1.33789885
REMARK minimizedRMSD -1
REMARK  0 active torsions:
REMARK  status: ('A' for Active; 'I' for Inactive)
ROOT
ATOM      1  C   UNL d   1       5.918   5.728  -5.491  0.00  0.00     0.172 C 
ATOM      2  N   UNL d   1       5.322   5.793  -4.177  0.00  0.00    -0.070 N 
ATOM      3  C1  UNL d   1       5.997   6.000  -3.004  0.00  0.00    -0.004 A 
ATOM      4  C2  UNL d   1       5.075   5.995  -1.980  0.00  0.00    -0.047 A 
ATOM      5  C3  UNL d   1       3.802   5.777  -2.557  0.00  0.00    -0.047 A 
ATOM      6  C4  UNL d   1       3.984   5.656  -3.919  0.00  0.00    -0.004 A 
ENDROOT
TORSDOF 0
ENDMDL
