MODEL 1
REMARK minimizedAffinity 6.60743999
REMARK minimizedRMSD -1
REMARK  0 active torsions:
REMARK  status: ('A' for Active; 'I' for Inactive)
ROOT
ATOM      1  C   UNL d   1       4.636  -2.622   5.999  0.00  0.00     0.172 C 
ATOM      2  N   UNL d   1       3.548  -2.471   5.063  0.00  0.00    -0.070 N 
ATOM      3  C1  UNL d   1       3.042  -1.281   4.611  0.00  0.00    -0.004 A 
ATOM      4  C2  UNL d   1       2.017  -1.563   3.735  0.00  0.00    -0.047 A 
ATOM      5  C3  UNL d   1       1.901  -2.971   3.657  0.00  0.00    -0.047 A 
ATOM      6  C4  UNL d   1       2.861  -3.508   4.489  0.00  0.00    -0.004 A 
ENDROOT
TORSDOF 0
ENDMDL
