MODEL 1
REMARK minimizedAffinity 1.09732366
REMARK minimizedRMSD -1
REMARK  0 active torsions:
REMARK  status: ('A' for Active; 'I' for Inactive)
ROOT
ATOM      1  C   UNL d   1       5.725  -2.068   4.200  0.00  0.00     0.172 C 
ATOM      2  N   UNL d   1       4.297  -1.929   4.035  0.00  0.00    -0.070 N 
ATOM      3  C1  UNL d   1       3.674  -1.053   3.187  0.00  0.00    -0.004 A 
ATOM      4  C2  UNL d   1       2.313  -1.229   3.323  0.00  0.00    -0.047 A 
ATOM      5  C3  UNL d   1       2.113  -2.245   4.287  0.00  0.00    -0.047 A 
ATOM      6  C4  UNL d   1       3.357  -2.661   4.711  0.00  0.00    -0.004 A 
ENDROOT
TORSDOF 0
ENDMDL
