MODEL 1
REMARK minimizedAffinity 1.49724686
REMARK minimizedRMSD -1
REMARK  0 active torsions:
REMARK  status: ('A' for Active; 'I' for Inactive)
ROOT
ATOM      1  C   UNL d   1       2.257  -1.207   3.796  0.00  0.00     0.172 C 
ATOM      2  N   UNL d   1       2.436  -0.080   2.911  0.00  0.00    -0.070 N 
ATOM      3  C1  UNL d   1       1.617   0.252   1.866  0.00  0.00    -0.004 A 
ATOM      4  C2  UNL d   1       2.128   1.386   1.273  0.00  0.00    -0.047 A 
ATOM      5  C3  UNL d   1       3.296   1.747   1.986  0.00  0.00    -0.047 A 
ATOM      6  C4  UNL d   1       3.463   0.823   2.995  0.00  0.00    -0.004 A 
ENDROOT
TORSDOF 0
ENDMDL
