MODEL 1
REMARK minimizedAffinity 2.25240517
REMARK minimizedRMSD -1
REMARK  0 active torsions:
REMARK  status: ('A' for Active; 'I' for Inactive)
ROOT
ATOM      1  C   UNL d   1       2.955  -1.920   4.812  0.00  0.00     0.172 C 
ATOM      2  N   UNL d   1       2.330  -3.129   5.295  0.00  0.00    -0.070 N 
ATOM      3  C1  UNL d   1       0.996  -3.287   5.558  0.00  0.00    -0.004 A 
ATOM      4  C2  UNL d   1       0.802  -4.578   5.998  0.00  0.00    -0.047 A 
ATOM      5  C3  UNL d   1       2.064  -5.219   6.000  0.00  0.00    -0.047 A 
ATOM      6  C4  UNL d   1       2.992  -4.298   5.560  0.00  0.00    -0.004 A 
ENDROOT
TORSDOF 0
ENDMDL
