MODEL 1
REMARK minimizedAffinity 0.487762302
REMARK minimizedRMSD -1
REMARK  0 active torsions:
REMARK  status: ('A' for Active; 'I' for Inactive)
ROOT
ATOM      1  C   UNL d   1       1.165  -3.783   5.030  0.00  0.00     0.172 C 
ATOM      2  N   UNL d   1       1.707  -2.882   4.039  0.00  0.00    -0.070 N 
ATOM      3  C1  UNL d   1       2.494  -3.243   2.978  0.00  0.00    -0.004 A 
ATOM      4  C2  UNL d   1       2.800  -2.100   2.272  0.00  0.00    -0.047 A 
ATOM      5  C3  UNL d   1       2.176  -1.015   2.932  0.00  0.00    -0.047 A 
ATOM      6  C4  UNL d   1       1.506  -1.527   4.022  0.00  0.00    -0.004 A 
ENDROOT
TORSDOF 0
ENDMDL
