MODEL 1
REMARK minimizedAffinity 4.68385935
REMARK minimizedRMSD -1
REMARK  0 active torsions:
REMARK  status: ('A' for Active; 'I' for Inactive)
ROOT
ATOM      1  C   UNL d   1       2.060  -0.648   1.811  0.00  0.00     0.172 C 
ATOM      2  N   UNL d   1       1.297  -0.986   0.633  0.00  0.00    -0.070 N 
ATOM      3  C1  UNL d   1      -0.040  -0.748   0.452  0.00  0.00    -0.004 A 
ATOM      4  C2  UNL d   1      -0.387  -1.215  -0.797  0.00  0.00    -0.047 A 
ATOM      5  C3  UNL d   1       0.781  -1.754  -1.387  0.00  0.00    -0.047 A 
ATOM      6  C4  UNL d   1       1.808  -1.599  -0.480  0.00  0.00    -0.004 A 
ENDROOT
TORSDOF 0
ENDMDL
