MODEL 1
REMARK minimizedAffinity -4.15662336
REMARK minimizedRMSD -1
REMARK  1 active torsions:
REMARK  status: ('A' for Active; 'I' for Inactive)
REMARK    1  A    between atoms: C1_2  and  C2_3 
ROOT
ATOM      1  C2  UNL d   1      -0.176  -0.151   0.921  0.00  0.00    -0.077 A 
ATOM      2  C3  UNL d   1       1.133   0.255   1.218  0.00  0.00     0.002 A 
ATOM      3  C4  UNL d   1       1.806  -0.282   2.317  0.00  0.00     0.002 A 
ATOM      4  C5  UNL d   1       1.181  -1.229   3.125  0.00  0.00    -0.004 A 
ATOM      5  C6  UNL d   1      -0.121  -1.637   2.839  0.00  0.00     0.002 A 
ATOM      6  C7  UNL d   1      -0.796  -1.101   1.742  0.00  0.00     0.002 A 
ENDROOT
BRANCH   1   7
ATOM      7  C1  UNL d   1      -0.886   0.390  -0.292  0.00  0.00     0.055 C 
ATOM      8  C   UNL d   1      -0.265  -0.137  -1.578  0.00  0.00     0.019 C 
ENDBRANCH   1   7
TORSDOF 1
ENDMDL
