MODEL 1
REMARK minimizedAffinity -3.62114501
REMARK minimizedRMSD -1
REMARK  1 active torsions:
REMARK  status: ('A' for Active; 'I' for Inactive)
REMARK    1  A    between atoms: C1_2  and  C2_3 
ROOT
ATOM      1  C2  UNL d   1      -0.182   0.562  -1.335  0.00  0.00    -0.077 A 
ATOM      2  C3  UNL d   1       0.184   0.834  -0.009  0.00  0.00     0.002 A 
ATOM      3  C4  UNL d   1       1.192   0.094   0.611  0.00  0.00     0.002 A 
ATOM      4  C5  UNL d   1       1.845  -0.919  -0.087  0.00  0.00    -0.004 A 
ATOM      5  C6  UNL d   1       1.488  -1.199  -1.406  0.00  0.00     0.002 A 
ATOM      6  C7  UNL d   1       0.479  -0.461  -2.027  0.00  0.00     0.002 A 
ENDROOT
BRANCH   1   7
ATOM      7  C1  UNL d   1      -1.235   1.392  -2.022  0.00  0.00     0.055 C 
ATOM      8  C   UNL d   1      -0.608   2.453  -2.915  0.00  0.00     0.019 C 
ENDBRANCH   1   7
TORSDOF 1
ENDMDL
