MODEL 1
REMARK minimizedAffinity -5.21423197
REMARK minimizedRMSD -1
REMARK  1 active torsions:
REMARK  status: ('A' for Active; 'I' for Inactive)
REMARK    1  A    between atoms: C1_2  and  C2_3 
ROOT
ATOM      1  C2  UNL d   1       0.202  -0.557   0.586  0.00  0.00    -0.077 A 
ATOM      2  C3  UNL d   1       0.233  -0.810   1.965  0.00  0.00     0.002 A 
ATOM      3  C4  UNL d   1       1.344  -1.425   2.545  0.00  0.00     0.002 A 
ATOM      4  C5  UNL d   1       2.433  -1.788   1.755  0.00  0.00    -0.004 A 
ATOM      5  C6  UNL d   1       2.411  -1.542   0.383  0.00  0.00     0.002 A 
ATOM      6  C7  UNL d   1       1.301  -0.928  -0.199  0.00  0.00     0.002 A 
ENDROOT
BRANCH   1   7
ATOM      7  C1  UNL d   1      -0.975   0.150  -0.034  0.00  0.00     0.055 C 
ATOM      8  C   UNL d   1      -0.590   0.819  -1.346  0.00  0.00     0.019 C 
ENDBRANCH   1   7
TORSDOF 1
ENDMDL
