MODEL 1
REMARK minimizedAffinity -4.37650537
REMARK minimizedRMSD -1
REMARK  1 active torsions:
REMARK  status: ('A' for Active; 'I' for Inactive)
REMARK    1  A    between atoms: C1_2  and  C2_3 
ROOT
ATOM      1  C2  UNL d   1       0.014  -0.062   0.183  0.00  0.00    -0.077 A 
ATOM      2  C3  UNL d   1       1.408  -0.068   0.330  0.00  0.00     0.002 A 
ATOM      3  C4  UNL d   1       1.985  -0.286   1.583  0.00  0.00     0.002 A 
ATOM      4  C5  UNL d   1       1.175  -0.504   2.696  0.00  0.00    -0.004 A 
ATOM      5  C6  UNL d   1      -0.212  -0.498   2.560  0.00  0.00     0.002 A 
ATOM      6  C7  UNL d   1      -0.790  -0.278   1.309  0.00  0.00     0.002 A 
ENDROOT
BRANCH   1   7
ATOM      7  C1  UNL d   1      -0.609   0.124  -1.176  0.00  0.00     0.055 C 
ATOM      8  C   UNL d   1      -0.621   1.590  -1.583  0.00  0.00     0.019 C 
ENDBRANCH   1   7
TORSDOF 1
ENDMDL
