MODEL 1
REMARK minimizedAffinity -0.920812786
REMARK minimizedRMSD -1
REMARK  1 active torsions:
REMARK  status: ('A' for Active; 'I' for Inactive)
REMARK    1  A    between atoms: C1_2  and  C2_3 
ROOT
ATOM      1  C2  UNL d   1      -0.027   0.067  -0.236  0.00  0.00    -0.077 A 
ATOM      2  C3  UNL d   1       1.280  -0.061   0.256  0.00  0.00     0.002 A 
ATOM      3  C4  UNL d   1       1.513  -0.666   1.492  0.00  0.00     0.002 A 
ATOM      4  C5  UNL d   1       0.446  -1.152   2.244  0.00  0.00    -0.004 A 
ATOM      5  C6  UNL d   1      -0.857  -1.028   1.765  0.00  0.00     0.002 A 
ATOM      6  C7  UNL d   1      -1.093  -0.422   0.530  0.00  0.00     0.002 A 
ENDROOT
BRANCH   1   7
ATOM      7  C1  UNL d   1      -0.276   0.675  -1.592  0.00  0.00     0.055 C 
ATOM      8  C   UNL d   1      -1.545   1.516  -1.596  0.00  0.00     0.019 C 
ENDBRANCH   1   7
TORSDOF 1
ENDMDL
