MODEL 1
REMARK minimizedAffinity -1.38876641
REMARK minimizedRMSD -1
REMARK  1 active torsions:
REMARK  status: ('A' for Active; 'I' for Inactive)
REMARK    1  A    between atoms: N_2  and  C1_3 
ROOT
ATOM      1  C1  UNL d   1       0.746  -0.766   1.440  0.00  0.00     0.143 A 
ATOM      2  C2  UNL d   1      -0.324  -0.351   2.241  0.00  0.00    -0.057 A 
ATOM      3  C3  UNL d   1      -1.575  -0.056   1.686  0.00  0.00     0.033 A 
ATOM      4  C4  UNL d   1      -1.771  -0.143   0.312  0.00  0.00    -0.042 A 
ATOM      5  C5  UNL d   1      -0.715  -0.529  -0.506  0.00  0.00     0.033 A 
ATOM      6  C6  UNL d   1       0.530  -0.829   0.055  0.00  0.00    -0.057 A 
ENDROOT
BRANCH   1   7
ATOM      7  N   UNL d   1       2.040  -0.978   1.921  0.00  0.00    -0.732 N 
ATOM      8  C   UNL d   1       3.135  -1.224   1.006  0.00  0.00     0.284 C 
ATOM      9  H3  UNL d   1       2.275  -0.358   2.693  0.00  0.00     0.395 HD
ENDBRANCH   1   7
TORSDOF 1
ENDMDL
