MODEL 1
REMARK minimizedAffinity -4.37766886
REMARK minimizedRMSD -1
REMARK  1 active torsions:
REMARK  status: ('A' for Active; 'I' for Inactive)
REMARK    1  A    between atoms: N_2  and  C1_3 
ROOT
ATOM      1  C1  UNL d   1       0.081   0.128   0.714  0.00  0.00     0.143 A 
ATOM      2  C2  UNL d   1       1.328  -0.398   1.069  0.00  0.00    -0.057 A 
ATOM      3  C3  UNL d   1       1.730  -0.473   2.408  0.00  0.00     0.033 A 
ATOM      4  C4  UNL d   1       0.900   0.006   3.417  0.00  0.00    -0.042 A 
ATOM      5  C5  UNL d   1      -0.332   0.557   3.085  0.00  0.00     0.033 A 
ATOM      6  C6  UNL d   1      -0.731   0.622   1.746  0.00  0.00    -0.057 A 
ENDROOT
BRANCH   1   7
ATOM      7  N   UNL d   1      -0.334   0.320  -0.606  0.00  0.00    -0.732 N 
ATOM      8  C   UNL d   1       0.513  -0.076  -1.711  0.00  0.00     0.284 C 
ATOM      9  H3  UNL d   1      -1.319   0.102  -0.739  0.00  0.00     0.395 HD
ENDBRANCH   1   7
TORSDOF 1
ENDMDL
