MODEL 1
REMARK minimizedAffinity -3.27717519
REMARK minimizedRMSD -1
REMARK  1 active torsions:
REMARK  status: ('A' for Active; 'I' for Inactive)
REMARK    1  A    between atoms: N_2  and  C1_3 
ROOT
ATOM      1  C1  UNL d   1       0.640  -0.226   1.372  0.00  0.00     0.143 A 
ATOM      2  C2  UNL d   1       0.369  -0.615   0.056  0.00  0.00    -0.057 A 
ATOM      3  C3  UNL d   1      -0.909  -0.467  -0.497  0.00  0.00     0.033 A 
ATOM      4  C4  UNL d   1      -1.949   0.048   0.270  0.00  0.00    -0.042 A 
ATOM      5  C5  UNL d   1      -1.709   0.418   1.588  0.00  0.00     0.033 A 
ATOM      6  C6  UNL d   1      -0.429   0.274   2.132  0.00  0.00    -0.057 A 
ENDROOT
BRANCH   1   7
ATOM      7  N   UNL d   1       1.865  -0.439   2.009  0.00  0.00    -0.732 N 
ATOM      8  C   UNL d   1       1.946  -0.486   3.454  0.00  0.00     0.284 C 
ATOM      9  H3  UNL d   1       2.431  -1.141   1.538  0.00  0.00     0.395 HD
ENDBRANCH   1   7
TORSDOF 1
ENDMDL
