MODEL 1
REMARK minimizedAffinity -3.53079796
REMARK minimizedRMSD -1
REMARK  0 active torsions:
REMARK  status: ('A' for Active; 'I' for Inactive)
ROOT
ATOM      1  C   UNL d   1       0.531  -0.809  -0.766  0.00  0.00     0.172 C 
ATOM      2  N   UNL d   1      -0.011   0.225   0.083  0.00  0.00    -0.070 N 
ATOM      3  C1  UNL d   1       0.218   0.357   1.427  0.00  0.00    -0.004 A 
ATOM      4  C2  UNL d   1      -0.474   1.464   1.867  0.00  0.00    -0.047 A 
ATOM      5  C3  UNL d   1      -1.143   2.017   0.749  0.00  0.00    -0.047 A 
ATOM      6  C4  UNL d   1      -0.839   1.231  -0.342  0.00  0.00    -0.004 A 
ENDROOT
TORSDOF 0
ENDMDL
