MODEL 1
REMARK minimizedAffinity 1.44404542
REMARK minimizedRMSD -1
REMARK  0 active torsions:
REMARK  status: ('A' for Active; 'I' for Inactive)
ROOT
ATOM      1  C   UNL d   1      -1.894  -0.724   1.968  0.00  0.00     0.172 C 
ATOM      2  N   UNL d   1      -0.552  -0.418   1.532  0.00  0.00    -0.070 N 
ATOM      3  C1  UNL d   1       0.405   0.215   2.279  0.00  0.00    -0.004 A 
ATOM      4  C2  UNL d   1       1.543   0.317   1.508  0.00  0.00    -0.047 A 
ATOM      5  C3  UNL d   1       1.260  -0.275   0.254  0.00  0.00    -0.047 A 
ATOM      6  C4  UNL d   1      -0.044  -0.722   0.296  0.00  0.00    -0.004 A 
ENDROOT
TORSDOF 0
ENDMDL
