MODEL 1
REMARK minimizedAffinity -2.8743329
REMARK minimizedRMSD -1
REMARK  0 active torsions:
REMARK  status: ('A' for Active; 'I' for Inactive)
ROOT
ATOM      1  C   UNL d   1      -0.772  -2.497  -0.700  0.00  0.00     0.172 C 
ATOM      2  N   UNL d   1      -0.275  -1.333  -0.004  0.00  0.00    -0.070 N 
ATOM      3  C1  UNL d   1       0.813  -0.588  -0.372  0.00  0.00    -0.004 A 
ATOM      4  C2  UNL d   1       0.957   0.431   0.545  0.00  0.00    -0.047 A 
ATOM      5  C3  UNL d   1      -0.081   0.292   1.497  0.00  0.00    -0.047 A 
ATOM      6  C4  UNL d   1      -0.828  -0.808   1.133  0.00  0.00    -0.004 A 
ENDROOT
TORSDOF 0
ENDMDL
