MODEL 1
REMARK minimizedAffinity -1.23757625
REMARK minimizedRMSD -1
REMARK  0 active torsions:
REMARK  status: ('A' for Active; 'I' for Inactive)
ROOT
ATOM      1  C   UNL d   1       0.553  -0.599  -1.261  0.00  0.00     0.172 C 
ATOM      2  N   UNL d   1       0.103  -1.971  -1.308  0.00  0.00    -0.070 N 
ATOM      3  C1  UNL d   1       0.724  -3.035  -0.711  0.00  0.00    -0.004 A 
ATOM      4  C2  UNL d   1      -0.014  -4.165  -0.989  0.00  0.00    -0.047 A 
ATOM      5  C3  UNL d   1      -1.117  -3.766  -1.781  0.00  0.00    -0.047 A 
ATOM      6  C4  UNL d   1      -1.019  -2.402  -1.964  0.00  0.00    -0.004 A 
ENDROOT
TORSDOF 0
ENDMDL
