MODEL 1
REMARK minimizedAffinity 2.33395171
REMARK minimizedRMSD -1
REMARK  0 active torsions:
REMARK  status: ('A' for Active; 'I' for Inactive)
ROOT
ATOM      1  C   UNL d   1       5.224  -5.953   2.958  0.00  0.00     0.172 C 
ATOM      2  N   UNL d   1       4.882  -5.964   1.555  0.00  0.00    -0.070 N 
ATOM      3  C1  UNL d   1       3.613  -5.943   1.043  0.00  0.00    -0.004 A 
ATOM      4  C2  UNL d   1       3.712  -5.963  -0.332  0.00  0.00    -0.047 A 
ATOM      5  C3  UNL d   1       5.089  -5.999  -0.656  0.00  0.00    -0.047 A 
ATOM      6  C4  UNL d   1       5.791  -5.999   0.530  0.00  0.00    -0.004 A 
ENDROOT
TORSDOF 0
ENDMDL
