MODEL 1
REMARK minimizedAffinity -1.30498469
REMARK minimizedRMSD -1
REMARK  0 active torsions:
REMARK  status: ('A' for Active; 'I' for Inactive)
ROOT
ATOM      1  C   UNL d   1       0.176   3.438  -0.825  0.00  0.00     0.172 C 
ATOM      2  N   UNL d   1       0.322   2.081  -0.353  0.00  0.00    -0.070 N 
ATOM      3  C1  UNL d   1       0.366   0.962  -1.141  0.00  0.00    -0.004 A 
ATOM      4  C2  UNL d   1       0.514  -0.131  -0.314  0.00  0.00    -0.047 A 
ATOM      5  C3  UNL d   1       0.559   0.348   1.017  0.00  0.00    -0.047 A 
ATOM      6  C4  UNL d   1       0.439   1.720   0.964  0.00  0.00    -0.004 A 
ENDROOT
TORSDOF 0
ENDMDL
