MODEL 1
REMARK minimizedAffinity -2.71738195
REMARK minimizedRMSD -1
REMARK  0 active torsions:
REMARK  status: ('A' for Active; 'I' for Inactive)
ROOT
ATOM      1  C   UNL d   1      -0.326  -3.644  -1.042  0.00  0.00     0.172 C 
ATOM      2  N   UNL d   1      -0.183  -2.207  -1.033  0.00  0.00    -0.070 N 
ATOM      3  C1  UNL d   1      -0.802  -1.338  -1.891  0.00  0.00    -0.004 A 
ATOM      4  C2  UNL d   1      -0.407  -0.061  -1.556  0.00  0.00    -0.047 A 
ATOM      5  C3  UNL d   1       0.481  -0.166  -0.459  0.00  0.00    -0.047 A 
ATOM      6  C4  UNL d   1       0.602  -1.506  -0.156  0.00  0.00    -0.004 A 
ENDROOT
TORSDOF 0
ENDMDL
