MODEL 1
REMARK minimizedAffinity -1.71732712
REMARK minimizedRMSD -1
REMARK  0 active torsions:
REMARK  status: ('A' for Active; 'I' for Inactive)
ROOT
ATOM      1  C   UNL d   1      -0.618   1.989   1.858  0.00  0.00     0.172 C 
ATOM      2  N   UNL d   1      -0.151   0.974   0.944  0.00  0.00    -0.070 N 
ATOM      3  C1  UNL d   1      -0.363   0.959  -0.409  0.00  0.00    -0.004 A 
ATOM      4  C2  UNL d   1       0.241  -0.170  -0.918  0.00  0.00    -0.047 A 
ATOM      5  C3  UNL d   1       0.835  -0.859   0.166  0.00  0.00    -0.047 A 
ATOM      6  C4  UNL d   1       0.577  -0.129   1.307  0.00  0.00    -0.004 A 
ENDROOT
TORSDOF 0
ENDMDL
