MODEL 1
REMARK minimizedAffinity -0.627200961
REMARK minimizedRMSD -1
REMARK  0 active torsions:
REMARK  status: ('A' for Active; 'I' for Inactive)
ROOT
ATOM      1  C   UNL d   1      -0.127   1.136  -2.010  0.00  0.00     0.172 C 
ATOM      2  N   UNL d   1       0.004   0.504  -0.718  0.00  0.00    -0.070 N 
ATOM      3  C1  UNL d   1       0.065  -0.845  -0.491  0.00  0.00    -0.004 A 
ATOM      4  C2  UNL d   1       0.189  -1.040   0.867  0.00  0.00    -0.047 A 
ATOM      5  C3  UNL d   1       0.203   0.237   1.479  0.00  0.00    -0.047 A 
ATOM      6  C4  UNL d   1       0.087   1.174   0.474  0.00  0.00    -0.004 A 
ENDROOT
TORSDOF 0
ENDMDL
