MODEL 1
REMARK minimizedAffinity -3.06014109
REMARK minimizedRMSD -1
REMARK  0 active torsions:
REMARK  status: ('A' for Active; 'I' for Inactive)
ROOT
ATOM      1  C   UNL d   1      -1.046  -2.557  -1.347  0.00  0.00     0.172 C 
ATOM      2  N   UNL d   1      -0.454  -1.610  -0.432  0.00  0.00    -0.070 N 
ATOM      3  C1  UNL d   1      -1.020  -1.165   0.733  0.00  0.00    -0.004 A 
ATOM      4  C2  UNL d   1      -0.143  -0.275   1.315  0.00  0.00    -0.047 A 
ATOM      5  C3  UNL d   1       0.988  -0.181   0.470  0.00  0.00    -0.047 A 
ATOM      6  C4  UNL d   1       0.769  -1.018  -0.604  0.00  0.00    -0.004 A 
ENDROOT
TORSDOF 0
ENDMDL
