MODEL 1
REMARK minimizedAffinity -3.77415586
REMARK minimizedRMSD -1
REMARK  0 active torsions:
REMARK  status: ('A' for Active; 'I' for Inactive)
ROOT
ATOM      1  C   UNL d   1      -0.000   0.229   0.091  0.00  0.00     0.172 C 
ATOM      2  N   UNL d   1      -0.325   1.628  -0.064  0.00  0.00    -0.070 N 
ATOM      3  C1  UNL d   1      -0.476   2.530   0.956  0.00  0.00    -0.004 A 
ATOM      4  C2  UNL d   1      -0.781   3.752   0.396  0.00  0.00    -0.047 A 
ATOM      5  C3  UNL d   1      -0.816   3.578  -1.008  0.00  0.00    -0.047 A 
ATOM      6  C4  UNL d   1      -0.530   2.254  -1.265  0.00  0.00    -0.004 A 
ENDROOT
TORSDOF 0
ENDMDL
