MODEL 1
REMARK minimizedAffinity -3.96999097
REMARK minimizedRMSD -1
REMARK  0 active torsions:
REMARK  status: ('A' for Active; 'I' for Inactive)
ROOT
ATOM      1  C   UNL d   1      -0.515   3.062  -0.887  0.00  0.00     0.172 C 
ATOM      2  N   UNL d   1      -0.467   2.252   0.308  0.00  0.00    -0.070 N 
ATOM      3  C1  UNL d   1      -0.027   0.957   0.377  0.00  0.00    -0.004 A 
ATOM      4  C2  UNL d   1      -0.139   0.542   1.686  0.00  0.00    -0.047 A 
ATOM      5  C3  UNL d   1      -0.666   1.625   2.430  0.00  0.00    -0.047 A 
ATOM      6  C4  UNL d   1      -0.859   2.671   1.552  0.00  0.00    -0.004 A 
ENDROOT
TORSDOF 0
ENDMDL
