MODEL 1
REMARK minimizedAffinity -2.40434837
REMARK minimizedRMSD -1
REMARK  0 active torsions:
REMARK  status: ('A' for Active; 'I' for Inactive)
ROOT
ATOM      1  C   UNL d   1      -0.563   1.640   1.982  0.00  0.00     0.172 C 
ATOM      2  N   UNL d   1      -0.017   0.750   0.984  0.00  0.00    -0.070 N 
ATOM      3  C1  UNL d   1       1.117  -0.005   1.122  0.00  0.00    -0.004 A 
ATOM      4  C2  UNL d   1       1.297  -0.714  -0.046  0.00  0.00    -0.047 A 
ATOM      5  C3  UNL d   1       0.235  -0.373  -0.917  0.00  0.00    -0.047 A 
ATOM      6  C4  UNL d   1      -0.564   0.535  -0.254  0.00  0.00    -0.004 A 
ENDROOT
TORSDOF 0
ENDMDL
