MODEL 1
REMARK minimizedAffinity 9.40458775
REMARK minimizedRMSD -1
REMARK  0 active torsions:
REMARK  status: ('A' for Active; 'I' for Inactive)
ROOT
ATOM      1  C   UNL d   1       2.117  -0.631  -0.380  0.00  0.00     0.124 A 
ATOM      2  C1  UNL d   1       2.457  -1.790   0.305  0.00  0.00     0.062 A 
ATOM      3  C2  UNL d   1       3.512  -1.782   1.213  0.00  0.00     0.162 A 
ATOM      4  C3  UNL d   1       4.235  -0.611   1.442  0.00  0.00    -0.034 A 
ATOM      5  C4  UNL d   1       3.888   0.550   0.748  0.00  0.00     0.162 A 
ATOM      6  C5  UNL d   1       2.833   0.537  -0.159  0.00  0.00     0.062 A 
ATOM      7  F   UNL d   1       2.506   1.657  -0.820  0.00  0.00    -0.097 F 
ATOM      8  F1  UNL d   1       4.562   1.693   0.944  0.00  0.00    -0.096 F 
ATOM      9  I   UNL d   1       5.813  -0.595   2.799  0.00  0.00    -0.060 I 
ATOM     10  F2  UNL d   1       3.818  -2.915   1.862  0.00  0.00    -0.096 F 
ATOM     11  F3  UNL d   1       1.768  -2.920   0.092  0.00  0.00    -0.097 F 
ATOM     12  F4  UNL d   1       1.102  -0.642  -1.254  0.00  0.00    -0.092 F 
ENDROOT
TORSDOF 0
ENDMDL
