MODEL 1
REMARK minimizedAffinity 12.9861269
REMARK minimizedRMSD -1
REMARK  0 active torsions:
REMARK  status: ('A' for Active; 'I' for Inactive)
ROOT
ATOM      1  C   UNL d   1       4.906   1.982  -0.632  0.00  0.00     0.124 A 
ATOM      2  C1  UNL d   1       4.879   2.814   0.479  0.00  0.00     0.062 A 
ATOM      3  C2  UNL d   1       3.744   2.872   1.282  0.00  0.00     0.162 A 
ATOM      4  C3  UNL d   1       2.626   2.095   0.978  0.00  0.00    -0.034 A 
ATOM      5  C4  UNL d   1       2.661   1.262  -0.142  0.00  0.00     0.162 A 
ATOM      6  C5  UNL d   1       3.798   1.207  -0.942  0.00  0.00     0.062 A 
ATOM      7  F   UNL d   1       3.822   0.403  -2.015  0.00  0.00    -0.097 F 
ATOM      8  F1  UNL d   1       1.603   0.501  -0.463  0.00  0.00    -0.096 F 
ATOM      9  I   UNL d   1       0.927   2.178   2.176  0.00  0.00    -0.060 I 
ATOM     10  F2  UNL d   1       3.745   3.684   2.349  0.00  0.00    -0.096 F 
ATOM     11  F3  UNL d   1       5.949   3.564   0.779  0.00  0.00    -0.097 F 
ATOM     12  F4  UNL d   1       6.000   1.929  -1.404  0.00  0.00    -0.092 F 
ENDROOT
TORSDOF 0
ENDMDL
