MODEL 1
REMARK minimizedAffinity 8.98693085
REMARK minimizedRMSD -1
REMARK  0 active torsions:
REMARK  status: ('A' for Active; 'I' for Inactive)
ROOT
ATOM      1  C   UNL d   1       1.527   2.920   2.967  0.00  0.00     0.124 A 
ATOM      2  C1  UNL d   1       1.134   2.030   1.977  0.00  0.00     0.062 A 
ATOM      3  C2  UNL d   1       2.022   1.667   0.969  0.00  0.00     0.162 A 
ATOM      4  C3  UNL d   1       3.313   2.194   0.945  0.00  0.00    -0.034 A 
ATOM      5  C4  UNL d   1       3.701   3.090   1.943  0.00  0.00     0.162 A 
ATOM      6  C5  UNL d   1       2.810   3.449   2.949  0.00  0.00     0.062 A 
ATOM      7  F   UNL d   1       3.192   4.309   3.904  0.00  0.00    -0.097 F 
ATOM      8  F1  UNL d   1       4.935   3.615   1.951  0.00  0.00    -0.096 F 
ATOM      9  I   UNL d   1       4.644   1.654  -0.561  0.00  0.00    -0.060 I 
ATOM     10  F2  UNL d   1       1.615   0.805   0.025  0.00  0.00    -0.096 F 
ATOM     11  F3  UNL d   1      -0.106   1.519   1.991  0.00  0.00    -0.097 F 
ATOM     12  F4  UNL d   1       0.670   3.269   3.935  0.00  0.00    -0.092 F 
ENDROOT
TORSDOF 0
ENDMDL
