MODEL 1
REMARK minimizedAffinity 3.2551496
REMARK minimizedRMSD -1
REMARK  0 active torsions:
REMARK  status: ('A' for Active; 'I' for Inactive)
ROOT
ATOM      1  C   UNL d   1       3.648  -2.012  -1.861  0.00  0.00     0.124 A 
ATOM      2  C1  UNL d   1       2.461  -2.379  -1.242  0.00  0.00     0.062 A 
ATOM      3  C2  UNL d   1       1.732  -1.443  -0.515  0.00  0.00     0.162 A 
ATOM      4  C3  UNL d   1       2.187  -0.130  -0.402  0.00  0.00    -0.034 A 
ATOM      5  C4  UNL d   1       3.382   0.233  -1.026  0.00  0.00     0.162 A 
ATOM      6  C5  UNL d   1       4.108  -0.707  -1.753  0.00  0.00     0.062 A 
ATOM      7  F   UNL d   1       5.254  -0.349  -2.350  0.00  0.00    -0.097 F 
ATOM      8  F1  UNL d   1       3.849   1.487  -0.938  0.00  0.00    -0.096 F 
ATOM      9  I   UNL d   1       1.100   1.273   0.685  0.00  0.00    -0.060 I 
ATOM     10  F2  UNL d   1       0.589  -1.827   0.073  0.00  0.00    -0.096 F 
ATOM     11  F3  UNL d   1       2.016  -3.640  -1.345  0.00  0.00    -0.097 F 
ATOM     12  F4  UNL d   1       4.348  -2.914  -2.560  0.00  0.00    -0.092 F 
ENDROOT
TORSDOF 0
ENDMDL
