MODEL 1
REMARK minimizedAffinity 4.30376911
REMARK minimizedRMSD -1
REMARK  0 active torsions:
REMARK  status: ('A' for Active; 'I' for Inactive)
ROOT
ATOM      1  C   UNL d   1       3.250  -2.139  -2.045  0.00  0.00     0.124 A 
ATOM      2  C1  UNL d   1       2.123  -2.511  -1.327  0.00  0.00     0.062 A 
ATOM      3  C2  UNL d   1       1.506  -1.603  -0.472  0.00  0.00     0.162 A 
ATOM      4  C3  UNL d   1       2.015  -0.312  -0.330  0.00  0.00    -0.034 A 
ATOM      5  C4  UNL d   1       3.150   0.055  -1.055  0.00  0.00     0.162 A 
ATOM      6  C5  UNL d   1       3.763  -0.856  -1.909  0.00  0.00     0.062 A 
ATOM      7  F   UNL d   1       4.852  -0.494  -2.602  0.00  0.00    -0.097 F 
ATOM      8  F1  UNL d   1       3.666   1.288  -0.942  0.00  0.00    -0.096 F 
ATOM      9  I   UNL d   1       1.096   1.049   0.949  0.00  0.00    -0.060 I 
ATOM     10  F2  UNL d   1       0.418  -1.990   0.210  0.00  0.00    -0.096 F 
ATOM     11  F3  UNL d   1       1.626  -3.750  -1.457  0.00  0.00    -0.097 F 
ATOM     12  F4  UNL d   1       3.842  -3.015  -2.867  0.00  0.00    -0.092 F 
ENDROOT
TORSDOF 0
ENDMDL
