MODEL 1
REMARK minimizedAffinity 2.68988657
REMARK minimizedRMSD -1
REMARK  0 active torsions:
REMARK  status: ('A' for Active; 'I' for Inactive)
ROOT
ATOM      1  C   UNL d   1       0.201  -1.896  -0.539  0.00  0.00     0.124 A 
ATOM      2  C1  UNL d   1       1.475  -2.398  -0.764  0.00  0.00     0.062 A 
ATOM      3  C2  UNL d   1       2.573  -1.543  -0.776  0.00  0.00     0.162 A 
ATOM      4  C3  UNL d   1       2.402  -0.175  -0.562  0.00  0.00    -0.034 A 
ATOM      5  C4  UNL d   1       1.117   0.323  -0.338  0.00  0.00     0.162 A 
ATOM      6  C5  UNL d   1       0.023  -0.536  -0.326  0.00  0.00     0.062 A 
ATOM      7  F   UNL d   1      -1.207  -0.049  -0.109  0.00  0.00    -0.097 F 
ATOM      8  F1  UNL d   1       0.916   1.633  -0.128  0.00  0.00    -0.096 F 
ATOM      9  I   UNL d   1       4.040   1.108  -0.580  0.00  0.00    -0.060 I 
ATOM     10  F2  UNL d   1       3.793  -2.055  -0.996  0.00  0.00    -0.096 F 
ATOM     11  F3  UNL d   1       1.650  -3.712  -0.971  0.00  0.00    -0.097 F 
ATOM     12  F4  UNL d   1      -0.853  -2.722  -0.529  0.00  0.00    -0.092 F 
ENDROOT
TORSDOF 0
ENDMDL
