MODEL 1
REMARK minimizedAffinity 8.23164558
REMARK minimizedRMSD -1
REMARK  0 active torsions:
REMARK  status: ('A' for Active; 'I' for Inactive)
ROOT
ATOM      1  C   UNL d   1       2.221  -1.304  -0.816  0.00  0.00     0.124 A 
ATOM      2  C1  UNL d   1       1.840   0.021  -0.654  0.00  0.00     0.062 A 
ATOM      3  C2  UNL d   1       0.500   0.346  -0.468  0.00  0.00     0.162 A 
ATOM      4  C3  UNL d   1      -0.470  -0.656  -0.440  0.00  0.00    -0.034 A 
ATOM      5  C4  UNL d   1      -0.080  -1.986  -0.604  0.00  0.00     0.162 A 
ATOM      6  C5  UNL d   1       1.261  -2.306  -0.791  0.00  0.00     0.062 A 
ATOM      7  F   UNL d   1       1.627  -3.586  -0.947  0.00  0.00    -0.097 F 
ATOM      8  F1  UNL d   1      -0.986  -2.974  -0.583  0.00  0.00    -0.096 F 
ATOM      9  I   UNL d   1      -2.475  -0.173  -0.161  0.00  0.00    -0.060 I 
ATOM     10  F2  UNL d   1       0.161   1.635  -0.314  0.00  0.00    -0.096 F 
ATOM     11  F3  UNL d   1       2.766   0.991  -0.679  0.00  0.00    -0.097 F 
ATOM     12  F4  UNL d   1       3.511  -1.614  -0.997  0.00  0.00    -0.092 F 
ENDROOT
TORSDOF 0
ENDMDL
