MODEL 1
REMARK minimizedAffinity 5.77759552
REMARK minimizedRMSD -1
REMARK  0 active torsions:
REMARK  status: ('A' for Active; 'I' for Inactive)
ROOT
ATOM      1  C   UNL d   1       1.722   0.141  -0.169  0.00  0.00     0.124 A 
ATOM      2  C1  UNL d   1       0.375   0.380  -0.403  0.00  0.00     0.062 A 
ATOM      3  C2  UNL d   1      -0.464  -0.662  -0.788  0.00  0.00     0.162 A 
ATOM      4  C3  UNL d   1       0.042  -1.953  -0.941  0.00  0.00    -0.034 A 
ATOM      5  C4  UNL d   1       1.398  -2.185  -0.705  0.00  0.00     0.162 A 
ATOM      6  C5  UNL d   1       2.233  -1.140  -0.321  0.00  0.00     0.062 A 
ATOM      7  F   UNL d   1       3.534  -1.373  -0.096  0.00  0.00    -0.097 F 
ATOM      8  F1  UNL d   1       1.917  -3.414  -0.843  0.00  0.00    -0.096 F 
ATOM      9  I   UNL d   1      -1.209  -3.513  -1.516  0.00  0.00    -0.060 I 
ATOM     10  F2  UNL d   1      -1.762  -0.402  -1.006  0.00  0.00    -0.096 F 
ATOM     11  F3  UNL d   1      -0.120   1.618  -0.258  0.00  0.00    -0.097 F 
ATOM     12  F4  UNL d   1       2.528   1.146   0.200  0.00  0.00    -0.092 F 
ENDROOT
TORSDOF 0
ENDMDL
