MODEL 1
REMARK minimizedAffinity 3.24583197
REMARK minimizedRMSD -1
REMARK  0 active torsions:
REMARK  status: ('A' for Active; 'I' for Inactive)
ROOT
ATOM      1  C   UNL d   1      -0.003   2.874   2.547  0.00  0.00     0.124 A 
ATOM      2  C1  UNL d   1      -0.515   2.409   1.343  0.00  0.00     0.062 A 
ATOM      3  C2  UNL d   1       0.327   1.820   0.405  0.00  0.00     0.162 A 
ATOM      4  C3  UNL d   1       1.692   1.692   0.667  0.00  0.00    -0.034 A 
ATOM      5  C4  UNL d   1       2.199   2.163   1.879  0.00  0.00     0.162 A 
ATOM      6  C5  UNL d   1       1.353   2.751   2.813  0.00  0.00     0.062 A 
ATOM      7  F   UNL d   1       1.850   3.200   3.975  0.00  0.00    -0.097 F 
ATOM      8  F1  UNL d   1       3.506   2.056   2.162  0.00  0.00    -0.096 F 
ATOM      9  I   UNL d   1       2.955   0.812  -0.734  0.00  0.00    -0.060 I 
ATOM     10  F2  UNL d   1      -0.195   1.380  -0.749  0.00  0.00    -0.096 F 
ATOM     11  F3  UNL d   1      -1.825   2.528   1.083  0.00  0.00    -0.097 F 
ATOM     12  F4  UNL d   1      -0.816   3.442   3.447  0.00  0.00    -0.092 F 
ENDROOT
TORSDOF 0
ENDMDL
