MODEL 1
REMARK minimizedAffinity 3.84308839
REMARK minimizedRMSD -1
REMARK  0 active torsions:
REMARK  status: ('A' for Active; 'I' for Inactive)
ROOT
ATOM      1  C   UNL d   1       3.254  -2.229  -1.790  0.00  0.00     0.124 A 
ATOM      2  C1  UNL d   1       3.858  -0.980  -1.732  0.00  0.00     0.062 A 
ATOM      3  C2  UNL d   1       3.289   0.039  -0.974  0.00  0.00     0.162 A 
ATOM      4  C3  UNL d   1       2.108  -0.186  -0.266  0.00  0.00    -0.034 A 
ATOM      5  C4  UNL d   1       1.505  -1.444  -0.330  0.00  0.00     0.162 A 
ATOM      6  C5  UNL d   1       2.078  -2.459  -1.089  0.00  0.00     0.062 A 
ATOM      7  F   UNL d   1       1.493  -3.664  -1.144  0.00  0.00    -0.097 F 
ATOM      8  F1  UNL d   1       0.370  -1.695   0.338  0.00  0.00    -0.096 F 
ATOM      9  I   UNL d   1       1.253   1.335   0.869  0.00  0.00    -0.060 I 
ATOM     10  F2  UNL d   1       3.895   1.235  -0.936  0.00  0.00    -0.096 F 
ATOM     11  F3  UNL d   1       4.993  -0.755  -2.409  0.00  0.00    -0.097 F 
ATOM     12  F4  UNL d   1       3.803  -3.207  -2.521  0.00  0.00    -0.092 F 
ENDROOT
TORSDOF 0
ENDMDL
