MODEL 1
REMARK minimizedAffinity 11.4658127
REMARK minimizedRMSD -1
REMARK  0 active torsions:
REMARK  status: ('A' for Active; 'I' for Inactive)
ROOT
ATOM      1  C   UNL d   1       2.277  -0.959  -0.596  0.00  0.00     0.124 A 
ATOM      2  C1  UNL d   1       1.795   0.340  -0.517  0.00  0.00     0.062 A 
ATOM      3  C2  UNL d   1       0.424   0.579  -0.515  0.00  0.00     0.162 A 
ATOM      4  C3  UNL d   1      -0.476  -0.485  -0.591  0.00  0.00    -0.034 A 
ATOM      5  C4  UNL d   1       0.017  -1.788  -0.672  0.00  0.00     0.162 A 
ATOM      6  C5  UNL d   1       1.388  -2.022  -0.674  0.00  0.00     0.062 A 
ATOM      7  F   UNL d   1       1.853  -3.277  -0.751  0.00  0.00    -0.097 F 
ATOM      8  F1  UNL d   1      -0.820  -2.834  -0.747  0.00  0.00    -0.096 F 
ATOM      9  I   UNL d   1      -2.527  -0.132  -0.589  0.00  0.00    -0.060 I 
ATOM     10  F2  UNL d   1      -0.015   1.844  -0.437  0.00  0.00    -0.096 F 
ATOM     11  F3  UNL d   1       2.652   1.369  -0.443  0.00  0.00    -0.097 F 
ATOM     12  F4  UNL d   1       3.597  -1.185  -0.599  0.00  0.00    -0.092 F 
ENDROOT
TORSDOF 0
ENDMDL
