MODEL 1
REMARK minimizedAffinity -2.47514749
REMARK minimizedRMSD -1
REMARK  1 active torsions:
REMARK  status: ('A' for Active; 'I' for Inactive)
REMARK    1  A    between atoms: N_2  and  C1_3 
ROOT
ATOM      1  C1  UNL d   1      -0.073  -0.298   0.094  0.00  0.00     0.143 A 
ATOM      2  C2  UNL d   1      -0.533  -0.557   1.390  0.00  0.00    -0.057 A 
ATOM      3  C3  UNL d   1      -1.374   0.343   2.055  0.00  0.00     0.033 A 
ATOM      4  C4  UNL d   1      -1.747   1.536   1.446  0.00  0.00    -0.042 A 
ATOM      5  C5  UNL d   1      -1.282   1.827   0.168  0.00  0.00     0.033 A 
ATOM      6  C6  UNL d   1      -0.448   0.921  -0.494  0.00  0.00    -0.057 A 
ENDROOT
BRANCH   1   7
ATOM      7  N   UNL d   1       0.844  -1.106  -0.582  0.00  0.00    -0.732 N 
ATOM      8  C   UNL d   1       0.389  -2.115  -1.515  0.00  0.00     0.284 C 
ATOM      9  H3  UNL d   1       1.661  -0.588  -0.896  0.00  0.00     0.395 HD
ENDBRANCH   1   7
TORSDOF 1
ENDMDL
