MODEL 1
REMARK minimizedAffinity -4.67268133
REMARK minimizedRMSD -1
REMARK  1 active torsions:
REMARK  status: ('A' for Active; 'I' for Inactive)
REMARK    1  A    between atoms: N_2  and  C1_3 
ROOT
ATOM      1  C1  UNL d   1       0.555  -0.389   0.186  0.00  0.00     0.143 A 
ATOM      2  C2  UNL d   1      -0.010   0.750  -0.396  0.00  0.00    -0.057 A 
ATOM      3  C3  UNL d   1      -0.956   1.522   0.290  0.00  0.00     0.033 A 
ATOM      4  C4  UNL d   1      -1.376   1.150   1.563  0.00  0.00    -0.042 A 
ATOM      5  C5  UNL d   1      -0.846   0.007   2.150  0.00  0.00     0.033 A 
ATOM      6  C6  UNL d   1       0.103  -0.756   1.463  0.00  0.00    -0.057 A 
ENDROOT
BRANCH   1   7
ATOM      7  N   UNL d   1       1.426  -1.253  -0.483  0.00  0.00    -0.732 N 
ATOM      8  C   UNL d   1       0.956  -2.068  -1.583  0.00  0.00     0.284 C 
ATOM      9  H3  UNL d   1       2.343  -0.840  -0.634  0.00  0.00     0.395 HD
ENDBRANCH   1   7
TORSDOF 1
ENDMDL
