MODEL 1
REMARK minimizedAffinity -5.08097076
REMARK minimizedRMSD -1
REMARK  1 active torsions:
REMARK  status: ('A' for Active; 'I' for Inactive)
REMARK    1  A    between atoms: N_2  and  C1_3 
ROOT
ATOM      1  C1  UNL d   1       0.085   0.229  -0.006  0.00  0.00     0.143 A 
ATOM      2  C2  UNL d   1      -0.335   1.556  -0.138  0.00  0.00    -0.057 A 
ATOM      3  C3  UNL d   1      -1.073   2.188   0.870  0.00  0.00     0.033 A 
ATOM      4  C4  UNL d   1      -1.431   1.492   2.020  0.00  0.00    -0.042 A 
ATOM      5  C5  UNL d   1      -1.045   0.163   2.162  0.00  0.00     0.033 A 
ATOM      6  C6  UNL d   1      -0.302  -0.460   1.155  0.00  0.00    -0.057 A 
ENDROOT
BRANCH   1   7
ATOM      7  N   UNL d   1       0.736  -0.486  -1.014  0.00  0.00    -0.732 N 
ATOM      8  C   UNL d   1       1.093  -1.875  -0.822  0.00  0.00     0.284 C 
ATOM      9  H3  UNL d   1       0.368  -0.275  -1.939  0.00  0.00     0.395 HD
ENDBRANCH   1   7
TORSDOF 1
ENDMDL
