MODEL 1
REMARK minimizedAffinity -2.73096919
REMARK minimizedRMSD -1
REMARK  1 active torsions:
REMARK  status: ('A' for Active; 'I' for Inactive)
REMARK    1  A    between atoms: N_2  and  C1_3 
ROOT
ATOM      1  C1  UNL d   1      -0.159   0.027   0.474  0.00  0.00     0.143 A 
ATOM      2  C2  UNL d   1      -1.404   0.620   0.711  0.00  0.00    -0.057 A 
ATOM      3  C3  UNL d   1      -1.800   1.776   0.027  0.00  0.00     0.033 A 
ATOM      4  C4  UNL d   1      -0.943   2.377  -0.888  0.00  0.00    -0.042 A 
ATOM      5  C5  UNL d   1       0.309   1.820  -1.122  0.00  0.00     0.033 A 
ATOM      6  C6  UNL d   1       0.696   0.662  -0.441  0.00  0.00    -0.057 A 
ENDROOT
BRANCH   1   7
ATOM      7  N   UNL d   1       0.332  -1.065   1.193  0.00  0.00    -0.732 N 
ATOM      8  C   UNL d   1       0.306  -1.067   2.640  0.00  0.00     0.284 C 
ATOM      9  H3  UNL d   1       0.076  -1.955   0.772  0.00  0.00     0.395 HD
ENDBRANCH   1   7
TORSDOF 1
ENDMDL
