MODEL 1
REMARK minimizedAffinity -2.45766163
REMARK minimizedRMSD -1
REMARK  1 active torsions:
REMARK  status: ('A' for Active; 'I' for Inactive)
REMARK    1  A    between atoms: N_2  and  C1_3 
ROOT
ATOM      1  C1  UNL d   1       0.278   0.010   0.074  0.00  0.00     0.143 A 
ATOM      2  C2  UNL d   1      -0.412  -0.224   1.269  0.00  0.00    -0.057 A 
ATOM      3  C3  UNL d   1      -1.388   0.669   1.730  0.00  0.00     0.033 A 
ATOM      4  C4  UNL d   1      -1.670   1.829   1.017  0.00  0.00    -0.042 A 
ATOM      5  C5  UNL d   1      -0.979   2.094  -0.160  0.00  0.00     0.033 A 
ATOM      6  C6  UNL d   1      -0.011   1.196  -0.619  0.00  0.00    -0.057 A 
ENDROOT
BRANCH   1   7
ATOM      7  N   UNL d   1       1.328  -0.788  -0.386  0.00  0.00    -0.732 N 
ATOM      8  C   UNL d   1       1.061  -1.983  -1.158  0.00  0.00     0.284 C 
ATOM      9  H3  UNL d   1       2.113  -0.239  -0.729  0.00  0.00     0.395 HD
ENDBRANCH   1   7
TORSDOF 1
ENDMDL
