MODEL 1
REMARK minimizedAffinity -4.96410418
REMARK minimizedRMSD -1
REMARK  1 active torsions:
REMARK  status: ('A' for Active; 'I' for Inactive)
REMARK    1  A    between atoms: N_2  and  C1_3 
ROOT
ATOM      1  C1  UNL d   1       0.328  -0.145   0.051  0.00  0.00     0.143 A 
ATOM      2  C2  UNL d   1       0.241  -0.252   1.443  0.00  0.00    -0.057 A 
ATOM      3  C3  UNL d   1      -0.687   0.501   2.173  0.00  0.00     0.033 A 
ATOM      4  C4  UNL d   1      -1.528   1.398   1.523  0.00  0.00    -0.042 A 
ATOM      5  C5  UNL d   1      -1.442   1.540   0.143  0.00  0.00     0.033 A 
ATOM      6  C6  UNL d   1      -0.518   0.780  -0.581  0.00  0.00    -0.057 A 
ENDROOT
BRANCH   1   7
ATOM      7  N   UNL d   1       1.295  -0.794  -0.721  0.00  0.00    -0.732 N 
ATOM      8  C   UNL d   1       0.990  -2.038  -1.393  0.00  0.00     0.284 C 
ATOM      9  H3  UNL d   1       1.847  -0.145  -1.278  0.00  0.00     0.395 HD
ENDBRANCH   1   7
TORSDOF 1
ENDMDL
