MODEL 1
REMARK minimizedAffinity -3.32371926
REMARK minimizedRMSD -1
REMARK  1 active torsions:
REMARK  status: ('A' for Active; 'I' for Inactive)
REMARK    1  A    between atoms: N_2  and  C1_3 
ROOT
ATOM      1  C1  UNL d   1       1.236  -2.386  -1.501  0.00  0.00     0.143 A 
ATOM      2  C2  UNL d   1       2.081  -3.178  -0.718  0.00  0.00    -0.057 A 
ATOM      3  C3  UNL d   1       2.036  -4.576  -0.787  0.00  0.00     0.033 A 
ATOM      4  C4  UNL d   1       1.120  -5.208  -1.622  0.00  0.00    -0.042 A 
ATOM      5  C5  UNL d   1       0.253  -4.440  -2.391  0.00  0.00     0.033 A 
ATOM      6  C6  UNL d   1       0.308  -3.045  -2.322  0.00  0.00    -0.057 A 
ENDROOT
BRANCH   1   7
ATOM      7  N   UNL d   1       1.165  -0.994  -1.405  0.00  0.00    -0.732 N 
ATOM      8  C   UNL d   1       0.504  -0.365  -0.281  0.00  0.00     0.284 C 
ATOM      9  H3  UNL d   1       2.032  -0.540  -1.683  0.00  0.00     0.395 HD
ENDBRANCH   1   7
TORSDOF 1
ENDMDL
