MODEL 1
REMARK minimizedAffinity -3.98812842
REMARK minimizedRMSD -1
REMARK  1 active torsions:
REMARK  status: ('A' for Active; 'I' for Inactive)
REMARK    1  A    between atoms: N_2  and  C1_3 
ROOT
ATOM      1  C1  UNL d   1       0.222   0.138   0.279  0.00  0.00     0.143 A 
ATOM      2  C2  UNL d   1      -0.191  -0.096   1.595  0.00  0.00    -0.057 A 
ATOM      3  C3  UNL d   1      -1.142   0.725   2.214  0.00  0.00     0.033 A 
ATOM      4  C4  UNL d   1      -1.676   1.815   1.535  0.00  0.00    -0.042 A 
ATOM      5  C5  UNL d   1      -1.261   2.081   0.235  0.00  0.00     0.033 A 
ATOM      6  C6  UNL d   1      -0.316   1.254  -0.380  0.00  0.00    -0.057 A 
ENDROOT
BRANCH   1   7
ATOM      7  N   UNL d   1       1.236  -0.582  -0.357  0.00  0.00    -0.732 N 
ATOM      8  C   UNL d   1       0.914  -1.630  -1.303  0.00  0.00     0.284 C 
ATOM      9  H3  UNL d   1       2.014   0.010  -0.641  0.00  0.00     0.395 HD
ENDBRANCH   1   7
TORSDOF 1
ENDMDL
