MODEL 1
REMARK minimizedAffinity -3.87103748
REMARK minimizedRMSD -1
REMARK  1 active torsions:
REMARK  status: ('A' for Active; 'I' for Inactive)
REMARK    1  A    between atoms: N_2  and  C1_3 
ROOT
ATOM      1  C1  UNL d   1       0.120  -0.151   0.076  0.00  0.00     0.143 A 
ATOM      2  C2  UNL d   1       0.061  -0.370   1.457  0.00  0.00    -0.057 A 
ATOM      3  C3  UNL d   1      -0.912   0.250   2.250  0.00  0.00     0.033 A 
ATOM      4  C4  UNL d   1      -1.829   1.125   1.678  0.00  0.00    -0.042 A 
ATOM      5  C5  UNL d   1      -1.775   1.377   0.312  0.00  0.00     0.033 A 
ATOM      6  C6  UNL d   1      -0.804   0.750  -0.476  0.00  0.00    -0.057 A 
ENDROOT
BRANCH   1   7
ATOM      7  N   UNL d   1       1.124  -0.660  -0.750  0.00  0.00    -0.732 N 
ATOM      8  C   UNL d   1       0.914  -1.880  -1.500  0.00  0.00     0.284 C 
ATOM      9  H3  UNL d   1       1.606   0.069  -1.270  0.00  0.00     0.395 HD
ENDBRANCH   1   7
TORSDOF 1
ENDMDL
