MODEL 1
REMARK minimizedAffinity -4.99101019
REMARK minimizedRMSD -1
REMARK  1 active torsions:
REMARK  status: ('A' for Active; 'I' for Inactive)
REMARK    1  A    between atoms: N_2  and  C1_3 
ROOT
ATOM      1  C1  UNL d   1       0.059   0.216   0.136  0.00  0.00     0.143 A 
ATOM      2  C2  UNL d   1      -0.247  -0.212   1.432  0.00  0.00    -0.057 A 
ATOM      3  C3  UNL d   1      -1.169   0.481   2.227  0.00  0.00     0.033 A 
ATOM      4  C4  UNL d   1      -1.781   1.634   1.747  0.00  0.00    -0.042 A 
ATOM      5  C5  UNL d   1      -1.473   2.092   0.471  0.00  0.00     0.033 A 
ATOM      6  C6  UNL d   1      -0.557   1.392  -0.320  0.00  0.00    -0.057 A 
ENDROOT
BRANCH   1   7
ATOM      7  N   UNL d   1       1.039  -0.373  -0.666  0.00  0.00    -0.732 N 
ATOM      8  C   UNL d   1       0.883  -1.730  -1.146  0.00  0.00     0.284 C 
ATOM      9  H3  UNL d   1       1.414   0.272  -1.358  0.00  0.00     0.395 HD
ENDBRANCH   1   7
TORSDOF 1
ENDMDL
