MODEL 1
REMARK minimizedAffinity -1.08404517
REMARK minimizedRMSD -1
REMARK  1 active torsions:
REMARK  status: ('A' for Active; 'I' for Inactive)
REMARK    1  A    between atoms: N_2  and  C1_3 
ROOT
ATOM      1  C1  UNL d   1      -0.050   0.796   0.310  0.00  0.00     0.143 A 
ATOM      2  C2  UNL d   1      -0.904   1.822   0.729  0.00  0.00    -0.057 A 
ATOM      3  C3  UNL d   1      -1.579   1.750   1.954  0.00  0.00     0.033 A 
ATOM      4  C4  UNL d   1      -1.434   0.633   2.770  0.00  0.00    -0.042 A 
ATOM      5  C5  UNL d   1      -0.611  -0.410   2.361  0.00  0.00     0.033 A 
ATOM      6  C6  UNL d   1       0.066  -0.329   1.141  0.00  0.00    -0.057 A 
ENDROOT
BRANCH   1   7
ATOM      7  N   UNL d   1       0.572   0.764  -0.941  0.00  0.00    -0.732 N 
ATOM      8  C   UNL d   1       0.697   1.969  -1.733  0.00  0.00     0.284 C 
ATOM      9  H3  UNL d   1       1.401   0.174  -0.947  0.00  0.00     0.395 HD
ENDBRANCH   1   7
TORSDOF 1
ENDMDL
