MODEL 1
REMARK minimizedAffinity -2.96542454
REMARK minimizedRMSD -1
REMARK  1 active torsions:
REMARK  status: ('A' for Active; 'I' for Inactive)
REMARK    1  A    between atoms: N_2  and  C1_3 
ROOT
ATOM      1  C1  UNL d   1       1.019  -1.924  -1.373  0.00  0.00     0.143 A 
ATOM      2  C2  UNL d   1       0.464  -0.893  -2.139  0.00  0.00    -0.057 A 
ATOM      3  C3  UNL d   1      -0.039   0.268  -1.539  0.00  0.00     0.033 A 
ATOM      4  C4  UNL d   1      -0.022   0.406  -0.155  0.00  0.00    -0.042 A 
ATOM      5  C5  UNL d   1       0.502  -0.616   0.628  0.00  0.00     0.033 A 
ATOM      6  C6  UNL d   1       1.009  -1.770   0.022  0.00  0.00    -0.057 A 
ENDROOT
BRANCH   1   7
ATOM      7  N   UNL d   1       1.445  -3.144  -1.903  0.00  0.00    -0.732 N 
ATOM      8  C   UNL d   1       0.526  -4.255  -2.027  0.00  0.00     0.284 C 
ATOM      9  H3  UNL d   1       2.065  -3.025  -2.702  0.00  0.00     0.395 HD
ENDBRANCH   1   7
TORSDOF 1
ENDMDL
