MODEL 1
REMARK minimizedAffinity -3.77195191
REMARK minimizedRMSD -1
REMARK  1 active torsions:
REMARK  status: ('A' for Active; 'I' for Inactive)
REMARK    1  A    between atoms: N_2  and  C1_3 
ROOT
ATOM      1  C1  UNL d   1       0.975  -2.041  -1.430  0.00  0.00     0.143 A 
ATOM      2  C2  UNL d   1       0.692  -2.109  -2.798  0.00  0.00    -0.057 A 
ATOM      3  C3  UNL d   1       0.578  -3.340  -3.455  0.00  0.00     0.033 A 
ATOM      4  C4  UNL d   1       0.775  -4.528  -2.759  0.00  0.00    -0.042 A 
ATOM      5  C5  UNL d   1       1.082  -4.483  -1.404  0.00  0.00     0.033 A 
ATOM      6  C6  UNL d   1       1.187  -3.251  -0.751  0.00  0.00    -0.057 A 
ENDROOT
BRANCH   1   7
ATOM      7  N   UNL d   1       1.198  -0.846  -0.741  0.00  0.00    -0.732 N 
ATOM      8  C   UNL d   1       0.329  -0.449   0.346  0.00  0.00     0.284 C 
ATOM      9  H3  UNL d   1       2.186  -0.677  -0.566  0.00  0.00     0.395 HD
ENDBRANCH   1   7
TORSDOF 1
ENDMDL
