MODEL 1
REMARK minimizedAffinity -4.06398344
REMARK minimizedRMSD -1
REMARK  1 active torsions:
REMARK  status: ('A' for Active; 'I' for Inactive)
REMARK    1  A    between atoms: N_2  and  C1_3 
ROOT
ATOM      1  C1  UNL d   1      -0.218   0.048  -0.415  0.00  0.00     0.143 A 
ATOM      2  C2  UNL d   1      -0.823   0.013   0.846  0.00  0.00    -0.057 A 
ATOM      3  C3  UNL d   1      -0.074  -0.229   2.004  0.00  0.00     0.033 A 
ATOM      4  C4  UNL d   1       1.293  -0.470   1.918  0.00  0.00    -0.042 A 
ATOM      5  C5  UNL d   1       1.911  -0.466   0.673  0.00  0.00     0.033 A 
ATOM      6  C6  UNL d   1       1.159  -0.217  -0.479  0.00  0.00    -0.057 A 
ENDROOT
BRANCH   1   7
ATOM      7  N   UNL d   1      -0.924   0.185  -1.612  0.00  0.00    -0.732 N 
ATOM      8  C   UNL d   1      -0.967   1.458  -2.301  0.00  0.00     0.284 C 
ATOM      9  H3  UNL d   1      -0.805  -0.616  -2.228  0.00  0.00     0.395 HD
ENDBRANCH   1   7
TORSDOF 1
ENDMDL
