MODEL 1
REMARK minimizedAffinity -3.74935627
REMARK minimizedRMSD -1
REMARK  1 active torsions:
REMARK  status: ('A' for Active; 'I' for Inactive)
REMARK    1  A    between atoms: N_2  and  C1_3 
ROOT
ATOM      1  C1  UNL d   1       0.196   0.082  -0.007  0.00  0.00     0.143 A 
ATOM      2  C2  UNL d   1      -0.356   0.068   1.278  0.00  0.00    -0.057 A 
ATOM      3  C3  UNL d   1       0.408  -0.302   2.392  0.00  0.00     0.033 A 
ATOM      4  C4  UNL d   1       1.733  -0.693   2.236  0.00  0.00    -0.042 A 
ATOM      5  C5  UNL d   1       2.296  -0.710   0.964  0.00  0.00     0.033 A 
ATOM      6  C6  UNL d   1       1.530  -0.334  -0.143  0.00  0.00    -0.057 A 
ENDROOT
BRANCH   1   7
ATOM      7  N   UNL d   1      -0.538   0.345  -1.166  0.00  0.00    -0.732 N 
ATOM      8  C   UNL d   1      -0.301   1.551  -1.931  0.00  0.00     0.284 C 
ATOM      9  H3  UNL d   1      -0.678  -0.487  -1.735  0.00  0.00     0.395 HD
ENDBRANCH   1   7
TORSDOF 1
ENDMDL
