MODEL 1
REMARK minimizedAffinity -4.65674973
REMARK minimizedRMSD -1
REMARK  1 active torsions:
REMARK  status: ('A' for Active; 'I' for Inactive)
REMARK    1  A    between atoms: N_2  and  C1_3 
ROOT
ATOM      1  C1  UNL d   1       0.311   0.385   0.764  0.00  0.00     0.143 A 
ATOM      2  C2  UNL d   1      -0.421  -0.136   1.836  0.00  0.00    -0.057 A 
ATOM      3  C3  UNL d   1       0.216  -0.770   2.910  0.00  0.00     0.033 A 
ATOM      4  C4  UNL d   1       1.598  -0.920   2.916  0.00  0.00    -0.042 A 
ATOM      5  C5  UNL d   1       2.344  -0.432   1.848  0.00  0.00     0.033 A 
ATOM      6  C6  UNL d   1       1.703   0.206   0.782  0.00  0.00    -0.057 A 
ENDROOT
BRANCH   1   7
ATOM      7  N   UNL d   1      -0.272   0.939  -0.379  0.00  0.00    -0.732 N 
ATOM      8  C   UNL d   1      -0.958   0.099  -1.338  0.00  0.00     0.284 C 
ATOM      9  H3  UNL d   1      -0.742   1.820  -0.188  0.00  0.00     0.395 HD
ENDBRANCH   1   7
TORSDOF 1
ENDMDL
