MODEL 1
REMARK minimizedAffinity -4.60956144
REMARK minimizedRMSD -1
REMARK  1 active torsions:
REMARK  status: ('A' for Active; 'I' for Inactive)
REMARK    1  A    between atoms: N_2  and  C1_3 
ROOT
ATOM      1  C1  UNL d   1      -0.434   0.332  -0.081  0.00  0.00     0.143 A 
ATOM      2  C2  UNL d   1      -1.423  -0.194   0.756  0.00  0.00    -0.057 A 
ATOM      3  C3  UNL d   1      -1.092  -0.850   1.948  0.00  0.00     0.033 A 
ATOM      4  C4  UNL d   1       0.240  -1.018   2.310  0.00  0.00    -0.042 A 
ATOM      5  C5  UNL d   1       1.241  -0.526   1.480  0.00  0.00     0.033 A 
ATOM      6  C6  UNL d   1       0.904   0.134   0.294  0.00  0.00    -0.057 A 
ENDROOT
BRANCH   1   7
ATOM      7  N   UNL d   1      -0.695   0.907  -1.327  0.00  0.00    -0.732 N 
ATOM      8  C   UNL d   1      -0.197   2.228  -1.648  0.00  0.00     0.284 C 
ATOM      9  H3  UNL d   1      -0.617   0.237  -2.089  0.00  0.00     0.395 HD
ENDBRANCH   1   7
TORSDOF 1
ENDMDL
