MODEL 1
REMARK minimizedAffinity -3.82434058
REMARK minimizedRMSD -1
REMARK  1 active torsions:
REMARK  status: ('A' for Active; 'I' for Inactive)
REMARK    1  A    between atoms: N_2  and  C1_3 
ROOT
ATOM      1  C1  UNL d   1      -0.194  -0.239  -0.130  0.00  0.00     0.143 A 
ATOM      2  C2  UNL d   1       1.025  -0.822   0.231  0.00  0.00    -0.057 A 
ATOM      3  C3  UNL d   1       1.307  -1.151   1.563  0.00  0.00     0.033 A 
ATOM      4  C4  UNL d   1       0.381  -0.877   2.564  0.00  0.00    -0.042 A 
ATOM      5  C5  UNL d   1      -0.828  -0.275   2.232  0.00  0.00     0.033 A 
ATOM      6  C6  UNL d   1      -1.105   0.046   0.899  0.00  0.00    -0.057 A 
ENDROOT
BRANCH   1   7
ATOM      7  N   UNL d   1      -0.494   0.202  -1.421  0.00  0.00    -0.732 N 
ATOM      8  C   UNL d   1      -0.510   1.615  -1.732  0.00  0.00     0.284 C 
ATOM      9  H3  UNL d   1      -0.063  -0.377  -2.139  0.00  0.00     0.395 HD
ENDBRANCH   1   7
TORSDOF 1
ENDMDL
