MODEL 1
REMARK minimizedAffinity 0.720303655
REMARK minimizedRMSD -1
REMARK  1 active torsions:
REMARK  status: ('A' for Active; 'I' for Inactive)
REMARK    1  A    between atoms: C1_2  and  C2_3 
ROOT
ATOM      1  C2  UNL d   1      -2.260  -5.981  -2.638  0.00  0.00    -0.081 A 
ATOM      2  C3  UNL d   1      -0.882  -5.900  -2.404  0.00  0.00     0.006 A 
ATOM      3  C4  UNL d   1       0.015  -5.824  -3.473  0.00  0.00     0.002 A 
ATOM      4  C5  UNL d   1      -0.452  -5.818  -4.791  0.00  0.00    -0.080 A 
ATOM      5  C6  UNL d   1       0.498  -5.706  -5.947  0.00  0.00     0.076 C 
ATOM      6  C7  UNL d   1      -1.828  -5.916  -5.026  0.00  0.00     0.002 A 
ATOM      7  C8  UNL d   1      -2.724  -5.993  -3.958  0.00  0.00     0.006 A 
ENDROOT
BRANCH   1   8
ATOM      8  C1  UNL d   1      -3.233  -5.998  -1.487  0.00  0.00     0.054 C 
ATOM      9  C   UNL d   1      -4.673  -5.987  -1.979  0.00  0.00     0.018 C 
ENDBRANCH   1   8
TORSDOF 1
ENDMDL
