MODEL 1
REMARK minimizedAffinity 6.40315533
REMARK minimizedRMSD -1
REMARK  1 active torsions:
REMARK  status: ('A' for Active; 'I' for Inactive)
REMARK    1  A    between atoms: C1_2  and  C2_3 
ROOT
ATOM      1  C2  UNL d   1       2.258   0.410  -0.362  0.00  0.00    -0.081 A 
ATOM      2  C3  UNL d   1       2.332  -0.180   0.906  0.00  0.00     0.006 A 
ATOM      3  C4  UNL d   1       1.554  -1.300   1.213  0.00  0.00     0.002 A 
ATOM      4  C5  UNL d   1       0.697  -1.851   0.255  0.00  0.00    -0.080 A 
ATOM      5  C6  UNL d   1      -0.121  -3.071   0.562  0.00  0.00     0.076 C 
ATOM      6  C7  UNL d   1       0.609  -1.251  -1.005  0.00  0.00     0.002 A 
ATOM      7  C8  UNL d   1       1.386  -0.132  -1.312  0.00  0.00     0.006 A 
ENDROOT
BRANCH   1   8
ATOM      8  C1  UNL d   1       3.143   1.577  -0.716  0.00  0.00     0.054 C 
ATOM      9  C   UNL d   1       2.607   2.876  -0.131  0.00  0.00     0.018 C 
ENDBRANCH   1   8
TORSDOF 1
ENDMDL
