MODEL 1
REMARK minimizedAffinity 2.97805595
REMARK minimizedRMSD -1
REMARK  1 active torsions:
REMARK  status: ('A' for Active; 'I' for Inactive)
REMARK    1  A    between atoms: C1_2  and  C2_3 
ROOT
ATOM      1  C2  UNL d   1      -1.409  -5.993  -3.814  0.00  0.00    -0.081 A 
ATOM      2  C3  UNL d   1      -0.246  -5.996  -3.035  0.00  0.00     0.006 A 
ATOM      3  C4  UNL d   1       1.013  -5.995  -3.642  0.00  0.00     0.002 A 
ATOM      4  C5  UNL d   1       1.128  -5.983  -5.036  0.00  0.00    -0.080 A 
ATOM      5  C6  UNL d   1       2.473  -5.951  -5.700  0.00  0.00     0.076 C 
ATOM      6  C7  UNL d   1      -0.034  -5.998  -5.814  0.00  0.00     0.002 A 
ATOM      7  C8  UNL d   1      -1.292  -6.000  -5.208  0.00  0.00     0.006 A 
ENDROOT
BRANCH   1   8
ATOM      8  C1  UNL d   1      -2.767  -5.929  -3.162  0.00  0.00     0.054 C 
ATOM      9  C   UNL d   1      -2.657  -5.988  -1.646  0.00  0.00     0.018 C 
ENDBRANCH   1   8
TORSDOF 1
ENDMDL
