MODEL 1
REMARK minimizedAffinity -1.66029799
REMARK minimizedRMSD -1
REMARK  1 active torsions:
REMARK  status: ('A' for Active; 'I' for Inactive)
REMARK    1  A    between atoms: C1_2  and  C2_3 
ROOT
ATOM      1  C2  UNL d   1      -1.236  -5.923  -3.678  0.00  0.00    -0.081 A 
ATOM      2  C3  UNL d   1      -1.288  -5.826  -5.074  0.00  0.00     0.006 A 
ATOM      3  C4  UNL d   1      -0.112  -5.816  -5.828  0.00  0.00     0.002 A 
ATOM      4  C5  UNL d   1       1.134  -5.910  -5.200  0.00  0.00    -0.080 A 
ATOM      5  C6  UNL d   1       2.403  -5.931  -6.000  0.00  0.00     0.076 C 
ATOM      6  C7  UNL d   1       1.188  -5.990  -3.804  0.00  0.00     0.002 A 
ATOM      7  C8  UNL d   1       0.012  -5.999  -3.050  0.00  0.00     0.006 A 
ENDROOT
BRANCH   1   8
ATOM      8  C1  UNL d   1      -2.504  -5.999  -2.867  0.00  0.00     0.054 C 
ATOM      9  C   UNL d   1      -3.736  -5.941  -3.759  0.00  0.00     0.018 C 
ENDBRANCH   1   8
TORSDOF 1
ENDMDL
