MODEL 1
REMARK minimizedAffinity -2.08469081
REMARK minimizedRMSD -1
REMARK  1 active torsions:
REMARK  status: ('A' for Active; 'I' for Inactive)
REMARK    1  A    between atoms: C1_2  and  C2_3 
ROOT
ATOM      1  C2  UNL d   1       0.873  -5.813  -4.947  0.00  0.00    -0.081 A 
ATOM      2  C3  UNL d   1      -0.296  -5.991  -5.696  0.00  0.00     0.006 A 
ATOM      3  C4  UNL d   1      -1.545  -5.996  -5.070  0.00  0.00     0.002 A 
ATOM      4  C5  UNL d   1      -1.645  -5.816  -3.686  0.00  0.00    -0.080 A 
ATOM      5  C6  UNL d   1      -2.981  -5.789  -3.005  0.00  0.00     0.076 C 
ATOM      6  C7  UNL d   1      -0.476  -5.656  -2.935  0.00  0.00     0.002 A 
ATOM      7  C8  UNL d   1       0.773  -5.652  -3.561  0.00  0.00     0.006 A 
ENDROOT
BRANCH   1   8
ATOM      8  C1  UNL d   1       2.216  -5.743  -5.628  0.00  0.00     0.054 C 
ATOM      9  C   UNL d   1       3.349  -5.997  -4.644  0.00  0.00     0.018 C 
ENDBRANCH   1   8
TORSDOF 1
ENDMDL
