MODEL 1
REMARK minimizedAffinity 3.77187109
REMARK minimizedRMSD -1
REMARK  1 active torsions:
REMARK  status: ('A' for Active; 'I' for Inactive)
REMARK    1  A    between atoms: C1_2  and  C2_3 
ROOT
ATOM      1  C2  UNL d   1      -0.025  -5.953  -3.637  0.00  0.00    -0.081 A 
ATOM      2  C3  UNL d   1      -1.243  -5.972  -4.327  0.00  0.00     0.006 A 
ATOM      3  C4  UNL d   1      -2.452  -5.999  -3.629  0.00  0.00     0.002 A 
ATOM      4  C5  UNL d   1      -2.464  -6.000  -2.230  0.00  0.00    -0.080 A 
ATOM      5  C6  UNL d   1      -3.756  -5.998  -1.468  0.00  0.00     0.076 C 
ATOM      6  C7  UNL d   1      -1.247  -5.998  -1.540  0.00  0.00     0.002 A 
ATOM      7  C8  UNL d   1      -0.037  -5.972  -2.238  0.00  0.00     0.006 A 
ENDROOT
BRANCH   1   8
ATOM      8  C1  UNL d   1       1.280  -5.858  -4.386  0.00  0.00     0.054 C 
ATOM      9  C   UNL d   1       1.048  -5.623  -5.872  0.00  0.00     0.018 C 
ENDBRANCH   1   8
TORSDOF 1
ENDMDL
