MODEL 1
REMARK minimizedAffinity 7.4780755
REMARK minimizedRMSD -1
REMARK  1 active torsions:
REMARK  status: ('A' for Active; 'I' for Inactive)
REMARK    1  A    between atoms: C1_2  and  C2_3 
ROOT
ATOM      1  C2  UNL d   1       1.116  -1.010   1.113  0.00  0.00    -0.081 A 
ATOM      2  C3  UNL d   1       2.247  -0.761   0.326  0.00  0.00     0.006 A 
ATOM      3  C4  UNL d   1       3.471  -0.451   0.923  0.00  0.00     0.002 A 
ATOM      4  C5  UNL d   1       3.586  -0.393   2.316  0.00  0.00    -0.080 A 
ATOM      5  C6  UNL d   1       4.901  -0.091   2.971  0.00  0.00     0.076 C 
ATOM      6  C7  UNL d   1       2.452  -0.625   3.102  0.00  0.00     0.002 A 
ATOM      7  C8  UNL d   1       1.228  -0.934   2.505  0.00  0.00     0.006 A 
ENDROOT
BRANCH   1   8
ATOM      8  C1  UNL d   1      -0.190  -1.408   0.473  0.00  0.00     0.054 C 
ATOM      9  C   UNL d   1      -0.561  -2.843   0.819  0.00  0.00     0.018 C 
ENDBRANCH   1   8
TORSDOF 1
ENDMDL
