MODEL 1
REMARK minimizedAffinity 4.40510798
REMARK minimizedRMSD -1
REMARK  1 active torsions:
REMARK  status: ('A' for Active; 'I' for Inactive)
REMARK    1  A    between atoms: C1_2  and  C2_3 
ROOT
ATOM      1  C2  UNL d   1       0.667  -1.426   0.870  0.00  0.00    -0.081 A 
ATOM      2  C3  UNL d   1      -0.513  -0.723   1.142  0.00  0.00     0.006 A 
ATOM      3  C4  UNL d   1      -0.592   0.649   0.894  0.00  0.00     0.002 A 
ATOM      4  C5  UNL d   1       0.503   1.339   0.362  0.00  0.00    -0.080 A 
ATOM      5  C6  UNL d   1       0.420   2.806   0.062  0.00  0.00     0.076 C 
ATOM      6  C7  UNL d   1       1.687   0.640   0.106  0.00  0.00     0.002 A 
ATOM      7  C8  UNL d   1       1.768  -0.732   0.355  0.00  0.00     0.006 A 
ENDROOT
BRANCH   1   8
ATOM      8  C1  UNL d   1       0.735  -2.918   1.076  0.00  0.00     0.054 C 
ATOM      9  C   UNL d   1      -0.394  -3.630   0.345  0.00  0.00     0.018 C 
ENDBRANCH   1   8
TORSDOF 1
ENDMDL
