MODEL 1
REMARK minimizedAffinity -0.390507936
REMARK minimizedRMSD -1
REMARK  1 active torsions:
REMARK  status: ('A' for Active; 'I' for Inactive)
REMARK    1  A    between atoms: C1_2  and  C2_3 
ROOT
ATOM      1  C2  UNL d   1      -0.318  -5.485  -4.304  0.00  0.00    -0.081 A 
ATOM      2  C3  UNL d   1      -1.294  -5.823  -5.248  0.00  0.00     0.006 A 
ATOM      3  C4  UNL d   1      -2.624  -6.000  -4.860  0.00  0.00     0.002 A 
ATOM      4  C5  UNL d   1      -3.001  -5.833  -3.523  0.00  0.00    -0.080 A 
ATOM      5  C6  UNL d   1      -4.431  -5.990  -3.098  0.00  0.00     0.076 C 
ATOM      6  C7  UNL d   1      -2.023  -5.512  -2.576  0.00  0.00     0.002 A 
ATOM      7  C8  UNL d   1      -0.693  -5.336  -2.964  0.00  0.00     0.006 A 
ENDROOT
BRANCH   1   8
ATOM      8  C1  UNL d   1       1.106  -5.230  -4.730  0.00  0.00     0.054 C 
ATOM      9  C   UNL d   1       1.449  -5.997  -5.999  0.00  0.00     0.018 C 
ENDBRANCH   1   8
TORSDOF 1
ENDMDL
