MODEL 1
REMARK minimizedAffinity -1.98073149
REMARK minimizedRMSD -1
REMARK  1 active torsions:
REMARK  status: ('A' for Active; 'I' for Inactive)
REMARK    1  A    between atoms: C1_2  and  C2_3 
ROOT
ATOM      1  C2  UNL d   1      -1.548  -5.940  -2.862  0.00  0.00    -0.081 A 
ATOM      2  C3  UNL d   1      -1.919  -5.992  -4.211  0.00  0.00     0.006 A 
ATOM      3  C4  UNL d   1      -0.946  -6.000  -5.213  0.00  0.00     0.002 A 
ATOM      4  C5  UNL d   1       0.413  -5.962  -4.883  0.00  0.00    -0.080 A 
ATOM      5  C6  UNL d   1       1.469  -6.000  -5.948  0.00  0.00     0.076 C 
ATOM      6  C7  UNL d   1       0.784  -5.892  -3.536  0.00  0.00     0.002 A 
ATOM      7  C8  UNL d   1      -0.189  -5.884  -2.534  0.00  0.00     0.006 A 
ENDROOT
BRANCH   1   8
ATOM      8  C1  UNL d   1      -2.593  -5.997  -1.777  0.00  0.00     0.054 C 
ATOM      9  C   UNL d   1      -3.998  -6.000  -2.362  0.00  0.00     0.018 C 
ENDBRANCH   1   8
TORSDOF 1
ENDMDL
