MODEL 1
REMARK minimizedAffinity 7.18256712
REMARK minimizedRMSD -1
REMARK  1 active torsions:
REMARK  status: ('A' for Active; 'I' for Inactive)
REMARK    1  A    between atoms: C1_2  and  C2_3 
ROOT
ATOM      1  C2  UNL d   1      -0.847  -3.334   1.548  0.00  0.00    -0.081 A 
ATOM      2  C3  UNL d   1      -2.059  -3.387   0.848  0.00  0.00     0.006 A 
ATOM      3  C4  UNL d   1      -3.221  -3.840   1.478  0.00  0.00     0.002 A 
ATOM      4  C5  UNL d   1      -3.192  -4.239   2.819  0.00  0.00    -0.080 A 
ATOM      5  C6  UNL d   1      -4.439  -4.698   3.516  0.00  0.00     0.076 C 
ATOM      6  C7  UNL d   1      -1.978  -4.202   3.513  0.00  0.00     0.002 A 
ATOM      7  C8  UNL d   1      -0.816  -3.750   2.883  0.00  0.00     0.006 A 
ENDROOT
BRANCH   1   8
ATOM      8  C1  UNL d   1       0.393  -2.785   0.890  0.00  0.00     0.054 C 
ATOM      9  C   UNL d   1       0.435  -1.266   0.967  0.00  0.00     0.018 C 
ENDBRANCH   1   8
TORSDOF 1
ENDMDL
