MODEL 1
REMARK minimizedAffinity 8.85386467
REMARK minimizedRMSD -1
REMARK  1 active torsions:
REMARK  status: ('A' for Active; 'I' for Inactive)
REMARK    1  A    between atoms: C1_2  and  C2_3 
ROOT
ATOM      1  C2  UNL d   1       1.129   1.154  -0.066  0.00  0.00    -0.081 A 
ATOM      2  C3  UNL d   1       0.228   0.579  -0.971  0.00  0.00     0.006 A 
ATOM      3  C4  UNL d   1      -0.157  -0.757  -0.834  0.00  0.00     0.002 A 
ATOM      4  C5  UNL d   1       0.346  -1.537   0.213  0.00  0.00    -0.080 A 
ATOM      5  C6  UNL d   1      -0.083  -2.964   0.388  0.00  0.00     0.076 C 
ATOM      6  C7  UNL d   1       1.259  -0.968   1.106  0.00  0.00     0.002 A 
ATOM      7  C8  UNL d   1       1.645   0.368   0.970  0.00  0.00     0.006 A 
ENDROOT
BRANCH   1   8
ATOM      8  C1  UNL d   1       1.496   2.612  -0.172  0.00  0.00     0.054 C 
ATOM      9  C   UNL d   1       0.523   3.486   0.607  0.00  0.00     0.018 C 
ENDBRANCH   1   8
TORSDOF 1
ENDMDL
