MODEL 1
REMARK minimizedAffinity 4.27784538
REMARK minimizedRMSD -1
REMARK  1 active torsions:
REMARK  status: ('A' for Active; 'I' for Inactive)
REMARK    1  A    between atoms: C1_2  and  C2_3 
ROOT
ATOM      1  C2  UNL d   1      -2.234  -5.863  -2.274  0.00  0.00    -0.081 A 
ATOM      2  C3  UNL d   1      -0.943  -5.709  -1.753  0.00  0.00     0.006 A 
ATOM      3  C4  UNL d   1       0.165  -5.683  -2.603  0.00  0.00     0.002 A 
ATOM      4  C5  UNL d   1       0.001  -5.801  -3.987  0.00  0.00    -0.080 A 
ATOM      5  C6  UNL d   1       1.180  -5.744  -4.913  0.00  0.00     0.076 C 
ATOM      6  C7  UNL d   1      -1.287  -5.972  -4.506  0.00  0.00     0.002 A 
ATOM      7  C8  UNL d   1      -2.395  -6.000  -3.657  0.00  0.00     0.006 A 
ENDROOT
BRANCH   1   8
ATOM      8  C1  UNL d   1      -3.436  -5.827  -1.365  0.00  0.00     0.054 C 
ATOM      9  C   UNL d   1      -4.730  -5.977  -2.153  0.00  0.00     0.018 C 
ENDBRANCH   1   8
TORSDOF 1
ENDMDL
