MODEL 1
REMARK minimizedAffinity 7.49902153
REMARK minimizedRMSD -1
REMARK  1 active torsions:
REMARK  status: ('A' for Active; 'I' for Inactive)
REMARK    1  A    between atoms: C1_2  and  C2_3 
ROOT
ATOM      1  C2  UNL d   1      -0.899  -1.853   0.490  0.00  0.00    -0.081 A 
ATOM      2  C3  UNL d   1       0.001  -2.814   0.966  0.00  0.00     0.006 A 
ATOM      3  C4  UNL d   1       1.327  -2.470   1.238  0.00  0.00     0.002 A 
ATOM      4  C5  UNL d   1       1.774  -1.158   1.046  0.00  0.00    -0.080 A 
ATOM      5  C6  UNL d   1       3.187  -0.768   1.363  0.00  0.00     0.076 C 
ATOM      6  C7  UNL d   1       0.879  -0.201   0.554  0.00  0.00     0.002 A 
ATOM      7  C8  UNL d   1      -0.447  -0.545   0.282  0.00  0.00     0.006 A 
ENDROOT
BRANCH   1   8
ATOM      8  C1  UNL d   1      -2.345  -2.206   0.257  0.00  0.00     0.054 C 
ATOM      9  C   UNL d   1      -3.221  -0.961   0.231  0.00  0.00     0.018 C 
ENDBRANCH   1   8
TORSDOF 1
ENDMDL
