MODEL 1
REMARK minimizedAffinity 3.28572369
REMARK minimizedRMSD -1
REMARK  1 active torsions:
REMARK  status: ('A' for Active; 'I' for Inactive)
REMARK    1  A    between atoms: C1_2  and  C2_3 
ROOT
ATOM      1  C2  UNL d   1      -2.288  -5.962  -2.672  0.00  0.00    -0.081 A 
ATOM      2  C3  UNL d   1      -0.928  -5.875  -2.353  0.00  0.00     0.006 A 
ATOM      3  C4  UNL d   1       0.035  -5.815  -3.363  0.00  0.00     0.002 A 
ATOM      4  C5  UNL d   1      -0.347  -5.833  -4.709  0.00  0.00    -0.080 A 
ATOM      5  C6  UNL d   1       0.674  -5.739  -5.804  0.00  0.00     0.076 C 
ATOM      6  C7  UNL d   1      -1.705  -5.938  -5.028  0.00  0.00     0.002 A 
ATOM      7  C8  UNL d   1      -2.668  -5.999  -4.018  0.00  0.00     0.006 A 
ENDROOT
BRANCH   1   8
ATOM      8  C1  UNL d   1      -3.332  -5.962  -1.585  0.00  0.00     0.054 C 
ATOM      9  C   UNL d   1      -4.738  -5.983  -2.168  0.00  0.00     0.018 C 
ENDBRANCH   1   8
TORSDOF 1
ENDMDL
