MODEL 1
REMARK minimizedAffinity 6.93020201
REMARK minimizedRMSD -1
REMARK  0 active torsions:
REMARK  status: ('A' for Active; 'I' for Inactive)
ROOT
ATOM      1  C4' PXY d   1      -5.001   2.920   5.250  0.00  0.00     0.077 C 
ATOM      2  C1' PXY d   1      -1.272  -0.261   2.187  0.00  0.00     0.077 C 
ATOM      3  C1  PXY d   1      -2.250   0.564   3.000  0.00  0.00    -0.082 A 
ATOM      4  C2  PXY d   1      -2.998   1.473   2.396  0.00  0.00     0.003 A 
ATOM      5  C3  PXY d   1      -3.865   2.250   3.120  0.00  0.00     0.003 A 
ATOM      6  C4  PXY d   1      -4.007   2.058   4.468  0.00  0.00    -0.082 A 
ATOM      7  C5  PXY d   1      -3.255   1.125   5.090  0.00  0.00     0.003 A 
ATOM      8  C6  PXY d   1      -2.351   0.375   4.343  0.00  0.00     0.003 A 
ENDROOT
TORSDOF 0
ENDMDL
