MODEL 1
REMARK minimizedAffinity 2.14642787
REMARK minimizedRMSD -1
REMARK  0 active torsions:
REMARK  status: ('A' for Active; 'I' for Inactive)
ROOT
ATOM      1  C4' PXY d   1      -6.000  -1.413   5.999  0.00  0.00     0.077 C 
ATOM      2  C1' PXY d   1      -1.771   0.180   2.393  0.00  0.00     0.077 C 
ATOM      3  C1  PXY d   1      -2.873  -0.234   3.349  0.00  0.00    -0.082 A 
ATOM      4  C2  PXY d   1      -3.741  -1.163   2.984  0.00  0.00     0.003 A 
ATOM      5  C3  PXY d   1      -4.763  -1.526   3.823  0.00  0.00     0.003 A 
ATOM      6  C4  PXY d   1      -4.865  -0.971   5.070  0.00  0.00    -0.082 A 
ATOM      7  C5  PXY d   1      -3.977  -0.030   5.455  0.00  0.00     0.003 A 
ATOM      8  C6  PXY d   1      -2.972   0.354   4.572  0.00  0.00     0.003 A 
ENDROOT
TORSDOF 0
ENDMDL
