MODEL 1
REMARK minimizedAffinity 1.89497352
REMARK minimizedRMSD -1
REMARK  0 active torsions:
REMARK  status: ('A' for Active; 'I' for Inactive)
ROOT
ATOM      1  C4' PXY d   1      -5.999  -6.000   5.999  0.00  0.00     0.077 C 
ATOM      2  C1' PXY d   1      -5.788  -2.984   1.071  0.00  0.00     0.077 C 
ATOM      3  C1  PXY d   1      -5.848  -3.785   2.357  0.00  0.00    -0.082 A 
ATOM      4  C2  PXY d   1      -5.942  -3.155   3.516  0.00  0.00     0.003 A 
ATOM      5  C3  PXY d   1      -5.965  -3.863   4.691  0.00  0.00     0.003 A 
ATOM      6  C4  PXY d   1      -5.945  -5.232   4.675  0.00  0.00    -0.082 A 
ATOM      7  C5  PXY d   1      -5.860  -5.883   3.495  0.00  0.00     0.003 A 
ATOM      8  C6  PXY d   1      -5.796  -5.144   2.317  0.00  0.00     0.003 A 
ENDROOT
TORSDOF 0
ENDMDL
