MODEL 1
REMARK minimizedAffinity 6.20528126
REMARK minimizedRMSD -1
REMARK  0 active torsions:
REMARK  status: ('A' for Active; 'I' for Inactive)
ROOT
ATOM      1  C4' PXY d   1      -5.827  -5.998   1.941  0.00  0.00     0.077 C 
ATOM      2  C1' PXY d   1      -5.959  -1.884   5.999  0.00  0.00     0.077 C 
ATOM      3  C1  PXY d   1      -5.920  -2.971   4.944  0.00  0.00    -0.082 A 
ATOM      4  C2  PXY d   1      -5.816  -2.640   3.667  0.00  0.00     0.003 A 
ATOM      5  C3  PXY d   1      -5.812  -3.609   2.697  0.00  0.00     0.003 A 
ATOM      6  C4  PXY d   1      -5.860  -4.934   3.042  0.00  0.00    -0.082 A 
ATOM      7  C5  PXY d   1      -5.955  -5.280   4.343  0.00  0.00     0.003 A 
ATOM      8  C6  PXY d   1      -6.000  -4.279   5.309  0.00  0.00     0.003 A 
ENDROOT
TORSDOF 0
ENDMDL
