MODEL 1
REMARK minimizedAffinity 2.21179819
REMARK minimizedRMSD -1
REMARK  0 active torsions:
REMARK  status: ('A' for Active; 'I' for Inactive)
ROOT
ATOM      1  C4' PXY d   1      -1.686  -2.259   1.536  0.00  0.00     0.077 C 
ATOM      2  C1' PXY d   1      -4.666   0.572   5.599  0.00  0.00     0.077 C 
ATOM      3  C1  PXY d   1      -3.890  -0.182   4.538  0.00  0.00    -0.082 A 
ATOM      4  C2  PXY d   1      -2.762   0.326   4.068  0.00  0.00     0.003 A 
ATOM      5  C3  PXY d   1      -2.064  -0.327   3.085  0.00  0.00     0.003 A 
ATOM      6  C4  PXY d   1      -2.498  -1.538   2.615  0.00  0.00    -0.082 A 
ATOM      7  C5  PXY d   1      -3.642  -2.067   3.096  0.00  0.00     0.003 A 
ATOM      8  C6  PXY d   1      -4.357  -1.369   4.065  0.00  0.00     0.003 A 
ENDROOT
TORSDOF 0
ENDMDL
