MODEL 1
REMARK minimizedAffinity 6.73958969
REMARK minimizedRMSD -1
REMARK  0 active torsions:
REMARK  status: ('A' for Active; 'I' for Inactive)
ROOT
ATOM      1  C4' PXY d   1       0.712  -3.829   1.101  0.00  0.00     0.077 C 
ATOM      2  C1' PXY d   1      -2.663   0.519   2.869  0.00  0.00     0.077 C 
ATOM      3  C1  PXY d   1      -1.788  -0.627   2.401  0.00  0.00    -0.082 A 
ATOM      4  C2  PXY d   1      -0.586  -0.790   2.928  0.00  0.00     0.003 A 
ATOM      5  C3  PXY d   1       0.231  -1.803   2.494  0.00  0.00     0.003 A 
ATOM      6  C4  PXY d   1      -0.209  -2.690   1.549  0.00  0.00    -0.082 A 
ATOM      7  C5  PXY d   1      -1.439  -2.537   1.014  0.00  0.00     0.003 A 
ATOM      8  C6  PXY d   1      -2.236  -1.478   1.438  0.00  0.00     0.003 A 
ENDROOT
TORSDOF 0
ENDMDL
