MODEL 1
REMARK minimizedAffinity 8.15329933
REMARK minimizedRMSD -1
REMARK  0 active torsions:
REMARK  status: ('A' for Active; 'I' for Inactive)
ROOT
ATOM      1  C4' PXY d   1       4.435   3.083  -4.153  0.00  0.00     0.077 C 
ATOM      2  C1' PXY d   1      -0.065   4.046  -0.654  0.00  0.00     0.077 C 
ATOM      3  C1  PXY d   1       1.120   3.784  -1.563  0.00  0.00    -0.082 A 
ATOM      4  C2  PXY d   1       1.529   4.730  -2.393  0.00  0.00     0.003 A 
ATOM      5  C3  PXY d   1       2.578   4.499  -3.245  0.00  0.00     0.003 A 
ATOM      6  C4  PXY d   1       3.249   3.306  -3.210  0.00  0.00    -0.082 A 
ATOM      7  C5  PXY d   1       2.844   2.340  -2.359  0.00  0.00     0.003 A 
ATOM      8  C6  PXY d   1       1.751   2.579  -1.532  0.00  0.00     0.003 A 
ENDROOT
TORSDOF 0
ENDMDL
