MODEL 1
REMARK minimizedAffinity -1.53077042
REMARK minimizedRMSD -1
REMARK  0 active torsions:
REMARK  status: ('A' for Active; 'I' for Inactive)
ROOT
ATOM      1  C4' PXY d   1      -0.698  -0.535   4.294  0.00  0.00     0.077 C 
ATOM      2  C1' PXY d   1      -4.415   0.711   0.046  0.00  0.00     0.077 C 
ATOM      3  C1  PXY d   1      -3.442   0.396   1.165  0.00  0.00    -0.082 A 
ATOM      4  C2  PXY d   1      -2.503  -0.517   0.978  0.00  0.00     0.003 A 
ATOM      5  C3  PXY d   1      -1.636  -0.837   1.990  0.00  0.00     0.003 A 
ATOM      6  C4  PXY d   1      -1.696  -0.178   3.189  0.00  0.00    -0.082 A 
ATOM      7  C5  PXY d   1      -2.645   0.762   3.384  0.00  0.00     0.003 A 
ATOM      8  C6  PXY d   1      -3.542   1.043   2.358  0.00  0.00     0.003 A 
ENDROOT
TORSDOF 0
ENDMDL
