MODEL 1
REMARK minimizedAffinity 7.36357164
REMARK minimizedRMSD -1
REMARK  0 active torsions:
REMARK  status: ('A' for Active; 'I' for Inactive)
ROOT
ATOM      1  C4' PXY d   1      -5.998  -5.957   5.972  0.00  0.00     0.077 C 
ATOM      2  C1' PXY d   1      -5.966  -2.149   1.624  0.00  0.00     0.077 C 
ATOM      3  C1  PXY d   1      -5.980  -3.157   2.756  0.00  0.00    -0.082 A 
ATOM      4  C2  PXY d   1      -5.986  -2.732   4.009  0.00  0.00     0.003 A 
ATOM      5  C3  PXY d   1      -5.966  -3.630   5.046  0.00  0.00     0.003 A 
ATOM      6  C4  PXY d   1      -5.993  -4.976   4.797  0.00  0.00    -0.082 A 
ATOM      7  C5  PXY d   1      -5.998  -5.417   3.521  0.00  0.00     0.003 A 
ATOM      8  C6  PXY d   1      -5.976  -4.490   2.483  0.00  0.00     0.003 A 
ENDROOT
TORSDOF 0
ENDMDL
