MODEL 1
REMARK minimizedAffinity 9.32116127
REMARK minimizedRMSD -1
REMARK  0 active torsions:
REMARK  status: ('A' for Active; 'I' for Inactive)
ROOT
ATOM      1  C4' PXY d   1      -4.998   0.976   1.047  0.00  0.00     0.077 C 
ATOM      2  C1' PXY d   1       0.203  -1.350   2.020  0.00  0.00     0.077 C 
ATOM      3  C1  PXY d   1      -1.162  -0.737   1.778  0.00  0.00    -0.082 A 
ATOM      4  C2  PXY d   1      -1.881  -1.131   0.739  0.00  0.00     0.003 A 
ATOM      5  C3  PXY d   1      -3.103  -0.564   0.487  0.00  0.00     0.003 A 
ATOM      6  C4  PXY d   1      -3.619   0.378   1.336  0.00  0.00    -0.082 A 
ATOM      7  C5  PXY d   1      -2.896   0.777   2.404  0.00  0.00     0.003 A 
ATOM      8  C6  PXY d   1      -1.640   0.219   2.620  0.00  0.00     0.003 A 
ENDROOT
TORSDOF 0
ENDMDL
