MODEL 1
REMARK minimizedAffinity 0.686127186
REMARK minimizedRMSD -1
REMARK  0 active torsions:
REMARK  status: ('A' for Active; 'I' for Inactive)
ROOT
ATOM      1  C4' PXY d   1      -3.380   1.500   3.303  0.00  0.00     0.077 C 
ATOM      2  C1' PXY d   1       0.141  -2.966   2.265  0.00  0.00     0.077 C 
ATOM      3  C1  PXY d   1      -0.786  -1.795   2.525  0.00  0.00    -0.082 A 
ATOM      4  C2  PXY d   1      -0.541  -0.979   3.536  0.00  0.00     0.003 A 
ATOM      5  C3  PXY d   1      -1.387   0.067   3.805  0.00  0.00     0.003 A 
ATOM      6  C4  PXY d   1      -2.466   0.310   2.997  0.00  0.00    -0.082 A 
ATOM      7  C5  PXY d   1      -2.717  -0.512   1.957  0.00  0.00     0.003 A 
ATOM      8  C6  PXY d   1      -1.869  -1.592   1.726  0.00  0.00     0.003 A 
ENDROOT
TORSDOF 0
ENDMDL
