MODEL 1
REMARK minimizedAffinity 12.3621998
REMARK minimizedRMSD -1
REMARK  0 active torsions:
REMARK  status: ('A' for Active; 'I' for Inactive)
ROOT
ATOM      1  C4' PXY d   1       2.463   2.003  -2.650  0.00  0.00     0.077 C 
ATOM      2  C1' PXY d   1       5.841   5.287  -6.000  0.00  0.00     0.077 C 
ATOM      3  C1  PXY d   1       4.949   4.436  -5.117  0.00  0.00    -0.082 A 
ATOM      4  C2  PXY d   1       5.357   3.236  -4.738  0.00  0.00     0.003 A 
ATOM      5  C3  PXY d   1       4.550   2.441  -3.966  0.00  0.00     0.003 A 
ATOM      6  C4  PXY d   1       3.334   2.900  -3.534  0.00  0.00    -0.082 A 
ATOM      7  C5  PXY d   1       2.915   4.128  -3.907  0.00  0.00     0.003 A 
ATOM      8  C6  PXY d   1       3.732   4.903  -4.725  0.00  0.00     0.003 A 
ENDROOT
TORSDOF 0
ENDMDL
