MODEL 1
REMARK minimizedAffinity 8.11944866
REMARK minimizedRMSD -1
REMARK  0 active torsions:
REMARK  status: ('A' for Active; 'I' for Inactive)
ROOT
ATOM      1  C4' PXY d   1       2.966   1.714  -2.011  0.00  0.00     0.077 C 
ATOM      2  C1' PXY d   1       5.214   4.084   2.758  0.00  0.00     0.077 C 
ATOM      3  C1  PXY d   1       4.618   3.454   1.515  0.00  0.00    -0.082 A 
ATOM      4  C2  PXY d   1       5.246   3.572   0.356  0.00  0.00     0.003 A 
ATOM      5  C3  PXY d   1       4.705   3.036  -0.784  0.00  0.00     0.003 A 
ATOM      6  C4  PXY d   1       3.535   2.326  -0.728  0.00  0.00    -0.082 A 
ATOM      7  C5  PXY d   1       2.894   2.191   0.452  0.00  0.00     0.003 A 
ATOM      8  C6  PXY d   1       3.439   2.778   1.591  0.00  0.00     0.003 A 
ENDROOT
TORSDOF 0
ENDMDL
