MODEL 1
REMARK minimizedAffinity 9.76626682
REMARK minimizedRMSD -1
REMARK  0 active torsions:
REMARK  status: ('A' for Active; 'I' for Inactive)
ROOT
ATOM      1  C4' PXY d   1       4.008   3.718  -4.537  0.00  0.00     0.077 C 
ATOM      2  C1' PXY d   1       2.264   1.139   0.334  0.00  0.00     0.077 C 
ATOM      3  C1  PXY d   1       2.711   1.810  -0.950  0.00  0.00    -0.082 A 
ATOM      4  C2  PXY d   1       3.973   2.182  -1.088  0.00  0.00     0.003 A 
ATOM      5  C3  PXY d   1       4.388   2.818  -2.229  0.00  0.00     0.003 A 
ATOM      6  C4  PXY d   1       3.514   3.029  -3.262  0.00  0.00    -0.082 A 
ATOM      7  C5  PXY d   1       2.226   2.643  -3.133  0.00  0.00     0.003 A 
ATOM      8  C6  PXY d   1       1.816   2.035  -1.950  0.00  0.00     0.003 A 
ENDROOT
TORSDOF 0
ENDMDL
