MODEL 1
REMARK minimizedAffinity 7.21439219
REMARK minimizedRMSD -1
REMARK  0 active torsions:
REMARK  status: ('A' for Active; 'I' for Inactive)
ROOT
ATOM      1  C4' PXY d   1      -5.999  -5.113   6.000  0.00  0.00     0.077 C 
ATOM      2  C1' PXY d   1      -2.986  -4.964   1.069  0.00  0.00     0.077 C 
ATOM      3  C1  PXY d   1      -3.786  -5.009   2.356  0.00  0.00    -0.082 A 
ATOM      4  C2  PXY d   1      -3.544  -4.123   3.308  0.00  0.00     0.003 A 
ATOM      5  C3  PXY d   1      -4.235  -4.170   4.491  0.00  0.00     0.003 A 
ATOM      6  C4  PXY d   1      -5.223  -5.099   4.680  0.00  0.00    -0.082 A 
ATOM      7  C5  PXY d   1      -5.483  -6.000   3.709  0.00  0.00     0.003 A 
ATOM      8  C6  PXY d   1      -4.742  -5.962   2.532  0.00  0.00     0.003 A 
ENDROOT
TORSDOF 0
ENDMDL
