MODEL 1
REMARK minimizedAffinity 14.1310558
REMARK minimizedRMSD -1
REMARK  0 active torsions:
REMARK  status: ('A' for Active; 'I' for Inactive)
ROOT
ATOM      1  C4' PXY d   1       5.667   3.397   2.438  0.00  0.00     0.077 C 
ATOM      2  C1' PXY d   1       5.718   5.999  -2.724  0.00  0.00     0.077 C 
ATOM      3  C1  PXY d   1       5.702   5.305  -1.376  0.00  0.00    -0.082 A 
ATOM      4  C2  PXY d   1       5.406   5.997  -0.288  0.00  0.00     0.003 A 
ATOM      5  C3  PXY d   1       5.419   5.393   0.943  0.00  0.00     0.003 A 
ATOM      6  C4  PXY d   1       5.685   4.054   1.055  0.00  0.00    -0.082 A 
ATOM      7  C5  PXY d   1       5.978   3.339  -0.052  0.00  0.00     0.003 A 
ATOM      8  C6  PXY d   1       6.000   3.981  -1.287  0.00  0.00     0.003 A 
ENDROOT
TORSDOF 0
ENDMDL
