MODEL 1
REMARK minimizedAffinity 10.0601616
REMARK minimizedRMSD -1
REMARK  0 active torsions:
REMARK  status: ('A' for Active; 'I' for Inactive)
ROOT
ATOM      1  C4' PXY d   1      -2.522   1.122   3.225  0.00  0.00     0.077 C 
ATOM      2  C1' PXY d   1      -1.229  -3.904   0.680  0.00  0.00     0.077 C 
ATOM      3  C1  PXY d   1      -1.558  -2.587   1.355  0.00  0.00    -0.082 A 
ATOM      4  C2  PXY d   1      -2.805  -2.145   1.355  0.00  0.00     0.003 A 
ATOM      5  C3  PXY d   1      -3.114  -0.941   1.933  0.00  0.00     0.003 A 
ATOM      6  C4  PXY d   1      -2.146  -0.207   2.564  0.00  0.00    -0.082 A 
ATOM      7  C5  PXY d   1      -0.873  -0.656   2.577  0.00  0.00     0.003 A 
ATOM      8  C6  PXY d   1      -0.572  -1.861   1.949  0.00  0.00     0.003 A 
ENDROOT
TORSDOF 0
ENDMDL
