MODEL 1
REMARK minimizedAffinity 19.8752556
REMARK minimizedRMSD -1
REMARK  0 active torsions:
REMARK  status: ('A' for Active; 'I' for Inactive)
ROOT
ATOM      1  C4' PXY d   1      -3.826  -3.005   3.413  0.00  0.00     0.077 C 
ATOM      2  C1' PXY d   1       0.042   0.479   0.900  0.00  0.00     0.077 C 
ATOM      3  C1  PXY d   1      -0.976  -0.425   1.567  0.00  0.00    -0.082 A 
ATOM      4  C2  PXY d   1      -0.825  -1.738   1.505  0.00  0.00     0.003 A 
ATOM      5  C3  PXY d   1      -1.753  -2.571   2.076  0.00  0.00     0.003 A 
ATOM      6  C4  PXY d   1      -2.819  -2.054   2.762  0.00  0.00    -0.082 A 
ATOM      7  C5  PXY d   1      -2.974  -0.715   2.839  0.00  0.00     0.003 A 
ATOM      8  C6  PXY d   1      -2.043   0.112   2.218  0.00  0.00     0.003 A 
ENDROOT
TORSDOF 0
ENDMDL
