MODEL 1
REMARK minimizedAffinity 13.9696188
REMARK minimizedRMSD -1
REMARK  0 active torsions:
REMARK  status: ('A' for Active; 'I' for Inactive)
ROOT
ATOM      1  C4' PXY d   1      -3.520   2.037   4.179  0.00  0.00     0.077 C 
ATOM      2  C1' PXY d   1      -1.349  -2.516   1.355  0.00  0.00     0.077 C 
ATOM      3  C1  PXY d   1      -1.919  -1.329   2.107  0.00  0.00    -0.082 A 
ATOM      4  C2  PXY d   1      -2.558  -0.380   1.442  0.00  0.00     0.003 A 
ATOM      5  C3  PXY d   1      -3.052   0.716   2.102  0.00  0.00     0.003 A 
ATOM      6  C4  PXY d   1      -2.936   0.815   3.463  0.00  0.00    -0.082 A 
ATOM      7  C5  PXY d   1      -2.295  -0.154   4.149  0.00  0.00     0.003 A 
ATOM      8  C6  PXY d   1      -1.765  -1.238   3.456  0.00  0.00     0.003 A 
ENDROOT
TORSDOF 0
ENDMDL
