MODEL 1
REMARK minimizedAffinity 13.9972467
REMARK minimizedRMSD -1
REMARK  0 active torsions:
REMARK  status: ('A' for Active; 'I' for Inactive)
ROOT
ATOM      1  C4' PXY d   1       4.991   4.076  -3.417  0.00  0.00     0.077 C 
ATOM      2  C1' PXY d   1       0.359   1.021  -1.794  0.00  0.00     0.077 C 
ATOM      3  C1  PXY d   1       1.568   1.826  -2.231  0.00  0.00    -0.082 A 
ATOM      4  C2  PXY d   1       2.759   1.541  -1.730  0.00  0.00     0.003 A 
ATOM      5  C3  PXY d   1       3.857   2.279  -2.090  0.00  0.00     0.003 A 
ATOM      6  C4  PXY d   1       3.744   3.284  -3.012  0.00  0.00    -0.082 A 
ATOM      7  C5  PXY d   1       2.534   3.574  -3.536  0.00  0.00     0.003 A 
ATOM      8  C6  PXY d   1       1.425   2.840  -3.126  0.00  0.00     0.003 A 
ENDROOT
TORSDOF 0
ENDMDL
