MODEL 1
REMARK minimizedAffinity -0.528014123
REMARK minimizedRMSD -1
REMARK  1 active torsions:
REMARK  status: ('A' for Active; 'I' for Inactive)
REMARK    1  A    between atoms: N_2  and  C1_3 
ROOT
ATOM      1  C1  UNL d   1      -3.703   1.726   2.860  0.00  0.00     0.143 A 
ATOM      2  C2  UNL d   1      -2.929   0.743   3.486  0.00  0.00    -0.057 A 
ATOM      3  C3  UNL d   1      -2.884  -0.567   2.994  0.00  0.00     0.033 A 
ATOM      4  C4  UNL d   1      -3.638  -0.926   1.882  0.00  0.00    -0.042 A 
ATOM      5  C5  UNL d   1      -4.434   0.029   1.259  0.00  0.00     0.033 A 
ATOM      6  C6  UNL d   1      -4.470   1.337   1.750  0.00  0.00    -0.057 A 
ENDROOT
BRANCH   1   7
ATOM      7  N   UNL d   1      -3.867   3.021   3.358  0.00  0.00    -0.732 N 
ATOM      8  C   UNL d   1      -4.189   4.117   2.470  0.00  0.00     0.284 C 
ATOM      9  H3  UNL d   1      -4.375   3.037   4.239  0.00  0.00     0.395 HD
ENDBRANCH   1   7
TORSDOF 1
ENDMDL
