MODEL 1
REMARK minimizedAffinity 8.75778866
REMARK minimizedRMSD -1
REMARK  1 active torsions:
REMARK  status: ('A' for Active; 'I' for Inactive)
REMARK    1  A    between atoms: N_2  and  C1_3 
ROOT
ATOM      1  C1  UNL d   1       1.358   1.873   4.530  0.00  0.00     0.143 A 
ATOM      2  C2  UNL d   1       1.213   0.535   4.147  0.00  0.00    -0.057 A 
ATOM      3  C3  UNL d   1       2.207  -0.121   3.411  0.00  0.00     0.033 A 
ATOM      4  C4  UNL d   1       3.355   0.561   3.020  0.00  0.00    -0.042 A 
ATOM      5  C5  UNL d   1       3.509   1.898   3.368  0.00  0.00     0.033 A 
ATOM      6  C6  UNL d   1       2.515   2.546   4.109  0.00  0.00    -0.057 A 
ENDROOT
BRANCH   1   7
ATOM      7  N   UNL d   1       0.362   2.609   5.177  0.00  0.00    -0.732 N 
ATOM      8  C   UNL d   1      -1.009   2.560   4.714  0.00  0.00     0.284 C 
ATOM      9  H3  UNL d   1       0.459   2.589   6.190  0.00  0.00     0.395 HD
ENDBRANCH   1   7
TORSDOF 1
ENDMDL
