MODEL 1
REMARK minimizedAffinity 6.9778738
REMARK minimizedRMSD -1
REMARK  1 active torsions:
REMARK  status: ('A' for Active; 'I' for Inactive)
REMARK    1  A    between atoms: N_2  and  C1_3 
ROOT
ATOM      1  C1  UNL d   1       2.559   1.523   3.677  0.00  0.00     0.143 A 
ATOM      2  C2  UNL d   1       2.027   1.216   4.934  0.00  0.00    -0.057 A 
ATOM      3  C3  UNL d   1       1.648  -0.092   5.263  0.00  0.00     0.033 A 
ATOM      4  C4  UNL d   1       1.769  -1.113   4.326  0.00  0.00    -0.042 A 
ATOM      5  C5  UNL d   1       2.272  -0.826   3.062  0.00  0.00     0.033 A 
ATOM      6  C6  UNL d   1       2.654   0.480   2.742  0.00  0.00    -0.057 A 
ENDROOT
BRANCH   1   7
ATOM      7  N   UNL d   1       2.861   2.820   3.257  0.00  0.00    -0.732 N 
ATOM      8  C   UNL d   1       2.792   3.176   1.856  0.00  0.00     0.284 C 
ATOM      9  H3  UNL d   1       2.489   3.529   3.885  0.00  0.00     0.395 HD
ENDBRANCH   1   7
TORSDOF 1
ENDMDL
