MODEL 1
REMARK minimizedAffinity -2.54271388
REMARK minimizedRMSD -1
REMARK  1 active torsions:
REMARK  status: ('A' for Active; 'I' for Inactive)
REMARK    1  A    between atoms: N_2  and  C1_3 
ROOT
ATOM      1  C1  UNL d   1      -5.854   5.082   3.530  0.00  0.00     0.143 A 
ATOM      2  C2  UNL d   1      -5.665   3.696   3.583  0.00  0.00    -0.057 A 
ATOM      3  C3  UNL d   1      -5.668   3.009   4.803  0.00  0.00     0.033 A 
ATOM      4  C4  UNL d   1      -5.832   3.702   5.998  0.00  0.00    -0.042 A 
ATOM      5  C5  UNL d   1      -5.997   5.083   5.971  0.00  0.00     0.033 A 
ATOM      6  C6  UNL d   1      -5.999   5.762   4.749  0.00  0.00    -0.057 A 
ENDROOT
BRANCH   1   7
ATOM      7  N   UNL d   1      -5.763   5.835   2.357  0.00  0.00    -0.732 N 
ATOM      8  C   UNL d   1      -4.507   5.942   1.646  0.00  0.00     0.284 C 
ATOM      9  H3  UNL d   1      -6.573   5.714   1.754  0.00  0.00     0.395 HD
ENDBRANCH   1   7
TORSDOF 1
ENDMDL
