MODEL 1
REMARK minimizedAffinity 1.11617815
REMARK minimizedRMSD -1
REMARK  1 active torsions:
REMARK  status: ('A' for Active; 'I' for Inactive)
REMARK    1  A    between atoms: N_2  and  C1_3 
ROOT
ATOM      1  C1  UNL d   1      -5.652   4.101   4.085  0.00  0.00     0.143 A 
ATOM      2  C2  UNL d   1      -5.108   3.345   3.041  0.00  0.00    -0.057 A 
ATOM      3  C3  UNL d   1      -4.876   3.909   1.780  0.00  0.00     0.033 A 
ATOM      4  C4  UNL d   1      -5.212   5.236   1.533  0.00  0.00    -0.042 A 
ATOM      5  C5  UNL d   1      -5.777   5.999   2.548  0.00  0.00     0.033 A 
ATOM      6  C6  UNL d   1      -6.000   5.433   3.807  0.00  0.00    -0.057 A 
ENDROOT
BRANCH   1   7
ATOM      7  N   UNL d   1      -5.998   3.572   5.330  0.00  0.00    -0.732 N 
ATOM      8  C   UNL d   1      -5.550   2.252   5.720  0.00  0.00     0.284 C 
ATOM      9  H3  UNL d   1      -5.947   4.264   6.074  0.00  0.00     0.395 HD
ENDBRANCH   1   7
TORSDOF 1
ENDMDL
