MODEL 1
REMARK minimizedAffinity -2.96334958
REMARK minimizedRMSD -1
REMARK  1 active torsions:
REMARK  status: ('A' for Active; 'I' for Inactive)
REMARK    1  A    between atoms: N_2  and  C1_3 
ROOT
ATOM      1  C1  UNL d   1      -5.866   5.116   3.367  0.00  0.00     0.143 A 
ATOM      2  C2  UNL d   1      -5.467   3.778   3.280  0.00  0.00    -0.057 A 
ATOM      3  C3  UNL d   1      -5.255   3.007   4.429  0.00  0.00     0.033 A 
ATOM      4  C4  UNL d   1      -5.410   3.571   5.691  0.00  0.00    -0.042 A 
ATOM      5  C5  UNL d   1      -5.782   4.906   5.802  0.00  0.00     0.033 A 
ATOM      6  C6  UNL d   1      -5.999   5.669   4.651  0.00  0.00    -0.057 A 
ENDROOT
BRANCH   1   7
ATOM      7  N   UNL d   1      -5.998   5.962   2.264  0.00  0.00    -0.732 N 
ATOM      8  C   UNL d   1      -4.978   6.000   1.238  0.00  0.00     0.284 C 
ATOM      9  H3  UNL d   1      -6.949   5.987   1.904  0.00  0.00     0.395 HD
ENDBRANCH   1   7
TORSDOF 1
ENDMDL
