MODEL 1
REMARK minimizedAffinity -2.96299076
REMARK minimizedRMSD -1
REMARK  1 active torsions:
REMARK  status: ('A' for Active; 'I' for Inactive)
REMARK    1  A    between atoms: N_2  and  C1_3 
ROOT
ATOM      1  C1  UNL d   1      -5.645   4.265   3.019  0.00  0.00     0.143 A 
ATOM      2  C2  UNL d   1      -5.248   3.015   3.506  0.00  0.00    -0.057 A 
ATOM      3  C3  UNL d   1      -5.251   2.737   4.878  0.00  0.00     0.033 A 
ATOM      4  C4  UNL d   1      -5.623   3.717   5.792  0.00  0.00    -0.042 A 
ATOM      5  C5  UNL d   1      -5.997   4.974   5.332  0.00  0.00     0.033 A 
ATOM      6  C6  UNL d   1      -6.000   5.244   3.960  0.00  0.00    -0.057 A 
ENDROOT
BRANCH   1   7
ATOM      7  N   UNL d   1      -5.571   4.635   1.674  0.00  0.00    -0.732 N 
ATOM      8  C   UNL d   1      -4.524   5.520   1.209  0.00  0.00     0.284 C 
ATOM      9  H3  UNL d   1      -5.768   3.859   1.046  0.00  0.00     0.395 HD
ENDBRANCH   1   7
TORSDOF 1
ENDMDL
