MODEL 1
REMARK minimizedAffinity -1.81365764
REMARK minimizedRMSD -1
REMARK  1 active torsions:
REMARK  status: ('A' for Active; 'I' for Inactive)
REMARK    1  A    between atoms: N_2  and  C1_3 
ROOT
ATOM      1  C1  UNL d   1      -5.845   3.796   3.995  0.00  0.00     0.143 A 
ATOM      2  C2  UNL d   1      -6.000   3.258   2.713  0.00  0.00    -0.057 A 
ATOM      3  C3  UNL d   1      -5.933   4.067   1.573  0.00  0.00     0.033 A 
ATOM      4  C4  UNL d   1      -5.738   5.439   1.697  0.00  0.00    -0.042 A 
ATOM      5  C5  UNL d   1      -5.607   5.999   2.962  0.00  0.00     0.033 A 
ATOM      6  C6  UNL d   1      -5.667   5.185   4.097  0.00  0.00    -0.057 A 
ENDROOT
BRANCH   1   7
ATOM      7  N   UNL d   1      -5.999   3.060   5.172  0.00  0.00    -0.732 N 
ATOM      8  C   UNL d   1      -4.852   2.731   5.992  0.00  0.00     0.284 C 
ATOM      9  H3  UNL d   1      -6.821   3.340   5.701  0.00  0.00     0.395 HD
ENDBRANCH   1   7
TORSDOF 1
ENDMDL
