MODEL 1
REMARK minimizedAffinity -3.66001296
REMARK minimizedRMSD -1
REMARK  1 active torsions:
REMARK  status: ('A' for Active; 'I' for Inactive)
REMARK    1  A    between atoms: N_2  and  C1_3 
ROOT
ATOM      1  C1  UNL d   1      -5.392   3.460   4.413  0.00  0.00     0.143 A 
ATOM      2  C2  UNL d   1      -5.663   4.658   5.083  0.00  0.00    -0.057 A 
ATOM      3  C3  UNL d   1      -5.744   5.873   4.392  0.00  0.00     0.033 A 
ATOM      4  C4  UNL d   1      -5.526   5.916   3.019  0.00  0.00    -0.042 A 
ATOM      5  C5  UNL d   1      -5.231   4.741   2.337  0.00  0.00     0.033 A 
ATOM      6  C6  UNL d   1      -5.158   3.529   3.031  0.00  0.00    -0.057 A 
ENDROOT
BRANCH   1   7
ATOM      7  N   UNL d   1      -5.202   2.235   5.057  0.00  0.00    -0.732 N 
ATOM      8  C   UNL d   1      -4.111   2.055   5.991  0.00  0.00     0.284 C 
ATOM      9  H3  UNL d   1      -6.078   1.812   5.355  0.00  0.00     0.395 HD
ENDBRANCH   1   7
TORSDOF 1
ENDMDL
