MODEL 1
REMARK minimizedAffinity -2.96714973
REMARK minimizedRMSD -1
REMARK  1 active torsions:
REMARK  status: ('A' for Active; 'I' for Inactive)
REMARK    1  A    between atoms: N_2  and  C1_3 
ROOT
ATOM      1  C1  UNL d   1      -5.730   3.529   4.600  0.00  0.00     0.143 A 
ATOM      2  C2  UNL d   1      -5.417   4.892   4.559  0.00  0.00    -0.057 A 
ATOM      3  C3  UNL d   1      -5.419   5.601   3.352  0.00  0.00     0.033 A 
ATOM      4  C4  UNL d   1      -5.707   4.951   2.156  0.00  0.00    -0.042 A 
ATOM      5  C5  UNL d   1      -5.997   3.591   2.171  0.00  0.00     0.033 A 
ATOM      6  C6  UNL d   1      -6.000   2.890   3.380  0.00  0.00    -0.057 A 
ENDROOT
BRANCH   1   7
ATOM      7  N   UNL d   1      -5.649   2.747   5.755  0.00  0.00    -0.732 N 
ATOM      8  C   UNL d   1      -4.494   1.910   5.998  0.00  0.00     0.284 C 
ATOM      9  H3  UNL d   1      -5.989   3.236   6.580  0.00  0.00     0.395 HD
ENDBRANCH   1   7
TORSDOF 1
ENDMDL
