MODEL 1
REMARK minimizedAffinity -3.76887584
REMARK minimizedRMSD -1
REMARK  1 active torsions:
REMARK  status: ('A' for Active; 'I' for Inactive)
REMARK    1  A    between atoms: N_2  and  C1_3 
ROOT
ATOM      1  C1  UNL d   1      -5.825   4.329   1.986  0.00  0.00     0.143 A 
ATOM      2  C2  UNL d   1      -5.998   5.272   0.967  0.00  0.00    -0.057 A 
ATOM      3  C3  UNL d   1      -5.743   4.949  -0.371  0.00  0.00     0.033 A 
ATOM      4  C4  UNL d   1      -5.281   3.682  -0.712  0.00  0.00    -0.042 A 
ATOM      5  C5  UNL d   1      -5.078   2.737   0.288  0.00  0.00     0.033 A 
ATOM      6  C6  UNL d   1      -5.341   3.063   1.622  0.00  0.00    -0.057 A 
ENDROOT
BRANCH   1   7
ATOM      7  N   UNL d   1      -5.967   4.619   3.346  0.00  0.00    -0.732 N 
ATOM      8  C   UNL d   1      -5.997   5.990   3.808  0.00  0.00     0.284 C 
ATOM      9  H3  UNL d   1      -6.641   4.010   3.804  0.00  0.00     0.395 HD
ENDBRANCH   1   7
TORSDOF 1
ENDMDL
