MODEL 1
REMARK minimizedAffinity -3.97115326
REMARK minimizedRMSD -1
REMARK  1 active torsions:
REMARK  status: ('A' for Active; 'I' for Inactive)
REMARK    1  A    between atoms: N_2  and  C1_3 
ROOT
ATOM      1  C1  UNL d   1      -5.244   4.082   4.033  0.00  0.00     0.143 A 
ATOM      2  C2  UNL d   1      -5.966   3.403   5.021  0.00  0.00    -0.057 A 
ATOM      3  C3  UNL d   1      -5.317   2.636   5.996  0.00  0.00     0.033 A 
ATOM      4  C4  UNL d   1      -3.932   2.511   5.983  0.00  0.00    -0.042 A 
ATOM      5  C5  UNL d   1      -3.196   3.156   4.996  0.00  0.00     0.033 A 
ATOM      6  C6  UNL d   1      -3.849   3.926   4.029  0.00  0.00    -0.057 A 
ENDROOT
BRANCH   1   7
ATOM      7  N   UNL d   1      -5.837   4.780   2.978  0.00  0.00    -0.732 N 
ATOM      8  C   UNL d   1      -5.022   5.421   1.968  0.00  0.00     0.284 C 
ATOM      9  H3  UNL d   1      -6.657   4.304   2.610  0.00  0.00     0.395 HD
ENDBRANCH   1   7
TORSDOF 1
ENDMDL
