MODEL 1
REMARK minimizedAffinity -3.06523323
REMARK minimizedRMSD -1
REMARK  0 active torsions:
REMARK  status: ('A' for Active; 'I' for Inactive)
ROOT
ATOM      1  C   UNL d   1      -0.703  -2.528   0.430  0.00  0.00     0.172 C 
ATOM      2  N   UNL d   1      -0.245  -1.293  -0.160  0.00  0.00    -0.070 N 
ATOM      3  C1  UNL d   1       0.304  -1.159  -1.407  0.00  0.00    -0.004 A 
ATOM      4  C2  UNL d   1       0.606   0.172  -1.595  0.00  0.00    -0.047 A 
ATOM      5  C3  UNL d   1       0.227   0.863  -0.419  0.00  0.00    -0.047 A 
ATOM      6  C4  UNL d   1      -0.297  -0.068   0.452  0.00  0.00    -0.004 A 
ENDROOT
TORSDOF 0
ENDMDL
