MODEL 1
REMARK minimizedAffinity 2.81613207
REMARK minimizedRMSD -1
REMARK  0 active torsions:
REMARK  status: ('A' for Active; 'I' for Inactive)
ROOT
ATOM      1  C   UNL d   1      -1.397  -3.269   0.723  0.00  0.00     0.172 C 
ATOM      2  N   UNL d   1      -1.095  -1.970   1.277  0.00  0.00    -0.070 N 
ATOM      3  C1  UNL d   1      -1.603  -0.777   0.837  0.00  0.00    -0.004 A 
ATOM      4  C2  UNL d   1      -1.073   0.223   1.624  0.00  0.00    -0.047 A 
ATOM      5  C3  UNL d   1      -0.217  -0.390   2.569  0.00  0.00    -0.047 A 
ATOM      6  C4  UNL d   1      -0.249  -1.748   2.332  0.00  0.00    -0.004 A 
ENDROOT
TORSDOF 0
ENDMDL
