MODEL 1
REMARK minimizedAffinity -3.3082583
REMARK minimizedRMSD -1
REMARK  0 active torsions:
REMARK  status: ('A' for Active; 'I' for Inactive)
ROOT
ATOM      1  C   UNL d   1      -0.080   0.703   0.021  0.00  0.00     0.172 C 
ATOM      2  N   UNL d   1       1.063   1.586   0.009  0.00  0.00    -0.070 N 
ATOM      3  C1  UNL d   1       1.320   2.571   0.925  0.00  0.00    -0.004 A 
ATOM      4  C2  UNL d   1       2.500   3.185   0.565  0.00  0.00    -0.047 A 
ATOM      5  C3  UNL d   1       2.968   2.548  -0.609  0.00  0.00    -0.047 A 
ATOM      6  C4  UNL d   1       2.059   1.562  -0.931  0.00  0.00    -0.004 A 
ENDROOT
TORSDOF 0
ENDMDL
