MODEL 1
REMARK minimizedAffinity -2.52297759
REMARK minimizedRMSD -1
REMARK  0 active torsions:
REMARK  status: ('A' for Active; 'I' for Inactive)
ROOT
ATOM      1  C   UNL d   1       0.251   0.046  -1.431  0.00  0.00     0.172 C 
ATOM      2  N   UNL d   1      -0.339   0.562  -0.218  0.00  0.00    -0.070 N 
ATOM      3  C1  UNL d   1      -0.958  -0.185   0.749  0.00  0.00    -0.004 A 
ATOM      4  C2  UNL d   1      -1.382   0.675   1.739  0.00  0.00    -0.047 A 
ATOM      5  C3  UNL d   1      -1.005   1.984   1.354  0.00  0.00    -0.047 A 
ATOM      6  C4  UNL d   1      -0.360   1.884   0.138  0.00  0.00    -0.004 A 
ENDROOT
TORSDOF 0
ENDMDL
