MODEL 1
REMARK minimizedAffinity -3.64280701
REMARK minimizedRMSD -1
REMARK  0 active torsions:
REMARK  status: ('A' for Active; 'I' for Inactive)
ROOT
ATOM      1  C   UNL d   1       1.132   0.431  -1.903  0.00  0.00     0.172 C 
ATOM      2  N   UNL d   1       0.524  -0.032  -0.677  0.00  0.00    -0.070 N 
ATOM      3  C1  UNL d   1       0.412  -1.339  -0.286  0.00  0.00    -0.004 A 
ATOM      4  C2  UNL d   1      -0.224  -1.361   0.937  0.00  0.00    -0.047 A 
ATOM      5  C3  UNL d   1      -0.504  -0.020   1.292  0.00  0.00    -0.047 A 
ATOM      6  C4  UNL d   1      -0.030   0.782   0.276  0.00  0.00    -0.004 A 
ENDROOT
TORSDOF 0
ENDMDL
