MODEL 1
REMARK minimizedAffinity -3.1135397
REMARK minimizedRMSD -1
REMARK  0 active torsions:
REMARK  status: ('A' for Active; 'I' for Inactive)
ROOT
ATOM      1  C   UNL d   1      -0.020   0.100  -1.463  0.00  0.00     0.172 C 
ATOM      2  N   UNL d   1      -0.308  -0.404  -0.141  0.00  0.00    -0.070 N 
ATOM      3  C1  UNL d   1      -0.860  -1.624   0.145  0.00  0.00    -0.004 A 
ATOM      4  C2  UNL d   1      -0.973  -1.725   1.515  0.00  0.00    -0.047 A 
ATOM      5  C3  UNL d   1      -0.472  -0.524   2.071  0.00  0.00    -0.047 A 
ATOM      6  C4  UNL d   1      -0.068   0.276   1.023  0.00  0.00    -0.004 A 
ENDROOT
TORSDOF 0
ENDMDL
