MODEL 1
REMARK minimizedAffinity -3.14904857
REMARK minimizedRMSD -1
REMARK  0 active torsions:
REMARK  status: ('A' for Active; 'I' for Inactive)
ROOT
ATOM      1  C   UNL d   1       0.757   0.250  -1.593  0.00  0.00     0.172 C 
ATOM      2  N   UNL d   1       1.213   1.320  -0.738  0.00  0.00    -0.070 N 
ATOM      3  C1  UNL d   1       2.486   1.822  -0.696  0.00  0.00    -0.004 A 
ATOM      4  C2  UNL d   1       2.512   2.829   0.244  0.00  0.00    -0.047 A 
ATOM      5  C3  UNL d   1       1.210   2.936   0.787  0.00  0.00    -0.047 A 
ATOM      6  C4  UNL d   1       0.425   1.990   0.161  0.00  0.00    -0.004 A 
ENDROOT
TORSDOF 0
ENDMDL
