MODEL 1
REMARK minimizedAffinity -3.55234456
REMARK minimizedRMSD -1
REMARK  0 active torsions:
REMARK  status: ('A' for Active; 'I' for Inactive)
ROOT
ATOM      1  C   UNL d   1      -0.006  -2.474   0.738  0.00  0.00     0.172 C 
ATOM      2  N   UNL d   1       0.133  -1.147   0.185  0.00  0.00    -0.070 N 
ATOM      3  C1  UNL d   1       0.753  -0.836  -0.996  0.00  0.00    -0.004 A 
ATOM      4  C2  UNL d   1       0.673   0.529  -1.167  0.00  0.00    -0.047 A 
ATOM      5  C3  UNL d   1      -0.018   1.057  -0.050  0.00  0.00    -0.047 A 
ATOM      6  C4  UNL d   1      -0.341  -0.003   0.771  0.00  0.00    -0.004 A 
ENDROOT
TORSDOF 0
ENDMDL
