MODEL 1
REMARK minimizedAffinity 0.27432701
REMARK minimizedRMSD -1
REMARK  0 active torsions:
REMARK  status: ('A' for Active; 'I' for Inactive)
ROOT
ATOM      1  C   UNL d   1      -0.408   0.779  -0.538  0.00  0.00     0.172 C 
ATOM      2  N   UNL d   1      -0.755   0.032   0.648  0.00  0.00    -0.070 N 
ATOM      3  C1  UNL d   1      -0.696  -1.330   0.779  0.00  0.00    -0.004 A 
ATOM      4  C2  UNL d   1      -1.105  -1.649   2.056  0.00  0.00    -0.047 A 
ATOM      5  C3  UNL d   1      -1.422  -0.437   2.715  0.00  0.00    -0.047 A 
ATOM      6  C4  UNL d   1      -1.196   0.588   1.820  0.00  0.00    -0.004 A 
ENDROOT
TORSDOF 0
ENDMDL
