MODEL 1
REMARK minimizedAffinity -3.62340093
REMARK minimizedRMSD -1
REMARK  0 active torsions:
REMARK  status: ('A' for Active; 'I' for Inactive)
ROOT
ATOM      1  C   UNL d   1       1.792   2.344   0.674  0.00  0.00     0.172 C 
ATOM      2  N   UNL d   1       1.354   1.506  -0.417  0.00  0.00    -0.070 N 
ATOM      3  C1  UNL d   1       2.139   1.061  -1.448  0.00  0.00    -0.004 A 
ATOM      4  C2  UNL d   1       1.351   0.292  -2.277  0.00  0.00    -0.047 A 
ATOM      5  C3  UNL d   1       0.047   0.274  -1.726  0.00  0.00    -0.047 A 
ATOM      6  C4  UNL d   1       0.078   1.033  -0.575  0.00  0.00    -0.004 A 
ENDROOT
TORSDOF 0
ENDMDL
