MODEL 1
REMARK minimizedAffinity -1.38741159
REMARK minimizedRMSD -1
REMARK  0 active torsions:
REMARK  status: ('A' for Active; 'I' for Inactive)
ROOT
ATOM      1  C   UNL d   1      -1.018  -2.273   0.471  0.00  0.00     0.172 C 
ATOM      2  N   UNL d   1      -1.015  -0.868   0.807  0.00  0.00    -0.070 N 
ATOM      3  C1  UNL d   1      -0.605   0.148  -0.015  0.00  0.00    -0.004 A 
ATOM      4  C2  UNL d   1      -0.757   1.333   0.672  0.00  0.00    -0.047 A 
ATOM      5  C3  UNL d   1      -1.276   1.018   1.951  0.00  0.00    -0.047 A 
ATOM      6  C4  UNL d   1      -1.426  -0.351   2.007  0.00  0.00    -0.004 A 
ENDROOT
TORSDOF 0
ENDMDL
