MODEL 1
REMARK minimizedAffinity 0.755523264
REMARK minimizedRMSD -1
REMARK  0 active torsions:
REMARK  status: ('A' for Active; 'I' for Inactive)
ROOT
ATOM      1  C   UNL d   1       5.998  -1.086   5.895  0.00  0.00     0.172 C 
ATOM      2  N   UNL d   1       5.360  -2.375   5.774  0.00  0.00    -0.070 N 
ATOM      3  C1  UNL d   1       4.033  -2.634   5.996  0.00  0.00    -0.004 A 
ATOM      4  C2  UNL d   1       3.823  -3.978   5.777  0.00  0.00    -0.047 A 
ATOM      5  C3  UNL d   1       5.066  -4.547   5.412  0.00  0.00    -0.047 A 
ATOM      6  C4  UNL d   1       6.000  -3.533   5.418  0.00  0.00    -0.004 A 
ENDROOT
TORSDOF 0
ENDMDL
