MODEL 1
REMARK minimizedAffinity -3.53583479
REMARK minimizedRMSD -1
REMARK  0 active torsions:
REMARK  status: ('A' for Active; 'I' for Inactive)
ROOT
ATOM      1  C   UNL d   1       0.009  -3.120   0.464  0.00  0.00     0.172 C 
ATOM      2  N   UNL d   1       0.153  -1.714   0.169  0.00  0.00    -0.070 N 
ATOM      3  C1  UNL d   1      -0.275  -0.684   0.963  0.00  0.00    -0.004 A 
ATOM      4  C2  UNL d   1       0.050   0.498   0.333  0.00  0.00    -0.047 A 
ATOM      5  C3  UNL d   1       0.696   0.166  -0.882  0.00  0.00    -0.047 A 
ATOM      6  C4  UNL d   1       0.746  -1.209  -0.958  0.00  0.00    -0.004 A 
ENDROOT
TORSDOF 0
ENDMDL
