MODEL 1
REMARK minimizedAffinity -1.23684299
REMARK minimizedRMSD -1
REMARK  0 active torsions:
REMARK  status: ('A' for Active; 'I' for Inactive)
ROOT
ATOM      1  C   UNL d   1       0.065   1.311   0.683  0.00  0.00     0.172 C 
ATOM      2  N   UNL d   1       1.323   2.018   0.739  0.00  0.00    -0.070 N 
ATOM      3  C1  UNL d   1       1.595   3.103   1.528  0.00  0.00    -0.004 A 
ATOM      4  C2  UNL d   1       2.898   3.481   1.290  0.00  0.00    -0.047 A 
ATOM      5  C3  UNL d   1       3.428   2.593   0.325  0.00  0.00    -0.047 A 
ATOM      6  C4  UNL d   1       2.431   1.697   0.000  0.00  0.00    -0.004 A 
ENDROOT
TORSDOF 0
ENDMDL
