MODEL 1
REMARK minimizedAffinity 2.97652435
REMARK minimizedRMSD -1
REMARK  0 active torsions:
REMARK  status: ('A' for Active; 'I' for Inactive)
ROOT
ATOM      1  C   UNL d   1       3.728   1.152  -0.975  0.00  0.00     0.172 C 
ATOM      2  N   UNL d   1       3.415   0.961  -2.372  0.00  0.00    -0.070 N 
ATOM      3  C1  UNL d   1       3.833   1.763  -3.401  0.00  0.00    -0.004 A 
ATOM      4  C2  UNL d   1       3.325   1.245  -4.572  0.00  0.00    -0.047 A 
ATOM      5  C3  UNL d   1       2.575   0.093  -4.236  0.00  0.00    -0.047 A 
ATOM      6  C4  UNL d   1       2.647  -0.059  -2.868  0.00  0.00    -0.004 A 
ENDROOT
TORSDOF 0
ENDMDL
