MODEL 1
REMARK minimizedAffinity -0.301437885
REMARK minimizedRMSD -1
REMARK  0 active torsions:
REMARK  status: ('A' for Active; 'I' for Inactive)
ROOT
ATOM      1  C   UNL d   1      -0.323   0.742   0.013  0.00  0.00     0.172 C 
ATOM      2  N   UNL d   1       0.741   0.713  -0.962  0.00  0.00    -0.070 N 
ATOM      3  C1  UNL d   1       0.634   0.256  -2.248  0.00  0.00    -0.004 A 
ATOM      4  C2  UNL d   1       1.865   0.397  -2.851  0.00  0.00    -0.047 A 
ATOM      5  C3  UNL d   1       2.743   0.958  -1.894  0.00  0.00    -0.047 A 
ATOM      6  C4  UNL d   1       2.022   1.143  -0.733  0.00  0.00    -0.004 A 
ENDROOT
TORSDOF 0
ENDMDL
