MODEL 1
REMARK minimizedAffinity -4.10816813
REMARK minimizedRMSD -1
REMARK  0 active torsions:
REMARK  status: ('A' for Active; 'I' for Inactive)
ROOT
ATOM      1  C   UNL d   1      -0.819  -0.995   0.413  0.00  0.00     0.020 A 
ATOM      2  C1  UNL d   1      -1.469  -0.002   1.144  0.00  0.00     0.020 A 
ATOM      3  C2  UNL d   1      -0.877   1.253   1.298  0.00  0.00     0.034 A 
ATOM      4  C3  UNL d   1       0.370   1.519   0.719  0.00  0.00     0.017 A 
ATOM      5  C4  UNL d   1       1.022   0.522  -0.015  0.00  0.00     0.017 A 
ATOM      6  C5  UNL d   1       0.424  -0.734  -0.166  0.00  0.00     0.034 A 
ATOM      7 Cl   UNL d   1       2.561   0.775  -0.758  0.00  0.00    -0.070 Cl
ATOM      8 Cl1  UNL d   1       1.043   3.094   0.949  0.00  0.00    -0.070 Cl
ENDROOT
TORSDOF 0
ENDMDL
