MODEL 1
REMARK minimizedAffinity -5.35825205
REMARK minimizedRMSD -1
REMARK  0 active torsions:
REMARK  status: ('A' for Active; 'I' for Inactive)
ROOT
ATOM      1  C   UNL d   1       0.371   1.954   1.062  0.00  0.00     0.020 A 
ATOM      2  C1  UNL d   1       1.732   2.019   0.767  0.00  0.00     0.020 A 
ATOM      3  C2  UNL d   1       2.349   0.969   0.083  0.00  0.00     0.034 A 
ATOM      4  C3  UNL d   1       1.604  -0.150  -0.308  0.00  0.00     0.017 A 
ATOM      5  C4  UNL d   1       0.238  -0.214  -0.011  0.00  0.00     0.017 A 
ATOM      6  C5  UNL d   1      -0.374   0.840   0.674  0.00  0.00     0.034 A 
ATOM      7 Cl   UNL d   1      -0.746  -1.562  -0.460  0.00  0.00    -0.070 Cl
ATOM      8 Cl1  UNL d   1       2.432  -1.411  -1.151  0.00  0.00    -0.070 Cl
ENDROOT
TORSDOF 0
ENDMDL
