MODEL 1
REMARK minimizedAffinity -4.89573717
REMARK minimizedRMSD -1
REMARK  0 active torsions:
REMARK  status: ('A' for Active; 'I' for Inactive)
ROOT
ATOM      1  C   UNL d   1      -0.107  -1.400  -0.734  0.00  0.00     0.020 A 
ATOM      2  C1  UNL d   1      -0.947  -0.685   0.118  0.00  0.00     0.020 A 
ATOM      3  C2  UNL d   1      -0.610   0.615   0.501  0.00  0.00     0.034 A 
ATOM      4  C3  UNL d   1       0.570   1.204   0.033  0.00  0.00     0.017 A 
ATOM      5  C4  UNL d   1       1.413   0.485  -0.822  0.00  0.00     0.017 A 
ATOM      6  C5  UNL d   1       1.071  -0.817  -1.203  0.00  0.00     0.034 A 
ATOM      7 Cl   UNL d   1       2.886   1.144  -1.442  0.00  0.00    -0.070 Cl
ATOM      8 Cl1  UNL d   1       0.924   2.815   0.547  0.00  0.00    -0.070 Cl
ENDROOT
TORSDOF 0
ENDMDL
