MODEL 1
REMARK minimizedAffinity -3.97424889
REMARK minimizedRMSD -1
REMARK  0 active torsions:
REMARK  status: ('A' for Active; 'I' for Inactive)
ROOT
ATOM      1  C   UNL d   1       0.689   1.687   1.447  0.00  0.00     0.020 A 
ATOM      2  C1  UNL d   1       1.125   1.142   0.239  0.00  0.00     0.020 A 
ATOM      3  C2  UNL d   1       0.515  -0.007  -0.269  0.00  0.00     0.034 A 
ATOM      4  C3  UNL d   1      -0.534  -0.615   0.431  0.00  0.00     0.017 A 
ATOM      5  C4  UNL d   1      -0.970  -0.067   1.643  0.00  0.00     0.017 A 
ATOM      6  C5  UNL d   1      -0.356   1.083   2.147  0.00  0.00     0.034 A 
ATOM      7 Cl   UNL d   1      -2.258  -0.762   2.563  0.00  0.00    -0.070 Cl
ATOM      8 Cl1  UNL d   1      -1.242  -2.033  -0.256  0.00  0.00    -0.070 Cl
ENDROOT
TORSDOF 0
ENDMDL
