MODEL 1
REMARK minimizedAffinity -3.61305618
REMARK minimizedRMSD -1
REMARK  0 active torsions:
REMARK  status: ('A' for Active; 'I' for Inactive)
ROOT
ATOM      1  C   UNL d   1      -0.587  -1.041   0.369  0.00  0.00     0.020 A 
ATOM      2  C1  UNL d   1      -1.143  -0.221   1.350  0.00  0.00     0.020 A 
ATOM      3  C2  UNL d   1      -0.597   1.040   1.598  0.00  0.00     0.034 A 
ATOM      4  C3  UNL d   1       0.509   1.485   0.864  0.00  0.00     0.017 A 
ATOM      5  C4  UNL d   1       1.067   0.661  -0.120  0.00  0.00     0.017 A 
ATOM      6  C5  UNL d   1       0.516  -0.601  -0.364  0.00  0.00     0.034 A 
ATOM      7 Cl   UNL d   1       2.432   1.140  -1.066  0.00  0.00    -0.070 Cl
ATOM      8 Cl1  UNL d   1       1.132   3.056   1.223  0.00  0.00    -0.070 Cl
ENDROOT
TORSDOF 0
ENDMDL
