MODEL 1
REMARK minimizedAffinity -4.40819645
REMARK minimizedRMSD -1
REMARK  0 active torsions:
REMARK  status: ('A' for Active; 'I' for Inactive)
ROOT
ATOM      1  C   UNL d   1       2.337  -0.277  -1.026  0.00  0.00     0.020 A 
ATOM      2  C1  UNL d   1       1.371  -1.244  -0.750  0.00  0.00     0.020 A 
ATOM      3  C2  UNL d   1       0.279  -0.927   0.061  0.00  0.00     0.034 A 
ATOM      4  C3  UNL d   1       0.150   0.358   0.598  0.00  0.00     0.017 A 
ATOM      5  C4  UNL d   1       1.120   1.328   0.320  0.00  0.00     0.017 A 
ATOM      6  C5  UNL d   1       2.211   1.006  -0.493  0.00  0.00     0.034 A 
ATOM      7 Cl   UNL d   1       1.029   2.936   0.947  0.00  0.00    -0.070 Cl
ATOM      8 Cl1  UNL d   1      -1.226   0.680   1.593  0.00  0.00    -0.070 Cl
ENDROOT
TORSDOF 0
ENDMDL
