MODEL 1
REMARK minimizedAffinity -3.54373026
REMARK minimizedRMSD -1
REMARK  0 active torsions:
REMARK  status: ('A' for Active; 'I' for Inactive)
ROOT
ATOM      1  C   UNL d   1       1.695   2.215   0.081  0.00  0.00     0.020 A 
ATOM      2  C1  UNL d   1       1.367   2.463   1.413  0.00  0.00     0.020 A 
ATOM      3  C2  UNL d   1       0.475   1.620   2.081  0.00  0.00     0.034 A 
ATOM      4  C3  UNL d   1      -0.090   0.525   1.417  0.00  0.00     0.017 A 
ATOM      5  C4  UNL d   1       0.241   0.277   0.080  0.00  0.00     0.017 A 
ATOM      6  C5  UNL d   1       1.134   1.124  -0.584  0.00  0.00     0.034 A 
ATOM      7 Cl   UNL d   1      -0.416  -1.054  -0.806  0.00  0.00    -0.070 Cl
ATOM      8 Cl1  UNL d   1      -1.184  -0.475   2.304  0.00  0.00    -0.070 Cl
ENDROOT
TORSDOF 0
ENDMDL
