MODEL 1
REMARK minimizedAffinity -5.20626402
REMARK minimizedRMSD -1
REMARK  0 active torsions:
REMARK  status: ('A' for Active; 'I' for Inactive)
ROOT
ATOM      1  C   UNL d   1       1.015   2.544   0.249  0.00  0.00     0.020 A 
ATOM      2  C1  UNL d   1       0.146   2.699   1.329  0.00  0.00     0.020 A 
ATOM      3  C2  UNL d   1      -0.608   1.614   1.780  0.00  0.00     0.034 A 
ATOM      4  C3  UNL d   1      -0.496   0.369   1.151  0.00  0.00     0.017 A 
ATOM      5  C4  UNL d   1       0.376   0.214   0.067  0.00  0.00     0.017 A 
ATOM      6  C5  UNL d   1       1.129   1.304  -0.380  0.00  0.00     0.034 A 
ATOM      7 Cl   UNL d   1       0.569  -1.292  -0.760  0.00  0.00    -0.070 Cl
ATOM      8 Cl1  UNL d   1      -1.459  -0.930   1.761  0.00  0.00    -0.070 Cl
ENDROOT
TORSDOF 0
ENDMDL
