MODEL 1
REMARK minimizedAffinity -4.47469282
REMARK minimizedRMSD -1
REMARK  0 active torsions:
REMARK  status: ('A' for Active; 'I' for Inactive)
ROOT
ATOM      1  C   UNL d   1       1.089   2.441   1.177  0.00  0.00     0.020 A 
ATOM      2  C1  UNL d   1       1.617   1.860   0.025  0.00  0.00     0.020 A 
ATOM      3  C2  UNL d   1       1.024   0.717  -0.515  0.00  0.00     0.034 A 
ATOM      4  C3  UNL d   1      -0.101   0.151   0.096  0.00  0.00     0.017 A 
ATOM      5  C4  UNL d   1      -0.630   0.735   1.253  0.00  0.00     0.017 A 
ATOM      6  C5  UNL d   1      -0.032   1.879   1.790  0.00  0.00     0.034 A 
ATOM      7 Cl   UNL d   1      -2.015   0.094   2.064  0.00  0.00    -0.070 Cl
ATOM      8 Cl1  UNL d   1      -0.783  -1.263  -0.626  0.00  0.00    -0.070 Cl
ENDROOT
TORSDOF 0
ENDMDL
