MODEL 1
REMARK minimizedAffinity -3.21777272
REMARK minimizedRMSD -1
REMARK  0 active torsions:
REMARK  status: ('A' for Active; 'I' for Inactive)
ROOT
ATOM      1  C   UNL d   1      -1.203  -0.242   0.097  0.00  0.00     0.020 A 
ATOM      2  C1  UNL d   1      -0.331  -1.129  -0.533  0.00  0.00     0.020 A 
ATOM      3  C2  UNL d   1       0.994  -0.756  -0.770  0.00  0.00     0.034 A 
ATOM      4  C3  UNL d   1       1.450   0.508  -0.377  0.00  0.00     0.017 A 
ATOM      5  C4  UNL d   1       0.574   1.397   0.256  0.00  0.00     0.017 A 
ATOM      6  C5  UNL d   1      -0.751   1.018   0.491  0.00  0.00     0.034 A 
ATOM      7 Cl   UNL d   1       1.064   2.973   0.770  0.00  0.00    -0.070 Cl
ATOM      8 Cl1  UNL d   1       3.101   0.903  -0.701  0.00  0.00    -0.070 Cl
ENDROOT
TORSDOF 0
ENDMDL
