MODEL 1
REMARK minimizedAffinity -4.81639242
REMARK minimizedRMSD -1
REMARK  0 active torsions:
REMARK  status: ('A' for Active; 'I' for Inactive)
ROOT
ATOM      1  C   UNL d   1       2.120   1.834   0.245  0.00  0.00     0.020 A 
ATOM      2  C1  UNL d   1       1.540   2.502   1.323  0.00  0.00     0.020 A 
ATOM      3  C2  UNL d   1       0.301   2.087   1.817  0.00  0.00     0.034 A 
ATOM      4  C3  UNL d   1      -0.361   1.001   1.232  0.00  0.00     0.017 A 
ATOM      5  C4  UNL d   1       0.222   0.332   0.150  0.00  0.00     0.017 A 
ATOM      6  C5  UNL d   1       1.462   0.751  -0.340  0.00  0.00     0.034 A 
ATOM      7 Cl   UNL d   1      -0.535  -1.016  -0.623  0.00  0.00    -0.070 Cl
ATOM      8 Cl1  UNL d   1      -1.890   0.542   1.894  0.00  0.00    -0.070 Cl
ENDROOT
TORSDOF 0
ENDMDL
