MODEL 1
REMARK minimizedAffinity -2.94190717
REMARK minimizedRMSD -1
REMARK  0 active torsions:
REMARK  status: ('A' for Active; 'I' for Inactive)
ROOT
ATOM      1  C   UNL d   1       0.828   2.213   2.060  0.00  0.00     0.020 A 
ATOM      2  C1  UNL d   1      -0.483   1.743   1.986  0.00  0.00     0.020 A 
ATOM      3  C2  UNL d   1      -0.804   0.708   1.106  0.00  0.00     0.034 A 
ATOM      4  C3  UNL d   1       0.186   0.139   0.296  0.00  0.00     0.017 A 
ATOM      5  C4  UNL d   1       1.501   0.612   0.371  0.00  0.00     0.017 A 
ATOM      6  C5  UNL d   1       1.818   1.649   1.254  0.00  0.00     0.034 A 
ATOM      7 Cl   UNL d   1       2.776  -0.040  -0.596  0.00  0.00    -0.070 Cl
ATOM      8 Cl1  UNL d   1      -0.283  -1.138  -0.769  0.00  0.00    -0.070 Cl
ENDROOT
TORSDOF 0
ENDMDL
