MODEL 1
REMARK minimizedAffinity -4.57842112
REMARK minimizedRMSD -1
REMARK  0 active torsions:
REMARK  status: ('A' for Active; 'I' for Inactive)
ROOT
ATOM      1  C   UNL d   1      -0.068  -1.485  -0.481  0.00  0.00     0.020 A 
ATOM      2  C1  UNL d   1       1.042  -0.730  -0.859  0.00  0.00     0.020 A 
ATOM      3  C2  UNL d   1       1.265   0.521  -0.281  0.00  0.00     0.034 A 
ATOM      4  C3  UNL d   1       0.378   1.021   0.679  0.00  0.00     0.017 A 
ATOM      5  C4  UNL d   1      -0.736   0.263   1.058  0.00  0.00     0.017 A 
ATOM      6  C5  UNL d   1      -0.955  -0.989   0.475  0.00  0.00     0.034 A 
ATOM      7 Cl   UNL d   1      -1.875   0.813   2.236  0.00  0.00    -0.070 Cl
ATOM      8 Cl1  UNL d   1       0.716   2.576   1.353  0.00  0.00    -0.070 Cl
ENDROOT
TORSDOF 0
ENDMDL
