MODEL 1
REMARK minimizedAffinity -1.40764022
REMARK minimizedRMSD -1
REMARK  0 active torsions:
REMARK  status: ('A' for Active; 'I' for Inactive)
ROOT
ATOM      1  C   UNL d   1       0.635   1.926   1.777  0.00  0.00     0.020 A 
ATOM      2  C1  UNL d   1      -0.708   1.572   1.893  0.00  0.00     0.020 A 
ATOM      3  C2  UNL d   1      -1.224   0.529   1.122  0.00  0.00     0.034 A 
ATOM      4  C3  UNL d   1      -0.397  -0.164   0.231  0.00  0.00     0.017 A 
ATOM      5  C4  UNL d   1       0.952   0.192   0.115  0.00  0.00     0.017 A 
ATOM      6  C5  UNL d   1       1.464   1.237   0.890  0.00  0.00     0.034 A 
ATOM      7 Cl   UNL d   1       2.035  -0.617  -0.962  0.00  0.00    -0.070 Cl
ATOM      8 Cl1  UNL d   1      -1.102  -1.443  -0.692  0.00  0.00    -0.070 Cl
ENDROOT
TORSDOF 0
ENDMDL
