MODEL 1
REMARK minimizedAffinity 11.2952242
REMARK minimizedRMSD -1
REMARK  1 active torsions:
REMARK  status: ('A' for Active; 'I' for Inactive)
REMARK    1  A    between atoms: C1_2  and  C2_3 
ROOT
ATOM      1  C2  UNL d   1       5.302  -4.097  -1.706  0.00  0.00    -0.081 A 
ATOM      2  C3  UNL d   1       4.792  -5.386  -1.509  0.00  0.00     0.006 A 
ATOM      3  C4  UNL d   1       4.882  -6.000  -0.258  0.00  0.00     0.002 A 
ATOM      4  C5  UNL d   1       5.474  -5.332   0.820  0.00  0.00    -0.080 A 
ATOM      5  C6  UNL d   1       5.549  -5.968   2.176  0.00  0.00     0.076 C 
ATOM      6  C7  UNL d   1       5.998  -4.051   0.619  0.00  0.00     0.002 A 
ATOM      7  C8  UNL d   1       5.910  -3.437  -0.632  0.00  0.00     0.006 A 
ENDROOT
BRANCH   1   8
ATOM      8  C1  UNL d   1       5.149  -3.407  -3.037  0.00  0.00     0.054 C 
ATOM      9  C   UNL d   1       3.717  -3.494  -3.545  0.00  0.00     0.018 C 
ENDBRANCH   1   8
TORSDOF 1
ENDMDL
