MODEL 1
REMARK minimizedAffinity -1.56845033
REMARK minimizedRMSD -1
REMARK  1 active torsions:
REMARK  status: ('A' for Active; 'I' for Inactive)
REMARK    1  A    between atoms: C1_2  and  C2_3 
ROOT
ATOM      1  C2  UNL d   1       0.337  -0.308  -0.200  0.00  0.00    -0.081 A 
ATOM      2  C3  UNL d   1      -0.386  -0.651   0.949  0.00  0.00     0.006 A 
ATOM      3  C4  UNL d   1      -1.295   0.250   1.509  0.00  0.00     0.002 A 
ATOM      4  C5  UNL d   1      -1.502   1.505   0.925  0.00  0.00    -0.080 A 
ATOM      5  C6  UNL d   1      -2.497   2.470   1.498  0.00  0.00     0.076 C 
ATOM      6  C7  UNL d   1      -0.767   1.854  -0.213  0.00  0.00     0.002 A 
ATOM      7  C8  UNL d   1       0.142   0.954  -0.773  0.00  0.00     0.006 A 
ENDROOT
BRANCH   1   8
ATOM      8  C1  UNL d   1       1.270  -1.302  -0.843  0.00  0.00     0.054 C 
ATOM      9  C   UNL d   1       0.518  -2.247  -1.770  0.00  0.00     0.018 C 
ENDBRANCH   1   8
TORSDOF 1
ENDMDL
