MODEL 1
REMARK minimizedAffinity -1.81771612
REMARK minimizedRMSD -1
REMARK  1 active torsions:
REMARK  status: ('A' for Active; 'I' for Inactive)
REMARK    1  A    between atoms: C1_2  and  C2_3 
ROOT
ATOM      1  C2  UNL d   1      -0.590   0.555   0.742  0.00  0.00    -0.081 A 
ATOM      2  C3  UNL d   1      -1.276   1.586   1.395  0.00  0.00     0.006 A 
ATOM      3  C4  UNL d   1      -1.451   2.825   0.772  0.00  0.00     0.002 A 
ATOM      4  C5  UNL d   1      -0.949   3.049  -0.514  0.00  0.00    -0.080 A 
ATOM      5  C6  UNL d   1      -1.156   4.364  -1.206  0.00  0.00     0.076 C 
ATOM      6  C7  UNL d   1      -0.248   2.025  -1.159  0.00  0.00     0.002 A 
ATOM      7  C8  UNL d   1      -0.073   0.786  -0.537  0.00  0.00     0.006 A 
ENDROOT
BRANCH   1   8
ATOM      8  C1  UNL d   1      -0.456  -0.803   1.385  0.00  0.00     0.054 C 
ATOM      9  C   UNL d   1       0.646  -0.812   2.434  0.00  0.00     0.018 C 
ENDBRANCH   1   8
TORSDOF 1
ENDMDL
