MODEL 1
REMARK minimizedAffinity -0.793552816
REMARK minimizedRMSD -1
REMARK  1 active torsions:
REMARK  status: ('A' for Active; 'I' for Inactive)
REMARK    1  A    between atoms: C1_2  and  C2_3 
ROOT
ATOM      1  C2  UNL d   1      -0.318   1.380  -0.457  0.00  0.00    -0.081 A 
ATOM      2  C3  UNL d   1      -1.105   1.742   0.643  0.00  0.00     0.006 A 
ATOM      3  C4  UNL d   1      -1.213   0.892   1.746  0.00  0.00     0.002 A 
ATOM      4  C5  UNL d   1      -0.530  -0.328   1.772  0.00  0.00    -0.080 A 
ATOM      5  C6  UNL d   1      -0.613  -1.236   2.963  0.00  0.00     0.076 C 
ATOM      6  C7  UNL d   1       0.243  -0.698   0.666  0.00  0.00     0.002 A 
ATOM      7  C8  UNL d   1       0.351   0.151  -0.438  0.00  0.00     0.006 A 
ENDROOT
BRANCH   1   8
ATOM      8  C1  UNL d   1      -0.147   2.323  -1.621  0.00  0.00     0.054 C 
ATOM      9  C   UNL d   1       1.220   2.161  -2.269  0.00  0.00     0.018 C 
ENDBRANCH   1   8
TORSDOF 1
ENDMDL
