MODEL 1
REMARK minimizedAffinity 1.26701689
REMARK minimizedRMSD -1
REMARK  1 active torsions:
REMARK  status: ('A' for Active; 'I' for Inactive)
REMARK    1  A    between atoms: C1_2  and  C2_3 
ROOT
ATOM      1  C2  UNL d   1      -0.528   1.630  -0.654  0.00  0.00    -0.081 A 
ATOM      2  C3  UNL d   1      -1.496   1.929   0.312  0.00  0.00     0.006 A 
ATOM      3  C4  UNL d   1      -1.621   1.139   1.457  0.00  0.00     0.002 A 
ATOM      4  C5  UNL d   1      -0.776   0.043   1.659  0.00  0.00    -0.080 A 
ATOM      5  C6  UNL d   1      -0.879  -0.796   2.898  0.00  0.00     0.076 C 
ATOM      6  C7  UNL d   1       0.180  -0.266   0.685  0.00  0.00     0.002 A 
ATOM      7  C8  UNL d   1       0.305   0.523  -0.461  0.00  0.00     0.006 A 
ENDROOT
BRANCH   1   8
ATOM      8  C1  UNL d   1      -0.348   2.519  -1.859  0.00  0.00     0.054 C 
ATOM      9  C   UNL d   1       1.071   2.433  -2.403  0.00  0.00     0.018 C 
ENDBRANCH   1   8
TORSDOF 1
ENDMDL
