MODEL 1
REMARK minimizedAffinity -2.64275217
REMARK minimizedRMSD -1
REMARK  1 active torsions:
REMARK  status: ('A' for Active; 'I' for Inactive)
REMARK    1  A    between atoms: C1_2  and  C2_3 
ROOT
ATOM      1  C2  UNL d   1      -1.047   1.609  -0.099  0.00  0.00    -0.081 A 
ATOM      2  C3  UNL d   1      -0.171   1.555  -1.190  0.00  0.00     0.006 A 
ATOM      3  C4  UNL d   1       0.772   0.529  -1.289  0.00  0.00     0.002 A 
ATOM      4  C5  UNL d   1       0.850  -0.462  -0.305  0.00  0.00    -0.080 A 
ATOM      5  C6  UNL d   1       1.838  -1.585  -0.416  0.00  0.00     0.076 C 
ATOM      6  C7  UNL d   1      -0.013  -0.397   0.793  0.00  0.00     0.002 A 
ATOM      7  C8  UNL d   1      -0.956   0.628   0.894  0.00  0.00     0.006 A 
ENDROOT
BRANCH   1   8
ATOM      8  C1  UNL d   1      -2.109   2.677  -0.021  0.00  0.00     0.054 C 
ATOM      9  C   UNL d   1      -2.531   2.934   1.418  0.00  0.00     0.018 C 
ENDBRANCH   1   8
TORSDOF 1
ENDMDL
