MODEL 1
REMARK minimizedAffinity -2.37554336
REMARK minimizedRMSD -1
REMARK  1 active torsions:
REMARK  status: ('A' for Active; 'I' for Inactive)
REMARK    1  A    between atoms: C1_2  and  C2_3 
ROOT
ATOM      1  C2  UNL d   1       0.198   1.313  -0.162  0.00  0.00    -0.081 A 
ATOM      2  C3  UNL d   1      -0.525   1.536   1.017  0.00  0.00     0.006 A 
ATOM      3  C4  UNL d   1      -0.561   0.565   2.020  0.00  0.00     0.002 A 
ATOM      4  C5  UNL d   1       0.131  -0.641   1.866  0.00  0.00    -0.080 A 
ATOM      5  C6  UNL d   1       0.125  -1.680   2.948  0.00  0.00     0.076 C 
ATOM      6  C7  UNL d   1       0.839  -0.871   0.681  0.00  0.00     0.002 A 
ATOM      7  C8  UNL d   1       0.875   0.099  -0.323  0.00  0.00     0.006 A 
ENDROOT
BRANCH   1   8
ATOM      8  C1  UNL d   1       0.292   2.385  -1.218  0.00  0.00     0.054 C 
ATOM      9  C   UNL d   1       1.200   1.956  -2.361  0.00  0.00     0.018 C 
ENDBRANCH   1   8
TORSDOF 1
ENDMDL
