MODEL 1
REMARK minimizedAffinity -5.15819311
REMARK minimizedRMSD -1
REMARK  1 active torsions:
REMARK  status: ('A' for Active; 'I' for Inactive)
REMARK    1  A    between atoms: C1_2  and  C2_3 
ROOT
ATOM      1  C2  UNL d   1      -0.866   1.332   0.786  0.00  0.00    -0.081 A 
ATOM      2  C3  UNL d   1      -0.513   1.377  -0.568  0.00  0.00     0.006 A 
ATOM      3  C4  UNL d   1       0.333   0.407  -1.112  0.00  0.00     0.002 A 
ATOM      4  C5  UNL d   1       0.832  -0.627  -0.313  0.00  0.00    -0.080 A 
ATOM      5  C6  UNL d   1       1.716  -1.692  -0.891  0.00  0.00     0.076 C 
ATOM      6  C7  UNL d   1       0.493  -0.663   1.044  0.00  0.00     0.002 A 
ATOM      7  C8  UNL d   1      -0.352   0.307   1.588  0.00  0.00     0.006 A 
ENDROOT
BRANCH   1   8
ATOM      8  C1  UNL d   1      -1.829   2.340   1.361  0.00  0.00     0.054 C 
ATOM      9  C   UNL d   1      -2.515   3.139   0.262  0.00  0.00     0.018 C 
ENDBRANCH   1   8
TORSDOF 1
ENDMDL
