MODEL 1
REMARK minimizedAffinity -2.98862147
REMARK minimizedRMSD -1
REMARK  1 active torsions:
REMARK  status: ('A' for Active; 'I' for Inactive)
REMARK    1  A    between atoms: C1_2  and  C2_3 
ROOT
ATOM      1  C2  UNL d   1      -0.329  -0.588   0.635  0.00  0.00    -0.081 A 
ATOM      2  C3  UNL d   1      -1.202  -1.304  -0.194  0.00  0.00     0.006 A 
ATOM      3  C4  UNL d   1      -0.735  -1.902  -1.367  0.00  0.00     0.002 A 
ATOM      4  C5  UNL d   1       0.614  -1.801  -1.726  0.00  0.00    -0.080 A 
ATOM      5  C6  UNL d   1       1.134  -2.464  -2.967  0.00  0.00     0.076 C 
ATOM      6  C7  UNL d   1       1.482  -1.071  -0.907  0.00  0.00     0.002 A 
ATOM      7  C8  UNL d   1       1.015  -0.473   0.265  0.00  0.00     0.006 A 
ENDROOT
BRANCH   1   8
ATOM      8  C1  UNL d   1      -0.816   0.003   1.933  0.00  0.00     0.054 C 
ATOM      9  C   UNL d   1      -1.150   1.479   1.778  0.00  0.00     0.018 C 
ENDBRANCH   1   8
TORSDOF 1
ENDMDL
