MODEL 1
REMARK minimizedAffinity 3.63931656
REMARK minimizedRMSD -1
REMARK  1 active torsions:
REMARK  status: ('A' for Active; 'I' for Inactive)
REMARK    1  A    between atoms: C1_2  and  C2_3 
ROOT
ATOM      1  C2  UNL d   1      -0.273   2.367   1.469  0.00  0.00    -0.081 A 
ATOM      2  C3  UNL d   1      -0.634   1.476   2.487  0.00  0.00     0.006 A 
ATOM      3  C4  UNL d   1      -0.920   0.141   2.190  0.00  0.00     0.002 A 
ATOM      4  C5  UNL d   1      -0.843  -0.326   0.874  0.00  0.00    -0.080 A 
ATOM      5  C6  UNL d   1      -1.119  -1.764   0.547  0.00  0.00     0.076 C 
ATOM      6  C7  UNL d   1      -0.500   0.568  -0.145  0.00  0.00     0.002 A 
ATOM      7  C8  UNL d   1      -0.214   1.903   0.150  0.00  0.00     0.006 A 
ENDROOT
BRANCH   1   8
ATOM      8  C1  UNL d   1       0.099   3.791   1.793  0.00  0.00     0.054 C 
ATOM      9  C   UNL d   1       0.312   4.610   0.528  0.00  0.00     0.018 C 
ENDBRANCH   1   8
TORSDOF 1
ENDMDL
