MODEL 1
REMARK minimizedAffinity -3.9627912
REMARK minimizedRMSD -1
REMARK  1 active torsions:
REMARK  status: ('A' for Active; 'I' for Inactive)
REMARK    1  A    between atoms: C1_2  and  C2_3 
ROOT
ATOM      1  C2  UNL d   1      -0.690   1.879   0.338  0.00  0.00    -0.081 A 
ATOM      2  C3  UNL d   1      -0.965   0.734   1.096  0.00  0.00     0.006 A 
ATOM      3  C4  UNL d   1      -0.405  -0.498   0.747  0.00  0.00     0.002 A 
ATOM      4  C5  UNL d   1       0.445  -0.603  -0.358  0.00  0.00    -0.080 A 
ATOM      5  C6  UNL d   1       1.077  -1.913  -0.725  0.00  0.00     0.076 C 
ATOM      6  C7  UNL d   1       0.707   0.537  -1.126  0.00  0.00     0.002 A 
ATOM      7  C8  UNL d   1       0.147   1.768  -0.778  0.00  0.00     0.006 A 
ENDROOT
BRANCH   1   8
ATOM      8  C1  UNL d   1      -1.240   3.221   0.749  0.00  0.00     0.054 C 
ATOM      9  C   UNL d   1      -2.564   3.074   1.485  0.00  0.00     0.018 C 
ENDBRANCH   1   8
TORSDOF 1
ENDMDL
