MODEL 1
REMARK minimizedAffinity -3.90070271
REMARK minimizedRMSD -1
REMARK  1 active torsions:
REMARK  status: ('A' for Active; 'I' for Inactive)
REMARK    1  A    between atoms: C1_2  and  C2_3 
ROOT
ATOM      1  C2  UNL d   1       0.293   0.159  -0.626  0.00  0.00    -0.081 A 
ATOM      2  C3  UNL d   1       0.285   1.487  -1.070  0.00  0.00     0.006 A 
ATOM      3  C4  UNL d   1      -0.598   2.415  -0.514  0.00  0.00     0.002 A 
ATOM      4  C5  UNL d   1      -1.482   2.034   0.501  0.00  0.00    -0.080 A 
ATOM      5  C6  UNL d   1      -2.414   3.027   1.128  0.00  0.00     0.076 C 
ATOM      6  C7  UNL d   1      -1.486   0.703   0.934  0.00  0.00     0.002 A 
ATOM      7  C8  UNL d   1      -0.604  -0.225   0.377  0.00  0.00     0.006 A 
ENDROOT
BRANCH   1   8
ATOM      8  C1  UNL d   1       1.288  -0.828  -1.178  0.00  0.00     0.054 C 
ATOM      9  C   UNL d   1       0.589  -2.004  -1.846  0.00  0.00     0.018 C 
ENDBRANCH   1   8
TORSDOF 1
ENDMDL
