MODEL 1
REMARK minimizedAffinity -2.01445675
REMARK minimizedRMSD -1
REMARK  1 active torsions:
REMARK  status: ('A' for Active; 'I' for Inactive)
REMARK    1  A    between atoms: C1_2  and  C2_3 
ROOT
ATOM      1  C2  UNL d   1      -0.192  -0.585  -0.942  0.00  0.00    -0.081 A 
ATOM      2  C3  UNL d   1       0.476  -0.797   0.271  0.00  0.00     0.006 A 
ATOM      3  C4  UNL d   1       0.264   0.057   1.355  0.00  0.00     0.002 A 
ATOM      4  C5  UNL d   1      -0.625   1.132   1.248  0.00  0.00    -0.080 A 
ATOM      5  C6  UNL d   1      -0.885   2.039   2.415  0.00  0.00     0.076 C 
ATOM      6  C7  UNL d   1      -1.279   1.354   0.032  0.00  0.00     0.002 A 
ATOM      7  C8  UNL d   1      -1.067   0.501  -1.053  0.00  0.00     0.006 A 
ENDROOT
BRANCH   1   8
ATOM      8  C1  UNL d   1      -0.015  -1.543  -2.092  0.00  0.00     0.054 C 
ATOM      9  C   UNL d   1       0.154  -2.973  -1.601  0.00  0.00     0.018 C 
ENDBRANCH   1   8
TORSDOF 1
ENDMDL
