MODEL 1
REMARK minimizedAffinity -4.41350555
REMARK minimizedRMSD -1
REMARK  1 active torsions:
REMARK  status: ('A' for Active; 'I' for Inactive)
REMARK    1  A    between atoms: C1_2  and  C2_3 
ROOT
ATOM      1  C2  UNL d   1       0.844  -0.373  -0.126  0.00  0.00    -0.081 A 
ATOM      2  C3  UNL d   1       0.577   0.865  -0.725  0.00  0.00     0.006 A 
ATOM      3  C4  UNL d   1      -0.288   1.775  -0.114  0.00  0.00     0.002 A 
ATOM      4  C5  UNL d   1      -0.894   1.468   1.109  0.00  0.00    -0.080 A 
ATOM      5  C6  UNL d   1      -1.801   2.449   1.791  0.00  0.00     0.076 C 
ATOM      6  C7  UNL d   1      -0.641   0.225   1.699  0.00  0.00     0.002 A 
ATOM      7  C8  UNL d   1       0.223  -0.686   1.088  0.00  0.00     0.006 A 
ENDROOT
BRANCH   1   8
ATOM      8  C1  UNL d   1       1.826  -1.330  -0.750  0.00  0.00     0.054 C 
ATOM      9  C   UNL d   1       1.124  -2.334  -1.653  0.00  0.00     0.018 C 
ENDBRANCH   1   8
TORSDOF 1
ENDMDL
