MODEL 1
REMARK minimizedAffinity -3.18258286
REMARK minimizedRMSD -1
REMARK  1 active torsions:
REMARK  status: ('A' for Active; 'I' for Inactive)
REMARK    1  A    between atoms: C1_2  and  C2_3 
ROOT
ATOM      1  C2  UNL d   1       0.460  -0.163   0.370  0.00  0.00    -0.081 A 
ATOM      2  C3  UNL d   1      -0.154  -0.926   1.370  0.00  0.00     0.006 A 
ATOM      3  C4  UNL d   1      -1.501  -1.283   1.262  0.00  0.00     0.002 A 
ATOM      4  C5  UNL d   1      -2.252  -0.889   0.150  0.00  0.00    -0.080 A 
ATOM      5  C6  UNL d   1      -3.690  -1.290   0.007  0.00  0.00     0.076 C 
ATOM      6  C7  UNL d   1      -1.643  -0.112  -0.841  0.00  0.00     0.002 A 
ATOM      7  C8  UNL d   1      -0.297   0.246  -0.733  0.00  0.00     0.006 A 
ENDROOT
BRANCH   1   8
ATOM      8  C1  UNL d   1       1.929   0.168   0.452  0.00  0.00     0.054 C 
ATOM      9  C   UNL d   1       2.160   1.476   1.195  0.00  0.00     0.018 C 
ENDBRANCH   1   8
TORSDOF 1
ENDMDL
