MODEL 1
REMARK minimizedAffinity -1.33631873
REMARK minimizedRMSD -1
REMARK  1 active torsions:
REMARK  status: ('A' for Active; 'I' for Inactive)
REMARK    1  A    between atoms: C1_2  and  C2_3 
ROOT
ATOM      1  C2  UNL d   1       0.887  -0.065  -1.415  0.00  0.00    -0.081 A 
ATOM      2  C3  UNL d   1       0.708  -0.036  -0.027  0.00  0.00     0.006 A 
ATOM      3  C4  UNL d   1      -0.570  -0.151   0.525  0.00  0.00     0.002 A 
ATOM      4  C5  UNL d   1      -1.689  -0.305  -0.301  0.00  0.00    -0.080 A 
ATOM      5  C6  UNL d   1      -3.063  -0.460   0.280  0.00  0.00     0.076 C 
ATOM      6  C7  UNL d   1      -1.512  -0.317  -1.688  0.00  0.00     0.002 A 
ATOM      7  C8  UNL d   1      -0.235  -0.201  -2.241  0.00  0.00     0.006 A 
ENDROOT
BRANCH   1   8
ATOM      8  C1  UNL d   1       2.270  -0.006  -2.011  0.00  0.00     0.054 C 
ATOM      9  C   UNL d   1       2.318  -0.698  -3.366  0.00  0.00     0.018 C 
ENDBRANCH   1   8
TORSDOF 1
ENDMDL
