MODEL 1
REMARK minimizedAffinity -1.87833798
REMARK minimizedRMSD -1
REMARK  1 active torsions:
REMARK  status: ('A' for Active; 'I' for Inactive)
REMARK    1  A    between atoms: C1_2  and  C2_3 
ROOT
ATOM      1  C2  UNL d   1       0.102  -0.351  -0.778  0.00  0.00    -0.081 A 
ATOM      2  C3  UNL d   1      -0.060  -0.731   0.560  0.00  0.00     0.006 A 
ATOM      3  C4  UNL d   1      -1.307  -1.152   1.030  0.00  0.00     0.002 A 
ATOM      4  C5  UNL d   1      -2.408  -1.208   0.170  0.00  0.00    -0.080 A 
ATOM      5  C6  UNL d   1      -3.744  -1.687   0.654  0.00  0.00     0.076 C 
ATOM      6  C7  UNL d   1      -2.250  -0.812  -1.163  0.00  0.00     0.002 A 
ATOM      7  C8  UNL d   1      -1.005  -0.390  -1.633  0.00  0.00     0.006 A 
ENDROOT
BRANCH   1   8
ATOM      8  C1  UNL d   1       1.459   0.042  -1.304  0.00  0.00     0.054 C 
ATOM      9  C   UNL d   1       1.777  -0.679  -2.606  0.00  0.00     0.018 C 
ENDBRANCH   1   8
TORSDOF 1
ENDMDL
