MODEL 1
REMARK minimizedAffinity -3.47648859
REMARK minimizedRMSD -1
REMARK  1 active torsions:
REMARK  status: ('A' for Active; 'I' for Inactive)
REMARK    1  A    between atoms: C1_2  and  C2_3 
ROOT
ATOM      1  C2  UNL d   1       1.434   2.264   1.088  0.00  0.00    -0.081 A 
ATOM      2  C3  UNL d   1       2.142   1.058   1.153  0.00  0.00     0.006 A 
ATOM      3  C4  UNL d   1       1.472  -0.163   1.042  0.00  0.00     0.002 A 
ATOM      4  C5  UNL d   1       0.086  -0.198   0.855  0.00  0.00    -0.080 A 
ATOM      5  C6  UNL d   1      -0.641  -1.501   0.704  0.00  0.00     0.076 C 
ATOM      6  C7  UNL d   1      -0.624   1.007   0.807  0.00  0.00     0.002 A 
ATOM      7  C8  UNL d   1       0.045   2.228   0.919  0.00  0.00     0.006 A 
ENDROOT
BRANCH   1   8
ATOM      8  C1  UNL d   1       2.161   3.583   1.143  0.00  0.00     0.054 C 
ATOM      9  C   UNL d   1       2.847   3.893  -0.181  0.00  0.00     0.018 C 
ENDBRANCH   1   8
TORSDOF 1
ENDMDL
