MODEL 1
REMARK minimizedAffinity -5.87474537
REMARK minimizedRMSD -1
REMARK  1 active torsions:
REMARK  status: ('A' for Active; 'I' for Inactive)
REMARK    1  A    between atoms: C1_2  and  C2_3 
ROOT
ATOM      1  C2  UNL d   1       1.298  -0.063  -1.473  0.00  0.00    -0.081 A 
ATOM      2  C3  UNL d   1       1.255  -0.267  -0.089  0.00  0.00     0.006 A 
ATOM      3  C4  UNL d   1       0.033  -0.284   0.588  0.00  0.00     0.002 A 
ATOM      4  C5  UNL d   1      -1.166  -0.105  -0.110  0.00  0.00    -0.080 A 
ATOM      5  C6  UNL d   1      -2.487  -0.151   0.600  0.00  0.00     0.076 C 
ATOM      6  C7  UNL d   1      -1.123   0.117  -1.490  0.00  0.00     0.002 A 
ATOM      7  C8  UNL d   1       0.099   0.135  -2.167  0.00  0.00     0.006 A 
ENDROOT
BRANCH   1   8
ATOM      8  C1  UNL d   1       2.609  -0.109  -2.215  0.00  0.00     0.054 C 
ATOM      9  C   UNL d   1       2.516  -0.993  -3.450  0.00  0.00     0.018 C 
ENDBRANCH   1   8
TORSDOF 1
ENDMDL
