MODEL 1
REMARK minimizedAffinity -6.14829683
REMARK minimizedRMSD -1
REMARK  1 active torsions:
REMARK  status: ('A' for Active; 'I' for Inactive)
REMARK    1  A    between atoms: C1_2  and  C2_3 
ROOT
ATOM      1  C2  UNL d   1       0.753   0.016  -1.714  0.00  0.00    -0.081 A 
ATOM      2  C3  UNL d   1       1.898  -0.502  -2.332  0.00  0.00     0.006 A 
ATOM      3  C4  UNL d   1       2.051  -0.422  -3.718  0.00  0.00     0.002 A 
ATOM      4  C5  UNL d   1       1.067   0.183  -4.508  0.00  0.00    -0.080 A 
ATOM      5  C6  UNL d   1       1.233   0.302  -5.993  0.00  0.00     0.076 C 
ATOM      6  C7  UNL d   1      -0.085   0.684  -3.892  0.00  0.00     0.002 A 
ATOM      7  C8  UNL d   1      -0.239   0.604  -2.506  0.00  0.00     0.006 A 
ENDROOT
BRANCH   1   8
ATOM      8  C1  UNL d   1       0.615  -0.011  -0.213  0.00  0.00     0.054 C 
ATOM      9  C   UNL d   1      -0.835  -0.213   0.206  0.00  0.00     0.018 C 
ENDBRANCH   1   8
TORSDOF 1
ENDMDL
