MODEL 1
REMARK minimizedAffinity -4.13345575
REMARK minimizedRMSD -1
REMARK  1 active torsions:
REMARK  status: ('A' for Active; 'I' for Inactive)
REMARK    1  A    between atoms: C1_2  and  C2_3 
ROOT
ATOM      1  C2  UNL d   1       2.970   0.358  -1.275  0.00  0.00    -0.081 A 
ATOM      2  C3  UNL d   1       3.746   1.521  -1.199  0.00  0.00     0.006 A 
ATOM      3  C4  UNL d   1       3.584   2.413  -0.136  0.00  0.00     0.002 A 
ATOM      4  C5  UNL d   1       2.649   2.153   0.871  0.00  0.00    -0.080 A 
ATOM      5  C6  UNL d   1       2.485   3.087   2.034  0.00  0.00     0.076 C 
ATOM      6  C7  UNL d   1       1.861   1.000   0.787  0.00  0.00     0.002 A 
ATOM      7  C8  UNL d   1       2.023   0.108  -0.276  0.00  0.00     0.006 A 
ENDROOT
BRANCH   1   8
ATOM      8  C1  UNL d   1       3.188  -0.638  -2.385  0.00  0.00     0.054 C 
ATOM      9  C   UNL d   1       2.337  -0.305  -3.602  0.00  0.00     0.018 C 
ENDBRANCH   1   8
TORSDOF 1
ENDMDL
