MODEL 1
REMARK minimizedAffinity -4.43795252
REMARK minimizedRMSD -1
REMARK  1 active torsions:
REMARK  status: ('A' for Active; 'I' for Inactive)
REMARK    1  A    between atoms: C1_2  and  C2_3 
ROOT
ATOM      1  C2  UNL d   1       1.101  -0.246  -1.550  0.00  0.00    -0.081 A 
ATOM      2  C3  UNL d   1       1.097  -0.457  -0.166  0.00  0.00     0.006 A 
ATOM      3  C4  UNL d   1      -0.107  -0.503   0.540  0.00  0.00     0.002 A 
ATOM      4  C5  UNL d   1      -1.327  -0.347  -0.126  0.00  0.00    -0.080 A 
ATOM      5  C6  UNL d   1      -2.628  -0.425   0.616  0.00  0.00     0.076 C 
ATOM      6  C7  UNL d   1      -1.323  -0.119  -1.506  0.00  0.00     0.002 A 
ATOM      7  C8  UNL d   1      -0.119  -0.072  -2.213  0.00  0.00     0.006 A 
ENDROOT
BRANCH   1   8
ATOM      8  C1  UNL d   1       2.394  -0.260  -2.325  0.00  0.00     0.054 C 
ATOM      9  C   UNL d   1       2.181  -0.752  -3.749  0.00  0.00     0.018 C 
ENDBRANCH   1   8
TORSDOF 1
ENDMDL
