MODEL 1
REMARK minimizedAffinity -4.29916668
REMARK minimizedRMSD -1
REMARK  1 active torsions:
REMARK  status: ('A' for Active; 'I' for Inactive)
REMARK    1  A    between atoms: C1_2  and  C2_3 
ROOT
ATOM      1  C2  UNL d   1       1.128  -0.334  -1.412  0.00  0.00    -0.081 A 
ATOM      2  C3  UNL d   1       1.183  -0.601  -0.038  0.00  0.00     0.006 A 
ATOM      3  C4  UNL d   1       0.011  -0.650   0.721  0.00  0.00     0.002 A 
ATOM      4  C5  UNL d   1      -1.234  -0.440   0.118  0.00  0.00    -0.080 A 
ATOM      5  C6  UNL d   1      -2.502  -0.519   0.915  0.00  0.00     0.076 C 
ATOM      6  C7  UNL d   1      -1.287  -0.156  -1.251  0.00  0.00     0.002 A 
ATOM      7  C8  UNL d   1      -0.116  -0.106  -2.010  0.00  0.00     0.006 A 
ENDROOT
BRANCH   1   8
ATOM      8  C1  UNL d   1       2.385  -0.344  -2.245  0.00  0.00     0.054 C 
ATOM      9  C   UNL d   1       2.130  -0.938  -3.623  0.00  0.00     0.018 C 
ENDBRANCH   1   8
TORSDOF 1
ENDMDL
