MODEL 1
REMARK minimizedAffinity -2.80170894
REMARK minimizedRMSD -1
REMARK  1 active torsions:
REMARK  status: ('A' for Active; 'I' for Inactive)
REMARK    1  A    between atoms: C1_2  and  C2_3 
ROOT
ATOM      1  C2  UNL d   1       0.963  -0.398  -1.667  0.00  0.00    -0.081 A 
ATOM      2  C3  UNL d   1       0.918  -0.826  -0.335  0.00  0.00     0.006 A 
ATOM      3  C4  UNL d   1      -0.269  -0.741   0.397  0.00  0.00     0.002 A 
ATOM      4  C5  UNL d   1      -1.432  -0.234  -0.193  0.00  0.00    -0.080 A 
ATOM      5  C6  UNL d   1      -2.720  -0.166   0.572  0.00  0.00     0.076 C 
ATOM      6  C7  UNL d   1      -1.383   0.210  -1.518  0.00  0.00     0.002 A 
ATOM      7  C8  UNL d   1      -0.196   0.126  -2.250  0.00  0.00     0.006 A 
ENDROOT
BRANCH   1   8
ATOM      8  C1  UNL d   1       2.224  -0.548  -2.478  0.00  0.00     0.054 C 
ATOM      9  C   UNL d   1       1.911  -0.766  -3.952  0.00  0.00     0.018 C 
ENDBRANCH   1   8
TORSDOF 1
ENDMDL
