MODEL 1
REMARK minimizedAffinity 8.63257217
REMARK minimizedRMSD -1
REMARK  2 active torsions:
REMARK  status: ('A' for Active; 'I' for Inactive)
REMARK    1  A    between atoms: C1_2  and  C2_3 
REMARK    2  A    between atoms: C2_3  and  C3_4 
ROOT
ATOM      1  C3  UNL d   1       2.996  -4.033   2.126  0.00  0.00    -0.075 A 
ATOM      2  C4  UNL d   1       1.800  -4.030   1.394  0.00  0.00     0.002 A 
ATOM      3  C5  UNL d   1       1.556  -5.009   0.430  0.00  0.00     0.002 A 
ATOM      4  C6  UNL d   1       2.507  -5.995   0.180  0.00  0.00    -0.004 A 
ATOM      5  C7  UNL d   1       3.706  -5.999   0.890  0.00  0.00     0.002 A 
ATOM      6  C8  UNL d   1       3.950  -5.023   1.858  0.00  0.00     0.002 A 
ENDROOT
BRANCH   1   7
ATOM      7  C2  UNL d   1       3.252  -2.994   3.191  0.00  0.00     0.056 C 
BRANCH   7   8
ATOM      8  C1  UNL d   1       2.024  -2.149   3.547  0.00  0.00     0.007 C 
ATOM      9  C   UNL d   1       1.872  -0.912   2.672  0.00  0.00     0.009 C 
ENDBRANCH   7   8
ENDBRANCH   1   7
TORSDOF 2
ENDMDL
