MODEL 1
REMARK minimizedAffinity 4.182971
REMARK minimizedRMSD -1
REMARK  2 active torsions:
REMARK  status: ('A' for Active; 'I' for Inactive)
REMARK    1  A    between atoms: C1_2  and  C2_3 
REMARK    2  A    between atoms: C2_3  and  C3_4 
ROOT
ATOM      1  C3  UNL d   1       2.393  -1.066   2.969  0.00  0.00    -0.075 A 
ATOM      2  C4  UNL d   1       3.297  -0.084   2.539  0.00  0.00     0.002 A 
ATOM      3  C5  UNL d   1       3.001   0.717   1.436  0.00  0.00     0.002 A 
ATOM      4  C6  UNL d   1       1.805   0.541   0.744  0.00  0.00    -0.004 A 
ATOM      5  C7  UNL d   1       0.907  -0.443   1.152  0.00  0.00     0.002 A 
ATOM      6  C8  UNL d   1       1.198  -1.243   2.258  0.00  0.00     0.002 A 
ENDROOT
BRANCH   1   7
ATOM      7  C2  UNL d   1       2.694  -1.917   4.179  0.00  0.00     0.056 C 
BRANCH   7   8
ATOM      8  C1  UNL d   1       1.688  -1.751   5.324  0.00  0.00     0.007 C 
ATOM      9  C   UNL d   1       1.315  -3.069   5.991  0.00  0.00     0.009 C 
ENDBRANCH   7   8
ENDBRANCH   1   7
TORSDOF 2
ENDMDL
