MODEL 1
REMARK minimizedAffinity 9.38191986
REMARK minimizedRMSD -1
REMARK  1 active torsions:
REMARK  status: ('A' for Active; 'I' for Inactive)
REMARK    1  A    between atoms: C1_2  and  C2_3 
ROOT
ATOM      1  C2  UNL d   1       3.434   3.878   3.786  0.00  0.00    -0.076 A 
ATOM      2  C3  UNL d   1       2.989   4.110   5.099  0.00  0.00     0.004 A 
ATOM      3  C4  UNL d   1       3.760   4.843   5.999  0.00  0.00    -0.003 A 
ATOM      4  C5  UNL d   1       4.989   5.357   5.601  0.00  0.00     0.000 A 
ATOM      5  C6  UNL d   1       5.438   5.152   4.297  0.00  0.00     0.000 A 
ATOM      6  C7  UNL d   1       4.666   4.429   3.372  0.00  0.00    -0.073 A 
ATOM      7  C8  UNL d   1       5.202   4.233   1.980  0.00  0.00     0.078 C 
ENDROOT
BRANCH   1   8
ATOM      8  C1  UNL d   1       2.567   3.053   2.862  0.00  0.00     0.053 C 
ATOM      9  C   UNL d   1       1.408   2.389   3.589  0.00  0.00     0.018 C 
ENDBRANCH   1   8
TORSDOF 1
ENDMDL
