MODEL 1
REMARK minimizedAffinity 8.50086308
REMARK minimizedRMSD -1
REMARK  1 active torsions:
REMARK  status: ('A' for Active; 'I' for Inactive)
REMARK    1  A    between atoms: C1_2  and  C2_3 
ROOT
ATOM      1  C2  UNL d   1      -2.960   0.690  -2.894  0.00  0.00    -0.076 A 
ATOM      2  C3  UNL d   1      -3.045   1.017  -4.259  0.00  0.00     0.004 A 
ATOM      3  C4  UNL d   1      -4.281   1.191  -4.879  0.00  0.00    -0.003 A 
ATOM      4  C5  UNL d   1      -5.452   1.042  -4.144  0.00  0.00     0.000 A 
ATOM      5  C6  UNL d   1      -5.386   0.735  -2.786  0.00  0.00     0.000 A 
ATOM      6  C7  UNL d   1      -4.148   0.572  -2.141  0.00  0.00    -0.073 A 
ATOM      7  C8  UNL d   1      -4.135   0.235  -0.675  0.00  0.00     0.078 C 
ENDROOT
BRANCH   1   8
ATOM      8  C1  UNL d   1      -1.592   0.487  -2.282  0.00  0.00     0.053 C 
ATOM      9  C   UNL d   1      -1.040   1.757  -1.653  0.00  0.00     0.018 C 
ENDBRANCH   1   8
TORSDOF 1
ENDMDL
