MODEL 1
REMARK minimizedAffinity 12.0650702
REMARK minimizedRMSD -1
REMARK  1 active torsions:
REMARK  status: ('A' for Active; 'I' for Inactive)
REMARK    1  A    between atoms: C1_2  and  C2_3 
ROOT
ATOM      1  C2  UNL d   1       3.826   0.143  -1.881  0.00  0.00    -0.076 A 
ATOM      2  C3  UNL d   1       4.232   1.133  -0.969  0.00  0.00     0.004 A 
ATOM      3  C4  UNL d   1       5.309   1.971  -1.252  0.00  0.00    -0.003 A 
ATOM      4  C5  UNL d   1       5.999   1.832  -2.452  0.00  0.00     0.000 A 
ATOM      5  C6  UNL d   1       5.600   0.867  -3.375  0.00  0.00     0.000 A 
ATOM      6  C7  UNL d   1       4.505   0.025  -3.113  0.00  0.00    -0.073 A 
ATOM      7  C8  UNL d   1       4.121  -1.003  -4.142  0.00  0.00     0.078 C 
ENDROOT
BRANCH   1   8
ATOM      8  C1  UNL d   1       2.667  -0.754  -1.508  0.00  0.00     0.053 C 
ATOM      9  C   UNL d   1       1.423   0.032  -1.124  0.00  0.00     0.018 C 
ENDBRANCH   1   8
TORSDOF 1
ENDMDL
