MODEL 1
REMARK minimizedAffinity 11.0957794
REMARK minimizedRMSD -1
REMARK  1 active torsions:
REMARK  status: ('A' for Active; 'I' for Inactive)
REMARK    1  A    between atoms: C1_2  and  C2_3 
ROOT
ATOM      1  C2  UNL d   1       4.651   0.681  -1.996  0.00  0.00    -0.076 A 
ATOM      2  C3  UNL d   1       4.348   0.996  -0.660  0.00  0.00     0.004 A 
ATOM      3  C4  UNL d   1       3.330   0.330   0.021  0.00  0.00    -0.003 A 
ATOM      4  C5  UNL d   1       2.599  -0.662  -0.623  0.00  0.00     0.000 A 
ATOM      5  C6  UNL d   1       2.898  -0.999  -1.942  0.00  0.00     0.000 A 
ATOM      6  C7  UNL d   1       3.931  -0.349  -2.638  0.00  0.00    -0.073 A 
ATOM      7  C8  UNL d   1       4.206  -0.749  -4.062  0.00  0.00     0.078 C 
ENDROOT
BRANCH   1   8
ATOM      8  C1  UNL d   1       5.748   1.455  -2.692  0.00  0.00     0.053 C 
ATOM      9  C   UNL d   1       5.671   2.949  -2.416  0.00  0.00     0.018 C 
ENDBRANCH   1   8
TORSDOF 1
ENDMDL
