MODEL 1
REMARK minimizedAffinity 14.5124493
REMARK minimizedRMSD -1
REMARK  1 active torsions:
REMARK  status: ('A' for Active; 'I' for Inactive)
REMARK    1  A    between atoms: C1_2  and  C2_3 
ROOT
ATOM      1  C2  UNL d   1      -5.215   0.408  -4.119  0.00  0.00    -0.076 A 
ATOM      2  C3  UNL d   1      -4.452   0.392  -5.300  0.00  0.00     0.004 A 
ATOM      3  C4  UNL d   1      -3.732   1.515  -5.704  0.00  0.00    -0.003 A 
ATOM      4  C5  UNL d   1      -3.762   2.672  -4.934  0.00  0.00     0.000 A 
ATOM      5  C6  UNL d   1      -4.499   2.700  -3.750  0.00  0.00     0.000 A 
ATOM      6  C7  UNL d   1      -5.217   1.572  -3.320  0.00  0.00    -0.073 A 
ATOM      7  C8  UNL d   1      -5.999   1.660  -2.038  0.00  0.00     0.078 C 
ENDROOT
BRANCH   1   8
ATOM      8  C1  UNL d   1      -5.997  -0.830  -3.744  0.00  0.00     0.053 C 
ATOM      9  C   UNL d   1      -6.000  -1.874  -4.851  0.00  0.00     0.018 C 
ENDBRANCH   1   8
TORSDOF 1
ENDMDL
