MODEL 1
REMARK minimizedAffinity 3.83194494
REMARK minimizedRMSD -1
REMARK  1 active torsions:
REMARK  status: ('A' for Active; 'I' for Inactive)
REMARK    1  A    between atoms: C1_2  and  C2_3 
ROOT
ATOM      1  C2  UNL d   1       0.169   0.020  -0.424  0.00  0.00    -0.076 A 
ATOM      2  C3  UNL d   1       0.908   1.180  -0.714  0.00  0.00     0.004 A 
ATOM      3  C4  UNL d   1       0.915   2.264   0.162  0.00  0.00    -0.003 A 
ATOM      4  C5  UNL d   1       0.183   2.205   1.343  0.00  0.00     0.000 A 
ATOM      5  C6  UNL d   1      -0.542   1.055   1.655  0.00  0.00     0.000 A 
ATOM      6  C7  UNL d   1      -0.546  -0.053   0.791  0.00  0.00    -0.073 A 
ATOM      7  C8  UNL d   1      -1.350  -1.265   1.174  0.00  0.00     0.078 C 
ENDROOT
BRANCH   1   8
ATOM      8  C1  UNL d   1       0.178  -1.114  -1.425  0.00  0.00     0.053 C 
ATOM      9  C   UNL d   1       1.274  -2.131  -1.143  0.00  0.00     0.018 C 
ENDBRANCH   1   8
TORSDOF 1
ENDMDL
