MODEL 1
REMARK minimizedAffinity 14.934412
REMARK minimizedRMSD -1
REMARK  0 active torsions:
REMARK  status: ('A' for Active; 'I' for Inactive)
ROOT
ATOM      1  C2' OXE d   1      -1.458  -4.576  -0.893  0.00  0.00     0.078 C 
ATOM      2  C1' OXE d   1      -3.182  -2.670   0.235  0.00  0.00     0.078 C 
ATOM      3  C1  OXE d   1      -2.430  -2.286  -1.015  0.00  0.00    -0.078 A 
ATOM      4  C2  OXE d   1      -1.554  -3.208  -1.533  0.00  0.00    -0.078 A 
ATOM      5  C3  OXE d   1      -0.876  -2.926  -2.716  0.00  0.00     0.003 A 
ATOM      6  C4  OXE d   1      -0.962  -1.655  -3.296  0.00  0.00    -0.002 A 
ATOM      7  C5  OXE d   1      -1.819  -0.687  -2.762  0.00  0.00    -0.002 A 
ATOM      8  C6  OXE d   1      -2.591  -1.000  -1.648  0.00  0.00     0.003 A 
ENDROOT
TORSDOF 0
ENDMDL
