MODEL 1
REMARK minimizedAffinity 22.0323105
REMARK minimizedRMSD -1
REMARK  0 active torsions:
REMARK  status: ('A' for Active; 'I' for Inactive)
ROOT
ATOM      1  C2' OXE d   1       5.453   2.590   2.842  0.00  0.00     0.078 C 
ATOM      2  C1' OXE d   1       3.783   2.096   5.044  0.00  0.00     0.078 C 
ATOM      3  C1  OXE d   1       4.495   3.424   4.985  0.00  0.00    -0.078 A 
ATOM      4  C2  OXE d   1       5.347   3.639   3.928  0.00  0.00    -0.078 A 
ATOM      5  C3  OXE d   1       5.986   4.868   3.796  0.00  0.00     0.003 A 
ATOM      6  C4  OXE d   1       5.890   5.829   4.810  0.00  0.00    -0.002 A 
ATOM      7  C5  OXE d   1       5.059   5.615   5.915  0.00  0.00    -0.002 A 
ATOM      8  C6  OXE d   1       4.323   4.438   5.996  0.00  0.00     0.003 A 
ENDROOT
TORSDOF 0
ENDMDL
