MODEL 1
REMARK minimizedAffinity 11.9046726
REMARK minimizedRMSD -1
REMARK  0 active torsions:
REMARK  status: ('A' for Active; 'I' for Inactive)
ROOT
ATOM      1  C2' OXE d   1       5.999   1.244  -4.117  0.00  0.00     0.078 C 
ATOM      2  C1' OXE d   1       5.728  -1.550  -4.141  0.00  0.00     0.078 C 
ATOM      3  C1  OXE d   1       4.608  -0.739  -3.538  0.00  0.00    -0.078 A 
ATOM      4  C2  OXE d   1       4.770   0.624  -3.488  0.00  0.00    -0.078 A 
ATOM      5  C3  OXE d   1       3.744   1.423  -2.991  0.00  0.00     0.003 A 
ATOM      6  C4  OXE d   1       2.615   0.841  -2.402  0.00  0.00    -0.002 A 
ATOM      7  C5  OXE d   1       2.448  -0.548  -2.406  0.00  0.00    -0.002 A 
ATOM      8  C6  OXE d   1       3.413  -1.348  -3.007  0.00  0.00     0.003 A 
ENDROOT
TORSDOF 0
ENDMDL
