MODEL 1
REMARK minimizedAffinity 12.7013378
REMARK minimizedRMSD -1
REMARK  0 active torsions:
REMARK  status: ('A' for Active; 'I' for Inactive)
ROOT
ATOM      1  C2' OXE d   1       3.170   2.200   5.636  0.00  0.00     0.078 C 
ATOM      2  C1' OXE d   1       5.971   2.258   5.448  0.00  0.00     0.078 C 
ATOM      3  C1  OXE d   1       5.252   3.567   5.657  0.00  0.00    -0.078 A 
ATOM      4  C2  OXE d   1       3.879   3.535   5.701  0.00  0.00    -0.078 A 
ATOM      5  C3  OXE d   1       3.170   4.708   5.947  0.00  0.00     0.003 A 
ATOM      6  C4  OXE d   1       3.833   5.940   5.996  0.00  0.00    -0.002 A 
ATOM      7  C5  OXE d   1       5.228   6.000   5.913  0.00  0.00    -0.002 A 
ATOM      8  C6  OXE d   1       5.954   4.821   5.787  0.00  0.00     0.003 A 
ENDROOT
TORSDOF 0
ENDMDL
