MODEL 1
REMARK minimizedAffinity 9.72793198
REMARK minimizedRMSD -1
REMARK  0 active torsions:
REMARK  status: ('A' for Active; 'I' for Inactive)
ROOT
ATOM      1  C2' OXE d   1      -3.182  -0.402  -0.001  0.00  0.00     0.078 C 
ATOM      2  C1' OXE d   1      -2.127  -2.301  -1.779  0.00  0.00     0.078 C 
ATOM      3  C1  OXE d   1      -1.743  -2.410  -0.325  0.00  0.00    -0.078 A 
ATOM      4  C2  OXE d   1      -2.227  -1.449   0.530  0.00  0.00    -0.078 A 
ATOM      5  C3  OXE d   1      -1.948  -1.534   1.891  0.00  0.00     0.003 A 
ATOM      6  C4  OXE d   1      -1.055  -2.499   2.373  0.00  0.00    -0.002 A 
ATOM      7  C5  OXE d   1      -0.520  -3.463   1.513  0.00  0.00    -0.002 A 
ATOM      8  C6  OXE d   1      -0.886  -3.458   0.171  0.00  0.00     0.003 A 
ENDROOT
TORSDOF 0
ENDMDL
