MODEL 1
REMARK minimizedAffinity 11.928915
REMARK minimizedRMSD -1
REMARK  0 active torsions:
REMARK  status: ('A' for Active; 'I' for Inactive)
ROOT
ATOM      1  C2' OXE d   1       2.070   5.855   5.917  0.00  0.00     0.078 C 
ATOM      2  C1' OXE d   1       2.245   3.091   5.460  0.00  0.00     0.078 C 
ATOM      3  C1  OXE d   1       3.533   3.868   5.574  0.00  0.00    -0.078 A 
ATOM      4  C2  OXE d   1       3.437   5.228   5.751  0.00  0.00    -0.078 A 
ATOM      5  C3  OXE d   1       4.594   5.984   5.918  0.00  0.00     0.003 A 
ATOM      6  C4  OXE d   1       5.854   5.398   5.753  0.00  0.00    -0.002 A 
ATOM      7  C5  OXE d   1       5.973   4.021   5.533  0.00  0.00    -0.002 A 
ATOM      8  C6  OXE d   1       4.826   3.237   5.483  0.00  0.00     0.003 A 
ENDROOT
TORSDOF 0
ENDMDL
