MODEL 1
REMARK minimizedAffinity 9.52069855
REMARK minimizedRMSD -1
REMARK  0 active torsions:
REMARK  status: ('A' for Active; 'I' for Inactive)
ROOT
ATOM      1  C2' OXE d   1       2.824   5.941   5.948  0.00  0.00     0.078 C 
ATOM      2  C1' OXE d   1       5.631   5.932   5.961  0.00  0.00     0.078 C 
ATOM      3  C1  OXE d   1       4.924   4.600   5.958  0.00  0.00    -0.078 A 
ATOM      4  C2  OXE d   1       3.550   4.614   5.999  0.00  0.00    -0.078 A 
ATOM      5  C3  OXE d   1       2.847   3.414   5.942  0.00  0.00     0.003 A 
ATOM      6  C4  OXE d   1       3.526   2.191   6.000  0.00  0.00    -0.002 A 
ATOM      7  C5  OXE d   1       4.925   2.155   5.999  0.00  0.00    -0.002 A 
ATOM      8  C6  OXE d   1       5.637   3.347   5.935  0.00  0.00     0.003 A 
ENDROOT
TORSDOF 0
ENDMDL
