MODEL 1
REMARK minimizedAffinity 9.46527386
REMARK minimizedRMSD -1
REMARK  0 active torsions:
REMARK  status: ('A' for Active; 'I' for Inactive)
ROOT
ATOM      1  C2' OXE d   1       3.673   1.961   5.199  0.00  0.00     0.078 C 
ATOM      2  C1' OXE d   1       5.888   2.561   3.582  0.00  0.00     0.078 C 
ATOM      3  C1  OXE d   1       5.304   3.674   4.417  0.00  0.00    -0.078 A 
ATOM      4  C2  OXE d   1       4.191   3.382   5.169  0.00  0.00    -0.078 A 
ATOM      5  C3  OXE d   1       3.646   4.357   5.999  0.00  0.00     0.003 A 
ATOM      6  C4  OXE d   1       4.126   5.672   5.958  0.00  0.00    -0.002 A 
ATOM      7  C5  OXE d   1       5.233   6.000   5.169  0.00  0.00    -0.002 A 
ATOM      8  C6  OXE d   1       5.859   5.005   4.426  0.00  0.00     0.003 A 
ENDROOT
TORSDOF 0
ENDMDL
