MODEL 1
REMARK minimizedAffinity 8.76308441
REMARK minimizedRMSD -1
REMARK  0 active torsions:
REMARK  status: ('A' for Active; 'I' for Inactive)
ROOT
ATOM      1  C2' OXE d   1      -1.522  -2.559   5.210  0.00  0.00     0.078 C 
ATOM      2  C1' OXE d   1      -1.721  -5.245   5.999  0.00  0.00     0.078 C 
ATOM      3  C1  OXE d   1      -1.127  -4.953   4.644  0.00  0.00    -0.078 A 
ATOM      4  C2  OXE d   1      -1.076  -3.638   4.247  0.00  0.00    -0.078 A 
ATOM      5  C3  OXE d   1      -0.488  -3.309   3.029  0.00  0.00     0.003 A 
ATOM      6  C4  OXE d   1      -0.088  -4.314   2.140  0.00  0.00    -0.002 A 
ATOM      7  C5  OXE d   1      -0.168  -5.661   2.509  0.00  0.00    -0.002 A 
ATOM      8  C6  OXE d   1      -0.644  -5.994   3.772  0.00  0.00     0.003 A 
ENDROOT
TORSDOF 0
ENDMDL
