MODEL 1
REMARK minimizedAffinity 10.7419004
REMARK minimizedRMSD -1
REMARK  0 active torsions:
REMARK  status: ('A' for Active; 'I' for Inactive)
ROOT
ATOM      1  C2' OXE d   1       1.813   5.373   5.894  0.00  0.00     0.078 C 
ATOM      2  C1' OXE d   1       2.512   2.654   5.914  0.00  0.00     0.078 C 
ATOM      3  C1  OXE d   1       3.629   3.668   5.898  0.00  0.00    -0.078 A 
ATOM      4  C2  OXE d   1       3.277   4.995   5.841  0.00  0.00    -0.078 A 
ATOM      5  C3  OXE d   1       4.268   5.973   5.880  0.00  0.00     0.003 A 
ATOM      6  C4  OXE d   1       5.620   5.614   5.821  0.00  0.00    -0.002 A 
ATOM      7  C5  OXE d   1       5.999   4.268   5.838  0.00  0.00    -0.002 A 
ATOM      8  C6  OXE d   1       5.019   3.285   5.920  0.00  0.00     0.003 A 
ENDROOT
TORSDOF 0
ENDMDL
