MODEL 1
REMARK minimizedAffinity 15.6235151
REMARK minimizedRMSD -1
REMARK  0 active torsions:
REMARK  status: ('A' for Active; 'I' for Inactive)
ROOT
ATOM      1  C2' OXE d   1       3.007   2.310   5.512  0.00  0.00     0.078 C 
ATOM      2  C1' OXE d   1       1.717   4.775   5.885  0.00  0.00     0.078 C 
ATOM      3  C1  OXE d   1       3.221   4.778   5.775  0.00  0.00    -0.078 A 
ATOM      4  C2  OXE d   1       3.848   3.563   5.639  0.00  0.00    -0.078 A 
ATOM      5  C3  OXE d   1       5.229   3.513   5.478  0.00  0.00     0.003 A 
ATOM      6  C4  OXE d   1       6.000   4.675   5.607  0.00  0.00    -0.002 A 
ATOM      7  C5  OXE d   1       5.385   5.919   5.785  0.00  0.00    -0.002 A 
ATOM      8  C6  OXE d   1       3.997   5.993   5.828  0.00  0.00     0.003 A 
ENDROOT
TORSDOF 0
ENDMDL
