MODEL 1
REMARK minimizedAffinity 16.6282921
REMARK minimizedRMSD -1
REMARK  0 active torsions:
REMARK  status: ('A' for Active; 'I' for Inactive)
ROOT
ATOM      1  C2' OXE d   1       6.000   2.189   4.467  0.00  0.00     0.078 C 
ATOM      2  C1' OXE d   1       3.594   1.931   5.891  0.00  0.00     0.078 C 
ATOM      3  C1  OXE d   1       4.084   3.324   5.584  0.00  0.00    -0.078 A 
ATOM      4  C2  OXE d   1       5.286   3.442   4.928  0.00  0.00    -0.078 A 
ATOM      5  C3  OXE d   1       5.756   4.702   4.571  0.00  0.00     0.003 A 
ATOM      6  C4  OXE d   1       5.095   5.856   5.010  0.00  0.00    -0.002 A 
ATOM      7  C5  OXE d   1       3.890   5.759   5.714  0.00  0.00    -0.002 A 
ATOM      8  C6  OXE d   1       3.350   4.504   5.971  0.00  0.00     0.003 A 
ENDROOT
TORSDOF 0
ENDMDL
