MODEL 1
REMARK minimizedAffinity 21.4568329
REMARK minimizedRMSD -1
REMARK  0 active torsions:
REMARK  status: ('A' for Active; 'I' for Inactive)
ROOT
ATOM      1  C2' OXE d   1      -1.477   0.725   4.838  0.00  0.00     0.078 C 
ATOM      2  C1' OXE d   1      -1.542   1.952   2.314  0.00  0.00     0.078 C 
ATOM      3  C1  OXE d   1      -1.223   0.479   2.372  0.00  0.00    -0.078 A 
ATOM      4  C2  OXE d   1      -1.148  -0.103   3.614  0.00  0.00    -0.078 A 
ATOM      5  C3  OXE d   1      -0.911  -1.471   3.722  0.00  0.00     0.003 A 
ATOM      6  C4  OXE d   1      -0.598  -2.227   2.586  0.00  0.00    -0.002 A 
ATOM      7  C5  OXE d   1      -0.630  -1.646   1.315  0.00  0.00    -0.002 A 
ATOM      8  C6  OXE d   1      -0.982  -0.306   1.187  0.00  0.00     0.003 A 
ENDROOT
TORSDOF 0
ENDMDL
