MODEL 1
REMARK minimizedAffinity 14.7174692
REMARK minimizedRMSD -1
REMARK  0 active torsions:
REMARK  status: ('A' for Active; 'I' for Inactive)
ROOT
ATOM      1  C2' OXE d   1      -2.279  -0.610  -2.557  0.00  0.00     0.078 C 
ATOM      2  C1' OXE d   1       0.392  -0.250  -3.343  0.00  0.00     0.078 C 
ATOM      3  C1  OXE d   1      -0.599   0.827  -3.707  0.00  0.00    -0.078 A 
ATOM      4  C2  OXE d   1      -1.913   0.621  -3.359  0.00  0.00    -0.078 A 
ATOM      5  C3  OXE d   1      -2.859   1.608  -3.622  0.00  0.00     0.003 A 
ATOM      6  C4  OXE d   1      -2.513   2.738  -4.372  0.00  0.00    -0.002 A 
ATOM      7  C5  OXE d   1      -1.189   2.949  -4.771  0.00  0.00    -0.002 A 
ATOM      8  C6  OXE d   1      -0.214   2.025  -4.410  0.00  0.00     0.003 A 
ENDROOT
TORSDOF 0
ENDMDL
