MODEL 1
REMARK minimizedAffinity 12.5488691
REMARK minimizedRMSD -1
REMARK  0 active torsions:
REMARK  status: ('A' for Active; 'I' for Inactive)
ROOT
ATOM      1  C2' OXE d   1      -2.188  -0.077  -3.016  0.00  0.00     0.078 C 
ATOM      2  C1' OXE d   1       0.584   0.156  -3.392  0.00  0.00     0.078 C 
ATOM      3  C1  OXE d   1      -0.311   1.098  -4.157  0.00  0.00    -0.078 A 
ATOM      4  C2  OXE d   1      -1.668   0.946  -4.003  0.00  0.00    -0.078 A 
ATOM      5  C3  OXE d   1      -2.537   1.825  -4.643  0.00  0.00     0.003 A 
ATOM      6  C4  OXE d   1      -2.049   2.762  -5.561  0.00  0.00    -0.002 A 
ATOM      7  C5  OXE d   1      -0.672   2.907  -5.763  0.00  0.00    -0.002 A 
ATOM      8  C6  OXE d   1       0.210   2.113  -5.039  0.00  0.00     0.003 A 
ENDROOT
TORSDOF 0
ENDMDL
