MODEL 1
REMARK minimizedAffinity 16.442709
REMARK minimizedRMSD -1
REMARK  0 active torsions:
REMARK  status: ('A' for Active; 'I' for Inactive)
ROOT
ATOM      1  C2' OXE d   1      -0.750  -6.000   3.273  0.00  0.00     0.078 C 
ATOM      2  C1' OXE d   1      -0.437  -3.425   2.199  0.00  0.00     0.078 C 
ATOM      3  C1  OXE d   1      -1.113  -3.550   3.541  0.00  0.00    -0.078 A 
ATOM      4  C2  OXE d   1      -1.304  -4.817   4.037  0.00  0.00    -0.078 A 
ATOM      5  C3  OXE d   1      -1.874  -4.986   5.296  0.00  0.00     0.003 A 
ATOM      6  C4  OXE d   1      -2.393  -3.888   5.992  0.00  0.00    -0.002 A 
ATOM      7  C5  OXE d   1      -2.245  -2.592   5.486  0.00  0.00    -0.002 A 
ATOM      8  C6  OXE d   1      -1.571  -2.402   4.284  0.00  0.00     0.003 A 
ENDROOT
TORSDOF 0
ENDMDL
