MODEL 1
REMARK minimizedAffinity 8.90013504
REMARK minimizedRMSD -1
REMARK  0 active torsions:
REMARK  status: ('A' for Active; 'I' for Inactive)
ROOT
ATOM      1  C2' OXE d   1       3.166   5.846   5.961  0.00  0.00     0.078 C 
ATOM      2  C1' OXE d   1       5.964   5.873   5.739  0.00  0.00     0.078 C 
ATOM      3  C1  OXE d   1       5.275   4.533   5.781  0.00  0.00    -0.078 A 
ATOM      4  C2  OXE d   1       3.910   4.528   5.937  0.00  0.00    -0.078 A 
ATOM      5  C3  OXE d   1       3.219   3.320   5.928  0.00  0.00     0.003 A 
ATOM      6  C4  OXE d   1       3.915   2.105   5.916  0.00  0.00    -0.002 A 
ATOM      7  C5  OXE d   1       5.309   2.087   5.797  0.00  0.00    -0.002 A 
ATOM      8  C6  OXE d   1       5.999   3.289   5.686  0.00  0.00     0.003 A 
ENDROOT
TORSDOF 0
ENDMDL
