MODEL 1
REMARK minimizedAffinity 20.8025017
REMARK minimizedRMSD -1
REMARK  0 active torsions:
REMARK  status: ('A' for Active; 'I' for Inactive)
ROOT
ATOM      1  C2' OXE d   1       5.875   2.339   3.733  0.00  0.00     0.078 C 
ATOM      2  C1' OXE d   1       3.619   2.110   5.388  0.00  0.00     0.078 C 
ATOM      3  C1  OXE d   1       4.260   3.469   5.256  0.00  0.00    -0.078 A 
ATOM      4  C2  OXE d   1       5.391   3.562   4.481  0.00  0.00    -0.078 A 
ATOM      5  C3  OXE d   1       5.990   4.803   4.282  0.00  0.00     0.003 A 
ATOM      6  C4  OXE d   1       5.542   5.928   4.985  0.00  0.00    -0.002 A 
ATOM      7  C5  OXE d   1       4.416   5.846   5.811  0.00  0.00    -0.002 A 
ATOM      8  C6  OXE d   1       3.739   4.637   5.924  0.00  0.00     0.003 A 
ENDROOT
TORSDOF 0
ENDMDL
