MODEL 1
REMARK minimizedAffinity 11.6582546
REMARK minimizedRMSD -1
REMARK  0 active torsions:
REMARK  status: ('A' for Active; 'I' for Inactive)
ROOT
ATOM      1  C2' OXE d   1       5.769   2.299   3.989  0.00  0.00     0.078 C 
ATOM      2  C1' OXE d   1       3.474   2.278   5.605  0.00  0.00     0.078 C 
ATOM      3  C1  OXE d   1       4.186   3.594   5.410  0.00  0.00    -0.078 A 
ATOM      4  C2  OXE d   1       5.335   3.586   4.656  0.00  0.00    -0.078 A 
ATOM      5  C3  OXE d   1       5.999   4.782   4.400  0.00  0.00     0.003 A 
ATOM      6  C4  OXE d   1       5.596   5.966   5.029  0.00  0.00    -0.002 A 
ATOM      7  C5  OXE d   1       4.452   5.988   5.834  0.00  0.00    -0.002 A 
ATOM      8  C6  OXE d   1       3.713   4.822   6.000  0.00  0.00     0.003 A 
ENDROOT
TORSDOF 0
ENDMDL
