MODEL 1
REMARK minimizedAffinity 4.65357399
REMARK minimizedRMSD -1
REMARK  1 active torsions:
REMARK  status: ('A' for Active; 'I' for Inactive)
REMARK    1  A    between atoms: C1_2  and  C2_3 
ROOT
ATOM      1  C2  UNL d   1      -4.370  -0.853  -0.400  0.00  0.00    -0.076 A 
ATOM      2  C3  UNL d   1      -4.579   0.334   0.324  0.00  0.00     0.004 A 
ATOM      3  C4  UNL d   1      -5.387   1.350  -0.182  0.00  0.00    -0.003 A 
ATOM      4  C5  UNL d   1      -6.000   1.197  -1.421  0.00  0.00     0.000 A 
ATOM      5  C6  UNL d   1      -5.818   0.020  -2.145  0.00  0.00     0.000 A 
ATOM      6  C7  UNL d   1      -5.019  -1.022  -1.642  0.00  0.00    -0.073 A 
ATOM      7  C8  UNL d   1      -4.853  -2.268  -2.468  0.00  0.00     0.078 C 
ENDROOT
BRANCH   1   8
ATOM      8  C1  UNL d   1      -3.462  -1.910   0.187  0.00  0.00     0.053 C 
ATOM      9  C   UNL d   1      -2.077  -1.372   0.513  0.00  0.00     0.018 C 
ENDBRANCH   1   8
TORSDOF 1
ENDMDL
