MODEL 1
REMARK minimizedAffinity 4.45100069
REMARK minimizedRMSD -1
REMARK  1 active torsions:
REMARK  status: ('A' for Active; 'I' for Inactive)
REMARK    1  A    between atoms: C1_2  and  C2_3 
ROOT
ATOM      1  C2  UNL d   1      -0.654  -5.135  -3.522  0.00  0.00    -0.076 A 
ATOM      2  C3  UNL d   1      -0.958  -4.881  -2.173  0.00  0.00     0.004 A 
ATOM      3  C4  UNL d   1      -2.229  -5.138  -1.664  0.00  0.00    -0.003 A 
ATOM      4  C5  UNL d   1      -3.217  -5.654  -2.495  0.00  0.00     0.000 A 
ATOM      5  C6  UNL d   1      -2.928  -5.929  -3.831  0.00  0.00     0.000 A 
ATOM      6  C7  UNL d   1      -1.647  -5.690  -4.357  0.00  0.00    -0.073 A 
ATOM      7  C8  UNL d   1      -1.392  -5.999  -5.806  0.00  0.00     0.078 C 
ENDROOT
BRANCH   1   8
ATOM      8  C1  UNL d   1       0.735  -4.810  -4.025  0.00  0.00     0.053 C 
ATOM      9  C   UNL d   1       1.358  -5.961  -4.800  0.00  0.00     0.018 C 
ENDBRANCH   1   8
TORSDOF 1
ENDMDL
