MODEL 1
REMARK minimizedAffinity 7.69262886
REMARK minimizedRMSD -1
REMARK  1 active torsions:
REMARK  status: ('A' for Active; 'I' for Inactive)
REMARK    1  A    between atoms: C1_2  and  C2_3 
ROOT
ATOM      1  C2  UNL d   1       0.122  -0.674   1.081  0.00  0.00    -0.076 A 
ATOM      2  C3  UNL d   1       0.423   0.217   0.037  0.00  0.00     0.004 A 
ATOM      3  C4  UNL d   1       1.729   0.656  -0.177  0.00  0.00    -0.003 A 
ATOM      4  C5  UNL d   1       2.755   0.210   0.648  0.00  0.00     0.000 A 
ATOM      5  C6  UNL d   1       2.477  -0.689   1.678  0.00  0.00     0.000 A 
ATOM      6  C7  UNL d   1       1.169  -1.154   1.898  0.00  0.00    -0.073 A 
ATOM      7  C8  UNL d   1       0.926  -2.118   3.026  0.00  0.00     0.078 C 
ENDROOT
BRANCH   1   8
ATOM      8  C1  UNL d   1      -1.316  -1.094   1.283  0.00  0.00     0.053 C 
ATOM      9  C   UNL d   1      -2.299   0.024   0.973  0.00  0.00     0.018 C 
ENDBRANCH   1   8
TORSDOF 1
ENDMDL
