MODEL 1
REMARK minimizedAffinity 3.99918246
REMARK minimizedRMSD -1
REMARK  1 active torsions:
REMARK  status: ('A' for Active; 'I' for Inactive)
REMARK    1  A    between atoms: C1_2  and  C2_3 
ROOT
ATOM      1  C2  UNL d   1      -4.851   1.821  -0.358  0.00  0.00    -0.076 A 
ATOM      2  C3  UNL d   1      -4.267   1.166   0.740  0.00  0.00     0.004 A 
ATOM      3  C4  UNL d   1      -4.104  -0.219   0.747  0.00  0.00    -0.003 A 
ATOM      4  C5  UNL d   1      -4.523  -0.971  -0.346  0.00  0.00     0.000 A 
ATOM      5  C6  UNL d   1      -5.088  -0.336  -1.451  0.00  0.00     0.000 A 
ATOM      6  C7  UNL d   1      -5.244   1.061  -1.480  0.00  0.00    -0.073 A 
ATOM      7  C8  UNL d   1      -5.866   1.693  -2.696  0.00  0.00     0.078 C 
ENDROOT
BRANCH   1   8
ATOM      8  C1  UNL d   1      -5.026   3.321  -0.297  0.00  0.00     0.053 C 
ATOM      9  C   UNL d   1      -5.517   3.796   1.062  0.00  0.00     0.018 C 
ENDBRANCH   1   8
TORSDOF 1
ENDMDL
