MODEL 1
REMARK minimizedAffinity 8.92871666
REMARK minimizedRMSD -1
REMARK  1 active torsions:
REMARK  status: ('A' for Active; 'I' for Inactive)
REMARK    1  A    between atoms: C1_2  and  C2_3 
ROOT
ATOM      1  C2  UNL d   1       0.689  -5.813  -3.335  0.00  0.00    -0.076 A 
ATOM      2  C3  UNL d   1      -0.684  -5.999  -3.577  0.00  0.00     0.004 A 
ATOM      3  C4  UNL d   1      -1.190  -6.000  -4.875  0.00  0.00    -0.003 A 
ATOM      4  C5  UNL d   1      -0.332  -5.816  -5.954  0.00  0.00     0.000 A 
ATOM      5  C6  UNL d   1       1.035  -5.647  -5.734  0.00  0.00     0.000 A 
ATOM      6  C7  UNL d   1       1.564  -5.660  -4.432  0.00  0.00    -0.073 A 
ATOM      7  C8  UNL d   1       3.045  -5.468  -4.253  0.00  0.00     0.078 C 
ENDROOT
BRANCH   1   8
ATOM      8  C1  UNL d   1       1.176  -5.794  -1.904  0.00  0.00     0.053 C 
ATOM      9  C   UNL d   1       0.382  -4.836  -1.030  0.00  0.00     0.018 C 
ENDBRANCH   1   8
TORSDOF 1
ENDMDL
