MODEL 1
REMARK minimizedAffinity 7.39249468
REMARK minimizedRMSD -1
REMARK  1 active torsions:
REMARK  status: ('A' for Active; 'I' for Inactive)
REMARK    1  A    between atoms: C1_2  and  C2_3 
ROOT
ATOM      1  C2  UNL d   1      -0.105  -5.562  -2.895  0.00  0.00    -0.076 A 
ATOM      2  C3  UNL d   1      -1.480  -5.674  -2.622  0.00  0.00     0.004 A 
ATOM      3  C4  UNL d   1      -2.399  -5.891  -3.647  0.00  0.00    -0.003 A 
ATOM      4  C5  UNL d   1      -1.959  -5.999  -4.962  0.00  0.00     0.000 A 
ATOM      5  C6  UNL d   1      -0.597  -5.908  -5.248  0.00  0.00     0.000 A 
ATOM      6  C7  UNL d   1       0.345  -5.707  -4.225  0.00  0.00    -0.073 A 
ATOM      7  C8  UNL d   1       1.800  -5.610  -4.591  0.00  0.00     0.078 C 
ENDROOT
BRANCH   1   8
ATOM      8  C1  UNL d   1       0.842  -5.301  -1.746  0.00  0.00     0.053 C 
ATOM      9  C   UNL d   1       0.467  -4.059  -0.952  0.00  0.00     0.018 C 
ENDBRANCH   1   8
TORSDOF 1
ENDMDL
