MODEL 1
REMARK minimizedAffinity -0.221182466
REMARK minimizedRMSD -1
REMARK  1 active torsions:
REMARK  status: ('A' for Active; 'I' for Inactive)
REMARK    1  A    between atoms: C1_2  and  C2_3 
ROOT
ATOM      1  C2  UNL d   1      -1.144  -5.862  -3.585  0.00  0.00    -0.076 A 
ATOM      2  C3  UNL d   1      -0.072  -5.789  -2.679  0.00  0.00     0.004 A 
ATOM      3  C4  UNL d   1       1.248  -5.819  -3.126  0.00  0.00    -0.003 A 
ATOM      4  C5  UNL d   1       1.517  -5.920  -4.486  0.00  0.00     0.000 A 
ATOM      5  C6  UNL d   1       0.465  -5.975  -5.400  0.00  0.00     0.000 A 
ATOM      6  C7  UNL d   1      -0.871  -5.930  -4.968  0.00  0.00    -0.073 A 
ATOM      7  C8  UNL d   1      -1.966  -5.999  -5.997  0.00  0.00     0.078 C 
ENDROOT
BRANCH   1   8
ATOM      8  C1  UNL d   1      -2.555  -5.853  -3.040  0.00  0.00     0.053 C 
ATOM      9  C   UNL d   1      -2.596  -6.000  -1.527  0.00  0.00     0.018 C 
ENDBRANCH   1   8
TORSDOF 1
ENDMDL
