MODEL 1
REMARK minimizedAffinity 7.81041527
REMARK minimizedRMSD -1
REMARK  1 active torsions:
REMARK  status: ('A' for Active; 'I' for Inactive)
REMARK    1  A    between atoms: C1_2  and  C2_3 
ROOT
ATOM      1  C2  UNL d   1       1.961  -0.612   0.841  0.00  0.00    -0.076 A 
ATOM      2  C3  UNL d   1       1.254   0.556   0.505  0.00  0.00     0.004 A 
ATOM      3  C4  UNL d   1      -0.139   0.565   0.469  0.00  0.00    -0.003 A 
ATOM      4  C5  UNL d   1      -0.848  -0.593   0.769  0.00  0.00     0.000 A 
ATOM      5  C6  UNL d   1      -0.163  -1.755   1.121  0.00  0.00     0.000 A 
ATOM      6  C7  UNL d   1       1.241  -1.777   1.179  0.00  0.00    -0.073 A 
ATOM      7  C8  UNL d   1       1.928  -3.060   1.559  0.00  0.00     0.078 C 
ENDROOT
BRANCH   1   8
ATOM      8  C1  UNL d   1       3.473  -0.569   0.837  0.00  0.00     0.053 C 
ATOM      9  C   UNL d   1       4.031   0.204  -0.347  0.00  0.00     0.018 C 
ENDBRANCH   1   8
TORSDOF 1
ENDMDL
