MODEL 1
REMARK minimizedAffinity -0.875053227
REMARK minimizedRMSD -1
REMARK  1 active torsions:
REMARK  status: ('A' for Active; 'I' for Inactive)
REMARK    1  A    between atoms: C1_2  and  C2_3 
ROOT
ATOM      1  C2  UNL d   1      -1.292  -5.902  -3.656  0.00  0.00    -0.076 A 
ATOM      2  C3  UNL d   1      -1.623  -5.991  -5.019  0.00  0.00     0.004 A 
ATOM      3  C4  UNL d   1      -0.632  -5.991  -6.000  0.00  0.00    -0.003 A 
ATOM      4  C5  UNL d   1       0.707  -5.902  -5.633  0.00  0.00     0.000 A 
ATOM      5  C6  UNL d   1       1.054  -5.831  -4.284  0.00  0.00     0.000 A 
ATOM      6  C7  UNL d   1       0.068  -5.846  -3.282  0.00  0.00    -0.073 A 
ATOM      7  C8  UNL d   1       0.499  -5.760  -1.844  0.00  0.00     0.078 C 
ENDROOT
BRANCH   1   8
ATOM      8  C1  UNL d   1      -2.410  -5.879  -2.639  0.00  0.00     0.053 C 
ATOM      9  C   UNL d   1      -3.784  -5.989  -3.282  0.00  0.00     0.018 C 
ENDBRANCH   1   8
TORSDOF 1
ENDMDL
