MODEL 1
REMARK minimizedAffinity 3.73948526
REMARK minimizedRMSD -1
REMARK  1 active torsions:
REMARK  status: ('A' for Active; 'I' for Inactive)
REMARK    1  A    between atoms: C1_2  and  C2_3 
ROOT
ATOM      1  C2  UNL d   1      -1.295  -0.420   0.440  0.00  0.00    -0.076 A 
ATOM      2  C3  UNL d   1      -0.300   0.573   0.445  0.00  0.00     0.004 A 
ATOM      3  C4  UNL d   1       1.039   0.246   0.653  0.00  0.00    -0.003 A 
ATOM      4  C5  UNL d   1       1.405  -1.079   0.858  0.00  0.00     0.000 A 
ATOM      5  C6  UNL d   1       0.434  -2.080   0.839  0.00  0.00     0.000 A 
ATOM      6  C7  UNL d   1      -0.919  -1.769   0.615  0.00  0.00    -0.073 A 
ATOM      7  C8  UNL d   1      -1.925  -2.887   0.611  0.00  0.00     0.078 C 
ENDROOT
BRANCH   1   8
ATOM      8  C1  UNL d   1      -2.734  -0.003   0.238  0.00  0.00     0.053 C 
ATOM      9  C   UNL d   1      -3.085   0.186  -1.230  0.00  0.00     0.018 C 
ENDBRANCH   1   8
TORSDOF 1
ENDMDL
