MODEL 1
REMARK minimizedAffinity 4.05982399
REMARK minimizedRMSD -1
REMARK  1 active torsions:
REMARK  status: ('A' for Active; 'I' for Inactive)
REMARK    1  A    between atoms: C1_2  and  C2_3 
ROOT
ATOM      1  C2  UNL d   1      -2.960   1.109   0.067  0.00  0.00    -0.076 A 
ATOM      2  C3  UNL d   1      -2.839   1.614  -1.240  0.00  0.00     0.004 A 
ATOM      3  C4  UNL d   1      -3.806   1.341  -2.206  0.00  0.00    -0.003 A 
ATOM      4  C5  UNL d   1      -4.909   0.560  -1.882  0.00  0.00     0.000 A 
ATOM      5  C6  UNL d   1      -5.054   0.065  -0.586  0.00  0.00     0.000 A 
ATOM      6  C7  UNL d   1      -4.096   0.344   0.405  0.00  0.00    -0.073 A 
ATOM      7  C8  UNL d   1      -4.299  -0.220   1.784  0.00  0.00     0.078 C 
ENDROOT
BRANCH   1   8
ATOM      8  C1  UNL d   1      -1.866   1.415   1.065  0.00  0.00     0.053 C 
ATOM      9  C   UNL d   1      -0.483   1.056   0.543  0.00  0.00     0.018 C 
ENDBRANCH   1   8
TORSDOF 1
ENDMDL
