MODEL 1
REMARK minimizedAffinity 0.594686449
REMARK minimizedRMSD -1
REMARK  1 active torsions:
REMARK  status: ('A' for Active; 'I' for Inactive)
REMARK    1  A    between atoms: C1_2  and  C2_3 
ROOT
ATOM      1  C2  UNL d   1      -0.804  -5.974  -4.080  0.00  0.00    -0.076 A 
ATOM      2  C3  UNL d   1      -2.013  -5.938  -4.797  0.00  0.00     0.004 A 
ATOM      3  C4  UNL d   1      -3.239  -5.938  -4.135  0.00  0.00    -0.003 A 
ATOM      4  C5  UNL d   1      -3.277  -5.972  -2.746  0.00  0.00     0.000 A 
ATOM      5  C6  UNL d   1      -2.088  -5.989  -2.018  0.00  0.00     0.000 A 
ATOM      6  C7  UNL d   1      -0.843  -5.974  -2.669  0.00  0.00    -0.073 A 
ATOM      7  C8  UNL d   1       0.409  -6.000  -1.835  0.00  0.00     0.078 C 
ENDROOT
BRANCH   1   8
ATOM      8  C1  UNL d   1       0.496  -6.000  -4.852  0.00  0.00     0.053 C 
ATOM      9  C   UNL d   1       1.410  -4.839  -4.494  0.00  0.00     0.018 C 
ENDBRANCH   1   8
TORSDOF 1
ENDMDL
