MODEL 1
REMARK minimizedAffinity 2.04948092
REMARK minimizedRMSD -1
REMARK  1 active torsions:
REMARK  status: ('A' for Active; 'I' for Inactive)
REMARK    1  A    between atoms: C1_2  and  C2_3 
ROOT
ATOM      1  C2  UNL d   1      -0.245  -5.979  -3.229  0.00  0.00    -0.076 A 
ATOM      2  C3  UNL d   1       0.822  -5.958  -4.144  0.00  0.00     0.004 A 
ATOM      3  C4  UNL d   1       0.590  -5.967  -5.518  0.00  0.00    -0.003 A 
ATOM      4  C5  UNL d   1      -0.714  -5.997  -6.000  0.00  0.00     0.000 A 
ATOM      5  C6  UNL d   1      -1.786  -6.000  -5.107  0.00  0.00     0.000 A 
ATOM      6  C7  UNL d   1      -1.569  -5.974  -3.718  0.00  0.00    -0.073 A 
ATOM      7  C8  UNL d   1      -2.761  -5.985  -2.801  0.00  0.00     0.078 C 
ENDROOT
BRANCH   1   8
ATOM      8  C1  UNL d   1       0.069  -5.995  -1.750  0.00  0.00     0.053 C 
ATOM      9  C   UNL d   1      -0.006  -4.612  -1.123  0.00  0.00     0.018 C 
ENDBRANCH   1   8
TORSDOF 1
ENDMDL
