MODEL 1
REMARK minimizedAffinity 6.43604898
REMARK minimizedRMSD -1
REMARK  1 active torsions:
REMARK  status: ('A' for Active; 'I' for Inactive)
REMARK    1  A    between atoms: C1_2  and  C2_3 
ROOT
ATOM      1  C2  UNL d   1      -0.375  -1.306   0.937  0.00  0.00    -0.076 A 
ATOM      2  C3  UNL d   1      -0.446  -0.042   0.326  0.00  0.00     0.004 A 
ATOM      3  C4  UNL d   1       0.585   0.885   0.474  0.00  0.00    -0.003 A 
ATOM      4  C5  UNL d   1       1.704   0.562   1.233  0.00  0.00     0.000 A 
ATOM      5  C6  UNL d   1       1.799  -0.694   1.831  0.00  0.00     0.000 A 
ATOM      6  C7  UNL d   1       0.776  -1.646   1.679  0.00  0.00    -0.073 A 
ATOM      7  C8  UNL d   1       0.929  -2.983   2.352  0.00  0.00     0.078 C 
ENDROOT
BRANCH   1   8
ATOM      8  C1  UNL d   1      -1.535  -2.260   0.764  0.00  0.00     0.053 C 
ATOM      9  C   UNL d   1      -2.867  -1.538   0.630  0.00  0.00     0.018 C 
ENDBRANCH   1   8
TORSDOF 1
ENDMDL
