MODEL 1
REMARK minimizedAffinity 3.31249094
REMARK minimizedRMSD -1
REMARK  1 active torsions:
REMARK  status: ('A' for Active; 'I' for Inactive)
REMARK    1  A    between atoms: C1_2  and  C2_3 
ROOT
ATOM      1  C2  UNL d   1      -1.293  -5.982  -3.933  0.00  0.00    -0.076 A 
ATOM      2  C3  UNL d   1      -2.675  -5.988  -4.188  0.00  0.00     0.004 A 
ATOM      3  C4  UNL d   1      -3.598  -5.998  -3.143  0.00  0.00    -0.003 A 
ATOM      4  C5  UNL d   1      -3.153  -5.999  -1.826  0.00  0.00     0.000 A 
ATOM      5  C6  UNL d   1      -1.785  -5.975  -1.554  0.00  0.00     0.000 A 
ATOM      6  C7  UNL d   1      -0.842  -5.949  -2.596  0.00  0.00    -0.073 A 
ATOM      7  C8  UNL d   1       0.620  -5.930  -2.245  0.00  0.00     0.078 C 
ENDROOT
BRANCH   1   8
ATOM      8  C1  UNL d   1      -0.339  -6.000  -5.106  0.00  0.00     0.053 C 
ATOM      9  C   UNL d   1       1.094  -5.697  -4.697  0.00  0.00     0.018 C 
ENDBRANCH   1   8
TORSDOF 1
ENDMDL
