MODEL 1
REMARK minimizedAffinity 6.75536537
REMARK minimizedRMSD -1
REMARK  1 active torsions:
REMARK  status: ('A' for Active; 'I' for Inactive)
REMARK    1  A    between atoms: C1_2  and  C2_3 
ROOT
ATOM      1  C2  UNL d   1      -0.546  -0.979   0.624  0.00  0.00    -0.076 A 
ATOM      2  C3  UNL d   1      -0.525   0.426   0.576  0.00  0.00     0.004 A 
ATOM      3  C4  UNL d   1       0.679   1.128   0.629  0.00  0.00    -0.003 A 
ATOM      4  C5  UNL d   1       1.880   0.436   0.732  0.00  0.00     0.000 A 
ATOM      5  C6  UNL d   1       1.879  -0.958   0.763  0.00  0.00     0.000 A 
ATOM      6  C7  UNL d   1       0.676  -1.681   0.693  0.00  0.00    -0.073 A 
ATOM      7  C8  UNL d   1       0.734  -3.184   0.737  0.00  0.00     0.078 C 
ENDROOT
BRANCH   1   8
ATOM      8  C1  UNL d   1      -1.882  -1.684   0.590  0.00  0.00     0.053 C 
ATOM      9  C   UNL d   1      -3.041  -0.755   0.919  0.00  0.00     0.018 C 
ENDBRANCH   1   8
TORSDOF 1
ENDMDL
