MODEL 1
REMARK minimizedAffinity 5.20538759
REMARK minimizedRMSD -1
REMARK  1 active torsions:
REMARK  status: ('A' for Active; 'I' for Inactive)
REMARK    1  A    between atoms: C1_2  and  C2_3 
ROOT
ATOM      1  C2  UNL d   1      -3.682  -0.718  -0.458  0.00  0.00    -0.076 A 
ATOM      2  C3  UNL d   1      -3.949   0.262   0.513  0.00  0.00     0.004 A 
ATOM      3  C4  UNL d   1      -4.904   1.253   0.290  0.00  0.00    -0.003 A 
ATOM      4  C5  UNL d   1      -5.608   1.279  -0.909  0.00  0.00     0.000 A 
ATOM      5  C6  UNL d   1      -5.369   0.304  -1.877  0.00  0.00     0.000 A 
ATOM      6  C7  UNL d   1      -4.421  -0.711  -1.661  0.00  0.00    -0.073 A 
ATOM      7  C8  UNL d   1      -4.199  -1.734  -2.741  0.00  0.00     0.078 C 
ENDROOT
BRANCH   1   8
ATOM      8  C1  UNL d   1      -2.617  -1.751  -0.171  0.00  0.00     0.053 C 
ATOM      9  C   UNL d   1      -3.011  -2.699   0.952  0.00  0.00     0.018 C 
ENDBRANCH   1   8
TORSDOF 1
ENDMDL
