MODEL 1
REMARK minimizedAffinity -4.16586304
REMARK minimizedRMSD -1
REMARK  1 active torsions:
REMARK  status: ('A' for Active; 'I' for Inactive)
REMARK    1  A    between atoms: C3_4  and  O_7 
ROOT
ATOM      1  C   UNL d   1       1.734  -2.452  -0.661  0.00  0.00    -0.033 A 
ATOM      2  C1  UNL d   1       0.408  -2.082  -0.890  0.00  0.00     0.039 A 
ATOM      3  C2  UNL d   1      -0.077  -0.872  -0.389  0.00  0.00    -0.080 A 
ATOM      4  C3  UNL d   1       0.773  -0.043   0.338  0.00  0.00     0.150 A 
ATOM      5  C4  UNL d   1       2.096  -0.405   0.567  0.00  0.00    -0.007 A 
ATOM      6  C5  UNL d   1       2.579  -1.613   0.067  0.00  0.00     0.039 A 
ENDROOT
BRANCH   4   7
ATOM      7  O   UNL d   1       0.343   1.144   0.851  0.00  0.00    -0.526 OA
ATOM      8  H5  UNL d   1      -0.599   1.248   0.639  0.00  0.00     0.418 HD
ENDBRANCH   4   7
TORSDOF 1
ENDMDL
