MODEL 1
REMARK minimizedAffinity -3.70749927
REMARK minimizedRMSD -1
REMARK  1 active torsions:
REMARK  status: ('A' for Active; 'I' for Inactive)
REMARK    1  A    between atoms: C3_4  and  O_7 
ROOT
ATOM      1  C   UNL d   1      -0.643   0.521  -0.765  0.00  0.00    -0.033 A 
ATOM      2  C1  UNL d   1       0.255   1.370  -0.115  0.00  0.00     0.039 A 
ATOM      3  C2  UNL d   1       1.423   0.855   0.448  0.00  0.00    -0.080 A 
ATOM      4  C3  UNL d   1       1.683  -0.509   0.355  0.00  0.00     0.150 A 
ATOM      5  C4  UNL d   1       0.796  -1.361  -0.295  0.00  0.00    -0.007 A 
ATOM      6  C5  UNL d   1      -0.371  -0.845  -0.856  0.00  0.00     0.039 A 
ENDROOT
BRANCH   4   7
ATOM      7  O   UNL d   1       2.808  -1.059   0.894  0.00  0.00    -0.526 OA
ATOM      8  H5  UNL d   1       3.313  -0.356   1.335  0.00  0.00     0.418 HD
ENDBRANCH   4   7
TORSDOF 1
ENDMDL
