MODEL 1
REMARK minimizedAffinity -5.50948858
REMARK minimizedRMSD -1
REMARK  1 active torsions:
REMARK  status: ('A' for Active; 'I' for Inactive)
REMARK    1  A    between atoms: C3_4  and  O_7 
ROOT
ATOM      1  C   UNL d   1       0.365   0.908  -0.611  0.00  0.00    -0.033 A 
ATOM      2  C1  UNL d   1      -0.051  -0.418  -0.748  0.00  0.00     0.039 A 
ATOM      3  C2  UNL d   1       0.705  -1.450  -0.189  0.00  0.00    -0.080 A 
ATOM      4  C3  UNL d   1       1.873  -1.143   0.504  0.00  0.00     0.150 A 
ATOM      5  C4  UNL d   1       2.291   0.176   0.648  0.00  0.00    -0.007 A 
ATOM      6  C5  UNL d   1       1.535   1.205   0.088  0.00  0.00     0.039 A 
ENDROOT
BRANCH   4   7
ATOM      7  O   UNL d   1       2.646  -2.117   1.063  0.00  0.00    -0.526 OA
ATOM      8  H5  UNL d   1       2.250  -2.980   0.859  0.00  0.00     0.418 HD
ENDBRANCH   4   7
TORSDOF 1
ENDMDL
