MODEL 1
REMARK minimizedAffinity -4.4742074
REMARK minimizedRMSD -1
REMARK  1 active torsions:
REMARK  status: ('A' for Active; 'I' for Inactive)
REMARK    1  A    between atoms: C3_4  and  O_7 
ROOT
ATOM      1  C   UNL d   1       0.063   0.882   0.005  0.00  0.00    -0.033 A 
ATOM      2  C1  UNL d   1      -0.216  -0.479  -0.129  0.00  0.00     0.039 A 
ATOM      3  C2  UNL d   1       0.740  -1.429   0.238  0.00  0.00    -0.080 A 
ATOM      4  C3  UNL d   1       1.967  -1.005   0.738  0.00  0.00     0.150 A 
ATOM      5  C4  UNL d   1       2.251   0.350   0.878  0.00  0.00    -0.007 A 
ATOM      6  C5  UNL d   1       1.296   1.297   0.510  0.00  0.00     0.039 A 
ENDROOT
BRANCH   4   7
ATOM      7  O   UNL d   1       2.933  -1.895   1.106  0.00  0.00    -0.526 OA
ATOM      8  H5  UNL d   1       2.608  -2.793   0.927  0.00  0.00     0.418 HD
ENDBRANCH   4   7
TORSDOF 1
ENDMDL
