MODEL 1
REMARK minimizedAffinity -3.93498254
REMARK minimizedRMSD -1
REMARK  1 active torsions:
REMARK  status: ('A' for Active; 'I' for Inactive)
REMARK    1  A    between atoms: C3_4  and  O_7 
ROOT
ATOM      1  C   UNL d   1      -0.211  -0.114  -0.708  0.00  0.00    -0.033 A 
ATOM      2  C1  UNL d   1       0.094  -1.450  -0.975  0.00  0.00     0.039 A 
ATOM      3  C2  UNL d   1       1.182  -2.059  -0.346  0.00  0.00    -0.080 A 
ATOM      4  C3  UNL d   1       1.954  -1.323   0.548  0.00  0.00     0.150 A 
ATOM      5  C4  UNL d   1       1.654   0.007   0.822  0.00  0.00    -0.007 A 
ATOM      6  C5  UNL d   1       0.568   0.614   0.192  0.00  0.00     0.039 A 
ENDROOT
BRANCH   4   7
ATOM      7  O   UNL d   1       3.028  -1.873   1.183  0.00  0.00    -0.526 OA
ATOM      8  H5  UNL d   1       3.132  -2.789   0.874  0.00  0.00     0.418 HD
ENDBRANCH   4   7
TORSDOF 1
ENDMDL
