MODEL 1
REMARK minimizedAffinity 0.975874364
REMARK minimizedRMSD -1
REMARK  1 active torsions:
REMARK  status: ('A' for Active; 'I' for Inactive)
REMARK    1  A    between atoms: C3_4  and  O_7 
ROOT
ATOM      1  C   UNL d   1       0.053  -1.638  -0.163  0.00  0.00    -0.033 A 
ATOM      2  C1  UNL d   1       1.268  -2.186   0.254  0.00  0.00     0.039 A 
ATOM      3  C2  UNL d   1       2.288  -2.413  -0.673  0.00  0.00    -0.080 A 
ATOM      4  C3  UNL d   1       2.080  -2.088  -2.011  0.00  0.00     0.150 A 
ATOM      5  C4  UNL d   1       0.873  -1.539  -2.432  0.00  0.00    -0.007 A 
ATOM      6  C5  UNL d   1      -0.144  -1.314  -1.505  0.00  0.00     0.039 A 
ENDROOT
BRANCH   4   7
ATOM      7  O   UNL d   1       3.043  -2.297  -2.953  0.00  0.00    -0.526 OA
ATOM      8  H5  UNL d   1       3.811  -2.707  -2.522  0.00  0.00     0.418 HD
ENDBRANCH   4   7
TORSDOF 1
ENDMDL
