MODEL 1
REMARK minimizedAffinity 3.11041617
REMARK minimizedRMSD -1
REMARK  2 active torsions:
REMARK  status: ('A' for Active; 'I' for Inactive)
REMARK    1  A    between atoms: C2'_3  and  C1'_4 
REMARK    2  A    between atoms: C1'_4  and  C1_5 
ROOT
ATOM      1  C1  I4B d   1      -1.634  -2.016  -1.673  0.00  0.00    -0.075 A 
ATOM      2  C2  I4B d   1      -1.427  -1.759  -0.341  0.00  0.00     0.003 A 
ATOM      3  C3  I4B d   1      -2.501  -1.850   0.578  0.00  0.00     0.002 A 
ATOM      4  C4  I4B d   1      -3.766  -2.150   0.116  0.00  0.00    -0.004 A 
ATOM      5  C5  I4B d   1      -3.970  -2.432  -1.231  0.00  0.00     0.002 A 
ATOM      6  C6  I4B d   1      -2.895  -2.377  -2.130  0.00  0.00     0.003 A 
ENDROOT
BRANCH   1   7
ATOM      7  C1' I4B d   1      -0.484  -1.878  -2.621  0.00  0.00     0.060 C 
BRANCH   7   8
ATOM      8  C2' I4B d   1       0.759  -2.391  -1.924  0.00  0.00    -0.013 C 
ATOM      9  C4' I4B d   1       0.492  -3.696  -1.222  0.00  0.00     0.013 C 
ATOM     10  C3' I4B d   1       1.839  -2.541  -2.954  0.00  0.00     0.013 C 
ENDBRANCH   7   8
ENDBRANCH   1   7
TORSDOF 2
ENDMDL
