MODEL 1
REMARK minimizedAffinity -3.58733582
REMARK minimizedRMSD -1
REMARK  2 active torsions:
REMARK  status: ('A' for Active; 'I' for Inactive)
REMARK    1  A    between atoms: C2'_3  and  C1'_4 
REMARK    2  A    between atoms: C1'_4  and  C1_5 
ROOT
ATOM      1  C1  I4B d   1      -0.546  -0.421   0.421  0.00  0.00    -0.075 A 
ATOM      2  C2  I4B d   1      -0.754  -1.727   0.789  0.00  0.00     0.003 A 
ATOM      3  C3  I4B d   1      -0.254  -2.781  -0.014  0.00  0.00     0.002 A 
ATOM      4  C4  I4B d   1       0.400  -2.487  -1.193  0.00  0.00    -0.004 A 
ATOM      5  C5  I4B d   1       0.629  -1.162  -1.552  0.00  0.00     0.002 A 
ATOM      6  C6  I4B d   1       0.164  -0.122  -0.734  0.00  0.00     0.003 A 
ENDROOT
BRANCH   1   7
ATOM      7  C1' I4B d   1      -1.117   0.667   1.275  0.00  0.00     0.060 C 
BRANCH   7   8
ATOM      8  C2' I4B d   1      -1.436   0.076   2.633  0.00  0.00    -0.013 C 
ATOM      9  C4' I4B d   1      -0.260   0.192   3.567  0.00  0.00     0.013 C 
ATOM     10  C3' I4B d   1      -2.635   0.793   3.180  0.00  0.00     0.013 C 
ENDBRANCH   7   8
ENDBRANCH   1   7
TORSDOF 2
ENDMDL
