MODEL 1
REMARK minimizedAffinity -1.18057585
REMARK minimizedRMSD -1
REMARK  2 active torsions:
REMARK  status: ('A' for Active; 'I' for Inactive)
REMARK    1  A    between atoms: C2'_3  and  C1'_4 
REMARK    2  A    between atoms: C1'_4  and  C1_5 
ROOT
ATOM      1  C1  I4B d   1      -0.360   2.265   0.538  0.00  0.00    -0.075 A 
ATOM      2  C2  I4B d   1       0.141   1.361  -0.365  0.00  0.00     0.003 A 
ATOM      3  C3  I4B d   1      -0.219  -0.006  -0.278  0.00  0.00     0.002 A 
ATOM      4  C4  I4B d   1      -1.035  -0.431   0.750  0.00  0.00    -0.004 A 
ATOM      5  C5  I4B d   1      -1.560   0.492   1.651  0.00  0.00     0.002 A 
ATOM      6  C6  I4B d   1      -1.230   1.850   1.537  0.00  0.00     0.003 A 
ENDROOT
BRANCH   1   7
ATOM      7  C1' I4B d   1       0.067   3.695   0.437  0.00  0.00     0.060 C 
BRANCH   7   8
ATOM      8  C2' I4B d   1       1.530   3.774   0.820  0.00  0.00    -0.013 C 
ATOM      9  C4' I4B d   1       2.187   4.988   0.217  0.00  0.00     0.013 C 
ATOM     10  C3' I4B d   1       1.617   3.799   2.317  0.00  0.00     0.013 C 
ENDBRANCH   7   8
ENDBRANCH   1   7
TORSDOF 2
ENDMDL
