MODEL 1
REMARK minimizedAffinity -4.35161352
REMARK minimizedRMSD -1
REMARK  2 active torsions:
REMARK  status: ('A' for Active; 'I' for Inactive)
REMARK    1  A    between atoms: C2'_3  and  C1'_4 
REMARK    2  A    between atoms: C1'_4  and  C1_5 
ROOT
ATOM      1  C1  I4B d   1       1.017   1.830  -0.729  0.00  0.00    -0.075 A 
ATOM      2  C2  I4B d   1       2.351   2.129  -0.850  0.00  0.00     0.003 A 
ATOM      3  C3  I4B d   1       2.940   3.109  -0.015  0.00  0.00     0.002 A 
ATOM      4  C4  I4B d   1       2.153   3.796   0.887  0.00  0.00    -0.004 A 
ATOM      5  C5  I4B d   1       0.806   3.476   1.024  0.00  0.00     0.002 A 
ATOM      6  C6  I4B d   1       0.236   2.478   0.220  0.00  0.00     0.003 A 
ENDROOT
BRANCH   1   7
ATOM      7  C1' I4B d   1       0.420   0.813  -1.649  0.00  0.00     0.060 C 
BRANCH   7   8
ATOM      8  C2' I4B d   1       1.280  -0.433  -1.589  0.00  0.00    -0.013 C 
ATOM      9  C4' I4B d   1       0.753  -1.410  -0.572  0.00  0.00     0.013 C 
ATOM     10  C3' I4B d   1       1.310  -1.041  -2.959  0.00  0.00     0.013 C 
ENDBRANCH   7   8
ENDBRANCH   1   7
TORSDOF 2
ENDMDL
