MODEL 1
REMARK minimizedAffinity -4.82344007
REMARK minimizedRMSD -1
REMARK  2 active torsions:
REMARK  status: ('A' for Active; 'I' for Inactive)
REMARK    1  A    between atoms: C2'_3  and  C1'_4 
REMARK    2  A    between atoms: C1'_4  and  C1_5 
ROOT
ATOM      1  C1  I4B d   1       0.841   1.312  -0.223  0.00  0.00    -0.075 A 
ATOM      2  C2  I4B d   1       0.464   2.303   0.648  0.00  0.00     0.003 A 
ATOM      3  C3  I4B d   1       1.364   3.346   0.974  0.00  0.00     0.002 A 
ATOM      4  C4  I4B d   1       2.641   3.331   0.450  0.00  0.00    -0.004 A 
ATOM      5  C5  I4B d   1       3.014   2.337  -0.451  0.00  0.00     0.002 A 
ATOM      6  C6  I4B d   1       2.104   1.328  -0.799  0.00  0.00     0.003 A 
ENDROOT
BRANCH   1   7
ATOM      7  C1' I4B d   1      -0.124   0.208  -0.521  0.00  0.00     0.060 C 
BRANCH   7   8
ATOM      8  C2' I4B d   1      -0.167  -0.711   0.683  0.00  0.00    -0.013 C 
ATOM      9  C4' I4B d   1      -1.459  -0.558   1.441  0.00  0.00     0.013 C 
ATOM     10  C3' I4B d   1       0.012  -2.119   0.197  0.00  0.00     0.013 C 
ENDBRANCH   7   8
ENDBRANCH   1   7
TORSDOF 2
ENDMDL
