MODEL 1
REMARK minimizedAffinity -4.56272316
REMARK minimizedRMSD -1
REMARK  2 active torsions:
REMARK  status: ('A' for Active; 'I' for Inactive)
REMARK    1  A    between atoms: C2'_3  and  C1'_4 
REMARK    2  A    between atoms: C1'_4  and  C1_5 
ROOT
ATOM      1  C1  I4B d   1       0.076  -0.134   0.269  0.00  0.00    -0.075 A 
ATOM      2  C2  I4B d   1      -0.782  -0.598   1.235  0.00  0.00     0.003 A 
ATOM      3  C3  I4B d   1      -0.954  -1.990   1.427  0.00  0.00     0.002 A 
ATOM      4  C4  I4B d   1      -0.291  -2.877   0.603  0.00  0.00    -0.004 A 
ATOM      5  C5  I4B d   1       0.595  -2.405  -0.361  0.00  0.00     0.002 A 
ATOM      6  C6  I4B d   1       0.790  -1.025  -0.521  0.00  0.00     0.003 A 
ENDROOT
BRANCH   1   7
ATOM      7  C1' I4B d   1       0.209   1.343   0.072  0.00  0.00     0.060 C 
BRANCH   7   8
ATOM      8  C2' I4B d   1       1.522   1.780   0.689  0.00  0.00    -0.013 C 
ATOM      9  C4' I4B d   1       2.610   1.867  -0.348  0.00  0.00     0.013 C 
ATOM     10  C3' I4B d   1       1.301   3.106   1.355  0.00  0.00     0.013 C 
ENDBRANCH   7   8
ENDBRANCH   1   7
TORSDOF 2
ENDMDL
