MODEL 1
REMARK minimizedAffinity -0.453930497
REMARK minimizedRMSD -1
REMARK  2 active torsions:
REMARK  status: ('A' for Active; 'I' for Inactive)
REMARK    1  A    between atoms: C2'_3  and  C1'_4 
REMARK    2  A    between atoms: C1'_4  and  C1_5 
ROOT
ATOM      1  C1  I4B d   1       2.629   2.077   0.316  0.00  0.00    -0.075 A 
ATOM      2  C2  I4B d   1       1.275   1.854   0.313  0.00  0.00     0.003 A 
ATOM      3  C3  I4B d   1       0.416   2.675   1.084  0.00  0.00     0.002 A 
ATOM      4  C4  I4B d   1       0.955   3.668   1.875  0.00  0.00    -0.004 A 
ATOM      5  C5  I4B d   1       2.327   3.907   1.859  0.00  0.00     0.002 A 
ATOM      6  C6  I4B d   1       3.168   3.115   1.064  0.00  0.00     0.003 A 
ENDROOT
BRANCH   1   7
ATOM      7  C1' I4B d   1       3.510   1.170  -0.484  0.00  0.00     0.060 C 
BRANCH   7   8
ATOM      8  C2' I4B d   1       4.812   1.898  -0.748  0.00  0.00    -0.013 C 
ATOM      9  C4' I4B d   1       5.998   1.044  -0.384  0.00  0.00     0.013 C 
ATOM     10  C3' I4B d   1       4.844   2.277  -2.199  0.00  0.00     0.013 C 
ENDBRANCH   7   8
ENDBRANCH   1   7
TORSDOF 2
ENDMDL
