MODEL 1
REMARK minimizedAffinity 0.450630605
REMARK minimizedRMSD -1
REMARK  2 active torsions:
REMARK  status: ('A' for Active; 'I' for Inactive)
REMARK    1  A    between atoms: C2'_3  and  C1'_4 
REMARK    2  A    between atoms: C1'_4  and  C1_5 
ROOT
ATOM      1  C1  I4B d   1      -0.277   2.064   0.780  0.00  0.00    -0.075 A 
ATOM      2  C2  I4B d   1       1.083   2.115   0.960  0.00  0.00     0.003 A 
ATOM      3  C3  I4B d   1       1.712   3.338   1.298  0.00  0.00     0.002 A 
ATOM      4  C4  I4B d   1       0.954   4.488   1.396  0.00  0.00    -0.004 A 
ATOM      5  C5  I4B d   1      -0.427   4.430   1.235  0.00  0.00     0.002 A 
ATOM      6  C6  I4B d   1      -1.049   3.208   0.937  0.00  0.00     0.003 A 
ENDROOT
BRANCH   1   7
ATOM      7  C1' I4B d   1      -0.904   0.763   0.391  0.00  0.00     0.060 C 
BRANCH   7   8
ATOM      8  C2' I4B d   1      -0.903  -0.138   1.609  0.00  0.00    -0.013 C 
ATOM      9  C4' I4B d   1      -2.017   0.225   2.556  0.00  0.00     0.013 C 
ATOM     10  C3' I4B d   1      -1.034  -1.555   1.136  0.00  0.00     0.013 C 
ENDBRANCH   7   8
ENDBRANCH   1   7
TORSDOF 2
ENDMDL
