MODEL 1
REMARK minimizedAffinity -4.74987888
REMARK minimizedRMSD -1
REMARK  2 active torsions:
REMARK  status: ('A' for Active; 'I' for Inactive)
REMARK    1  A    between atoms: C2'_3  and  C1'_4 
REMARK    2  A    between atoms: C1'_4  and  C1_5 
ROOT
ATOM      1  C1  I4B d   1       0.629   1.062  -0.132  0.00  0.00    -0.075 A 
ATOM      2  C2  I4B d   1       0.827   2.014   0.837  0.00  0.00     0.003 A 
ATOM      3  C3  I4B d   1       1.907   2.923   0.733  0.00  0.00     0.002 A 
ATOM      4  C4  I4B d   1       2.789   2.813  -0.322  0.00  0.00    -0.004 A 
ATOM      5  C5  I4B d   1       2.574   1.863  -1.316  0.00  0.00     0.002 A 
ATOM      6  C6  I4B d   1       1.480   0.989  -1.227  0.00  0.00     0.003 A 
ENDROOT
BRANCH   1   7
ATOM      7  C1' I4B d   1      -0.503   0.097   0.027  0.00  0.00     0.060 C 
BRANCH   7   8
ATOM      8  C2' I4B d   1      -0.028  -1.037   0.913  0.00  0.00    -0.013 C 
ATOM      9  C4' I4B d   1      -0.858  -1.133   2.166  0.00  0.00     0.013 C 
ATOM     10  C3' I4B d   1      -0.099  -2.306   0.118  0.00  0.00     0.013 C 
ENDBRANCH   7   8
ENDBRANCH   1   7
TORSDOF 2
ENDMDL
