MODEL 1
REMARK minimizedAffinity 7.23312902
REMARK minimizedRMSD -1
REMARK  2 active torsions:
REMARK  status: ('A' for Active; 'I' for Inactive)
REMARK    1  A    between atoms: C2'_3  and  C1'_4 
REMARK    2  A    between atoms: C1'_4  and  C1_5 
ROOT
ATOM      1  C1  I4B d   1      -0.916   0.663   0.798  0.00  0.00    -0.075 A 
ATOM      2  C2  I4B d   1      -0.810  -0.428  -0.028  0.00  0.00     0.003 A 
ATOM      3  C3  I4B d   1      -1.098  -1.725   0.464  0.00  0.00     0.002 A 
ATOM      4  C4  I4B d   1      -1.437  -1.889   1.791  0.00  0.00    -0.004 A 
ATOM      5  C5  I4B d   1      -1.566  -0.779   2.621  0.00  0.00     0.002 A 
ATOM      6  C6  I4B d   1      -1.316   0.506   2.119  0.00  0.00     0.003 A 
ENDROOT
BRANCH   1   7
ATOM      7  C1' I4B d   1      -0.572   2.014   0.255  0.00  0.00     0.060 C 
BRANCH   7   8
ATOM      8  C2' I4B d   1      -0.056   2.860   1.402  0.00  0.00    -0.013 C 
ATOM      9  C4' I4B d   1       1.402   3.190   1.223  0.00  0.00     0.013 C 
ATOM     10  C3' I4B d   1      -0.889   4.105   1.468  0.00  0.00     0.013 C 
ENDBRANCH   7   8
ENDBRANCH   1   7
TORSDOF 2
ENDMDL
