MODEL 1
REMARK minimizedAffinity -4.7282896
REMARK minimizedRMSD -1
REMARK  2 active torsions:
REMARK  status: ('A' for Active; 'I' for Inactive)
REMARK    1  A    between atoms: C2'_3  and  C1'_4 
REMARK    2  A    between atoms: C1'_4  and  C1_5 
ROOT
ATOM      1  C1  I4B d   1       0.837   0.723  -0.362  0.00  0.00    -0.075 A 
ATOM      2  C2  I4B d   1       1.573   1.573   0.425  0.00  0.00     0.003 A 
ATOM      3  C3  I4B d   1       2.896   1.920   0.057  0.00  0.00     0.002 A 
ATOM      4  C4  I4B d   1       3.456   1.358  -1.072  0.00  0.00    -0.004 A 
ATOM      5  C5  I4B d   1       2.701   0.515  -1.881  0.00  0.00     0.002 A 
ATOM      6  C6  I4B d   1       1.379   0.204  -1.531  0.00  0.00     0.003 A 
ENDROOT
BRANCH   1   7
ATOM      7  C1' I4B d   1      -0.544   0.352   0.075  0.00  0.00     0.060 C 
BRANCH   7   8
ATOM      8  C2' I4B d   1      -0.432  -0.799   1.053  0.00  0.00    -0.013 C 
ATOM      9  C4' I4B d   1      -0.816  -0.371   2.445  0.00  0.00     0.013 C 
ATOM     10  C3' I4B d   1      -1.313  -1.910   0.566  0.00  0.00     0.013 C 
ENDBRANCH   7   8
ENDBRANCH   1   7
TORSDOF 2
ENDMDL
