MODEL 1
REMARK minimizedAffinity 2.96574378
REMARK minimizedRMSD -1
REMARK  2 active torsions:
REMARK  status: ('A' for Active; 'I' for Inactive)
REMARK    1  A    between atoms: C2'_3  and  C1'_4 
REMARK    2  A    between atoms: C1'_4  and  C1_5 
ROOT
ATOM      1  C1  I4B d   1      -0.643   0.424   0.720  0.00  0.00    -0.075 A 
ATOM      2  C2  I4B d   1      -0.437  -0.793   0.121  0.00  0.00     0.003 A 
ATOM      3  C3  I4B d   1      -0.733  -1.990   0.817  0.00  0.00     0.002 A 
ATOM      4  C4  I4B d   1      -1.182  -1.925   2.120  0.00  0.00    -0.004 A 
ATOM      5  C5  I4B d   1      -1.413  -0.689   2.718  0.00  0.00     0.002 A 
ATOM      6  C6  I4B d   1      -1.154   0.493   2.010  0.00  0.00     0.003 A 
ENDROOT
BRANCH   1   7
ATOM      7  C1' I4B d   1      -0.289   1.667  -0.033  0.00  0.00     0.060 C 
BRANCH   7   8
ATOM      8  C2' I4B d   1       0.573   2.528   0.868  0.00  0.00    -0.013 C 
ATOM      9  C4' I4B d   1       2.038   2.292   0.609  0.00  0.00     0.013 C 
ATOM     10  C3' I4B d   1       0.205   3.962   0.628  0.00  0.00     0.013 C 
ENDBRANCH   7   8
ENDBRANCH   1   7
TORSDOF 2
ENDMDL
