MODEL 1
REMARK minimizedAffinity -0.36306265
REMARK minimizedRMSD -1
REMARK  2 active torsions:
REMARK  status: ('A' for Active; 'I' for Inactive)
REMARK    1  A    between atoms: C2'_3  and  C1'_4 
REMARK    2  A    between atoms: C1'_4  and  C1_5 
ROOT
ATOM      1  C1  I4B d   1       0.623   1.556   0.333  0.00  0.00    -0.075 A 
ATOM      2  C2  I4B d   1       1.016   2.649   1.065  0.00  0.00     0.003 A 
ATOM      3  C3  I4B d   1       2.368   3.069   1.046  0.00  0.00     0.002 A 
ATOM      4  C4  I4B d   1       3.296   2.344   0.328  0.00  0.00    -0.004 A 
ATOM      5  C5  I4B d   1       2.891   1.250  -0.432  0.00  0.00     0.002 A 
ATOM      6  C6  I4B d   1       1.544   0.861  -0.440  0.00  0.00     0.003 A 
ENDROOT
BRANCH   1   7
ATOM      7  C1' I4B d   1      -0.807   1.120   0.401  0.00  0.00     0.060 C 
BRANCH   7   8
ATOM      8  C2' I4B d   1      -0.938   0.130   1.541  0.00  0.00    -0.013 C 
ATOM      9  C4' I4B d   1      -2.066   0.510   2.464  0.00  0.00     0.013 C 
ATOM     10  C3' I4B d   1      -1.157  -1.230   0.950  0.00  0.00     0.013 C 
ENDBRANCH   7   8
ENDBRANCH   1   7
TORSDOF 2
ENDMDL
