MODEL 1
REMARK minimizedAffinity -4.43036795
REMARK minimizedRMSD -1
REMARK  2 active torsions:
REMARK  status: ('A' for Active; 'I' for Inactive)
REMARK    1  A    between atoms: C2'_3  and  C1'_4 
REMARK    2  A    between atoms: C1'_4  and  C1_5 
ROOT
ATOM      1  C1  I4B d   1       0.299   1.106  -0.603  0.00  0.00    -0.075 A 
ATOM      2  C2  I4B d   1       0.000   0.378  -1.727  0.00  0.00     0.003 A 
ATOM      3  C3  I4B d   1       1.027  -0.002  -2.625  0.00  0.00     0.002 A 
ATOM      4  C4  I4B d   1       2.323   0.407  -2.387  0.00  0.00    -0.004 A 
ATOM      5  C5  I4B d   1       2.629   1.125  -1.234  0.00  0.00     0.002 A 
ATOM      6  C6  I4B d   1       1.613   1.466  -0.330  0.00  0.00     0.003 A 
ENDROOT
BRANCH   1   7
ATOM      7  C1' I4B d   1      -0.814   1.518   0.307  0.00  0.00     0.060 C 
BRANCH   7   8
ATOM      8  C2' I4B d   1      -1.083   0.375   1.264  0.00  0.00    -0.013 C 
ATOM      9  C4' I4B d   1      -1.140  -0.943   0.537  0.00  0.00     0.013 C 
ATOM     10  C3' I4B d   1      -0.000   0.375   2.301  0.00  0.00     0.013 C 
ENDBRANCH   7   8
ENDBRANCH   1   7
TORSDOF 2
ENDMDL
