MODEL 1
REMARK minimizedAffinity -4.17936182
REMARK minimizedRMSD -1
REMARK  2 active torsions:
REMARK  status: ('A' for Active; 'I' for Inactive)
REMARK    1  A    between atoms: C1_2  and  C2_3 
REMARK    2  A    between atoms: C2_3  and  C3_4 
ROOT
ATOM      1  C3  UNL d   1       0.216   0.031   0.060  0.00  0.00    -0.075 A 
ATOM      2  C4  UNL d   1      -1.007   0.565  -0.372  0.00  0.00     0.002 A 
ATOM      3  C5  UNL d   1      -1.861   1.200   0.530  0.00  0.00     0.002 A 
ATOM      4  C6  UNL d   1      -1.509   1.300   1.875  0.00  0.00    -0.004 A 
ATOM      5  C7  UNL d   1      -0.305   0.758   2.318  0.00  0.00     0.002 A 
ATOM      6  C8  UNL d   1       0.554   0.126   1.417  0.00  0.00     0.002 A 
ENDROOT
BRANCH   1   7
ATOM      7  C2  UNL d   1       1.158  -0.631  -0.916  0.00  0.00     0.056 C 
BRANCH   7   8
ATOM      8  C1  UNL d   1       0.721  -2.034  -1.351  0.00  0.00     0.007 C 
ATOM      9  C   UNL d   1       0.468  -2.148  -2.848  0.00  0.00     0.009 C 
ENDBRANCH   7   8
ENDBRANCH   1   7
TORSDOF 2
ENDMDL
