MODEL 1
REMARK minimizedAffinity -5.96760368
REMARK minimizedRMSD -1
REMARK  2 active torsions:
REMARK  status: ('A' for Active; 'I' for Inactive)
REMARK    1  A    between atoms: C1_2  and  C2_3 
REMARK    2  A    between atoms: C2_3  and  C3_4 
ROOT
ATOM      1  C3  UNL d   1      -0.667   0.952   0.365  0.00  0.00    -0.075 A 
ATOM      2  C4  UNL d   1      -0.250   1.953  -0.524  0.00  0.00     0.002 A 
ATOM      3  C5  UNL d   1      -0.860   3.208  -0.516  0.00  0.00     0.002 A 
ATOM      4  C6  UNL d   1      -1.900   3.474   0.372  0.00  0.00    -0.004 A 
ATOM      5  C7  UNL d   1      -2.334   2.481   1.248  0.00  0.00     0.002 A 
ATOM      6  C8  UNL d   1      -1.723   1.227   1.245  0.00  0.00     0.002 A 
ENDROOT
BRANCH   1   7
ATOM      7  C2  UNL d   1       0.009  -0.398   0.381  0.00  0.00     0.056 C 
BRANCH   7   8
ATOM      8  C1  UNL d   1       1.033  -0.596  -0.742  0.00  0.00     0.007 C 
ATOM      9  C   UNL d   1       1.388  -2.057  -0.979  0.00  0.00     0.009 C 
ENDBRANCH   7   8
ENDBRANCH   1   7
TORSDOF 2
ENDMDL
