MODEL 1
REMARK minimizedAffinity -5.08291864
REMARK minimizedRMSD -1
REMARK  2 active torsions:
REMARK  status: ('A' for Active; 'I' for Inactive)
REMARK    1  A    between atoms: C1_2  and  C2_3 
REMARK    2  A    between atoms: C2_3  and  C3_4 
ROOT
ATOM      1  C3  UNL d   1       0.206  -0.258  -0.044  0.00  0.00    -0.075 A 
ATOM      2  C4  UNL d   1      -0.976   0.232  -0.618  0.00  0.00     0.002 A 
ATOM      3  C5  UNL d   1      -1.867   0.995   0.138  0.00  0.00     0.002 A 
ATOM      4  C6  UNL d   1      -1.593   1.268   1.477  0.00  0.00    -0.004 A 
ATOM      5  C7  UNL d   1      -0.430   0.771   2.061  0.00  0.00     0.002 A 
ATOM      6  C8  UNL d   1       0.465   0.012   1.306  0.00  0.00     0.002 A 
ENDROOT
BRANCH   1   7
ATOM      7  C2  UNL d   1       1.188  -1.060  -0.865  0.00  0.00     0.056 C 
BRANCH   7   8
ATOM      8  C1  UNL d   1       0.645  -2.410  -1.344  0.00  0.00     0.007 C 
ATOM      9  C   UNL d   1       0.707  -2.580  -2.857  0.00  0.00     0.009 C 
ENDBRANCH   7   8
ENDBRANCH   1   7
TORSDOF 2
ENDMDL
