MODEL 1
REMARK minimizedAffinity -4.67175484
REMARK minimizedRMSD -1
REMARK  2 active torsions:
REMARK  status: ('A' for Active; 'I' for Inactive)
REMARK    1  A    between atoms: C1_2  and  C2_3 
REMARK    2  A    between atoms: C2_3  and  C3_4 
ROOT
ATOM      1  C3  UNL d   1       0.558  -1.523  -1.007  0.00  0.00    -0.075 A 
ATOM      2  C4  UNL d   1       0.198  -1.356  -2.352  0.00  0.00     0.002 A 
ATOM      3  C5  UNL d   1      -0.032  -2.465  -3.167  0.00  0.00     0.002 A 
ATOM      4  C6  UNL d   1       0.104  -3.752  -2.651  0.00  0.00    -0.004 A 
ATOM      5  C7  UNL d   1       0.477  -3.930  -1.321  0.00  0.00     0.002 A 
ATOM      6  C8  UNL d   1       0.704  -2.822  -0.502  0.00  0.00     0.002 A 
ENDROOT
BRANCH   1   7
ATOM      7  C2  UNL d   1       0.779  -0.327  -0.112  0.00  0.00     0.056 C 
BRANCH   7   8
ATOM      8  C1  UNL d   1      -0.481   0.509   0.135  0.00  0.00     0.007 C 
ATOM      9  C   UNL d   1      -0.819   0.664   1.612  0.00  0.00     0.009 C 
ENDBRANCH   7   8
ENDBRANCH   1   7
TORSDOF 2
ENDMDL
