MODEL 1
REMARK minimizedAffinity -5.85078764
REMARK minimizedRMSD -1
REMARK  2 active torsions:
REMARK  status: ('A' for Active; 'I' for Inactive)
REMARK    1  A    between atoms: C1_2  and  C2_3 
REMARK    2  A    between atoms: C2_3  and  C3_4 
ROOT
ATOM      1  C3  UNL d   1       0.118   0.930  -0.335  0.00  0.00    -0.075 A 
ATOM      2  C4  UNL d   1       0.172   2.196  -0.936  0.00  0.00     0.002 A 
ATOM      3  C5  UNL d   1      -0.533   3.269  -0.391  0.00  0.00     0.002 A 
ATOM      4  C6  UNL d   1      -1.307   3.089   0.753  0.00  0.00    -0.004 A 
ATOM      5  C7  UNL d   1      -1.381   1.832   1.349  0.00  0.00     0.002 A 
ATOM      6  C8  UNL d   1      -0.673   0.757   0.808  0.00  0.00     0.002 A 
ENDROOT
BRANCH   1   7
ATOM      7  C2  UNL d   1       0.903  -0.229  -0.903  0.00  0.00     0.056 C 
BRANCH   7   8
ATOM      8  C1  UNL d   1       0.697  -1.549  -0.152  0.00  0.00     0.007 C 
ATOM      9  C   UNL d   1       0.942  -2.777  -1.019  0.00  0.00     0.009 C 
ENDBRANCH   7   8
ENDBRANCH   1   7
TORSDOF 2
ENDMDL
