MODEL 1
REMARK minimizedAffinity -5.84580564
REMARK minimizedRMSD -1
REMARK  2 active torsions:
REMARK  status: ('A' for Active; 'I' for Inactive)
REMARK    1  A    between atoms: C1_2  and  C2_3 
REMARK    2  A    between atoms: C2_3  and  C3_4 
ROOT
ATOM      1  C3  UNL d   1      -0.511   0.871   0.545  0.00  0.00    -0.075 A 
ATOM      2  C4  UNL d   1      -1.437   1.432   1.437  0.00  0.00     0.002 A 
ATOM      3  C5  UNL d   1      -1.852   2.755   1.288  0.00  0.00     0.002 A 
ATOM      4  C6  UNL d   1      -1.341   3.536   0.253  0.00  0.00    -0.004 A 
ATOM      5  C7  UNL d   1      -0.409   2.994  -0.629  0.00  0.00     0.002 A 
ATOM      6  C8  UNL d   1       0.005   1.669  -0.485  0.00  0.00     0.002 A 
ENDROOT
BRANCH   1   7
ATOM      7  C2  UNL d   1      -0.080  -0.570   0.684  0.00  0.00     0.056 C 
BRANCH   7   8
ATOM      8  C1  UNL d   1       1.048  -0.978  -0.270  0.00  0.00     0.007 C 
ATOM      9  C   UNL d   1       0.756  -2.265  -1.029  0.00  0.00     0.009 C 
ENDBRANCH   7   8
ENDBRANCH   1   7
TORSDOF 2
ENDMDL
