MODEL 1
REMARK minimizedAffinity -3.77593994
REMARK minimizedRMSD -1
REMARK  2 active torsions:
REMARK  status: ('A' for Active; 'I' for Inactive)
REMARK    1  A    between atoms: C1_2  and  C2_3 
REMARK    2  A    between atoms: C2_3  and  C3_4 
ROOT
ATOM      1  C3  UNL d   1      -0.019  -1.141  -1.361  0.00  0.00    -0.075 A 
ATOM      2  C4  UNL d   1       0.163  -1.159  -2.751  0.00  0.00     0.002 A 
ATOM      3  C5  UNL d   1       0.124  -2.363  -3.455  0.00  0.00     0.002 A 
ATOM      4  C6  UNL d   1      -0.087  -3.562  -2.779  0.00  0.00    -0.004 A 
ATOM      5  C7  UNL d   1      -0.252  -3.558  -1.396  0.00  0.00     0.002 A 
ATOM      6  C8  UNL d   1      -0.218  -2.355  -0.689  0.00  0.00     0.002 A 
ENDROOT
BRANCH   1   7
ATOM      7  C2  UNL d   1      -0.007   0.161  -0.596  0.00  0.00     0.056 C 
BRANCH   7   8
ATOM      8  C1  UNL d   1      -0.489   0.038   0.853  0.00  0.00     0.007 C 
ATOM      9  C   UNL d   1      -0.569   1.377   1.574  0.00  0.00     0.009 C 
ENDBRANCH   7   8
ENDBRANCH   1   7
TORSDOF 2
ENDMDL
