MODEL 1
REMARK minimizedAffinity -5.2771616
REMARK minimizedRMSD -1
REMARK  2 active torsions:
REMARK  status: ('A' for Active; 'I' for Inactive)
REMARK    1  A    between atoms: C1_2  and  C2_3 
REMARK    2  A    between atoms: C2_3  and  C3_4 
ROOT
ATOM      1  C3  UNL d   1      -0.863   1.357  -0.283  0.00  0.00    -0.075 A 
ATOM      2  C4  UNL d   1      -0.282   0.100  -0.058  0.00  0.00     0.002 A 
ATOM      3  C5  UNL d   1       0.978  -0.200  -0.577  0.00  0.00     0.002 A 
ATOM      4  C6  UNL d   1       1.667   0.745  -1.333  0.00  0.00    -0.004 A 
ATOM      5  C7  UNL d   1       1.093   1.991  -1.576  0.00  0.00     0.002 A 
ATOM      6  C8  UNL d   1      -0.166   2.296  -1.055  0.00  0.00     0.002 A 
ENDROOT
BRANCH   1   7
ATOM      7  C2  UNL d   1      -2.213   1.699   0.300  0.00  0.00     0.056 C 
BRANCH   7   8
ATOM      8  C1  UNL d   1      -2.148   2.610   1.531  0.00  0.00     0.007 C 
ATOM      9  C   UNL d   1      -0.926   2.356   2.403  0.00  0.00     0.009 C 
ENDBRANCH   7   8
ENDBRANCH   1   7
TORSDOF 2
ENDMDL
