MODEL 1
REMARK minimizedAffinity -5.31050158
REMARK minimizedRMSD -1
REMARK  2 active torsions:
REMARK  status: ('A' for Active; 'I' for Inactive)
REMARK    1  A    between atoms: C1_2  and  C2_3 
REMARK    2  A    between atoms: C2_3  and  C3_4 
ROOT
ATOM      1  C3  UNL d   1      -0.650   1.136   0.549  0.00  0.00    -0.075 A 
ATOM      2  C4  UNL d   1      -0.321   2.077  -0.437  0.00  0.00     0.002 A 
ATOM      3  C5  UNL d   1      -0.935   3.330  -0.455  0.00  0.00     0.002 A 
ATOM      4  C6  UNL d   1      -1.892   3.653   0.505  0.00  0.00    -0.004 A 
ATOM      5  C7  UNL d   1      -2.239   2.721   1.479  0.00  0.00     0.002 A 
ATOM      6  C8  UNL d   1      -1.623   1.468   1.502  0.00  0.00     0.002 A 
ENDROOT
BRANCH   1   7
ATOM      7  C2  UNL d   1       0.032  -0.210   0.592  0.00  0.00     0.056 C 
BRANCH   7   8
ATOM      8  C1  UNL d   1       0.863  -0.527  -0.655  0.00  0.00     0.007 C 
ATOM      9  C   UNL d   1       0.900  -2.012  -0.991  0.00  0.00     0.009 C 
ENDBRANCH   7   8
ENDBRANCH   1   7
TORSDOF 2
ENDMDL
