MODEL 1
REMARK minimizedAffinity -4.20607901
REMARK minimizedRMSD -1
REMARK  2 active torsions:
REMARK  status: ('A' for Active; 'I' for Inactive)
REMARK    1  A    between atoms: C1_2  and  C2_3 
REMARK    2  A    between atoms: C2_3  and  C3_4 
ROOT
ATOM      1  C3  UNL d   1       0.221  -0.131   0.220  0.00  0.00    -0.075 A 
ATOM      2  C4  UNL d   1      -0.445  -0.292   1.444  0.00  0.00     0.002 A 
ATOM      3  C5  UNL d   1      -1.163   0.765   2.004  0.00  0.00     0.002 A 
ATOM      4  C6  UNL d   1      -1.216   1.996   1.355  0.00  0.00    -0.004 A 
ATOM      5  C7  UNL d   1      -0.545   2.173   0.147  0.00  0.00     0.002 A 
ATOM      6  C8  UNL d   1       0.170   1.116  -0.419  0.00  0.00     0.002 A 
ENDROOT
BRANCH   1   7
ATOM      7  C2  UNL d   1       0.975  -1.279  -0.406  0.00  0.00     0.056 C 
BRANCH   7   8
ATOM      8  C1  UNL d   1       0.310  -1.851  -1.663  0.00  0.00     0.007 C 
ATOM      9  C   UNL d   1       0.506  -3.353  -1.816  0.00  0.00     0.009 C 
ENDBRANCH   7   8
ENDBRANCH   1   7
TORSDOF 2
ENDMDL
