MODEL 1
REMARK minimizedAffinity -5.87146425
REMARK minimizedRMSD -1
REMARK  2 active torsions:
REMARK  status: ('A' for Active; 'I' for Inactive)
REMARK    1  A    between atoms: C1_2  and  C2_3 
REMARK    2  A    between atoms: C2_3  and  C3_4 
ROOT
ATOM      1  C3  UNL d   1      -0.223   0.272   0.210  0.00  0.00    -0.075 A 
ATOM      2  C4  UNL d   1      -0.337   0.311   1.607  0.00  0.00     0.002 A 
ATOM      3  C5  UNL d   1      -1.220   1.200   2.221  0.00  0.00     0.002 A 
ATOM      4  C6  UNL d   1      -1.990   2.066   1.449  0.00  0.00    -0.004 A 
ATOM      5  C7  UNL d   1      -1.873   2.048   0.061  0.00  0.00     0.002 A 
ATOM      6  C8  UNL d   1      -0.993   1.157  -0.557  0.00  0.00     0.002 A 
ENDROOT
BRANCH   1   7
ATOM      7  C2  UNL d   1       0.709  -0.708  -0.462  0.00  0.00     0.056 C 
BRANCH   7   8
ATOM      8  C1  UNL d   1      -0.008  -1.831  -1.219  0.00  0.00     0.007 C 
ATOM      9  C   UNL d   1       0.739  -3.158  -1.172  0.00  0.00     0.009 C 
ENDBRANCH   7   8
ENDBRANCH   1   7
TORSDOF 2
ENDMDL
