MODEL 1
REMARK minimizedAffinity -4.87603903
REMARK minimizedRMSD -1
REMARK  2 active torsions:
REMARK  status: ('A' for Active; 'I' for Inactive)
REMARK    1  A    between atoms: C1_2  and  C2_3 
REMARK    2  A    between atoms: C2_3  and  C3_4 
ROOT
ATOM      1  C3  UNL d   1      -0.089   0.668  -0.149  0.00  0.00    -0.075 A 
ATOM      2  C4  UNL d   1      -0.757   0.502   1.073  0.00  0.00     0.002 A 
ATOM      3  C5  UNL d   1      -1.626   1.486   1.545  0.00  0.00     0.002 A 
ATOM      4  C6  UNL d   1      -1.831   2.651   0.808  0.00  0.00    -0.004 A 
ATOM      5  C7  UNL d   1      -1.160   2.833  -0.399  0.00  0.00     0.002 A 
ATOM      6  C8  UNL d   1      -0.293   1.848  -0.876  0.00  0.00     0.002 A 
ENDROOT
BRANCH   1   7
ATOM      7  C2  UNL d   1       0.830  -0.406  -0.679  0.00  0.00     0.056 C 
BRANCH   7   8
ATOM      8  C1  UNL d   1       0.240  -1.215  -1.840  0.00  0.00     0.007 C 
ATOM      9  C   UNL d   1       0.363  -2.720  -1.647  0.00  0.00     0.009 C 
ENDBRANCH   7   8
ENDBRANCH   1   7
TORSDOF 2
ENDMDL
