MODEL 1
REMARK minimizedAffinity -4.07999706
REMARK minimizedRMSD -1
REMARK  0 active torsions:
REMARK  status: ('A' for Active; 'I' for Inactive)
ROOT
ATOM      1  C   UNL d   1       0.411  -0.797  -0.319  0.00  0.00     0.077 C 
ATOM      2  C1  UNL d   1       0.020   0.631  -0.084  0.00  0.00    -0.074 A 
ATOM      3  C2  UNL d   1       0.502   1.654  -0.907  0.00  0.00    -0.005 A 
ATOM      4  C3  UNL d   1       0.122   2.977  -0.682  0.00  0.00     0.006 A 
ATOM      5  C4  UNL d   1      -0.742   3.290   0.368  0.00  0.00    -0.005 A 
ATOM      6  C5  UNL d   1      -1.234   2.282   1.202  0.00  0.00    -0.074 A 
ATOM      7  C6  UNL d   1      -2.171   2.600   2.329  0.00  0.00     0.077 C 
ATOM      8  C7  UNL d   1      -0.854   0.954   0.964  0.00  0.00    -0.001 A 
ENDROOT
TORSDOF 0
ENDMDL
