MODEL 1
REMARK minimizedAffinity -3.58125544
REMARK minimizedRMSD -1
REMARK  0 active torsions:
REMARK  status: ('A' for Active; 'I' for Inactive)
ROOT
ATOM      1  C   UNL d   1      -2.235   2.140   1.306  0.00  0.00     0.077 C 
ATOM      2  C1  UNL d   1      -1.145   1.119   1.169  0.00  0.00    -0.074 A 
ATOM      3  C2  UNL d   1      -0.990   0.101   2.116  0.00  0.00    -0.005 A 
ATOM      4  C3  UNL d   1       0.023  -0.847   1.970  0.00  0.00     0.006 A 
ATOM      5  C4  UNL d   1       0.889  -0.787   0.878  0.00  0.00    -0.005 A 
ATOM      6  C5  UNL d   1       0.749   0.222  -0.079  0.00  0.00    -0.074 A 
ATOM      7  C6  UNL d   1       1.665   0.295  -1.265  0.00  0.00     0.077 C 
ATOM      8  C7  UNL d   1      -0.275   1.167   0.070  0.00  0.00    -0.001 A 
ENDROOT
TORSDOF 0
ENDMDL
