MODEL 1
REMARK minimizedAffinity -3.82957411
REMARK minimizedRMSD -1
REMARK  0 active torsions:
REMARK  status: ('A' for Active; 'I' for Inactive)
ROOT
ATOM      1  C   UNL d   1      -0.221   3.464  -0.746  0.00  0.00     0.077 C 
ATOM      2  C1  UNL d   1      -0.300   2.175   0.015  0.00  0.00    -0.074 A 
ATOM      3  C2  UNL d   1      -0.972   2.103   1.239  0.00  0.00    -0.005 A 
ATOM      4  C3  UNL d   1      -1.045   0.894   1.932  0.00  0.00     0.006 A 
ATOM      5  C4  UNL d   1      -0.447  -0.253   1.408  0.00  0.00    -0.005 A 
ATOM      6  C5  UNL d   1       0.229  -0.200   0.185  0.00  0.00    -0.074 A 
ATOM      7  C6  UNL d   1       0.869  -1.426  -0.396  0.00  0.00     0.077 C 
ATOM      8  C7  UNL d   1       0.292   1.016  -0.508  0.00  0.00    -0.001 A 
ENDROOT
TORSDOF 0
ENDMDL
