MODEL 1
REMARK minimizedAffinity 0.504602611
REMARK minimizedRMSD -1
REMARK  0 active torsions:
REMARK  status: ('A' for Active; 'I' for Inactive)
ROOT
ATOM      1  C   UNL d   1       1.190  -5.354  -1.135  0.00  0.00     0.077 C 
ATOM      2  C1  UNL d   1       1.053  -3.947  -1.635  0.00  0.00    -0.074 A 
ATOM      3  C2  UNL d   1       0.935  -3.678  -3.003  0.00  0.00    -0.005 A 
ATOM      4  C3  UNL d   1       0.799  -2.365  -3.452  0.00  0.00     0.006 A 
ATOM      5  C4  UNL d   1       0.779  -1.309  -2.541  0.00  0.00    -0.005 A 
ATOM      6  C5  UNL d   1       0.895  -1.558  -1.170  0.00  0.00    -0.074 A 
ATOM      7  C6  UNL d   1       0.866  -0.435  -0.176  0.00  0.00     0.077 C 
ATOM      8  C7  UNL d   1       1.025  -2.881  -0.725  0.00  0.00    -0.001 A 
ENDROOT
TORSDOF 0
ENDMDL
