MODEL 1
REMARK minimizedAffinity -4.37265205
REMARK minimizedRMSD -1
REMARK  0 active torsions:
REMARK  status: ('A' for Active; 'I' for Inactive)
ROOT
ATOM      1  C   UNL d   1       1.338   0.093  -1.161  0.00  0.00     0.077 C 
ATOM      2  C1  UNL d   1       0.232   0.365  -0.185  0.00  0.00    -0.074 A 
ATOM      3  C2  UNL d   1      -0.643   1.440  -0.371  0.00  0.00    -0.005 A 
ATOM      4  C3  UNL d   1      -1.672   1.675   0.541  0.00  0.00     0.006 A 
ATOM      5  C4  UNL d   1      -1.838   0.837   1.645  0.00  0.00    -0.005 A 
ATOM      6  C5  UNL d   1      -0.973  -0.243   1.846  0.00  0.00    -0.074 A 
ATOM      7  C6  UNL d   1      -1.143  -1.159   3.022  0.00  0.00     0.077 C 
ATOM      8  C7  UNL d   1       0.055  -0.476   0.922  0.00  0.00    -0.001 A 
ENDROOT
TORSDOF 0
ENDMDL
