MODEL 1
REMARK minimizedAffinity 1.86753857
REMARK minimizedRMSD -1
REMARK  0 active torsions:
REMARK  status: ('A' for Active; 'I' for Inactive)
ROOT
ATOM      1  C   UNL d   1       0.824  -2.550  -3.035  0.00  0.00     0.077 C 
ATOM      2  C1  UNL d   1       1.210  -3.755  -2.229  0.00  0.00    -0.074 A 
ATOM      3  C2  UNL d   1       0.385  -4.883  -2.183  0.00  0.00    -0.005 A 
ATOM      4  C3  UNL d   1       0.761  -6.000  -1.438  0.00  0.00     0.006 A 
ATOM      5  C4  UNL d   1       1.965  -6.000  -0.731  0.00  0.00    -0.005 A 
ATOM      6  C5  UNL d   1       2.803  -4.881  -0.766  0.00  0.00    -0.074 A 
ATOM      7  C6  UNL d   1       4.105  -4.869  -0.021  0.00  0.00     0.077 C 
ATOM      8  C7  UNL d   1       2.421  -3.765  -1.523  0.00  0.00    -0.001 A 
ENDROOT
TORSDOF 0
ENDMDL
