MODEL 1
REMARK minimizedAffinity -4.60362148
REMARK minimizedRMSD -1
REMARK  0 active torsions:
REMARK  status: ('A' for Active; 'I' for Inactive)
ROOT
ATOM      1  C   UNL d   1      -2.389   2.278   1.379  0.00  0.00     0.077 C 
ATOM      2  C1  UNL d   1      -1.253   1.383   0.980  0.00  0.00    -0.074 A 
ATOM      3  C2  UNL d   1      -0.912   0.267   1.750  0.00  0.00    -0.005 A 
ATOM      4  C3  UNL d   1       0.140  -0.562   1.361  0.00  0.00     0.006 A 
ATOM      5  C4  UNL d   1       0.862  -0.283   0.199  0.00  0.00    -0.005 A 
ATOM      6  C5  UNL d   1       0.535   0.829  -0.584  0.00  0.00    -0.074 A 
ATOM      7  C6  UNL d   1       1.293   1.138  -1.841  0.00  0.00     0.077 C 
ATOM      8  C7  UNL d   1      -0.529   1.652  -0.190  0.00  0.00    -0.001 A 
ENDROOT
TORSDOF 0
ENDMDL
