MODEL 1
REMARK minimizedAffinity -4.91197205
REMARK minimizedRMSD -1
REMARK  0 active torsions:
REMARK  status: ('A' for Active; 'I' for Inactive)
ROOT
ATOM      1  C   UNL d   1       1.384   1.101  -1.951  0.00  0.00     0.077 C 
ATOM      2  C1  UNL d   1       0.553   0.680  -0.776  0.00  0.00    -0.074 A 
ATOM      3  C2  UNL d   1       0.858  -0.481  -0.059  0.00  0.00    -0.005 A 
ATOM      4  C3  UNL d   1       0.081  -0.855   1.037  0.00  0.00     0.006 A 
ATOM      5  C4  UNL d   1      -1.007  -0.073   1.427  0.00  0.00    -0.005 A 
ATOM      6  C5  UNL d   1      -1.327   1.092   0.722  0.00  0.00    -0.074 A 
ATOM      7  C6  UNL d   1      -2.487   1.949   1.134  0.00  0.00     0.077 C 
ATOM      8  C7  UNL d   1      -0.537   1.465  -0.374  0.00  0.00    -0.001 A 
ENDROOT
TORSDOF 0
ENDMDL
