MODEL 1
REMARK minimizedAffinity -3.7092464
REMARK minimizedRMSD -1
REMARK  0 active torsions:
REMARK  status: ('A' for Active; 'I' for Inactive)
ROOT
ATOM      1  C   UNL d   1      -2.375   2.570   0.967  0.00  0.00     0.077 C 
ATOM      2  C1  UNL d   1      -1.508   1.347   0.994  0.00  0.00    -0.074 A 
ATOM      3  C2  UNL d   1      -1.349   0.603   2.168  0.00  0.00    -0.005 A 
ATOM      4  C3  UNL d   1      -0.547  -0.538   2.176  0.00  0.00     0.006 A 
ATOM      5  C4  UNL d   1       0.104  -0.946   1.011  0.00  0.00    -0.005 A 
ATOM      6  C5  UNL d   1      -0.043  -0.216  -0.172  0.00  0.00    -0.074 A 
ATOM      7  C6  UNL d   1       0.643  -0.647  -1.435  0.00  0.00     0.077 C 
ATOM      8  C7  UNL d   1      -0.856   0.925  -0.174  0.00  0.00    -0.001 A 
ENDROOT
TORSDOF 0
ENDMDL
