MODEL 1
REMARK minimizedAffinity -4.96289349
REMARK minimizedRMSD -1
REMARK  0 active torsions:
REMARK  status: ('A' for Active; 'I' for Inactive)
ROOT
ATOM      1  C   UNL d   1       0.779   0.149  -1.705  0.00  0.00     0.077 C 
ATOM      2  C1  UNL d   1       0.092   0.246  -0.375  0.00  0.00    -0.074 A 
ATOM      3  C2  UNL d   1       0.254  -0.752   0.592  0.00  0.00    -0.005 A 
ATOM      4  C3  UNL d   1      -0.383  -0.643   1.828  0.00  0.00     0.006 A 
ATOM      5  C4  UNL d   1      -1.188   0.462   2.109  0.00  0.00    -0.005 A 
ATOM      6  C5  UNL d   1      -1.361   1.469   1.154  0.00  0.00    -0.074 A 
ATOM      7  C6  UNL d   1      -2.215   2.668   1.443  0.00  0.00     0.077 C 
ATOM      8  C7  UNL d   1      -0.711   1.356  -0.083  0.00  0.00    -0.001 A 
ENDROOT
TORSDOF 0
ENDMDL
