MODEL 1
REMARK minimizedAffinity -3.51459885
REMARK minimizedRMSD -1
REMARK  0 active torsions:
REMARK  status: ('A' for Active; 'I' for Inactive)
ROOT
ATOM      1  C   UNL d   1       0.958  -0.972  -1.494  0.00  0.00     0.077 C 
ATOM      2  C1  UNL d   1       0.381  -0.524  -0.184  0.00  0.00    -0.074 A 
ATOM      3  C2  UNL d   1       0.821  -1.079   1.022  0.00  0.00    -0.005 A 
ATOM      4  C3  UNL d   1       0.282  -0.645   2.233  0.00  0.00     0.006 A 
ATOM      5  C4  UNL d   1      -0.701   0.345   2.251  0.00  0.00    -0.005 A 
ATOM      6  C5  UNL d   1      -1.152   0.912   1.055  0.00  0.00    -0.074 A 
ATOM      7  C6  UNL d   1      -2.200   1.985   1.056  0.00  0.00     0.077 C 
ATOM      8  C7  UNL d   1      -0.601   0.476  -0.158  0.00  0.00    -0.001 A 
ENDROOT
TORSDOF 0
ENDMDL
