MODEL 1
REMARK minimizedAffinity -5.32560205
REMARK minimizedRMSD -1
REMARK  0 active torsions:
REMARK  status: ('A' for Active; 'I' for Inactive)
ROOT
ATOM      1  C   UNL d   1      -0.353  -0.881   0.334  0.00  0.00     0.077 C 
ATOM      2  C1  UNL d   1      -0.402   0.578  -0.012  0.00  0.00    -0.074 A 
ATOM      3  C2  UNL d   1       0.345   1.089  -1.077  0.00  0.00    -0.005 A 
ATOM      4  C3  UNL d   1       0.282   2.446  -1.394  0.00  0.00     0.006 A 
ATOM      5  C4  UNL d   1      -0.528   3.304  -0.649  0.00  0.00    -0.005 A 
ATOM      6  C5  UNL d   1      -1.284   2.811   0.419  0.00  0.00    -0.074 A 
ATOM      7  C6  UNL d   1      -2.168   3.717   1.224  0.00  0.00     0.077 C 
ATOM      8  C7  UNL d   1      -1.220   1.445   0.727  0.00  0.00    -0.001 A 
ENDROOT
TORSDOF 0
ENDMDL
