MODEL 1
REMARK minimizedAffinity -6.1022625
REMARK minimizedRMSD -1
REMARK  0 active torsions:
REMARK  status: ('A' for Active; 'I' for Inactive)
ROOT
ATOM      1  C   UNL d   1      -2.210   2.646   1.462  0.00  0.00     0.077 C 
ATOM      2  C1  UNL d   1      -1.053   2.254   0.593  0.00  0.00    -0.074 A 
ATOM      3  C2  UNL d   1      -0.344   3.214  -0.136  0.00  0.00    -0.005 A 
ATOM      4  C3  UNL d   1       0.737   2.835  -0.933  0.00  0.00     0.006 A 
ATOM      5  C4  UNL d   1       1.119   1.495  -1.008  0.00  0.00    -0.005 A 
ATOM      6  C5  UNL d   1       0.423   0.521  -0.285  0.00  0.00    -0.074 A 
ATOM      7  C6  UNL d   1       0.827  -0.922  -0.347  0.00  0.00     0.077 C 
ATOM      8  C7  UNL d   1      -0.658   0.911   0.519  0.00  0.00    -0.001 A 
ENDROOT
TORSDOF 0
ENDMDL
