MODEL 1
REMARK minimizedAffinity -2.94178677
REMARK minimizedRMSD -1
REMARK  0 active torsions:
REMARK  status: ('A' for Active; 'I' for Inactive)
ROOT
ATOM      1  C   UNL d   1       2.750  -5.643   0.168  0.00  0.00     0.077 C 
ATOM      2  C1  UNL d   1       1.853  -4.786  -0.674  0.00  0.00    -0.074 A 
ATOM      3  C2  UNL d   1       0.730  -5.326  -1.309  0.00  0.00    -0.005 A 
ATOM      4  C3  UNL d   1      -0.101  -4.515  -2.081  0.00  0.00     0.006 A 
ATOM      5  C4  UNL d   1       0.183  -3.156  -2.226  0.00  0.00    -0.005 A 
ATOM      6  C5  UNL d   1       1.300  -2.597  -1.598  0.00  0.00    -0.074 A 
ATOM      7  C6  UNL d   1       1.613  -1.137  -1.736  0.00  0.00     0.077 C 
ATOM      8  C7  UNL d   1       2.126  -3.418  -0.818  0.00  0.00    -0.001 A 
ENDROOT
TORSDOF 0
ENDMDL
