MODEL 1
REMARK minimizedAffinity -2.16845345
REMARK minimizedRMSD -1
REMARK  0 active torsions:
REMARK  status: ('A' for Active; 'I' for Inactive)
ROOT
ATOM      1  C   UNL d   1       2.282  -5.146  -0.530  0.00  0.00     0.077 C 
ATOM      2  C1  UNL d   1       1.616  -3.930  -1.102  0.00  0.00    -0.074 A 
ATOM      3  C2  UNL d   1       1.064  -3.951  -2.387  0.00  0.00    -0.005 A 
ATOM      4  C3  UNL d   1       0.439  -2.815  -2.902  0.00  0.00     0.006 A 
ATOM      5  C4  UNL d   1       0.361  -1.649  -2.140  0.00  0.00    -0.005 A 
ATOM      6  C5  UNL d   1       0.907  -1.610  -0.853  0.00  0.00    -0.074 A 
ATOM      7  C6  UNL d   1       0.823  -0.367  -0.017  0.00  0.00     0.077 C 
ATOM      8  C7  UNL d   1       1.527  -2.757  -0.340  0.00  0.00    -0.001 A 
ENDROOT
TORSDOF 0
ENDMDL
