MODEL 1
REMARK minimizedAffinity -4.28397655
REMARK minimizedRMSD -1
REMARK  1 active torsions:
REMARK  status: ('A' for Active; 'I' for Inactive)
REMARK    1  A    between atoms: C1_2  and  C2_3 
ROOT
ATOM      1  C2  UNL d   1       0.669   1.404   0.564  0.00  0.00    -0.077 A 
ATOM      2  C3  UNL d   1       0.554   1.073  -0.794  0.00  0.00     0.002 A 
ATOM      3  C4  UNL d   1      -0.251   0.005  -1.194  0.00  0.00     0.002 A 
ATOM      4  C5  UNL d   1      -0.950  -0.738  -0.244  0.00  0.00    -0.004 A 
ATOM      5  C6  UNL d   1      -0.840  -0.417   1.108  0.00  0.00     0.002 A 
ATOM      6  C7  UNL d   1      -0.035   0.649   1.510  0.00  0.00     0.002 A 
ENDROOT
BRANCH   1   7
ATOM      7  C1  UNL d   1       1.498   2.587   0.993  0.00  0.00     0.055 C 
ATOM      8  C   UNL d   1       0.690   3.875   0.948  0.00  0.00     0.019 C 
ENDBRANCH   1   7
TORSDOF 1
ENDMDL
