MODEL 1
REMARK minimizedAffinity -2.59127903
REMARK minimizedRMSD -1
REMARK  1 active torsions:
REMARK  status: ('A' for Active; 'I' for Inactive)
REMARK    1  A    between atoms: C1_2  and  C2_3 
ROOT
ATOM      1  C2  UNL d   1      -0.158  -0.964   0.510  0.00  0.00    -0.077 A 
ATOM      2  C3  UNL d   1       0.841  -1.584  -0.253  0.00  0.00     0.002 A 
ATOM      3  C4  UNL d   1       0.766  -2.948  -0.542  0.00  0.00     0.002 A 
ATOM      4  C5  UNL d   1      -0.309  -3.701  -0.075  0.00  0.00    -0.004 A 
ATOM      5  C6  UNL d   1      -1.307  -3.094   0.686  0.00  0.00     0.002 A 
ATOM      6  C7  UNL d   1      -1.233  -1.731   0.976  0.00  0.00     0.002 A 
ENDROOT
BRANCH   1   7
ATOM      7  C1  UNL d   1      -0.104   0.517   0.780  0.00  0.00     0.055 C 
ATOM      8  C   UNL d   1       0.224   1.299  -0.483  0.00  0.00     0.019 C 
ENDBRANCH   1   7
TORSDOF 1
ENDMDL
