MODEL 1
REMARK minimizedAffinity -4.6500206
REMARK minimizedRMSD -1
REMARK  1 active torsions:
REMARK  status: ('A' for Active; 'I' for Inactive)
REMARK    1  A    between atoms: C1_2  and  C2_3 
ROOT
ATOM      1  C2  UNL d   1       0.319  -1.520  -0.146  0.00  0.00    -0.077 A 
ATOM      2  C3  UNL d   1      -0.111  -0.484   0.696  0.00  0.00     0.002 A 
ATOM      3  C4  UNL d   1      -0.110   0.838   0.247  0.00  0.00     0.002 A 
ATOM      4  C5  UNL d   1       0.315   1.136  -1.046  0.00  0.00    -0.004 A 
ATOM      5  C6  UNL d   1       0.747   0.113  -1.890  0.00  0.00     0.002 A 
ATOM      6  C7  UNL d   1       0.748  -1.208  -1.442  0.00  0.00     0.002 A 
ENDROOT
BRANCH   1   7
ATOM      7  C1  UNL d   1       0.272  -2.951   0.320  0.00  0.00     0.055 C 
ATOM      8  C   UNL d   1      -1.162  -3.433   0.488  0.00  0.00     0.019 C 
ENDBRANCH   1   7
TORSDOF 1
ENDMDL
