MODEL 1
REMARK minimizedAffinity -3.09228086
REMARK minimizedRMSD -1
REMARK  1 active torsions:
REMARK  status: ('A' for Active; 'I' for Inactive)
REMARK    1  A    between atoms: C1_2  and  C2_3 
ROOT
ATOM      1  C2  UNL d   1      -0.110   0.581   0.083  0.00  0.00    -0.077 A 
ATOM      2  C3  UNL d   1       0.424  -0.122  -1.006  0.00  0.00     0.002 A 
ATOM      3  C4  UNL d   1       0.303  -1.511  -1.079  0.00  0.00     0.002 A 
ATOM      4  C5  UNL d   1      -0.356  -2.208  -0.069  0.00  0.00    -0.004 A 
ATOM      5  C6  UNL d   1      -0.889  -1.519   1.020  0.00  0.00     0.002 A 
ATOM      6  C7  UNL d   1      -0.767  -0.131   1.095  0.00  0.00     0.002 A 
ENDROOT
BRANCH   1   7
ATOM      7  C1  UNL d   1      -0.023   2.083   0.139  0.00  0.00     0.055 C 
ATOM      8  C   UNL d   1       1.396   2.545   0.435  0.00  0.00     0.019 C 
ENDBRANCH   1   7
TORSDOF 1
ENDMDL
