MODEL 1
REMARK minimizedAffinity -3.10771084
REMARK minimizedRMSD -1
REMARK  1 active torsions:
REMARK  status: ('A' for Active; 'I' for Inactive)
REMARK    1  A    between atoms: C1_2  and  C2_3 
ROOT
ATOM      1  C2  UNL d   1       0.107  -0.438  -0.889  0.00  0.00    -0.077 A 
ATOM      2  C3  UNL d   1      -0.008  -1.533  -1.756  0.00  0.00     0.002 A 
ATOM      3  C4  UNL d   1      -0.542  -2.741  -1.302  0.00  0.00     0.002 A 
ATOM      4  C5  UNL d   1      -0.969  -2.862   0.019  0.00  0.00    -0.004 A 
ATOM      5  C6  UNL d   1      -0.857  -1.779   0.890  0.00  0.00     0.002 A 
ATOM      6  C7  UNL d   1      -0.322  -0.572   0.437  0.00  0.00     0.002 A 
ENDROOT
BRANCH   1   7
ATOM      7  C1  UNL d   1       0.637   0.880  -1.391  0.00  0.00     0.055 C 
ATOM      8  C   UNL d   1       0.375   1.998  -0.392  0.00  0.00     0.019 C 
ENDBRANCH   1   7
TORSDOF 1
ENDMDL
