MODEL 1
REMARK minimizedAffinity -3.10441232
REMARK minimizedRMSD -1
REMARK  1 active torsions:
REMARK  status: ('A' for Active; 'I' for Inactive)
REMARK    1  A    between atoms: C1_2  and  C2_3 
ROOT
ATOM      1  C2  UNL d   1      -0.260  -0.171  -0.753  0.00  0.00    -0.077 A 
ATOM      2  C3  UNL d   1      -0.187  -1.543  -0.473  0.00  0.00     0.002 A 
ATOM      3  C4  UNL d   1      -0.856  -2.076   0.630  0.00  0.00     0.002 A 
ATOM      4  C5  UNL d   1      -1.606  -1.246   1.460  0.00  0.00    -0.004 A 
ATOM      5  C6  UNL d   1      -1.684   0.120   1.192  0.00  0.00     0.002 A 
ATOM      6  C7  UNL d   1      -1.015   0.655   0.090  0.00  0.00     0.002 A 
ENDROOT
BRANCH   1   7
ATOM      7  C1  UNL d   1       0.420   0.397  -1.970  0.00  0.00     0.055 C 
ATOM      8  C   UNL d   1       0.431  -0.603  -3.117  0.00  0.00     0.019 C 
ENDBRANCH   1   7
TORSDOF 1
ENDMDL
