MODEL 1
REMARK minimizedAffinity -4.30761099
REMARK minimizedRMSD -1
REMARK  1 active torsions:
REMARK  status: ('A' for Active; 'I' for Inactive)
REMARK    1  A    between atoms: C1_2  and  C2_3 
ROOT
ATOM      1  C2  UNL d   1      -0.204  -0.189  -0.363  0.00  0.00    -0.077 A 
ATOM      2  C3  UNL d   1      -0.003  -1.162  -1.352  0.00  0.00     0.002 A 
ATOM      3  C4  UNL d   1      -0.281  -2.505  -1.089  0.00  0.00     0.002 A 
ATOM      4  C5  UNL d   1      -0.764  -2.886   0.161  0.00  0.00    -0.004 A 
ATOM      5  C6  UNL d   1      -0.965  -1.926   1.152  0.00  0.00     0.002 A 
ATOM      6  C7  UNL d   1      -0.687  -0.584   0.891  0.00  0.00     0.002 A 
ENDROOT
BRANCH   1   7
ATOM      7  C1  UNL d   1       0.049   1.266  -0.662  0.00  0.00     0.055 C 
ATOM      8  C   UNL d   1       0.879   1.919   0.433  0.00  0.00     0.019 C 
ENDBRANCH   1   7
TORSDOF 1
ENDMDL
