MODEL 1
REMARK minimizedAffinity -0.204156503
REMARK minimizedRMSD -1
REMARK  1 active torsions:
REMARK  status: ('A' for Active; 'I' for Inactive)
REMARK    1  A    between atoms: C1_2  and  C2_3 
ROOT
ATOM      1  C2  UNL d   1      -0.486  -1.040   0.485  0.00  0.00    -0.077 A 
ATOM      2  C3  UNL d   1      -0.777   0.018   1.358  0.00  0.00     0.002 A 
ATOM      3  C4  UNL d   1      -0.462   1.331   1.004  0.00  0.00     0.002 A 
ATOM      4  C5  UNL d   1       0.141   1.599  -0.223  0.00  0.00    -0.004 A 
ATOM      5  C6  UNL d   1       0.435   0.553  -1.097  0.00  0.00     0.002 A 
ATOM      6  C7  UNL d   1       0.123  -0.760  -0.745  0.00  0.00     0.002 A 
ENDROOT
BRANCH   1   7
ATOM      7  C1  UNL d   1      -0.870  -2.453   0.843  0.00  0.00     0.055 C 
ATOM      8  C   UNL d   1      -0.795  -3.371  -0.368  0.00  0.00     0.019 C 
ENDBRANCH   1   7
TORSDOF 1
ENDMDL
