MODEL 1
REMARK minimizedAffinity -1.40728056
REMARK minimizedRMSD -1
REMARK  1 active torsions:
REMARK  status: ('A' for Active; 'I' for Inactive)
REMARK    1  A    between atoms: C1_2  and  C2_3 
ROOT
ATOM      1  C2  UNL d   1      -0.573  -1.270   0.428  0.00  0.00    -0.077 A 
ATOM      2  C3  UNL d   1      -0.910  -0.210   1.281  0.00  0.00     0.002 A 
ATOM      3  C4  UNL d   1      -0.553   1.100   0.957  0.00  0.00     0.002 A 
ATOM      4  C5  UNL d   1       0.141   1.362  -0.223  0.00  0.00    -0.004 A 
ATOM      5  C6  UNL d   1       0.483   0.315  -1.078  0.00  0.00     0.002 A 
ATOM      6  C7  UNL d   1       0.127  -0.995  -0.754  0.00  0.00     0.002 A 
ENDROOT
BRANCH   1   7
ATOM      7  C1  UNL d   1      -1.001  -2.677   0.751  0.00  0.00     0.055 C 
ATOM      8  C   UNL d   1      -2.514  -2.824   0.690  0.00  0.00     0.019 C 
ENDBRANCH   1   7
TORSDOF 1
ENDMDL
