MODEL 1
REMARK minimizedAffinity -4.42807198
REMARK minimizedRMSD -1
REMARK  1 active torsions:
REMARK  status: ('A' for Active; 'I' for Inactive)
REMARK    1  A    between atoms: C1_2  and  C2_3 
ROOT
ATOM      1  C2  UNL d   1       0.426  -1.261  -2.233  0.00  0.00    -0.077 A 
ATOM      2  C3  UNL d   1       0.494   0.116  -1.981  0.00  0.00     0.002 A 
ATOM      3  C4  UNL d   1       0.079   0.631  -0.751  0.00  0.00     0.002 A 
ATOM      4  C5  UNL d   1      -0.403  -0.225   0.237  0.00  0.00    -0.004 A 
ATOM      5  C6  UNL d   1      -0.477  -1.597  -0.005  0.00  0.00     0.002 A 
ATOM      6  C7  UNL d   1      -0.063  -2.112  -1.234  0.00  0.00     0.002 A 
ENDROOT
BRANCH   1   7
ATOM      7  C1  UNL d   1       0.919  -1.823  -3.540  0.00  0.00     0.055 C 
ATOM      8  C   UNL d   1       2.162  -2.678  -3.341  0.00  0.00     0.019 C 
ENDBRANCH   1   7
TORSDOF 1
ENDMDL
