MODEL 1
REMARK minimizedAffinity -4.76717472
REMARK minimizedRMSD -1
REMARK  1 active torsions:
REMARK  status: ('A' for Active; 'I' for Inactive)
REMARK    1  A    between atoms: C1_2  and  C2_3 
ROOT
ATOM      1  C2  UNL d   1       0.145  -1.446  -0.022  0.00  0.00    -0.077 A 
ATOM      2  C3  UNL d   1       0.029  -1.475  -1.419  0.00  0.00     0.002 A 
ATOM      3  C4  UNL d   1      -0.285  -2.665  -2.078  0.00  0.00     0.002 A 
ATOM      4  C5  UNL d   1      -0.491  -3.834  -1.347  0.00  0.00    -0.004 A 
ATOM      5  C6  UNL d   1      -0.376  -3.816   0.042  0.00  0.00     0.002 A 
ATOM      6  C7  UNL d   1      -0.061  -2.627   0.702  0.00  0.00     0.002 A 
ENDROOT
BRANCH   1   7
ATOM      7  C1  UNL d   1       0.436  -0.153   0.693  0.00  0.00     0.055 C 
ATOM      8  C   UNL d   1       0.077   1.049  -0.168  0.00  0.00     0.019 C 
ENDBRANCH   1   7
TORSDOF 1
ENDMDL
