MODEL 1
REMARK minimizedAffinity -0.289074838
REMARK minimizedRMSD -1
REMARK  0 active torsions:
REMARK  status: ('A' for Active; 'I' for Inactive)
ROOT
ATOM      1  C   UNL d   1      -1.011   1.748   3.309  0.00  0.00    -0.002 A 
ATOM      2  C1  UNL d   1      -1.487   0.484   2.991  0.00  0.00     0.010 A 
ATOM      3  C2  UNL d   1      -0.765  -0.353   2.139  0.00  0.00     0.041 A 
ATOM      4  C3  UNL d   1       0.457   0.105   1.608  0.00  0.00    -0.075 A 
ATOM      5  S   UNL d   1       1.513  -0.747   0.543  0.00  0.00     0.015 SA
ATOM      6  C4  UNL d   1       2.621   0.547   0.487  0.00  0.00     0.022 A 
ATOM      7  C5  UNL d   1       2.211   1.611   1.255  0.00  0.00     0.026 A 
ATOM      8  C6  UNL d   1       0.958   1.374   1.914  0.00  0.00    -0.082 A 
ATOM      9  C7  UNL d   1       0.202   2.199   2.780  0.00  0.00     0.045 A 
ENDROOT
TORSDOF 0
ENDMDL
