MODEL 1
REMARK minimizedAffinity 5.74345016
REMARK minimizedRMSD -1
REMARK  0 active torsions:
REMARK  status: ('A' for Active; 'I' for Inactive)
ROOT
ATOM      1  C   UNL d   1      -1.499   0.271   3.458  0.00  0.00    -0.002 A 
ATOM      2  C1  UNL d   1      -0.461   1.191   3.458  0.00  0.00     0.010 A 
ATOM      3  C2  UNL d   1       0.305   1.397   2.308  0.00  0.00     0.041 A 
ATOM      4  C3  UNL d   1       0.006   0.657   1.148  0.00  0.00    -0.075 A 
ATOM      5  S   UNL d   1       0.808   0.742  -0.376  0.00  0.00     0.015 SA
ATOM      6  C4  UNL d   1      -0.209  -0.441  -1.062  0.00  0.00     0.022 A 
ATOM      7  C5  UNL d   1      -1.144  -0.901  -0.164  0.00  0.00     0.026 A 
ATOM      8  C6  UNL d   1      -1.036  -0.276   1.124  0.00  0.00    -0.082 A 
ATOM      9  C7  UNL d   1      -1.793  -0.462   2.305  0.00  0.00     0.045 A 
ENDROOT
TORSDOF 0
ENDMDL
