MODEL 1
REMARK minimizedAffinity 3.10422063
REMARK minimizedRMSD -1
REMARK  0 active torsions:
REMARK  status: ('A' for Active; 'I' for Inactive)
ROOT
ATOM      1  C   UNL d   1       2.111   1.854   1.492  0.00  0.00    -0.002 A 
ATOM      2  C1  UNL d   1       1.637   1.740   0.193  0.00  0.00     0.010 A 
ATOM      3  C2  UNL d   1       0.386   1.175  -0.059  0.00  0.00     0.041 A 
ATOM      4  C3  UNL d   1      -0.390   0.723   1.026  0.00  0.00    -0.075 A 
ATOM      5  S   UNL d   1      -1.953  -0.002   0.957  0.00  0.00     0.015 SA
ATOM      6  C4  UNL d   1      -2.028  -0.177   2.651  0.00  0.00     0.022 A 
ATOM      7  C5  UNL d   1      -0.897   0.301   3.270  0.00  0.00     0.026 A 
ATOM      8  C6  UNL d   1       0.065   0.828   2.344  0.00  0.00    -0.082 A 
ATOM      9  C7  UNL d   1       1.339   1.405   2.567  0.00  0.00     0.045 A 
ENDROOT
TORSDOF 0
ENDMDL
