MODEL 1
REMARK minimizedAffinity -1.38621199
REMARK minimizedRMSD -1
REMARK  0 active torsions:
REMARK  status: ('A' for Active; 'I' for Inactive)
ROOT
ATOM      1  C   UNL d   1       1.750   1.980   2.256  0.00  0.00    -0.002 A 
ATOM      2  C1  UNL d   1       2.391   1.026   1.478  0.00  0.00     0.010 A 
ATOM      3  C2  UNL d   1       1.656   0.049   0.803  0.00  0.00     0.041 A 
ATOM      4  C3  UNL d   1       0.253   0.048   0.923  0.00  0.00    -0.075 A 
ATOM      5  S   UNL d   1      -0.853  -1.051   0.187  0.00  0.00     0.015 SA
ATOM      6  C4  UNL d   1      -2.202  -0.279   0.886  0.00  0.00     0.022 A 
ATOM      7  C5  UNL d   1      -1.836   0.792   1.666  0.00  0.00     0.026 A 
ATOM      8  C6  UNL d   1      -0.416   0.999   1.700  0.00  0.00    -0.082 A 
ATOM      9  C7  UNL d   1       0.358   1.976   2.372  0.00  0.00     0.045 A 
ENDROOT
TORSDOF 0
ENDMDL
