MODEL 1
REMARK minimizedAffinity -2.50271893
REMARK minimizedRMSD -1
REMARK  0 active torsions:
REMARK  status: ('A' for Active; 'I' for Inactive)
ROOT
ATOM      1  C   UNL d   1      -2.265  -0.175   1.646  0.00  0.00    -0.002 A 
ATOM      2  C1  UNL d   1      -1.878  -0.761   0.449  0.00  0.00     0.010 A 
ATOM      3  C2  UNL d   1      -0.567  -0.630  -0.015  0.00  0.00     0.041 A 
ATOM      4  C3  UNL d   1       0.357   0.106   0.753  0.00  0.00    -0.075 A 
ATOM      5  S   UNL d   1       2.015   0.399   0.384  0.00  0.00     0.015 SA
ATOM      6  C4  UNL d   1       2.249   1.307   1.807  0.00  0.00     0.022 A 
ATOM      7  C5  UNL d   1       1.100   1.396   2.557  0.00  0.00     0.026 A 
ATOM      8  C6  UNL d   1      -0.009   0.704   1.962  0.00  0.00    -0.082 A 
ATOM      9  C7  UNL d   1      -1.346   0.554   2.405  0.00  0.00     0.045 A 
ENDROOT
TORSDOF 0
ENDMDL
