MODEL 1
REMARK minimizedAffinity 1.8221736
REMARK minimizedRMSD -1
REMARK  0 active torsions:
REMARK  status: ('A' for Active; 'I' for Inactive)
ROOT
ATOM      1  C   UNL d   1       0.755   2.050   3.279  0.00  0.00    -0.002 A 
ATOM      2  C1  UNL d   1       1.672   1.805   2.267  0.00  0.00     0.010 A 
ATOM      3  C2  UNL d   1       1.354   0.943   1.215  0.00  0.00     0.041 A 
ATOM      4  C3  UNL d   1       0.086   0.328   1.197  0.00  0.00    -0.075 A 
ATOM      5  S   UNL d   1      -0.523  -0.763   0.009  0.00  0.00     0.015 SA
ATOM      6  C4  UNL d   1      -2.014  -0.928   0.817  0.00  0.00     0.022 A 
ATOM      7  C5  UNL d   1      -2.063  -0.176   1.967  0.00  0.00     0.026 A 
ATOM      8  C6  UNL d   1      -0.854   0.560   2.205  0.00  0.00    -0.082 A 
ATOM      9  C7  UNL d   1      -0.501   1.438   3.258  0.00  0.00     0.045 A 
ENDROOT
TORSDOF 0
ENDMDL
