MODEL 1
REMARK minimizedAffinity 10.2047224
REMARK minimizedRMSD -1
REMARK  0 active torsions:
REMARK  status: ('A' for Active; 'I' for Inactive)
ROOT
ATOM      1  C   UNL d   1      -1.905   2.990  -1.745  0.00  0.00     0.078 C 
ATOM      2  C1  UNL d   1      -1.071   2.414  -0.640  0.00  0.00    -0.077 A 
ATOM      3  C2  UNL d   1       0.243   1.990  -0.873  0.00  0.00    -0.001 A 
ATOM      4  C3  UNL d   1       1.004   1.447   0.163  0.00  0.00     0.003 A 
ATOM      5  C4  UNL d   1       0.460   1.320   1.439  0.00  0.00    -0.005 A 
ATOM      6  C5  UNL d   1      -0.848   1.737   1.681  0.00  0.00     0.003 A 
ATOM      7  C6  UNL d   1      -1.610   2.281   0.646  0.00  0.00    -0.001 A 
ENDROOT
TORSDOF 0
ENDMDL
