MODEL 1
REMARK minimizedAffinity 8.28296852
REMARK minimizedRMSD -1
REMARK  0 active torsions:
REMARK  status: ('A' for Active; 'I' for Inactive)
ROOT
ATOM      1  C   UNL d   1       0.390   5.550  -1.671  0.00  0.00     0.078 C 
ATOM      2  C1  UNL d   1       0.079   4.294  -0.913  0.00  0.00    -0.077 A 
ATOM      3  C2  UNL d   1      -0.915   4.274   0.072  0.00  0.00    -0.001 A 
ATOM      4  C3  UNL d   1      -1.187   3.100   0.776  0.00  0.00     0.003 A 
ATOM      5  C4  UNL d   1      -0.468   1.938   0.504  0.00  0.00    -0.005 A 
ATOM      6  C5  UNL d   1       0.525   1.949  -0.473  0.00  0.00     0.003 A 
ATOM      7  C6  UNL d   1       0.798   3.122  -1.179  0.00  0.00    -0.001 A 
ENDROOT
TORSDOF 0
ENDMDL
