MODEL 1
REMARK minimizedAffinity 9.49523926
REMARK minimizedRMSD -1
REMARK  0 active torsions:
REMARK  status: ('A' for Active; 'I' for Inactive)
ROOT
ATOM      1  C   UNL d   1      -1.345   5.113  -1.778  0.00  0.00     0.078 C 
ATOM      2  C1  UNL d   1      -2.543   5.296  -0.895  0.00  0.00    -0.077 A 
ATOM      3  C2  UNL d   1      -3.839   5.099  -1.388  0.00  0.00    -0.001 A 
ATOM      4  C3  UNL d   1      -4.946   5.283  -0.558  0.00  0.00     0.003 A 
ATOM      5  C4  UNL d   1      -4.768   5.666   0.770  0.00  0.00    -0.005 A 
ATOM      6  C5  UNL d   1      -3.483   5.866   1.269  0.00  0.00     0.003 A 
ATOM      7  C6  UNL d   1      -2.375   5.683   0.440  0.00  0.00    -0.001 A 
ENDROOT
TORSDOF 0
ENDMDL
