MODEL 1
REMARK minimizedAffinity 3.66186833
REMARK minimizedRMSD -1
REMARK  0 active torsions:
REMARK  status: ('A' for Active; 'I' for Inactive)
ROOT
ATOM      1  C   UNL d   1      -1.844  -5.741  -4.002  0.00  0.00     0.078 C 
ATOM      2  C1  UNL d   1      -3.107  -5.257  -4.651  0.00  0.00    -0.077 A 
ATOM      3  C2  UNL d   1      -4.297  -5.987  -4.548  0.00  0.00    -0.001 A 
ATOM      4  C3  UNL d   1      -5.462  -5.529  -5.165  0.00  0.00     0.003 A 
ATOM      5  C4  UNL d   1      -5.448  -4.339  -5.890  0.00  0.00    -0.005 A 
ATOM      6  C5  UNL d   1      -4.268  -3.606  -6.000  0.00  0.00     0.003 A 
ATOM      7  C6  UNL d   1      -3.102  -4.063  -5.383  0.00  0.00    -0.001 A 
ENDROOT
TORSDOF 0
ENDMDL
