MODEL 1
REMARK minimizedAffinity 3.92025518
REMARK minimizedRMSD -1
REMARK  0 active torsions:
REMARK  status: ('A' for Active; 'I' for Inactive)
ROOT
ATOM      1  C   UNL d   1       1.349   4.468  -1.825  0.00  0.00     0.078 C 
ATOM      2  C1  UNL d   1       0.633   3.479  -0.954  0.00  0.00    -0.077 A 
ATOM      3  C2  UNL d   1      -0.759   3.344  -1.010  0.00  0.00    -0.001 A 
ATOM      4  C3  UNL d   1      -1.413   2.426  -0.187  0.00  0.00     0.003 A 
ATOM      5  C4  UNL d   1      -0.683   1.637   0.699  0.00  0.00    -0.005 A 
ATOM      6  C5  UNL d   1       0.703   1.766   0.763  0.00  0.00     0.003 A 
ATOM      7  C6  UNL d   1       1.358   2.683  -0.059  0.00  0.00    -0.001 A 
ENDROOT
TORSDOF 0
ENDMDL
