MODEL 1
REMARK minimizedAffinity 8.32049084
REMARK minimizedRMSD -1
REMARK  0 active torsions:
REMARK  status: ('A' for Active; 'I' for Inactive)
ROOT
ATOM      1  C   UNL d   1       2.601   2.094   2.551  0.00  0.00     0.078 C 
ATOM      2  C1  UNL d   1       2.124   2.524   1.196  0.00  0.00    -0.077 A 
ATOM      3  C2  UNL d   1       0.921   2.041   0.667  0.00  0.00    -0.001 A 
ATOM      4  C3  UNL d   1       0.494   2.443  -0.600  0.00  0.00     0.003 A 
ATOM      5  C4  UNL d   1       1.266   3.329  -1.349  0.00  0.00    -0.005 A 
ATOM      6  C5  UNL d   1       2.466   3.814  -0.832  0.00  0.00     0.003 A 
ATOM      7  C6  UNL d   1       2.894   3.413   0.434  0.00  0.00    -0.001 A 
ENDROOT
TORSDOF 0
ENDMDL
