MODEL 1
REMARK minimizedAffinity 13.6484261
REMARK minimizedRMSD -1
REMARK  0 active torsions:
REMARK  status: ('A' for Active; 'I' for Inactive)
ROOT
ATOM      1  C   UNL d   1       5.999  -5.926  -0.126  0.00  0.00     0.078 C 
ATOM      2  C1  UNL d   1       5.300  -5.772  -1.444  0.00  0.00    -0.077 A 
ATOM      3  C2  UNL d   1       5.998  -5.906  -2.651  0.00  0.00    -0.001 A 
ATOM      4  C3  UNL d   1       5.337  -5.751  -3.870  0.00  0.00     0.003 A 
ATOM      5  C4  UNL d   1       3.974  -5.460  -3.895  0.00  0.00    -0.005 A 
ATOM      6  C5  UNL d   1       3.272  -5.322  -2.699  0.00  0.00     0.003 A 
ATOM      7  C6  UNL d   1       3.932  -5.477  -1.479  0.00  0.00    -0.001 A 
ENDROOT
TORSDOF 0
ENDMDL
