MODEL 1
REMARK minimizedAffinity 5.97866917
REMARK minimizedRMSD -1
REMARK  0 active torsions:
REMARK  status: ('A' for Active; 'I' for Inactive)
ROOT
ATOM      1  C   UNL d   1       5.783  -2.704  -0.003  0.00  0.00     0.078 C 
ATOM      2  C1  UNL d   1       4.645  -1.744   0.173  0.00  0.00    -0.077 A 
ATOM      3  C2  UNL d   1       4.527  -0.970   1.335  0.00  0.00    -0.001 A 
ATOM      4  C3  UNL d   1       3.457  -0.088   1.489  0.00  0.00     0.003 A 
ATOM      5  C4  UNL d   1       2.496   0.029   0.487  0.00  0.00    -0.005 A 
ATOM      6  C5  UNL d   1       2.604  -0.738  -0.671  0.00  0.00     0.003 A 
ATOM      7  C6  UNL d   1       3.673  -1.621  -0.828  0.00  0.00    -0.001 A 
ENDROOT
TORSDOF 0
ENDMDL
