MODEL 1
REMARK minimizedAffinity 7.62008142
REMARK minimizedRMSD -1
REMARK  0 active torsions:
REMARK  status: ('A' for Active; 'I' for Inactive)
ROOT
ATOM      1  C   UNL d   1       1.292  -4.051  -5.309  0.00  0.00     0.078 C 
ATOM      2  C1  UNL d   1       1.177  -4.410  -3.858  0.00  0.00    -0.077 A 
ATOM      3  C2  UNL d   1       0.003  -4.148  -3.141  0.00  0.00    -0.001 A 
ATOM      4  C3  UNL d   1      -0.085  -4.479  -1.788  0.00  0.00     0.003 A 
ATOM      5  C4  UNL d   1       0.996  -5.073  -1.140  0.00  0.00    -0.005 A 
ATOM      6  C5  UNL d   1       2.169  -5.335  -1.845  0.00  0.00     0.003 A 
ATOM      7  C6  UNL d   1       2.260  -5.004  -3.198  0.00  0.00    -0.001 A 
ENDROOT
TORSDOF 0
ENDMDL
