MODEL 1
REMARK minimizedAffinity -0.0452887453
REMARK minimizedRMSD -1
REMARK  0 active torsions:
REMARK  status: ('A' for Active; 'I' for Inactive)
ROOT
ATOM      1  C   UNL d   1       1.731  -0.238   1.303  0.00  0.00     0.124 A 
ATOM      2  C1  UNL d   1       2.331  -1.014   0.320  0.00  0.00     0.062 A 
ATOM      3  C2  UNL d   1       2.157  -0.699  -1.024  0.00  0.00     0.162 A 
ATOM      4  C3  UNL d   1       1.380   0.399  -1.395  0.00  0.00    -0.034 A 
ATOM      5  C4  UNL d   1       0.779   1.174  -0.401  0.00  0.00     0.162 A 
ATOM      6  C5  UNL d   1       0.956   0.855   0.941  0.00  0.00     0.062 A 
ATOM      7  F   UNL d   1       0.377   1.606   1.889  0.00  0.00    -0.097 F 
ATOM      8  F1  UNL d   1       0.026   2.237  -0.722  0.00  0.00    -0.096 F 
ATOM      9  I   UNL d   1       1.117   0.874  -3.404  0.00  0.00    -0.060 I 
ATOM     10  F2  UNL d   1       2.748  -1.466  -1.952  0.00  0.00    -0.096 F 
ATOM     11  F3  UNL d   1       3.079  -2.071   0.667  0.00  0.00    -0.097 F 
ATOM     12  F4  UNL d   1       1.900  -0.544   2.595  0.00  0.00    -0.092 F 
ENDROOT
TORSDOF 0
ENDMDL
