MODEL 1
REMARK minimizedAffinity 3.32792592
REMARK minimizedRMSD -1
REMARK  0 active torsions:
REMARK  status: ('A' for Active; 'I' for Inactive)
ROOT
ATOM      1  C   UNL d   1       0.544  -0.076   0.921  0.00  0.00     0.124 A 
ATOM      2  C1  UNL d   1      -0.011  -0.237  -0.341  0.00  0.00     0.062 A 
ATOM      3  C2  UNL d   1       0.661   0.231  -1.466  0.00  0.00     0.162 A 
ATOM      4  C3  UNL d   1       1.898   0.863  -1.335  0.00  0.00    -0.034 A 
ATOM      5  C4  UNL d   1       2.449   1.022  -0.063  0.00  0.00     0.162 A 
ATOM      6  C5  UNL d   1       1.773   0.553   1.059  0.00  0.00     0.062 A 
ATOM      7  F   UNL d   1       2.311   0.710   2.277  0.00  0.00    -0.097 F 
ATOM      8  F1  UNL d   1       3.636   1.626   0.099  0.00  0.00    -0.096 F 
ATOM      9  I   UNL d   1       2.906   1.563  -3.016  0.00  0.00    -0.060 I 
ATOM     10  F2  UNL d   1       0.101   0.061  -2.673  0.00  0.00    -0.096 F 
ATOM     11  F3  UNL d   1      -1.199  -0.843  -0.477  0.00  0.00    -0.097 F 
ATOM     12  F4  UNL d   1      -0.105  -0.526   2.002  0.00  0.00    -0.092 F 
ENDROOT
TORSDOF 0
ENDMDL
