MODEL 1
REMARK minimizedAffinity -4.21589088
REMARK minimizedRMSD -1
REMARK  0 active torsions:
REMARK  status: ('A' for Active; 'I' for Inactive)
ROOT
ATOM      1  C   UNL d   1       0.739   0.423   1.587  0.00  0.00     0.124 A 
ATOM      2  C1  UNL d   1       0.795  -0.477   0.532  0.00  0.00     0.062 A 
ATOM      3  C2  UNL d   1      -0.378  -0.994  -0.010  0.00  0.00     0.162 A 
ATOM      4  C3  UNL d   1      -1.618  -0.612   0.502  0.00  0.00    -0.034 A 
ATOM      5  C4  UNL d   1      -1.667   0.293   1.563  0.00  0.00     0.162 A 
ATOM      6  C5  UNL d   1      -0.491   0.807   2.102  0.00  0.00     0.062 A 
ATOM      7  F   UNL d   1      -0.548   1.677   3.121  0.00  0.00    -0.097 F 
ATOM      8  F1  UNL d   1      -2.842   0.682   2.079  0.00  0.00    -0.096 F 
ATOM      9  I   UNL d   1      -3.374  -1.383  -0.306  0.00  0.00    -0.060 I 
ATOM     10  F2  UNL d   1      -0.293  -1.863  -1.029  0.00  0.00    -0.096 F 
ATOM     11  F3  UNL d   1       1.983  -0.851   0.034  0.00  0.00    -0.097 F 
ATOM     12  F4  UNL d   1       1.869   0.918   2.108  0.00  0.00    -0.092 F 
ENDROOT
TORSDOF 0
ENDMDL
