MODEL 1
REMARK minimizedAffinity -1.74770164
REMARK minimizedRMSD -1
REMARK  0 active torsions:
REMARK  status: ('A' for Active; 'I' for Inactive)
ROOT
ATOM      1  C   UNL d   1      -1.594  -1.322  -0.858  0.00  0.00     0.124 A 
ATOM      2  C1  UNL d   1      -1.492  -1.677  -2.196  0.00  0.00     0.062 A 
ATOM      3  C2  UNL d   1      -0.563  -1.047  -3.018  0.00  0.00     0.162 A 
ATOM      4  C3  UNL d   1       0.274  -0.055  -2.505  0.00  0.00    -0.034 A 
ATOM      5  C4  UNL d   1       0.165   0.297  -1.158  0.00  0.00     0.162 A 
ATOM      6  C5  UNL d   1      -0.766  -0.336  -0.340  0.00  0.00     0.062 A 
ATOM      7  F   UNL d   1      -0.863   0.009   0.952  0.00  0.00    -0.097 F 
ATOM      8  F1  UNL d   1       0.953   1.246  -0.632  0.00  0.00    -0.096 F 
ATOM      9  I   UNL d   1       1.665   0.889  -3.731  0.00  0.00    -0.060 I 
ATOM     10  F2  UNL d   1      -0.486  -1.410  -4.307  0.00  0.00    -0.096 F 
ATOM     11  F3  UNL d   1      -2.292  -2.629  -2.698  0.00  0.00    -0.097 F 
ATOM     12  F4  UNL d   1      -2.490  -1.929  -0.069  0.00  0.00    -0.092 F 
ENDROOT
TORSDOF 0
ENDMDL
