MODEL 1
REMARK minimizedAffinity 2.19672346
REMARK minimizedRMSD -1
REMARK  0 active torsions:
REMARK  status: ('A' for Active; 'I' for Inactive)
ROOT
ATOM      1  C   UNL d   1       2.546  -0.288  -3.616  0.00  0.00     0.124 A 
ATOM      2  C1  UNL d   1       1.445   0.536  -3.803  0.00  0.00     0.062 A 
ATOM      3  C2  UNL d   1       0.453   0.611  -2.830  0.00  0.00     0.162 A 
ATOM      4  C3  UNL d   1       0.558  -0.141  -1.659  0.00  0.00    -0.034 A 
ATOM      5  C4  UNL d   1       1.667  -0.968  -1.478  0.00  0.00     0.162 A 
ATOM      6  C5  UNL d   1       2.656  -1.039  -2.454  0.00  0.00     0.062 A 
ATOM      7  F   UNL d   1       3.719  -1.836  -2.271  0.00  0.00    -0.097 F 
ATOM      8  F1  UNL d   1       1.800  -1.704  -0.364  0.00  0.00    -0.096 F 
ATOM      9  I   UNL d   1      -0.924  -0.032  -0.201  0.00  0.00    -0.060 I 
ATOM     10  F2  UNL d   1      -0.600   1.415  -3.037  0.00  0.00    -0.096 F 
ATOM     11  F3  UNL d   1       1.336   1.262  -4.925  0.00  0.00    -0.097 F 
ATOM     12  F4  UNL d   1       3.499  -0.359  -4.554  0.00  0.00    -0.092 F 
ENDROOT
TORSDOF 0
ENDMDL
