MODEL 1
REMARK minimizedAffinity 1.0486933
REMARK minimizedRMSD -1
REMARK  0 active torsions:
REMARK  status: ('A' for Active; 'I' for Inactive)
ROOT
ATOM      1  C   UNL d   1       0.547   1.198   2.761  0.00  0.00     0.124 A 
ATOM      2  C1  UNL d   1       1.554   0.576   2.035  0.00  0.00     0.062 A 
ATOM      3  C2  UNL d   1       1.252  -0.095   0.853  0.00  0.00     0.162 A 
ATOM      4  C3  UNL d   1      -0.062  -0.146   0.389  0.00  0.00    -0.034 A 
ATOM      5  C4  UNL d   1      -1.069   0.481   1.125  0.00  0.00     0.162 A 
ATOM      6  C5  UNL d   1      -0.763   1.150   2.306  0.00  0.00     0.062 A 
ATOM      7  F   UNL d   1      -1.736   1.750   3.006  0.00  0.00    -0.097 F 
ATOM      8  F1  UNL d   1      -2.343   0.452   0.707  0.00  0.00    -0.096 F 
ATOM      9  I   UNL d   1      -0.518  -1.147  -1.378  0.00  0.00    -0.060 I 
ATOM     10  F2  UNL d   1       2.244  -0.687   0.172  0.00  0.00    -0.096 F 
ATOM     11  F3  UNL d   1       2.820   0.620   2.474  0.00  0.00    -0.097 F 
ATOM     12  F4  UNL d   1       0.840   1.841   3.898  0.00  0.00    -0.092 F 
ENDROOT
TORSDOF 0
ENDMDL
