MODEL 1
REMARK minimizedAffinity 6.24770975
REMARK minimizedRMSD -1
REMARK  0 active torsions:
REMARK  status: ('A' for Active; 'I' for Inactive)
ROOT
ATOM      1  C   UNL d   1      -0.673   0.262   2.569  0.00  0.00     0.124 A 
ATOM      2  C1  UNL d   1       0.548   0.673   2.052  0.00  0.00     0.062 A 
ATOM      3  C2  UNL d   1       0.765   0.661   0.677  0.00  0.00     0.162 A 
ATOM      4  C3  UNL d   1      -0.240   0.236  -0.191  0.00  0.00    -0.034 A 
ATOM      5  C4  UNL d   1      -1.465  -0.177   0.337  0.00  0.00     0.162 A 
ATOM      6  C5  UNL d   1      -1.678  -0.163   1.711  0.00  0.00     0.062 A 
ATOM      7  F   UNL d   1      -2.858  -0.561   2.209  0.00  0.00    -0.097 F 
ATOM      8  F1  UNL d   1      -2.454  -0.592  -0.469  0.00  0.00    -0.096 F 
ATOM      9  I   UNL d   1       0.081   0.216  -2.247  0.00  0.00    -0.060 I 
ATOM     10  F2  UNL d   1       1.955   1.064   0.206  0.00  0.00    -0.096 F 
ATOM     11  F3  UNL d   1       1.520   1.083   2.879  0.00  0.00    -0.097 F 
ATOM     12  F4  UNL d   1      -0.880   0.274   3.892  0.00  0.00    -0.092 F 
ENDROOT
TORSDOF 0
ENDMDL
