MODEL 1
REMARK minimizedAffinity 1.15345764
REMARK minimizedRMSD -1
REMARK  0 active torsions:
REMARK  status: ('A' for Active; 'I' for Inactive)
ROOT
ATOM      1  C   UNL d   1      -0.011   0.001  -4.712  0.00  0.00     0.124 A 
ATOM      2  C1  UNL d   1       1.131   0.660  -4.278  0.00  0.00     0.062 A 
ATOM      3  C2  UNL d   1       1.511   0.595  -2.941  0.00  0.00     0.162 A 
ATOM      4  C3  UNL d   1       0.747  -0.132  -2.027  0.00  0.00    -0.034 A 
ATOM      5  C4  UNL d   1      -0.401  -0.791  -2.471  0.00  0.00     0.162 A 
ATOM      6  C5  UNL d   1      -0.775  -0.723  -3.809  0.00  0.00     0.062 A 
ATOM      7  F   UNL d   1      -1.879  -1.360  -4.227  0.00  0.00    -0.097 F 
ATOM      8  F1  UNL d   1      -1.157  -1.499  -1.619  0.00  0.00    -0.096 F 
ATOM      9  I   UNL d   1       1.311  -0.232  -0.026  0.00  0.00    -0.060 I 
ATOM     10  F2  UNL d   1       2.619   1.241  -2.549  0.00  0.00    -0.096 F 
ATOM     11  F3  UNL d   1       1.871   1.361  -5.149  0.00  0.00    -0.097 F 
ATOM     12  F4  UNL d   1      -0.374   0.066  -6.000  0.00  0.00    -0.092 F 
ENDROOT
TORSDOF 0
ENDMDL
