MODEL 1
REMARK minimizedAffinity -0.310405731
REMARK minimizedRMSD -1
REMARK  0 active torsions:
REMARK  status: ('A' for Active; 'I' for Inactive)
ROOT
ATOM      1  C   UNL d   1      -4.762   0.005  -5.631  0.00  0.00     0.078 C 
ATOM      2  C1  UNL d   1      -4.523   1.411  -5.167  0.00  0.00    -0.077 A 
ATOM      3  C2  UNL d   1      -5.550   2.363  -5.190  0.00  0.00    -0.001 A 
ATOM      4  C3  UNL d   1      -5.310   3.670  -4.764  0.00  0.00     0.003 A 
ATOM      5  C4  UNL d   1      -4.044   4.038  -4.314  0.00  0.00    -0.005 A 
ATOM      6  C5  UNL d   1      -3.015   3.099  -4.290  0.00  0.00     0.003 A 
ATOM      7  C6  UNL d   1      -3.253   1.791  -4.716  0.00  0.00    -0.001 A 
ENDROOT
TORSDOF 0
ENDMDL
