MODEL 1
REMARK minimizedAffinity 2.73427606
REMARK minimizedRMSD -1
REMARK  0 active torsions:
REMARK  status: ('A' for Active; 'I' for Inactive)
ROOT
ATOM      1  C   UNL d   1       0.210   3.530  -3.717  0.00  0.00     0.078 C 
ATOM      2  C1  UNL d   1       1.082   2.510  -3.048  0.00  0.00    -0.077 A 
ATOM      3  C2  UNL d   1       1.066   1.170  -3.454  0.00  0.00    -0.001 A 
ATOM      4  C3  UNL d   1       1.876   0.229  -2.815  0.00  0.00     0.003 A 
ATOM      5  C4  UNL d   1       2.706   0.618  -1.766  0.00  0.00    -0.005 A 
ATOM      6  C5  UNL d   1       2.727   1.948  -1.353  0.00  0.00     0.003 A 
ATOM      7  C6  UNL d   1       1.918   2.891  -1.991  0.00  0.00    -0.001 A 
ENDROOT
TORSDOF 0
ENDMDL
