MODEL 1
REMARK minimizedAffinity 4.21973038
REMARK minimizedRMSD -1
REMARK  0 active torsions:
REMARK  status: ('A' for Active; 'I' for Inactive)
ROOT
ATOM      1  C   UNL d   1      -0.011   3.091  -3.021  0.00  0.00     0.078 C 
ATOM      2  C1  UNL d   1       0.996   2.283  -2.259  0.00  0.00    -0.077 A 
ATOM      3  C2  UNL d   1       1.985   2.905  -1.487  0.00  0.00    -0.001 A 
ATOM      4  C3  UNL d   1       2.922   2.141  -0.790  0.00  0.00     0.003 A 
ATOM      5  C4  UNL d   1       2.880   0.749  -0.859  0.00  0.00    -0.005 A 
ATOM      6  C5  UNL d   1       1.901   0.121  -1.625  0.00  0.00     0.003 A 
ATOM      7  C6  UNL d   1       0.963   0.884  -2.323  0.00  0.00    -0.001 A 
ENDROOT
TORSDOF 0
ENDMDL
