MODEL 1
REMARK minimizedAffinity -0.0653503537
REMARK minimizedRMSD -1
REMARK  0 active torsions:
REMARK  status: ('A' for Active; 'I' for Inactive)
ROOT
ATOM      1  C   UNL d   1       3.164  -1.283  -0.062  0.00  0.00     0.078 C 
ATOM      2  C1  UNL d   1       2.093  -1.344   0.987  0.00  0.00    -0.077 A 
ATOM      3  C2  UNL d   1       0.764  -1.622   0.645  0.00  0.00    -0.001 A 
ATOM      4  C3  UNL d   1      -0.223  -1.666   1.631  0.00  0.00     0.003 A 
ATOM      5  C4  UNL d   1       0.107  -1.431   2.964  0.00  0.00    -0.005 A 
ATOM      6  C5  UNL d   1       1.427  -1.151   3.313  0.00  0.00     0.003 A 
ATOM      7  C6  UNL d   1       2.416  -1.106   2.329  0.00  0.00    -0.001 A 
ENDROOT
TORSDOF 0
ENDMDL
