MODEL 1
REMARK minimizedAffinity 4.56233025
REMARK minimizedRMSD -1
REMARK  0 active torsions:
REMARK  status: ('A' for Active; 'I' for Inactive)
ROOT
ATOM      1  C   UNL d   1       1.245  -1.081  -1.057  0.00  0.00     0.078 C 
ATOM      2  C1  UNL d   1       1.541  -1.076   0.413  0.00  0.00    -0.077 A 
ATOM      3  C2  UNL d   1       2.804  -0.710   0.893  0.00  0.00    -0.001 A 
ATOM      4  C3  UNL d   1       3.068  -0.719   2.264  0.00  0.00     0.003 A 
ATOM      5  C4  UNL d   1       2.074  -1.095   3.165  0.00  0.00    -0.005 A 
ATOM      6  C5  UNL d   1       0.815  -1.464   2.697  0.00  0.00     0.003 A 
ATOM      7  C6  UNL d   1       0.549  -1.455   1.326  0.00  0.00    -0.001 A 
ENDROOT
TORSDOF 0
ENDMDL
