MODEL 1
REMARK minimizedAffinity 6.21067142
REMARK minimizedRMSD -1
REMARK  0 active torsions:
REMARK  status: ('A' for Active; 'I' for Inactive)
ROOT
ATOM      1  C   UNL d   1       1.851  -1.344  -1.781  0.00  0.00     0.078 C 
ATOM      2  C1  UNL d   1       1.894   0.154  -1.725  0.00  0.00    -0.077 A 
ATOM      3  C2  UNL d   1       2.341   0.820  -0.578  0.00  0.00    -0.001 A 
ATOM      4  C3  UNL d   1       2.368   2.215  -0.537  0.00  0.00     0.003 A 
ATOM      5  C4  UNL d   1       1.947   2.955  -1.640  0.00  0.00    -0.005 A 
ATOM      6  C5  UNL d   1       1.498   2.301  -2.785  0.00  0.00     0.003 A 
ATOM      7  C6  UNL d   1       1.471   0.906  -2.828  0.00  0.00    -0.001 A 
ENDROOT
TORSDOF 0
ENDMDL
