MODEL 1
REMARK minimizedAffinity 6.36981869
REMARK minimizedRMSD -1
REMARK  0 active torsions:
REMARK  status: ('A' for Active; 'I' for Inactive)
ROOT
ATOM      1  C   UNL d   1      -2.921   1.667  -2.822  0.00  0.00     0.078 C 
ATOM      2  C1  UNL d   1      -3.325   0.708  -3.902  0.00  0.00    -0.077 A 
ATOM      3  C2  UNL d   1      -2.936  -0.636  -3.856  0.00  0.00    -0.001 A 
ATOM      4  C3  UNL d   1      -3.312  -1.515  -4.873  0.00  0.00     0.003 A 
ATOM      5  C4  UNL d   1      -4.078  -1.059  -5.944  0.00  0.00    -0.005 A 
ATOM      6  C5  UNL d   1      -4.468   0.277  -5.999  0.00  0.00     0.003 A 
ATOM      7  C6  UNL d   1      -4.093   1.158  -4.983  0.00  0.00    -0.001 A 
ENDROOT
TORSDOF 0
ENDMDL
