MODEL 1
REMARK minimizedAffinity 2.04102945
REMARK minimizedRMSD -1
REMARK  0 active torsions:
REMARK  status: ('A' for Active; 'I' for Inactive)
ROOT
ATOM      1  C   UNL d   1       0.181   3.060  -2.951  0.00  0.00     0.078 C 
ATOM      2  C1  UNL d   1       0.925   2.098  -2.075  0.00  0.00    -0.077 A 
ATOM      3  C2  UNL d   1       1.879   2.550  -1.154  0.00  0.00    -0.001 A 
ATOM      4  C3  UNL d   1       2.571   1.641  -0.352  0.00  0.00     0.003 A 
ATOM      5  C4  UNL d   1       2.318   0.276  -0.462  0.00  0.00    -0.005 A 
ATOM      6  C5  UNL d   1       1.373  -0.184  -1.377  0.00  0.00     0.003 A 
ATOM      7  C6  UNL d   1       0.680   0.723  -2.181  0.00  0.00    -0.001 A 
ENDROOT
TORSDOF 0
ENDMDL
