MODEL 1
REMARK minimizedAffinity 3.10506463
REMARK minimizedRMSD -1
REMARK  0 active torsions:
REMARK  status: ('A' for Active; 'I' for Inactive)
ROOT
ATOM      1  C   UNL d   1      -1.786   0.474   2.986  0.00  0.00     0.078 C 
ATOM      2  C1  UNL d   1      -0.431  -0.166   2.932  0.00  0.00    -0.077 A 
ATOM      3  C2  UNL d   1       0.670   0.423   3.566  0.00  0.00    -0.001 A 
ATOM      4  C3  UNL d   1       1.928  -0.178   3.499  0.00  0.00     0.003 A 
ATOM      5  C4  UNL d   1       2.097  -1.371   2.799  0.00  0.00    -0.005 A 
ATOM      6  C5  UNL d   1       1.008  -1.963   2.163  0.00  0.00     0.003 A 
ATOM      7  C6  UNL d   1      -0.251  -1.363   2.229  0.00  0.00    -0.001 A 
ENDROOT
TORSDOF 0
ENDMDL
