MODEL 1
REMARK minimizedAffinity 0.314041018
REMARK minimizedRMSD -1
REMARK  0 active torsions:
REMARK  status: ('A' for Active; 'I' for Inactive)
ROOT
ATOM      1  C   UNL d   1       1.133   2.198  -1.476  0.00  0.00     0.078 C 
ATOM      2  C1  UNL d   1       1.365   0.777  -1.057  0.00  0.00    -0.077 A 
ATOM      3  C2  UNL d   1       0.663   0.218   0.019  0.00  0.00    -0.001 A 
ATOM      4  C3  UNL d   1       0.896  -1.103   0.404  0.00  0.00     0.003 A 
ATOM      5  C4  UNL d   1       1.833  -1.876  -0.280  0.00  0.00    -0.005 A 
ATOM      6  C5  UNL d   1       2.538  -1.328  -1.349  0.00  0.00     0.003 A 
ATOM      7  C6  UNL d   1       2.306  -0.007  -1.736  0.00  0.00    -0.001 A 
ENDROOT
TORSDOF 0
ENDMDL
