MODEL 1
REMARK minimizedAffinity 2.6262269
REMARK minimizedRMSD -1
REMARK  0 active torsions:
REMARK  status: ('A' for Active; 'I' for Inactive)
ROOT
ATOM      1  C   UNL d   1       0.989  -1.557   2.295  0.00  0.00     0.078 C 
ATOM      2  C1  UNL d   1       1.285  -1.373   0.837  0.00  0.00    -0.077 A 
ATOM      3  C2  UNL d   1       0.276  -1.009  -0.063  0.00  0.00    -0.001 A 
ATOM      4  C3  UNL d   1       0.564  -0.850  -1.420  0.00  0.00     0.003 A 
ATOM      5  C4  UNL d   1       1.861  -1.054  -1.888  0.00  0.00    -0.005 A 
ATOM      6  C5  UNL d   1       2.871  -1.418  -1.000  0.00  0.00     0.003 A 
ATOM      7  C6  UNL d   1       2.585  -1.577   0.356  0.00  0.00    -0.001 A 
ENDROOT
TORSDOF 0
ENDMDL
