MODEL 1
REMARK minimizedAffinity -1.9368794
REMARK minimizedRMSD -1
REMARK  0 active torsions:
REMARK  status: ('A' for Active; 'I' for Inactive)
ROOT
ATOM      1  C   UNL d   1      -0.829   1.881   3.327  0.00  0.00     0.020 A 
ATOM      2  C1  UNL d   1      -1.380   1.015   4.271  0.00  0.00     0.020 A 
ATOM      3  C2  UNL d   1      -2.278   0.024   3.870  0.00  0.00     0.034 A 
ATOM      4  C3  UNL d   1      -2.628  -0.104   2.521  0.00  0.00     0.017 A 
ATOM      5  C4  UNL d   1      -2.075   0.765   1.573  0.00  0.00     0.017 A 
ATOM      6  C5  UNL d   1      -1.176   1.756   1.981  0.00  0.00     0.034 A 
ATOM      7 Cl   UNL d   1      -2.459   0.668  -0.109  0.00  0.00    -0.070 Cl
ATOM      8 Cl1  UNL d   1      -3.744  -1.353   2.095  0.00  0.00    -0.070 Cl
ENDROOT
TORSDOF 0
ENDMDL
