MODEL 1
REMARK minimizedAffinity -2.04106545
REMARK minimizedRMSD -1
REMARK  0 active torsions:
REMARK  status: ('A' for Active; 'I' for Inactive)
ROOT
ATOM      1  C   UNL d   1      -4.663  -2.591   3.369  0.00  0.00     0.020 A 
ATOM      2  C1  UNL d   1      -4.763  -2.176   4.696  0.00  0.00     0.020 A 
ATOM      3  C2  UNL d   1      -4.097  -1.023   5.119  0.00  0.00     0.034 A 
ATOM      4  C3  UNL d   1      -3.329  -0.282   4.214  0.00  0.00     0.017 A 
ATOM      5  C4  UNL d   1      -3.230  -0.699   2.882  0.00  0.00     0.017 A 
ATOM      6  C5  UNL d   1      -3.898  -1.854   2.464  0.00  0.00     0.034 A 
ATOM      7 Cl   UNL d   1      -2.301   0.164   1.707  0.00  0.00    -0.070 Cl
ATOM      8 Cl1  UNL d   1      -2.534   1.133   4.806  0.00  0.00    -0.070 Cl
ENDROOT
TORSDOF 0
ENDMDL
