MODEL 1
REMARK minimizedAffinity -4.54412031
REMARK minimizedRMSD -1
REMARK  0 active torsions:
REMARK  status: ('A' for Active; 'I' for Inactive)
ROOT
ATOM      1  C   UNL d   1      -3.860  -0.767   4.259  0.00  0.00     0.020 A 
ATOM      2  C1  UNL d   1      -4.049  -1.547   3.119  0.00  0.00     0.020 A 
ATOM      3  C2  UNL d   1      -3.451  -1.176   1.913  0.00  0.00     0.034 A 
ATOM      4  C3  UNL d   1      -2.663  -0.022   1.843  0.00  0.00     0.017 A 
ATOM      5  C4  UNL d   1      -2.474   0.761   2.988  0.00  0.00     0.017 A 
ATOM      6  C5  UNL d   1      -3.075   0.385   4.194  0.00  0.00     0.034 A 
ATOM      7 Cl   UNL d   1      -1.515   2.198   2.980  0.00  0.00    -0.070 Cl
ATOM      8 Cl1  UNL d   1      -1.955   0.377   0.318  0.00  0.00    -0.070 Cl
ENDROOT
TORSDOF 0
ENDMDL
