MODEL 1
REMARK minimizedAffinity -2.99314499
REMARK minimizedRMSD -1
REMARK  0 active torsions:
REMARK  status: ('A' for Active; 'I' for Inactive)
ROOT
ATOM      1  C   UNL d   1       2.872  -0.065  -1.871  0.00  0.00     0.020 A 
ATOM      2  C1  UNL d   1       2.413   1.250  -1.931  0.00  0.00     0.020 A 
ATOM      3  C2  UNL d   1       1.148   1.572  -1.433  0.00  0.00     0.034 A 
ATOM      4  C3  UNL d   1       0.339   0.577  -0.872  0.00  0.00     0.017 A 
ATOM      5  C4  UNL d   1       0.801  -0.742  -0.811  0.00  0.00     0.017 A 
ATOM      6  C5  UNL d   1       2.068  -1.059  -1.312  0.00  0.00     0.034 A 
ATOM      7 Cl   UNL d   1      -0.140  -2.024  -0.134  0.00  0.00    -0.070 Cl
ATOM      8 Cl1  UNL d   1      -1.213   1.046  -0.275  0.00  0.00    -0.070 Cl
ENDROOT
TORSDOF 0
ENDMDL
