MODEL 1
REMARK minimizedAffinity -1.28149402
REMARK minimizedRMSD -1
REMARK  0 active torsions:
REMARK  status: ('A' for Active; 'I' for Inactive)
ROOT
ATOM      1  C   UNL d   1      -1.841   1.503   4.071  0.00  0.00     0.020 A 
ATOM      2  C1  UNL d   1      -1.048   2.045   3.061  0.00  0.00     0.020 A 
ATOM      3  C2  UNL d   1      -1.010   1.441   1.802  0.00  0.00     0.034 A 
ATOM      4  C3  UNL d   1      -1.768   0.292   1.550  0.00  0.00     0.017 A 
ATOM      5  C4  UNL d   1      -2.564  -0.252   2.565  0.00  0.00     0.017 A 
ATOM      6  C5  UNL d   1      -2.598   0.357   3.823  0.00  0.00     0.034 A 
ATOM      7 Cl   UNL d   1      -3.526  -1.668   2.329  0.00  0.00    -0.070 Cl
ATOM      8 Cl1  UNL d   1      -1.674  -0.402  -0.030  0.00  0.00    -0.070 Cl
ENDROOT
TORSDOF 0
ENDMDL
