MODEL 1
REMARK minimizedAffinity 8.2101965
REMARK minimizedRMSD -1
REMARK  0 active torsions:
REMARK  status: ('A' for Active; 'I' for Inactive)
ROOT
ATOM      1  C   UNL d   1      -0.546  -2.950  -1.806  0.00  0.00     0.020 A 
ATOM      2  C1  UNL d   1      -1.748  -2.549  -1.225  0.00  0.00     0.020 A 
ATOM      3  C2  UNL d   1      -1.851  -1.288  -0.633  0.00  0.00     0.034 A 
ATOM      4  C3  UNL d   1      -0.750  -0.424  -0.621  0.00  0.00     0.017 A 
ATOM      5  C4  UNL d   1       0.457  -0.828  -1.203  0.00  0.00     0.017 A 
ATOM      6  C5  UNL d   1       0.554  -2.091  -1.795  0.00  0.00     0.034 A 
ATOM      7 Cl   UNL d   1       1.859   0.183  -1.227  0.00  0.00    -0.070 Cl
ATOM      8 Cl1  UNL d   1      -0.949   1.120   0.128  0.00  0.00    -0.070 Cl
ENDROOT
TORSDOF 0
ENDMDL
