MODEL 1
REMARK minimizedAffinity -0.182504103
REMARK minimizedRMSD -1
REMARK  0 active torsions:
REMARK  status: ('A' for Active; 'I' for Inactive)
ROOT
ATOM      1  C   UNL d   1       3.643  -1.638   0.539  0.00  0.00     0.020 A 
ATOM      2  C1  UNL d   1       3.177  -0.952  -0.581  0.00  0.00     0.020 A 
ATOM      3  C2  UNL d   1       2.105  -1.464  -1.317  0.00  0.00     0.034 A 
ATOM      4  C3  UNL d   1       1.497  -2.664  -0.933  0.00  0.00     0.017 A 
ATOM      5  C4  UNL d   1       1.966  -3.352   0.193  0.00  0.00     0.017 A 
ATOM      6  C5  UNL d   1       3.039  -2.835   0.926  0.00  0.00     0.034 A 
ATOM      7 Cl   UNL d   1       1.266  -4.839   0.729  0.00  0.00    -0.070 Cl
ATOM      8 Cl1  UNL d   1       0.177  -3.238  -1.888  0.00  0.00    -0.070 Cl
ENDROOT
TORSDOF 0
ENDMDL
