MODEL 1
REMARK minimizedAffinity -3.68743515
REMARK minimizedRMSD -1
REMARK  0 active torsions:
REMARK  status: ('A' for Active; 'I' for Inactive)
ROOT
ATOM      1  C   UNL d   1      -0.702   1.342  -0.596  0.00  0.00     0.020 A 
ATOM      2  C1  UNL d   1       0.383   2.207  -0.461  0.00  0.00     0.020 A 
ATOM      3  C2  UNL d   1       1.681   1.696  -0.407  0.00  0.00     0.034 A 
ATOM      4  C3  UNL d   1       1.898   0.315  -0.487  0.00  0.00     0.017 A 
ATOM      5  C4  UNL d   1       0.808  -0.553  -0.621  0.00  0.00     0.017 A 
ATOM      6  C5  UNL d   1      -0.490  -0.035  -0.676  0.00  0.00     0.034 A 
ATOM      7 Cl   UNL d   1       0.996  -2.267  -0.726  0.00  0.00    -0.070 Cl
ATOM      8 Cl1  UNL d   1       3.530  -0.248  -0.413  0.00  0.00    -0.070 Cl
ENDROOT
TORSDOF 0
ENDMDL
