MODEL 1
REMARK minimizedAffinity -2.43431211
REMARK minimizedRMSD -1
REMARK  0 active torsions:
REMARK  status: ('A' for Active; 'I' for Inactive)
ROOT
ATOM      1  C   UNL d   1       1.252  -1.938  -1.109  0.00  0.00     0.020 A 
ATOM      2  C1  UNL d   1       0.588  -1.401  -0.006  0.00  0.00     0.020 A 
ATOM      3  C2  UNL d   1      -0.010  -0.143  -0.096  0.00  0.00     0.034 A 
ATOM      4  C3  UNL d   1       0.055   0.584  -1.291  0.00  0.00     0.017 A 
ATOM      5  C4  UNL d   1       0.722   0.045  -2.397  0.00  0.00     0.017 A 
ATOM      6  C5  UNL d   1       1.319  -1.216  -2.301  0.00  0.00     0.034 A 
ATOM      7 Cl   UNL d   1       0.844   0.881  -3.904  0.00  0.00    -0.070 Cl
ATOM      8 Cl1  UNL d   1      -0.708   2.134  -1.331  0.00  0.00    -0.070 Cl
ENDROOT
TORSDOF 0
ENDMDL
