MODEL 1
REMARK minimizedAffinity 4.3168087
REMARK minimizedRMSD -1
REMARK  0 active torsions:
REMARK  status: ('A' for Active; 'I' for Inactive)
ROOT
ATOM      1  C   UNL d   1      -3.780  -2.470   3.666  0.00  0.00     0.020 A 
ATOM      2  C1  UNL d   1      -4.015  -1.587   4.719  0.00  0.00     0.020 A 
ATOM      3  C2  UNL d   1      -3.512  -0.285   4.664  0.00  0.00     0.034 A 
ATOM      4  C3  UNL d   1      -2.772   0.137   3.553  0.00  0.00     0.017 A 
ATOM      5  C4  UNL d   1      -2.538  -0.750   2.496  0.00  0.00     0.017 A 
ATOM      6  C5  UNL d   1      -3.044  -2.052   2.557  0.00  0.00     0.034 A 
ATOM      7 Cl   UNL d   1      -1.634  -0.302   1.093  0.00  0.00    -0.070 Cl
ATOM      8 Cl1  UNL d   1      -2.181   1.761   3.552  0.00  0.00    -0.070 Cl
ENDROOT
TORSDOF 0
ENDMDL
