MODEL 1
REMARK minimizedAffinity 3.49583769
REMARK minimizedRMSD -1
REMARK  0 active torsions:
REMARK  status: ('A' for Active; 'I' for Inactive)
ROOT
ATOM      1  C   UNL d   1       2.734   0.838  -3.464  0.00  0.00     0.020 A 
ATOM      2  C1  UNL d   1       1.636   1.694  -3.397  0.00  0.00     0.020 A 
ATOM      3  C2  UNL d   1       0.672   1.516  -2.401  0.00  0.00     0.034 A 
ATOM      4  C3  UNL d   1       0.806   0.480  -1.470  0.00  0.00     0.017 A 
ATOM      5  C4  UNL d   1       1.909  -0.379  -1.539  0.00  0.00     0.017 A 
ATOM      6  C5  UNL d   1       2.870  -0.196  -2.537  0.00  0.00     0.034 A 
ATOM      7 Cl   UNL d   1       2.142  -1.679  -0.425  0.00  0.00    -0.070 Cl
ATOM      8 Cl1  UNL d   1      -0.423   0.319  -0.266  0.00  0.00    -0.070 Cl
ENDROOT
TORSDOF 0
ENDMDL
