MODEL 1
REMARK minimizedAffinity 0.510814071
REMARK minimizedRMSD -1
REMARK  0 active torsions:
REMARK  status: ('A' for Active; 'I' for Inactive)
ROOT
ATOM      1  C   UNL d   1      -2.252   2.961   2.405  0.00  0.00     0.020 A 
ATOM      2  C1  UNL d   1      -3.271   2.016   2.512  0.00  0.00     0.020 A 
ATOM      3  C2  UNL d   1      -3.492   1.106   1.476  0.00  0.00     0.034 A 
ATOM      4  C3  UNL d   1      -2.692   1.141   0.327  0.00  0.00     0.017 A 
ATOM      5  C4  UNL d   1      -1.669   2.090   0.221  0.00  0.00     0.017 A 
ATOM      6  C5  UNL d   1      -1.453   2.998   1.262  0.00  0.00     0.034 A 
ATOM      7 Cl   UNL d   1      -0.642   2.194  -1.165  0.00  0.00    -0.070 Cl
ATOM      8 Cl1  UNL d   1      -3.021  -0.014  -0.915  0.00  0.00    -0.070 Cl
ENDROOT
TORSDOF 0
ENDMDL
