MODEL 1
REMARK minimizedAffinity -1.63318276
REMARK minimizedRMSD -1
REMARK  0 active torsions:
REMARK  status: ('A' for Active; 'I' for Inactive)
ROOT
ATOM      1  C   UNL d   1       2.684  -0.629  -2.824  0.00  0.00     0.020 A 
ATOM      2  C1  UNL d   1       2.576   0.530  -3.592  0.00  0.00     0.020 A 
ATOM      3  C2  UNL d   1       1.606   1.484  -3.281  0.00  0.00     0.034 A 
ATOM      4  C3  UNL d   1       0.739   1.282  -2.201  0.00  0.00     0.017 A 
ATOM      5  C4  UNL d   1       0.849   0.119  -1.431  0.00  0.00     0.017 A 
ATOM      6  C5  UNL d   1       1.822  -0.834  -1.746  0.00  0.00     0.034 A 
ATOM      7 Cl   UNL d   1      -0.184  -0.201  -0.082  0.00  0.00    -0.070 Cl
ATOM      8 Cl1  UNL d   1      -0.437   2.505  -1.874  0.00  0.00    -0.070 Cl
ENDROOT
TORSDOF 0
ENDMDL
