MODEL 1
REMARK minimizedAffinity -3.49444985
REMARK minimizedRMSD -1
REMARK  0 active torsions:
REMARK  status: ('A' for Active; 'I' for Inactive)
ROOT
ATOM      1  C   UNL d   1      -0.703  -0.656  -0.080  0.00  0.00     0.020 A 
ATOM      2  C1  UNL d   1       0.169  -1.738  -0.194  0.00  0.00     0.020 A 
ATOM      3  C2  UNL d   1       1.437  -1.558  -0.750  0.00  0.00     0.034 A 
ATOM      4  C3  UNL d   1       1.838  -0.293  -1.194  0.00  0.00     0.017 A 
ATOM      5  C4  UNL d   1       0.962   0.793  -1.080  0.00  0.00     0.017 A 
ATOM      6  C5  UNL d   1      -0.307   0.607  -0.522  0.00  0.00     0.034 A 
ATOM      7 Cl   UNL d   1       1.385   2.384  -1.606  0.00  0.00    -0.070 Cl
ATOM      8 Cl1  UNL d   1       3.420  -0.143  -1.871  0.00  0.00    -0.070 Cl
ENDROOT
TORSDOF 0
ENDMDL
