MODEL 1
REMARK minimizedAffinity -1.28523433
REMARK minimizedRMSD -1
REMARK  0 active torsions:
REMARK  status: ('A' for Active; 'I' for Inactive)
ROOT
ATOM      1  C   UNL d   1       1.328  -1.986  -0.498  0.00  0.00     0.020 A 
ATOM      2  C1  UNL d   1       2.289  -1.302  -1.242  0.00  0.00     0.020 A 
ATOM      3  C2  UNL d   1       2.098   0.045  -1.557  0.00  0.00     0.034 A 
ATOM      4  C3  UNL d   1       0.944   0.712  -1.129  0.00  0.00     0.017 A 
ATOM      5  C4  UNL d   1      -0.020   0.023  -0.384  0.00  0.00     0.017 A 
ATOM      6  C5  UNL d   1       0.176  -1.325  -0.070  0.00  0.00     0.034 A 
ATOM      7 Cl   UNL d   1      -1.470   0.778   0.179  0.00  0.00    -0.070 Cl
ATOM      8 Cl1  UNL d   1       0.773   2.378  -1.555  0.00  0.00    -0.070 Cl
ENDROOT
TORSDOF 0
ENDMDL
