MODEL 1
REMARK minimizedAffinity -0.984424174
REMARK minimizedRMSD -1
REMARK  0 active torsions:
REMARK  status: ('A' for Active; 'I' for Inactive)
ROOT
ATOM      1  C   UNL d   1       1.434  -1.129  -1.537  0.00  0.00     0.020 A 
ATOM      2  C1  UNL d   1       0.932  -1.917  -0.503  0.00  0.00     0.020 A 
ATOM      3  C2  UNL d   1      -0.052  -1.409   0.348  0.00  0.00     0.034 A 
ATOM      4  C3  UNL d   1      -0.537  -0.108   0.166  0.00  0.00     0.017 A 
ATOM      5  C4  UNL d   1      -0.032   0.682  -0.873  0.00  0.00     0.017 A 
ATOM      6  C5  UNL d   1       0.953   0.168  -1.722  0.00  0.00     0.034 A 
ATOM      7 Cl   UNL d   1      -0.580   2.296  -1.161  0.00  0.00    -0.070 Cl
ATOM      8 Cl1  UNL d   1      -1.754   0.455   1.254  0.00  0.00    -0.070 Cl
ENDROOT
TORSDOF 0
ENDMDL
