MODEL 1
REMARK minimizedAffinity 2.19021726
REMARK minimizedRMSD -1
REMARK  0 active torsions:
REMARK  status: ('A' for Active; 'I' for Inactive)
ROOT
ATOM      1  C   UNL d   1       2.005   1.384  -1.737  0.00  0.00     0.020 A 
ATOM      2  C1  UNL d   1       1.365   1.103  -2.943  0.00  0.00     0.020 A 
ATOM      3  C2  UNL d   1       1.031  -0.214  -3.265  0.00  0.00     0.034 A 
ATOM      4  C3  UNL d   1       1.337  -1.255  -2.380  0.00  0.00     0.017 A 
ATOM      5  C4  UNL d   1       1.980  -0.971  -1.170  0.00  0.00     0.017 A 
ATOM      6  C5  UNL d   1       2.312   0.350  -0.852  0.00  0.00     0.034 A 
ATOM      7 Cl   UNL d   1       2.390  -2.202  -0.027  0.00  0.00    -0.070 Cl
ATOM      8 Cl1  UNL d   1       0.894  -2.859  -2.843  0.00  0.00    -0.070 Cl
ENDROOT
TORSDOF 0
ENDMDL
