MODEL 1
REMARK minimizedAffinity -2.56766748
REMARK minimizedRMSD -1
REMARK  1 active torsions:
REMARK  status: ('A' for Active; 'I' for Inactive)
REMARK    1  A    between atoms: C3_4  and  O_7 
ROOT
ATOM      1  C   UNL d   1       1.347  -3.329   3.470  0.00  0.00    -0.033 A 
ATOM      2  C1  UNL d   1       1.838  -2.398   4.387  0.00  0.00     0.039 A 
ATOM      3  C2  UNL d   1       2.295  -1.155   3.946  0.00  0.00    -0.080 A 
ATOM      4  C3  UNL d   1       2.253  -0.854   2.588  0.00  0.00     0.150 A 
ATOM      5  C4  UNL d   1       1.761  -1.775   1.669  0.00  0.00    -0.007 A 
ATOM      6  C5  UNL d   1       1.307  -3.017   2.111  0.00  0.00     0.039 A 
ENDROOT
BRANCH   4   7
ATOM      7  O   UNL d   1       2.692   0.344   2.109  0.00  0.00    -0.526 OA
ATOM      8  H5  UNL d   1       3.031   0.868   2.855  0.00  0.00     0.418 HD
ENDBRANCH   4   7
TORSDOF 1
ENDMDL
