MODEL 1
REMARK minimizedAffinity -2.80616474
REMARK minimizedRMSD -1
REMARK  1 active torsions:
REMARK  status: ('A' for Active; 'I' for Inactive)
REMARK    1  A    between atoms: C3_4  and  O_7 
ROOT
ATOM      1  C   UNL d   1       2.641  -4.335   4.653  0.00  0.00    -0.033 A 
ATOM      2  C1  UNL d   1       2.141  -3.151   5.197  0.00  0.00     0.039 A 
ATOM      3  C2  UNL d   1       1.607  -2.167   4.361  0.00  0.00    -0.080 A 
ATOM      4  C3  UNL d   1       1.579  -2.381   2.986  0.00  0.00     0.150 A 
ATOM      5  C4  UNL d   1       2.072  -3.561   2.437  0.00  0.00    -0.007 A 
ATOM      6  C5  UNL d   1       2.605  -4.541   3.273  0.00  0.00     0.039 A 
ENDROOT
BRANCH   4   7
ATOM      7  O   UNL d   1       1.072  -1.449   2.130  0.00  0.00    -0.526 OA
ATOM      8  H5  UNL d   1       0.795  -0.675   2.647  0.00  0.00     0.418 HD
ENDBRANCH   4   7
TORSDOF 1
ENDMDL
