MODEL 1
REMARK minimizedAffinity -0.211819157
REMARK minimizedRMSD -1
REMARK  1 active torsions:
REMARK  status: ('A' for Active; 'I' for Inactive)
REMARK    1  A    between atoms: C3_4  and  O_7 
ROOT
ATOM      1  C   UNL d   1       3.231   1.886   2.008  0.00  0.00    -0.033 A 
ATOM      2  C1  UNL d   1       2.567   1.643   3.212  0.00  0.00     0.039 A 
ATOM      3  C2  UNL d   1       1.948   0.412   3.434  0.00  0.00    -0.080 A 
ATOM      4  C3  UNL d   1       2.002  -0.568   2.447  0.00  0.00     0.150 A 
ATOM      5  C4  UNL d   1       2.666  -0.335   1.247  0.00  0.00    -0.007 A 
ATOM      6  C5  UNL d   1       3.282   0.896   1.026  0.00  0.00     0.039 A 
ENDROOT
BRANCH   4   7
ATOM      7  O   UNL d   1       1.409  -1.784   2.616  0.00  0.00    -0.526 OA
ATOM      8  H5  UNL d   1       0.964  -1.792   3.480  0.00  0.00     0.418 HD
ENDBRANCH   4   7
TORSDOF 1
ENDMDL
