MODEL 1
REMARK minimizedAffinity 1.47815502
REMARK minimizedRMSD -1
REMARK  1 active torsions:
REMARK  status: ('A' for Active; 'I' for Inactive)
REMARK    1  A    between atoms: C3_4  and  O_7 
ROOT
ATOM      1  C   UNL d   1       3.723  -5.983  -1.612  0.00  0.00    -0.033 A 
ATOM      2  C1  UNL d   1       2.339  -5.985  -1.799  0.00  0.00     0.039 A 
ATOM      3  C2  UNL d   1       1.807  -5.991  -3.089  0.00  0.00    -0.080 A 
ATOM      4  C3  UNL d   1       2.668  -5.997  -4.183  0.00  0.00     0.150 A 
ATOM      5  C4  UNL d   1       4.047  -5.999  -4.005  0.00  0.00    -0.007 A 
ATOM      6  C5  UNL d   1       4.577  -5.992  -2.715  0.00  0.00     0.039 A 
ENDROOT
BRANCH   4   7
ATOM      7  O   UNL d   1       2.195  -5.998  -5.462  0.00  0.00    -0.526 OA
ATOM      8  H5  UNL d   1       1.224  -5.967  -5.432  0.00  0.00     0.418 HD
ENDBRANCH   4   7
TORSDOF 1
ENDMDL
