MODEL 1
REMARK minimizedAffinity 3.32860708
REMARK minimizedRMSD -1
REMARK  0 active torsions:
REMARK  status: ('A' for Active; 'I' for Inactive)
ROOT
ATOM      1  O1  BZF d   1      -3.937   5.589   2.275  0.00  0.00    -0.204 OA
ATOM      2  C2  BZF d   1      -5.001   5.948   3.081  0.00  0.00     0.174 A 
ATOM      3  C3  BZF d   1      -5.995   5.041   2.994  0.00  0.00    -0.012 A 
ATOM      4  C3A BZF d   1      -5.486   4.005   2.149  0.00  0.00    -0.107 A 
ATOM      5  C4  BZF d   1      -6.000   2.822   1.700  0.00  0.00     0.055 A 
ATOM      6  C5  BZF d   1      -5.274   2.075   0.827  0.00  0.00    -0.016 A 
ATOM      7  C6  BZF d   1      -4.034   2.482   0.380  0.00  0.00     0.022 A 
ATOM      8  C7  BZF d   1      -3.480   3.645   0.801  0.00  0.00     0.029 A 
ATOM      9  C7A BZF d   1      -4.197   4.386   1.708  0.00  0.00     0.058 A 
ENDROOT
TORSDOF 0
ENDMDL
