MODEL 1
REMARK minimizedAffinity 0.911686242
REMARK minimizedRMSD -1
REMARK  0 active torsions:
REMARK  status: ('A' for Active; 'I' for Inactive)
ROOT
ATOM      1  O1  BZF d   1       2.883   1.557   0.554  0.00  0.00    -0.204 OA
ATOM      2  C2  BZF d   1       3.422   0.697  -0.383  0.00  0.00     0.174 A 
ATOM      3  C3  BZF d   1       3.049  -0.575  -0.136  0.00  0.00    -0.012 A 
ATOM      4  C3A BZF d   1       2.149  -0.494   0.974  0.00  0.00    -0.107 A 
ATOM      5  C4  BZF d   1       1.433  -1.424   1.672  0.00  0.00     0.055 A 
ATOM      6  C5  BZF d   1       0.706  -1.027   2.749  0.00  0.00    -0.016 A 
ATOM      7  C6  BZF d   1       0.677   0.290   3.159  0.00  0.00     0.022 A 
ATOM      8  C7  BZF d   1       1.367   1.250   2.496  0.00  0.00     0.029 A 
ATOM      9  C7A BZF d   1       2.076   0.856   1.387  0.00  0.00     0.058 A 
ENDROOT
TORSDOF 0
ENDMDL
