MODEL 1
REMARK minimizedAffinity 2.99468637
REMARK minimizedRMSD -1
REMARK  0 active torsions:
REMARK  status: ('A' for Active; 'I' for Inactive)
ROOT
ATOM      1  O1  BZF d   1       3.374  -0.537  -0.392  0.00  0.00    -0.204 OA
ATOM      2  C2  BZF d   1       2.225  -0.147   0.268  0.00  0.00     0.174 A 
ATOM      3  C3  BZF d   1       2.285   1.158   0.603  0.00  0.00    -0.012 A 
ATOM      4  C3A BZF d   1       3.513   1.634   0.042  0.00  0.00    -0.107 A 
ATOM      5  C4  BZF d   1       4.125   2.855   0.024  0.00  0.00     0.055 A 
ATOM      6  C5  BZF d   1       5.353   2.968  -0.547  0.00  0.00    -0.016 A 
ATOM      7  C6  BZF d   1       5.999   1.883  -1.102  0.00  0.00     0.022 A 
ATOM      8  C7  BZF d   1       5.429   0.654  -1.112  0.00  0.00     0.029 A 
ATOM      9  C7A BZF d   1       4.174   0.542  -0.566  0.00  0.00     0.058 A 
ENDROOT
TORSDOF 0
ENDMDL
