MODEL 1
REMARK minimizedAffinity -2.00353599
REMARK minimizedRMSD -1
REMARK  0 active torsions:
REMARK  status: ('A' for Active; 'I' for Inactive)
ROOT
ATOM      1  O1  BZF d   1      -3.326   3.327  -3.350  0.00  0.00    -0.204 OA
ATOM      2  C2  BZF d   1      -4.119   3.874  -2.360  0.00  0.00     0.174 A 
ATOM      3  C3  BZF d   1      -5.282   3.199  -2.252  0.00  0.00    -0.012 A 
ATOM      4  C3A BZF d   1      -5.171   2.109  -3.172  0.00  0.00    -0.107 A 
ATOM      5  C4  BZF d   1      -6.000   1.077  -3.509  0.00  0.00     0.055 A 
ATOM      6  C5  BZF d   1      -5.625   0.224  -4.498  0.00  0.00    -0.016 A 
ATOM      7  C6  BZF d   1      -4.432   0.377  -5.174  0.00  0.00     0.022 A 
ATOM      8  C7  BZF d   1      -3.575   1.383  -4.872  0.00  0.00     0.029 A 
ATOM      9  C7A BZF d   1      -3.936   2.226  -3.851  0.00  0.00     0.058 A 
ENDROOT
TORSDOF 0
ENDMDL
