MODEL 1
REMARK minimizedAffinity -0.405941308
REMARK minimizedRMSD -1
REMARK  0 active torsions:
REMARK  status: ('A' for Active; 'I' for Inactive)
ROOT
ATOM      1  O1  BZF d   1      -2.327   1.763  -2.904  0.00  0.00    -0.204 OA
ATOM      2  C2  BZF d   1      -2.013   0.452  -3.206  0.00  0.00     0.174 A 
ATOM      3  C3  BZF d   1      -3.040  -0.152  -3.837  0.00  0.00    -0.012 A 
ATOM      4  C3A BZF d   1      -4.025   0.870  -4.018  0.00  0.00    -0.107 A 
ATOM      5  C4  BZF d   1      -5.262   0.891  -4.596  0.00  0.00     0.055 A 
ATOM      6  C5  BZF d   1      -5.998   2.032  -4.541  0.00  0.00    -0.016 A 
ATOM      7  C6  BZF d   1      -5.531   3.167  -3.912  0.00  0.00     0.022 A 
ATOM      8  C7  BZF d   1      -4.308   3.197  -3.329  0.00  0.00     0.029 A 
ATOM      9  C7A BZF d   1      -3.548   2.055  -3.412  0.00  0.00     0.058 A 
ENDROOT
TORSDOF 0
ENDMDL
