MODEL 1
REMARK minimizedAffinity -0.0746272802
REMARK minimizedRMSD -1
REMARK  0 active torsions:
REMARK  status: ('A' for Active; 'I' for Inactive)
ROOT
ATOM      1  O1  BZF d   1       3.884   0.585  -2.177  0.00  0.00    -0.204 OA
ATOM      2  C2  BZF d   1       4.487   1.519  -1.357  0.00  0.00     0.174 A 
ATOM      3  C3  BZF d   1       4.244   1.244  -0.059  0.00  0.00    -0.012 A 
ATOM      4  C3A BZF d   1       3.515   0.012  -0.066  0.00  0.00    -0.107 A 
ATOM      5  C4  BZF d   1       3.002  -0.780   0.921  0.00  0.00     0.055 A 
ATOM      6  C5  BZF d   1       2.281  -1.879   0.577  0.00  0.00    -0.016 A 
ATOM      7  C6  BZF d   1       2.049  -2.212  -0.742  0.00  0.00     0.022 A 
ATOM      8  C7  BZF d   1       2.542  -1.460  -1.755  0.00  0.00     0.029 A 
ATOM      9  C7A BZF d   1       3.299  -0.366  -1.411  0.00  0.00     0.058 A 
ENDROOT
TORSDOF 0
ENDMDL
