MODEL 1
REMARK minimizedAffinity 11.3384285
REMARK minimizedRMSD -1
REMARK  0 active torsions:
REMARK  status: ('A' for Active; 'I' for Inactive)
ROOT
ATOM      1  O1  BZF d   1       0.601   0.533   2.890  0.00  0.00    -0.204 OA
ATOM      2  C2  BZF d   1       0.546   1.898   3.094  0.00  0.00     0.174 A 
ATOM      3  C3  BZF d   1       1.201   2.555   2.114  0.00  0.00    -0.012 A 
ATOM      4  C3A BZF d   1       1.618   1.541   1.195  0.00  0.00    -0.107 A 
ATOM      5  C4  BZF d   1       2.299   1.569   0.012  0.00  0.00     0.055 A 
ATOM      6  C5  BZF d   1       2.609   0.396  -0.600  0.00  0.00    -0.016 A 
ATOM      7  C6  BZF d   1       2.258  -0.822  -0.055  0.00  0.00     0.022 A 
ATOM      8  C7  BZF d   1       1.577  -0.900   1.114  0.00  0.00     0.029 A 
ATOM      9  C7A BZF d   1       1.234   0.284   1.718  0.00  0.00     0.058 A 
ENDROOT
TORSDOF 0
ENDMDL
