MODEL 1
REMARK minimizedAffinity 4.44834757
REMARK minimizedRMSD -1
REMARK  1 active torsions:
REMARK  status: ('A' for Active; 'I' for Inactive)
REMARK    1  A    between atoms: C1_2  and  C2_3 
ROOT
ATOM      1  C2  UNL d   1       0.152  -0.524   1.890  0.00  0.00    -0.076 A 
ATOM      2  C3  UNL d   1       1.486  -0.268   1.530  0.00  0.00     0.004 A 
ATOM      3  C4  UNL d   1       2.009  -0.745   0.328  0.00  0.00    -0.003 A 
ATOM      4  C5  UNL d   1       1.205  -1.484  -0.532  0.00  0.00     0.000 A 
ATOM      5  C6  UNL d   1      -0.126  -1.733  -0.198  0.00  0.00     0.000 A 
ATOM      6  C7  UNL d   1      -0.673  -1.246   1.001  0.00  0.00    -0.073 A 
ATOM      7  C8  UNL d   1      -2.113  -1.549   1.313  0.00  0.00     0.078 C 
ENDROOT
BRANCH   1   8
ATOM      8  C1  UNL d   1      -0.352  -0.005   3.218  0.00  0.00     0.053 C 
ATOM      9  C   UNL d   1       0.559  -0.385   4.376  0.00  0.00     0.018 C 
ENDBRANCH   1   8
TORSDOF 1
ENDMDL
