MODEL 1
REMARK minimizedAffinity 6.39730453
REMARK minimizedRMSD -1
REMARK  1 active torsions:
REMARK  status: ('A' for Active; 'I' for Inactive)
REMARK    1  A    between atoms: C1_2  and  C2_3 
ROOT
ATOM      1  C2  UNL d   1       1.526  -1.188   0.422  0.00  0.00    -0.076 A 
ATOM      2  C3  UNL d   1       0.733  -0.172   0.984  0.00  0.00     0.004 A 
ATOM      3  C4  UNL d   1      -0.631  -0.364   1.200  0.00  0.00    -0.003 A 
ATOM      4  C5  UNL d   1      -1.223  -1.575   0.859  0.00  0.00     0.000 A 
ATOM      5  C6  UNL d   1      -0.448  -2.600   0.317  0.00  0.00     0.000 A 
ATOM      6  C7  UNL d   1       0.932  -2.429   0.108  0.00  0.00    -0.073 A 
ATOM      7  C8  UNL d   1       1.718  -3.565  -0.485  0.00  0.00     0.078 C 
ENDROOT
BRANCH   1   8
ATOM      8  C1  UNL d   1       2.994  -0.913   0.186  0.00  0.00     0.053 C 
ATOM      9  C   UNL d   1       3.675  -0.302   1.401  0.00  0.00     0.018 C 
ENDBRANCH   1   8
TORSDOF 1
ENDMDL
