MODEL 1
REMARK minimizedAffinity -2.30177546
REMARK minimizedRMSD -1
REMARK  1 active torsions:
REMARK  status: ('A' for Active; 'I' for Inactive)
REMARK    1  A    between atoms: C1_2  and  C2_3 
ROOT
ATOM      1  C2  UNL d   1       1.738  -1.431   0.507  0.00  0.00    -0.076 A 
ATOM      2  C3  UNL d   1       0.557  -0.732   0.812  0.00  0.00     0.004 A 
ATOM      3  C4  UNL d   1      -0.686  -1.358   0.744  0.00  0.00    -0.003 A 
ATOM      4  C5  UNL d   1      -0.769  -2.695   0.371  0.00  0.00     0.000 A 
ATOM      5  C6  UNL d   1       0.394  -3.410   0.082  0.00  0.00     0.000 A 
ATOM      6  C7  UNL d   1       1.656  -2.797   0.162  0.00  0.00    -0.073 A 
ATOM      7  C8  UNL d   1       2.876  -3.613  -0.166  0.00  0.00     0.078 C 
ENDROOT
BRANCH   1   8
ATOM      8  C1  UNL d   1       3.055  -0.692   0.572  0.00  0.00     0.053 C 
ATOM      9  C   UNL d   1       3.228   0.077   1.873  0.00  0.00     0.018 C 
ENDBRANCH   1   8
TORSDOF 1
ENDMDL
