MODEL 1
REMARK minimizedAffinity 5.64234734
REMARK minimizedRMSD -1
REMARK  1 active torsions:
REMARK  status: ('A' for Active; 'I' for Inactive)
REMARK    1  A    between atoms: C1_2  and  C2_3 
ROOT
ATOM      1  C2  UNL d   1       0.920  -2.240  -0.010  0.00  0.00    -0.076 A 
ATOM      2  C3  UNL d   1      -0.448  -1.974   0.177  0.00  0.00     0.004 A 
ATOM      3  C4  UNL d   1      -0.869  -0.894   0.952  0.00  0.00    -0.003 A 
ATOM      4  C5  UNL d   1       0.071  -0.063   1.551  0.00  0.00     0.000 A 
ATOM      5  C6  UNL d   1       1.432  -0.302   1.361  0.00  0.00     0.000 A 
ATOM      6  C7  UNL d   1       1.873  -1.377   0.570  0.00  0.00    -0.073 A 
ATOM      7  C8  UNL d   1       3.353  -1.591   0.404  0.00  0.00     0.078 C 
ENDROOT
BRANCH   1   8
ATOM      8  C1  UNL d   1       1.317  -3.442  -0.838  0.00  0.00     0.053 C 
ATOM      9  C   UNL d   1       2.549  -4.146  -0.290  0.00  0.00     0.018 C 
ENDBRANCH   1   8
TORSDOF 1
ENDMDL
