MODEL 1
REMARK minimizedAffinity 3.33474922
REMARK minimizedRMSD -1
REMARK  1 active torsions:
REMARK  status: ('A' for Active; 'I' for Inactive)
REMARK    1  A    between atoms: C1_2  and  C2_3 
ROOT
ATOM      1  C2  UNL d   1       0.725  -1.281   0.899  0.00  0.00    -0.076 A 
ATOM      2  C3  UNL d   1      -0.268  -0.436   1.424  0.00  0.00     0.004 A 
ATOM      3  C4  UNL d   1      -1.596  -0.850   1.499  0.00  0.00    -0.003 A 
ATOM      4  C5  UNL d   1      -1.954  -2.117   1.051  0.00  0.00     0.000 A 
ATOM      5  C6  UNL d   1      -0.979  -2.975   0.543  0.00  0.00     0.000 A 
ATOM      6  C7  UNL d   1       0.368  -2.579   0.475  0.00  0.00    -0.073 A 
ATOM      7  C8  UNL d   1       1.376  -3.543  -0.087  0.00  0.00     0.078 C 
ENDROOT
BRANCH   1   8
ATOM      8  C1  UNL d   1       2.145  -0.767   0.817  0.00  0.00     0.053 C 
ATOM      9  C   UNL d   1       2.528   0.080   2.021  0.00  0.00     0.018 C 
ENDBRANCH   1   8
TORSDOF 1
ENDMDL
