MODEL 1
REMARK minimizedAffinity -0.935256958
REMARK minimizedRMSD -1
REMARK  1 active torsions:
REMARK  status: ('A' for Active; 'I' for Inactive)
REMARK    1  A    between atoms: C1_2  and  C2_3 
ROOT
ATOM      1  C2  UNL d   1       1.214  -1.464   0.489  0.00  0.00    -0.076 A 
ATOM      2  C3  UNL d   1       1.643  -2.695  -0.038  0.00  0.00     0.004 A 
ATOM      3  C4  UNL d   1       0.723  -3.656  -0.456  0.00  0.00    -0.003 A 
ATOM      4  C5  UNL d   1      -0.640  -3.400  -0.356  0.00  0.00     0.000 A 
ATOM      5  C6  UNL d   1      -1.083  -2.177   0.147  0.00  0.00     0.000 A 
ATOM      6  C7  UNL d   1      -0.169  -1.192   0.558  0.00  0.00    -0.073 A 
ATOM      7  C8  UNL d   1      -0.702   0.106   1.099  0.00  0.00     0.078 C 
ENDROOT
BRANCH   1   8
ATOM      8  C1  UNL d   1       2.257  -0.472   0.952  0.00  0.00     0.053 C 
ATOM      9  C   UNL d   1       2.365  -0.406   2.468  0.00  0.00     0.018 C 
ENDBRANCH   1   8
TORSDOF 1
ENDMDL
