MODEL 1
REMARK minimizedAffinity 0.781851888
REMARK minimizedRMSD -1
REMARK  1 active torsions:
REMARK  status: ('A' for Active; 'I' for Inactive)
REMARK    1  A    between atoms: C1_2  and  C2_3 
ROOT
ATOM      1  C2  UNL d   1      -0.247  -0.779   0.657  0.00  0.00    -0.076 A 
ATOM      2  C3  UNL d   1      -1.503  -0.521   0.080  0.00  0.00     0.004 A 
ATOM      3  C4  UNL d   1      -2.402   0.358   0.682  0.00  0.00    -0.003 A 
ATOM      4  C5  UNL d   1      -2.060   0.994   1.870  0.00  0.00     0.000 A 
ATOM      5  C6  UNL d   1      -0.811   0.764   2.447  0.00  0.00     0.000 A 
ATOM      6  C7  UNL d   1       0.113  -0.107   1.845  0.00  0.00    -0.073 A 
ATOM      7  C8  UNL d   1       1.443  -0.323   2.514  0.00  0.00     0.078 C 
ENDROOT
BRANCH   1   8
ATOM      8  C1  UNL d   1       0.675  -1.763  -0.026  0.00  0.00     0.053 C 
ATOM      9  C   UNL d   1       0.310  -3.208   0.272  0.00  0.00     0.018 C 
ENDBRANCH   1   8
TORSDOF 1
ENDMDL
