MODEL 1
REMARK minimizedAffinity 0.732585609
REMARK minimizedRMSD -1
REMARK  1 active torsions:
REMARK  status: ('A' for Active; 'I' for Inactive)
REMARK    1  A    between atoms: C1_2  and  C2_3 
ROOT
ATOM      1  C2  UNL d   1       1.171  -2.596  -0.171  0.00  0.00    -0.076 A 
ATOM      2  C3  UNL d   1      -0.039  -2.978   0.433  0.00  0.00     0.004 A 
ATOM      3  C4  UNL d   1      -0.727  -2.107   1.276  0.00  0.00    -0.003 A 
ATOM      4  C5  UNL d   1      -0.216  -0.838   1.527  0.00  0.00     0.000 A 
ATOM      5  C6  UNL d   1       0.974  -0.435   0.922  0.00  0.00     0.000 A 
ATOM      6  C7  UNL d   1       1.672  -1.296   0.058  0.00  0.00    -0.073 A 
ATOM      7  C8  UNL d   1       2.954  -0.812  -0.563  0.00  0.00     0.078 C 
ENDROOT
BRANCH   1   8
ATOM      8  C1  UNL d   1       1.887  -3.593  -1.054  0.00  0.00     0.053 C 
ATOM      9  C   UNL d   1       3.161  -4.126  -0.417  0.00  0.00     0.018 C 
ENDBRANCH   1   8
TORSDOF 1
ENDMDL
