MODEL 1
REMARK minimizedAffinity 3.9355731
REMARK minimizedRMSD -1
REMARK  1 active torsions:
REMARK  status: ('A' for Active; 'I' for Inactive)
REMARK    1  A    between atoms: C1_2  and  C2_3 
ROOT
ATOM      1  C2  UNL d   1      -0.199  -0.477   1.132  0.00  0.00    -0.076 A 
ATOM      2  C3  UNL d   1      -0.675  -1.357   0.144  0.00  0.00     0.004 A 
ATOM      3  C4  UNL d   1       0.200  -2.170  -0.574  0.00  0.00    -0.003 A 
ATOM      4  C5  UNL d   1       1.566  -2.117  -0.316  0.00  0.00     0.000 A 
ATOM      5  C6  UNL d   1       2.054  -1.263   0.672  0.00  0.00     0.000 A 
ATOM      6  C7  UNL d   1       1.183  -0.449   1.417  0.00  0.00    -0.073 A 
ATOM      7  C8  UNL d   1       1.765   0.458   2.467  0.00  0.00     0.078 C 
ENDROOT
BRANCH   1   8
ATOM      8  C1  UNL d   1      -1.192   0.400   1.860  0.00  0.00     0.053 C 
ATOM      9  C   UNL d   1      -2.492   0.570   1.090  0.00  0.00     0.018 C 
ENDBRANCH   1   8
TORSDOF 1
ENDMDL
