MODEL 1
REMARK minimizedAffinity 3.0343802
REMARK minimizedRMSD -1
REMARK  1 active torsions:
REMARK  status: ('A' for Active; 'I' for Inactive)
REMARK    1  A    between atoms: C1_2  and  C2_3 
ROOT
ATOM      1  C2  UNL d   1       0.864  -1.031   1.528  0.00  0.00    -0.076 A 
ATOM      2  C3  UNL d   1       2.087  -1.025   0.836  0.00  0.00     0.004 A 
ATOM      3  C4  UNL d   1       2.149  -1.367  -0.514  0.00  0.00    -0.003 A 
ATOM      4  C5  UNL d   1       0.989  -1.720  -1.194  0.00  0.00     0.000 A 
ATOM      5  C6  UNL d   1      -0.236  -1.714  -0.527  0.00  0.00     0.000 A 
ATOM      6  C7  UNL d   1      -0.318  -1.357   0.829  0.00  0.00    -0.073 A 
ATOM      7  C8  UNL d   1      -1.665  -1.374   1.500  0.00  0.00     0.078 C 
ENDROOT
BRANCH   1   8
ATOM      8  C1  UNL d   1       0.862  -0.678   2.998  0.00  0.00     0.053 C 
ATOM      9  C   UNL d   1       1.139  -1.880   3.887  0.00  0.00     0.018 C 
ENDBRANCH   1   8
TORSDOF 1
ENDMDL
