MODEL 1
REMARK minimizedAffinity 1.94126511
REMARK minimizedRMSD -1
REMARK  1 active torsions:
REMARK  status: ('A' for Active; 'I' for Inactive)
REMARK    1  A    between atoms: C1_2  and  C2_3 
ROOT
ATOM      1  C2  UNL d   1      -5.192  -3.185   4.530  0.00  0.00    -0.076 A 
ATOM      2  C3  UNL d   1      -4.866  -2.384   3.422  0.00  0.00     0.004 A 
ATOM      3  C4  UNL d   1      -4.897  -2.902   2.129  0.00  0.00    -0.003 A 
ATOM      4  C5  UNL d   1      -5.255  -4.230   1.922  0.00  0.00     0.000 A 
ATOM      5  C6  UNL d   1      -5.598  -5.034   3.008  0.00  0.00     0.000 A 
ATOM      6  C7  UNL d   1      -5.588  -4.523   4.317  0.00  0.00    -0.073 A 
ATOM      7  C8  UNL d   1      -5.962  -5.437   5.452  0.00  0.00     0.078 C 
ENDROOT
BRANCH   1   8
ATOM      8  C1  UNL d   1      -5.115  -2.576   5.912  0.00  0.00     0.053 C 
ATOM      9  C   UNL d   1      -4.832  -1.082   5.875  0.00  0.00     0.018 C 
ENDBRANCH   1   8
TORSDOF 1
ENDMDL
