MODEL 1
REMARK minimizedAffinity 4.81266499
REMARK minimizedRMSD -1
REMARK  1 active torsions:
REMARK  status: ('A' for Active; 'I' for Inactive)
REMARK    1  A    between atoms: C1_2  and  C2_3 
ROOT
ATOM      1  C2  UNL d   1       0.450  -1.449   0.654  0.00  0.00    -0.076 A 
ATOM      2  C3  UNL d   1       1.634  -0.692   0.601  0.00  0.00     0.004 A 
ATOM      3  C4  UNL d   1       2.805  -1.228   0.068  0.00  0.00    -0.003 A 
ATOM      4  C5  UNL d   1       2.812  -2.529  -0.421  0.00  0.00     0.000 A 
ATOM      5  C6  UNL d   1       1.643  -3.289  -0.392  0.00  0.00     0.000 A 
ATOM      6  C7  UNL d   1       0.449  -2.758   0.126  0.00  0.00    -0.073 A 
ATOM      7  C8  UNL d   1      -0.781  -3.624   0.138  0.00  0.00     0.078 C 
ENDROOT
BRANCH   1   8
ATOM      8  C1  UNL d   1      -0.782  -0.824   1.268  0.00  0.00     0.053 C 
ATOM      9  C   UNL d   1      -0.450   0.102   2.427  0.00  0.00     0.018 C 
ENDBRANCH   1   8
TORSDOF 1
ENDMDL
