MODEL 1
REMARK minimizedAffinity 0.350352794
REMARK minimizedRMSD -1
REMARK  0 active torsions:
REMARK  status: ('A' for Active; 'I' for Inactive)
ROOT
ATOM      1  C   UNL d   1      -1.101  -1.949   1.573  0.00  0.00     0.124 A 
ATOM      2  C1  UNL d   1      -0.612  -2.202   0.299  0.00  0.00     0.062 A 
ATOM      3  C2  UNL d   1      -0.148  -1.156  -0.493  0.00  0.00     0.162 A 
ATOM      4  C3  UNL d   1      -0.170   0.154  -0.013  0.00  0.00    -0.034 A 
ATOM      5  C4  UNL d   1      -0.665   0.400   1.269  0.00  0.00     0.162 A 
ATOM      6  C5  UNL d   1      -1.127  -0.649   2.057  0.00  0.00     0.062 A 
ATOM      7  F   UNL d   1      -1.600  -0.403   3.288  0.00  0.00    -0.097 F 
ATOM      8  F1  UNL d   1      -0.701   1.647   1.762  0.00  0.00    -0.096 F 
ATOM      9  I   UNL d   1       0.522   1.721  -1.194  0.00  0.00    -0.060 I 
ATOM     10  F2  UNL d   1       0.319  -1.429  -1.720  0.00  0.00    -0.096 F 
ATOM     11  F3  UNL d   1      -0.587  -3.458  -0.171  0.00  0.00    -0.097 F 
ATOM     12  F4  UNL d   1      -1.548  -2.958   2.333  0.00  0.00    -0.092 F 
ENDROOT
TORSDOF 0
ENDMDL
