MODEL 1
REMARK minimizedAffinity -0.797940195
REMARK minimizedRMSD -1
REMARK  0 active torsions:
REMARK  status: ('A' for Active; 'I' for Inactive)
ROOT
ATOM      1  C   UNL d   1      -0.971  -1.681  -0.621  0.00  0.00     0.124 A 
ATOM      2  C1  UNL d   1      -1.227  -1.321   0.695  0.00  0.00     0.062 A 
ATOM      3  C2  UNL d   1      -0.899  -0.046   1.149  0.00  0.00     0.162 A 
ATOM      4  C3  UNL d   1      -0.313   0.879   0.285  0.00  0.00    -0.034 A 
ATOM      5  C4  UNL d   1      -0.058   0.509  -1.037  0.00  0.00     0.162 A 
ATOM      6  C5  UNL d   1      -0.387  -0.766  -1.485  0.00  0.00     0.062 A 
ATOM      7  F   UNL d   1      -0.140  -1.112  -2.757  0.00  0.00    -0.097 F 
ATOM      8  F1  UNL d   1       0.505   1.374  -1.894  0.00  0.00    -0.096 F 
ATOM      9  I   UNL d   1       0.179   2.785   0.960  0.00  0.00    -0.060 I 
ATOM     10  F2  UNL d   1      -1.157   0.274   2.426  0.00  0.00    -0.096 F 
ATOM     11  F3  UNL d   1      -1.790  -2.203   1.533  0.00  0.00    -0.097 F 
ATOM     12  F4  UNL d   1      -1.287  -2.908  -1.054  0.00  0.00    -0.092 F 
ENDROOT
TORSDOF 0
ENDMDL
