MODEL 1
REMARK minimizedAffinity -3.11891818
REMARK minimizedRMSD -1
REMARK  0 active torsions:
REMARK  status: ('A' for Active; 'I' for Inactive)
ROOT
ATOM      1  C   UNL d   1      -1.101  -0.808   1.249  0.00  0.00     0.124 A 
ATOM      2  C1  UNL d   1      -0.848   0.150   0.277  0.00  0.00     0.062 A 
ATOM      3  C2  UNL d   1      -0.343  -0.228  -0.964  0.00  0.00     0.162 A 
ATOM      4  C3  UNL d   1      -0.090  -1.571  -1.241  0.00  0.00    -0.034 A 
ATOM      5  C4  UNL d   1      -0.346  -2.529  -0.258  0.00  0.00     0.162 A 
ATOM      6  C5  UNL d   1      -0.850  -2.146   0.981  0.00  0.00     0.062 A 
ATOM      7  F   UNL d   1      -1.095  -3.073   1.918  0.00  0.00    -0.097 F 
ATOM      8  F1  UNL d   1      -0.114  -3.829  -0.491  0.00  0.00    -0.096 F 
ATOM      9  I   UNL d   1       0.664  -2.141  -3.095  0.00  0.00    -0.060 I 
ATOM     10  F2  UNL d   1      -0.108   0.719  -1.884  0.00  0.00    -0.096 F 
ATOM     11  F3  UNL d   1      -1.088   1.444   0.535  0.00  0.00    -0.097 F 
ATOM     12  F4  UNL d   1      -1.586  -0.441   2.443  0.00  0.00    -0.092 F 
ENDROOT
TORSDOF 0
ENDMDL
