MODEL 1
REMARK minimizedAffinity -2.82664061
REMARK minimizedRMSD -1
REMARK  0 active torsions:
REMARK  status: ('A' for Active; 'I' for Inactive)
ROOT
ATOM      1  C   UNL d   1       0.115  -2.184  -2.018  0.00  0.00     0.124 A 
ATOM      2  C1  UNL d   1      -0.029  -0.812  -1.861  0.00  0.00     0.062 A 
ATOM      3  C2  UNL d   1      -0.506  -0.291  -0.662  0.00  0.00     0.162 A 
ATOM      4  C3  UNL d   1      -0.843  -1.142   0.391  0.00  0.00    -0.034 A 
ATOM      5  C4  UNL d   1      -0.696  -2.520   0.225  0.00  0.00     0.162 A 
ATOM      6  C5  UNL d   1      -0.218  -3.036  -0.975  0.00  0.00     0.062 A 
ATOM      7  F   UNL d   1      -0.080  -4.362  -1.124  0.00  0.00    -0.097 F 
ATOM      8  F1  UNL d   1      -1.010  -3.367   1.217  0.00  0.00    -0.096 F 
ATOM      9  I   UNL d   1      -1.557  -0.366   2.185  0.00  0.00    -0.060 I 
ATOM     10  F2  UNL d   1      -0.635   1.038  -0.539  0.00  0.00    -0.096 F 
ATOM     11  F3  UNL d   1       0.292   0.013  -2.868  0.00  0.00    -0.097 F 
ATOM     12  F4  UNL d   1       0.574  -2.683  -3.173  0.00  0.00    -0.092 F 
ENDROOT
TORSDOF 0
ENDMDL
