MODEL 1
REMARK minimizedAffinity 12.7734251
REMARK minimizedRMSD -1
REMARK  0 active torsions:
REMARK  status: ('A' for Active; 'I' for Inactive)
ROOT
ATOM      1  C   UNL d   1      -3.254   0.578   1.577  0.00  0.00     0.124 A 
ATOM      2  C1  UNL d   1      -2.955   0.801   0.240  0.00  0.00     0.062 A 
ATOM      3  C2  UNL d   1      -1.637   0.738  -0.203  0.00  0.00     0.162 A 
ATOM      4  C3  UNL d   1      -0.607   0.449   0.692  0.00  0.00    -0.034 A 
ATOM      5  C4  UNL d   1      -0.915   0.226   2.035  0.00  0.00     0.162 A 
ATOM      6  C5  UNL d   1      -2.234   0.291   2.473  0.00  0.00     0.062 A 
ATOM      7  F   UNL d   1      -2.520   0.075   3.765  0.00  0.00    -0.097 F 
ATOM      8  F1  UNL d   1       0.051  -0.054   2.922  0.00  0.00    -0.096 F 
ATOM      9  I   UNL d   1       1.365   0.354   0.033  0.00  0.00    -0.060 I 
ATOM     10  F2  UNL d   1      -1.378   0.958  -1.501  0.00  0.00    -0.096 F 
ATOM     11  F3  UNL d   1      -3.939   1.079  -0.628  0.00  0.00    -0.097 F 
ATOM     12  F4  UNL d   1      -4.523   0.640   2.000  0.00  0.00    -0.092 F 
ENDROOT
TORSDOF 0
ENDMDL
