MODEL 1
REMARK minimizedAffinity -3.17436433
REMARK minimizedRMSD -1
REMARK  0 active torsions:
REMARK  status: ('A' for Active; 'I' for Inactive)
ROOT
ATOM      1  C   UNL d   1      -0.948  -0.398   1.188  0.00  0.00     0.124 A 
ATOM      2  C1  UNL d   1      -0.812  -1.772   1.045  0.00  0.00     0.062 A 
ATOM      3  C2  UNL d   1      -0.210  -2.302  -0.093  0.00  0.00     0.162 A 
ATOM      4  C3  UNL d   1       0.263  -1.456  -1.096  0.00  0.00    -0.034 A 
ATOM      5  C4  UNL d   1       0.123  -0.076  -0.946  0.00  0.00     0.162 A 
ATOM      6  C5  UNL d   1      -0.480   0.448   0.193  0.00  0.00     0.062 A 
ATOM      7  F   UNL d   1      -0.610   1.776   0.329  0.00  0.00    -0.097 F 
ATOM      8  F1  UNL d   1       0.566   0.766  -1.892  0.00  0.00    -0.096 F 
ATOM      9  I   UNL d   1       1.165  -2.244  -2.799  0.00  0.00    -0.060 I 
ATOM     10  F2  UNL d   1      -0.092  -3.633  -0.204  0.00  0.00    -0.096 F 
ATOM     11  F3  UNL d   1      -1.264  -2.592   2.005  0.00  0.00    -0.097 F 
ATOM     12  F4  UNL d   1      -1.529   0.108   2.283  0.00  0.00    -0.092 F 
ENDROOT
TORSDOF 0
ENDMDL
