MODEL 1
REMARK minimizedAffinity 11.8737421
REMARK minimizedRMSD -1
REMARK  0 active torsions:
REMARK  status: ('A' for Active; 'I' for Inactive)
ROOT
ATOM      1  C   UNL d   1      -1.789  -0.661   1.712  0.00  0.00     0.124 A 
ATOM      2  C1  UNL d   1      -1.785  -1.836   0.973  0.00  0.00     0.062 A 
ATOM      3  C2  UNL d   1      -1.157  -1.881  -0.268  0.00  0.00     0.162 A 
ATOM      4  C3  UNL d   1      -0.526  -0.747  -0.779  0.00  0.00    -0.034 A 
ATOM      5  C4  UNL d   1      -0.535   0.432  -0.031  0.00  0.00     0.162 A 
ATOM      6  C5  UNL d   1      -1.164   0.472   1.209  0.00  0.00     0.062 A 
ATOM      7  F   UNL d   1      -1.167   1.608   1.921  0.00  0.00    -0.097 F 
ATOM      8  F1  UNL d   1       0.062   1.541  -0.492  0.00  0.00    -0.096 F 
ATOM      9  I   UNL d   1       0.414  -0.810  -2.635  0.00  0.00    -0.060 I 
ATOM     10  F2  UNL d   1      -1.169  -3.030  -0.960  0.00  0.00    -0.096 F 
ATOM     11  F3  UNL d   1      -2.389  -2.931   1.456  0.00  0.00    -0.097 F 
ATOM     12  F4  UNL d   1      -2.395  -0.620   2.905  0.00  0.00    -0.092 F 
ENDROOT
TORSDOF 0
ENDMDL
