MODEL 1
REMARK minimizedAffinity -4.16810799
REMARK minimizedRMSD -1
REMARK  0 active torsions:
REMARK  status: ('A' for Active; 'I' for Inactive)
ROOT
ATOM      1  C   UNL d   1      -0.218  -2.752  -0.966  0.00  0.00     0.124 A 
ATOM      2  C1  UNL d   1      -0.159  -1.784  -1.959  0.00  0.00     0.062 A 
ATOM      3  C2  UNL d   1      -0.007  -0.443  -1.620  0.00  0.00     0.162 A 
ATOM      4  C3  UNL d   1       0.088  -0.061  -0.282  0.00  0.00    -0.034 A 
ATOM      5  C4  UNL d   1       0.027  -1.040   0.711  0.00  0.00     0.162 A 
ATOM      6  C5  UNL d   1      -0.125  -2.379   0.368  0.00  0.00     0.062 A 
ATOM      7  F   UNL d   1      -0.181  -3.313   1.328  0.00  0.00    -0.097 F 
ATOM      8  F1  UNL d   1       0.116  -0.708   2.007  0.00  0.00    -0.096 F 
ATOM      9  I   UNL d   1       0.316   1.944   0.228  0.00  0.00    -0.060 I 
ATOM     10  F2  UNL d   1       0.047   0.471  -2.601  0.00  0.00    -0.096 F 
ATOM     11  F3  UNL d   1      -0.250  -2.142  -3.248  0.00  0.00    -0.097 F 
ATOM     12  F4  UNL d   1      -0.365  -4.042  -1.294  0.00  0.00    -0.092 F 
ENDROOT
TORSDOF 0
ENDMDL
