MODEL 1
REMARK minimizedAffinity -1.83629537
REMARK minimizedRMSD -1
REMARK  0 active torsions:
REMARK  status: ('A' for Active; 'I' for Inactive)
ROOT
ATOM      1  C   UNL d   1      -0.278  -2.477  -0.818  0.00  0.00     0.124 A 
ATOM      2  C1  UNL d   1      -0.483  -2.103   0.503  0.00  0.00     0.062 A 
ATOM      3  C2  UNL d   1      -0.449  -0.759   0.864  0.00  0.00     0.162 A 
ATOM      4  C3  UNL d   1      -0.210   0.222  -0.098  0.00  0.00    -0.034 A 
ATOM      5  C4  UNL d   1      -0.003  -0.161  -1.425  0.00  0.00     0.162 A 
ATOM      6  C5  UNL d   1      -0.038  -1.506  -1.780  0.00  0.00     0.062 A 
ATOM      7  F   UNL d   1       0.161  -1.865  -3.057  0.00  0.00    -0.097 F 
ATOM      8  F1  UNL d   1       0.230   0.756  -2.375  0.00  0.00    -0.096 F 
ATOM      9  I   UNL d   1      -0.158   2.232   0.437  0.00  0.00    -0.060 I 
ATOM     10  F2  UNL d   1      -0.651  -0.427   2.147  0.00  0.00    -0.096 F 
ATOM     11  F3  UNL d   1      -0.714  -3.039   1.434  0.00  0.00    -0.097 F 
ATOM     12  F4  UNL d   1      -0.310  -3.770  -1.162  0.00  0.00    -0.092 F 
ENDROOT
TORSDOF 0
ENDMDL
