MODEL 1
REMARK minimizedAffinity -3.5430882
REMARK minimizedRMSD -1
REMARK  0 active torsions:
REMARK  status: ('A' for Active; 'I' for Inactive)
ROOT
ATOM      1  C   UNL d   1      -1.506  -1.708   1.207  0.00  0.00     0.124 A 
ATOM      2  C1  UNL d   1      -1.963  -0.441   1.540  0.00  0.00     0.062 A 
ATOM      3  C2  UNL d   1      -1.208   0.683   1.219  0.00  0.00     0.162 A 
ATOM      4  C3  UNL d   1       0.013   0.545   0.559  0.00  0.00    -0.034 A 
ATOM      5  C4  UNL d   1       0.467  -0.733   0.228  0.00  0.00     0.162 A 
ATOM      6  C5  UNL d   1      -0.292  -1.853   0.551  0.00  0.00     0.062 A 
ATOM      7  F   UNL d   1       0.152  -3.077   0.229  0.00  0.00    -0.097 F 
ATOM      8  F1  UNL d   1       1.637  -0.902  -0.407  0.00  0.00    -0.096 F 
ATOM      9  I   UNL d   1       1.146   2.223   0.076  0.00  0.00    -0.060 I 
ATOM     10  F2  UNL d   1      -1.674   1.896   1.553  0.00  0.00    -0.096 F 
ATOM     11  F3  UNL d   1      -3.136  -0.298   2.174  0.00  0.00    -0.097 F 
ATOM     12  F4  UNL d   1      -2.235  -2.788   1.518  0.00  0.00    -0.092 F 
ENDROOT
TORSDOF 0
ENDMDL
