MODEL 1
REMARK minimizedAffinity -2.77564049
REMARK minimizedRMSD -1
REMARK  0 active torsions:
REMARK  status: ('A' for Active; 'I' for Inactive)
ROOT
ATOM      1  C   UNL d   1       0.312  -3.498  -0.876  0.00  0.00     0.124 A 
ATOM      2  C1  UNL d   1       0.046  -2.899   0.347  0.00  0.00     0.062 A 
ATOM      3  C2  UNL d   1       0.057  -1.512   0.464  0.00  0.00     0.162 A 
ATOM      4  C3  UNL d   1       0.333  -0.714  -0.646  0.00  0.00    -0.034 A 
ATOM      5  C4  UNL d   1       0.600  -1.324  -1.873  0.00  0.00     0.162 A 
ATOM      6  C5  UNL d   1       0.588  -2.711  -1.985  0.00  0.00     0.062 A 
ATOM      7  F   UNL d   1       0.845  -3.288  -3.168  0.00  0.00    -0.097 F 
ATOM      8  F1  UNL d   1       0.870  -0.587  -2.961  0.00  0.00    -0.096 F 
ATOM      9  I   UNL d   1       0.350   1.360  -0.475  0.00  0.00    -0.060 I 
ATOM     10  F2  UNL d   1      -0.203  -0.960   1.659  0.00  0.00    -0.096 F 
ATOM     11  F3  UNL d   1      -0.221  -3.658   1.420  0.00  0.00    -0.097 F 
ATOM     12  F4  UNL d   1       0.302  -4.833  -0.986  0.00  0.00    -0.092 F 
ENDROOT
TORSDOF 0
ENDMDL
