MODEL 1
REMARK minimizedAffinity 3.96857834
REMARK minimizedRMSD -1
REMARK  0 active torsions:
REMARK  status: ('A' for Active; 'I' for Inactive)
ROOT
ATOM      1  C   UNL d   1      -0.490   0.029  -0.635  0.00  0.00     0.124 A 
ATOM      2  C1  UNL d   1      -1.346  -1.019  -0.327  0.00  0.00     0.062 A 
ATOM      3  C2  UNL d   1      -2.270  -0.889   0.705  0.00  0.00     0.162 A 
ATOM      4  C3  UNL d   1      -2.345   0.296   1.437  0.00  0.00    -0.034 A 
ATOM      5  C4  UNL d   1      -1.480   1.346   1.122  0.00  0.00     0.162 A 
ATOM      6  C5  UNL d   1      -0.558   1.211   0.090  0.00  0.00     0.062 A 
ATOM      7  F   UNL d   1       0.267   2.225  -0.206  0.00  0.00    -0.097 F 
ATOM      8  F1  UNL d   1      -1.525   2.500   1.806  0.00  0.00    -0.096 F 
ATOM      9  I   UNL d   1      -3.726   0.496   2.981  0.00  0.00    -0.060 I 
ATOM     10  F2  UNL d   1      -3.084  -1.918   0.980  0.00  0.00    -0.096 F 
ATOM     11  F3  UNL d   1      -1.281  -2.162  -1.026  0.00  0.00    -0.097 F 
ATOM     12  F4  UNL d   1       0.399  -0.099  -1.628  0.00  0.00    -0.092 F 
ENDROOT
TORSDOF 0
ENDMDL
