MODEL 1
REMARK minimizedAffinity -0.110343583
REMARK minimizedRMSD -1
REMARK  0 active torsions:
REMARK  status: ('A' for Active; 'I' for Inactive)
ROOT
ATOM      1  C   UNL d   1      -0.369  -2.490  -0.724  0.00  0.00     0.124 A 
ATOM      2  C1  UNL d   1      -0.562  -2.036   0.573  0.00  0.00     0.062 A 
ATOM      3  C2  UNL d   1      -0.443  -0.680   0.865  0.00  0.00     0.162 A 
ATOM      4  C3  UNL d   1      -0.131   0.232  -0.144  0.00  0.00    -0.034 A 
ATOM      5  C4  UNL d   1       0.062  -0.233  -1.446  0.00  0.00     0.162 A 
ATOM      6  C5  UNL d   1      -0.057  -1.589  -1.732  0.00  0.00     0.062 A 
ATOM      7  F   UNL d   1       0.130  -2.027  -2.986  0.00  0.00    -0.097 F 
ATOM      8  F1  UNL d   1       0.364   0.616  -2.439  0.00  0.00    -0.096 F 
ATOM      9  I   UNL d   1       0.047   2.260   0.287  0.00  0.00    -0.060 I 
ATOM     10  F2  UNL d   1      -0.635  -0.268   2.127  0.00  0.00    -0.096 F 
ATOM     11  F3  UNL d   1      -0.862  -2.904   1.549  0.00  0.00    -0.097 F 
ATOM     12  F4  UNL d   1      -0.482  -3.796  -1.001  0.00  0.00    -0.092 F 
ENDROOT
TORSDOF 0
ENDMDL
