MODEL 1
REMARK minimizedAffinity 9.67618084
REMARK minimizedRMSD -1
REMARK  0 active torsions:
REMARK  status: ('A' for Active; 'I' for Inactive)
ROOT
ATOM      1  C   UNL d   1      -1.986  -1.713   1.760  0.00  0.00     0.124 A 
ATOM      2  C1  UNL d   1      -0.967  -1.493   2.678  0.00  0.00     0.062 A 
ATOM      3  C2  UNL d   1      -0.215  -0.323   2.621  0.00  0.00     0.162 A 
ATOM      4  C3  UNL d   1      -0.478   0.637   1.644  0.00  0.00    -0.034 A 
ATOM      5  C4  UNL d   1      -1.504   0.408   0.725  0.00  0.00     0.162 A 
ATOM      6  C5  UNL d   1      -2.253  -0.762   0.785  0.00  0.00     0.062 A 
ATOM      7  F   UNL d   1      -3.236  -0.973  -0.102  0.00  0.00    -0.097 F 
ATOM      8  F1  UNL d   1      -1.784   1.310  -0.228  0.00  0.00    -0.096 F 
ATOM      9  I   UNL d   1       0.644   2.387   1.556  0.00  0.00    -0.060 I 
ATOM     10  F2  UNL d   1       0.763  -0.137   3.520  0.00  0.00    -0.096 F 
ATOM     11  F3  UNL d   1      -0.706  -2.410   3.620  0.00  0.00    -0.097 F 
ATOM     12  F4  UNL d   1      -2.707  -2.839   1.817  0.00  0.00    -0.092 F 
ENDROOT
TORSDOF 0
ENDMDL
