MODEL 1
REMARK minimizedAffinity 5.17612648
REMARK minimizedRMSD -1
REMARK  0 active torsions:
REMARK  status: ('A' for Active; 'I' for Inactive)
ROOT
ATOM      1  C   UNL d   1      -1.634  -2.411  -0.302  0.00  0.00     0.124 A 
ATOM      2  C1  UNL d   1      -0.863  -1.674  -1.190  0.00  0.00     0.062 A 
ATOM      3  C2  UNL d   1      -0.550  -0.347  -0.912  0.00  0.00     0.162 A 
ATOM      4  C3  UNL d   1      -1.007   0.253   0.262  0.00  0.00    -0.034 A 
ATOM      5  C4  UNL d   1      -1.783  -0.494   1.150  0.00  0.00     0.162 A 
ATOM      6  C5  UNL d   1      -2.093  -1.820   0.867  0.00  0.00     0.062 A 
ATOM      7  F   UNL d   1      -2.838  -2.530   1.727  0.00  0.00    -0.097 F 
ATOM      8  F1  UNL d   1      -2.239   0.051   2.288  0.00  0.00    -0.096 F 
ATOM      9  I   UNL d   1      -0.541   2.237   0.682  0.00  0.00    -0.060 I 
ATOM     10  F2  UNL d   1       0.197   0.341  -1.788  0.00  0.00    -0.096 F 
ATOM     11  F3  UNL d   1      -0.419  -2.242  -2.321  0.00  0.00    -0.097 F 
ATOM     12  F4  UNL d   1      -1.935  -3.687  -0.573  0.00  0.00    -0.092 F 
ENDROOT
TORSDOF 0
ENDMDL
