MODEL 1
REMARK minimizedAffinity 15.0399475
REMARK minimizedRMSD -1
REMARK  0 active torsions:
REMARK  status: ('A' for Active; 'I' for Inactive)
ROOT
ATOM      1  C   UNL d   1      -0.996  -0.562   2.079  0.00  0.00     0.124 A 
ATOM      2  C1  UNL d   1       0.330  -0.585   2.486  0.00  0.00     0.062 A 
ATOM      3  C2  UNL d   1       1.344  -0.265   1.588  0.00  0.00     0.162 A 
ATOM      4  C3  UNL d   1       1.035   0.083   0.273  0.00  0.00    -0.034 A 
ATOM      5  C4  UNL d   1      -0.302   0.103  -0.129  0.00  0.00     0.162 A 
ATOM      6  C5  UNL d   1      -1.311  -0.218   0.772  0.00  0.00     0.062 A 
ATOM      7  F   UNL d   1      -2.592  -0.194   0.377  0.00  0.00    -0.097 F 
ATOM      8  F1  UNL d   1      -0.634   0.433  -1.386  0.00  0.00    -0.096 F 
ATOM      9  I   UNL d   1       2.548   0.562  -1.074  0.00  0.00    -0.060 I 
ATOM     10  F2  UNL d   1       2.617  -0.296   2.009  0.00  0.00    -0.096 F 
ATOM     11  F3  UNL d   1       0.637  -0.918   3.748  0.00  0.00    -0.097 F 
ATOM     12  F4  UNL d   1      -1.970  -0.871   2.946  0.00  0.00    -0.092 F 
ENDROOT
TORSDOF 0
ENDMDL
