MODEL 1
REMARK minimizedAffinity 6.33261204
REMARK minimizedRMSD -1
REMARK  0 active torsions:
REMARK  status: ('A' for Active; 'I' for Inactive)
ROOT
ATOM      1  C   UNL d   1      -5.937  -1.670  -1.388  0.00  0.00     0.078 C 
ATOM      2  C1  UNL d   1      -5.181  -0.551  -2.040  0.00  0.00    -0.077 A 
ATOM      3  C2  UNL d   1      -5.727   0.736  -2.123  0.00  0.00    -0.001 A 
ATOM      4  C3  UNL d   1      -5.016   1.765  -2.742  0.00  0.00     0.003 A 
ATOM      5  C4  UNL d   1      -3.755   1.519  -3.283  0.00  0.00    -0.005 A 
ATOM      6  C5  UNL d   1      -3.205   0.241  -3.207  0.00  0.00     0.003 A 
ATOM      7  C6  UNL d   1      -3.914  -0.790  -2.589  0.00  0.00    -0.001 A 
ENDROOT
TORSDOF 0
ENDMDL
