MODEL 1
REMARK minimizedAffinity -1.12821531
REMARK minimizedRMSD -1
REMARK  0 active torsions:
REMARK  status: ('A' for Active; 'I' for Inactive)
ROOT
ATOM      1  C   UNL d   1       3.744  -5.950  -1.529  0.00  0.00     0.078 C 
ATOM      2  C1  UNL d   1       3.437  -5.959  -2.997  0.00  0.00    -0.077 A 
ATOM      3  C2  UNL d   1       2.114  -5.976  -3.457  0.00  0.00    -0.001 A 
ATOM      4  C3  UNL d   1       1.843  -5.995  -4.826  0.00  0.00     0.003 A 
ATOM      5  C4  UNL d   1       2.889  -5.998  -5.746  0.00  0.00    -0.005 A 
ATOM      6  C5  UNL d   1       4.208  -5.983  -5.298  0.00  0.00     0.003 A 
ATOM      7  C6  UNL d   1       4.481  -5.964  -3.930  0.00  0.00    -0.001 A 
ENDROOT
TORSDOF 0
ENDMDL
