MODEL 1
REMARK minimizedAffinity -0.182395563
REMARK minimizedRMSD -1
REMARK  0 active torsions:
REMARK  status: ('A' for Active; 'I' for Inactive)
ROOT
ATOM      1  C   UNL d   1       5.746  -2.595   3.542  0.00  0.00     0.078 C 
ATOM      2  C1  UNL d   1       4.255  -2.679   3.410  0.00  0.00    -0.077 A 
ATOM      3  C2  UNL d   1       3.568  -3.855   3.734  0.00  0.00    -0.001 A 
ATOM      4  C3  UNL d   1       2.180  -3.922   3.596  0.00  0.00     0.003 A 
ATOM      5  C4  UNL d   1       1.469  -2.817   3.133  0.00  0.00    -0.005 A 
ATOM      6  C5  UNL d   1       2.144  -1.643   2.806  0.00  0.00     0.003 A 
ATOM      7  C6  UNL d   1       3.531  -1.574   2.943  0.00  0.00    -0.001 A 
ENDROOT
TORSDOF 0
ENDMDL
