MODEL 1
REMARK minimizedAffinity 6.36075306
REMARK minimizedRMSD -1
REMARK  0 active torsions:
REMARK  status: ('A' for Active; 'I' for Inactive)
ROOT
ATOM      1  C   UNL d   1      -6.000   2.846  -3.000  0.00  0.00     0.078 C 
ATOM      2  C1  UNL d   1      -5.900   3.037  -1.516  0.00  0.00    -0.077 A 
ATOM      3  C2  UNL d   1      -5.694   4.307  -0.964  0.00  0.00    -0.001 A 
ATOM      4  C3  UNL d   1      -5.593   4.468   0.419  0.00  0.00     0.003 A 
ATOM      5  C4  UNL d   1      -5.696   3.363   1.261  0.00  0.00    -0.005 A 
ATOM      6  C5  UNL d   1      -5.898   2.095   0.721  0.00  0.00     0.003 A 
ATOM      7  C6  UNL d   1      -5.999   1.932  -0.661  0.00  0.00    -0.001 A 
ENDROOT
TORSDOF 0
ENDMDL
