MODEL 1
REMARK minimizedAffinity -2.13820076
REMARK minimizedRMSD -1
REMARK  0 active torsions:
REMARK  status: ('A' for Active; 'I' for Inactive)
ROOT
ATOM      1  C   UNL d   1       1.467  -1.161   1.161  0.00  0.00     0.078 C 
ATOM      2  C1  UNL d   1       2.041  -1.888   2.340  0.00  0.00    -0.077 A 
ATOM      3  C2  UNL d   1       3.391  -1.751   2.685  0.00  0.00    -0.001 A 
ATOM      4  C3  UNL d   1       3.914  -2.442   3.779  0.00  0.00     0.003 A 
ATOM      5  C4  UNL d   1       3.094  -3.275   4.537  0.00  0.00    -0.005 A 
ATOM      6  C5  UNL d   1       1.749  -3.419   4.201  0.00  0.00     0.003 A 
ATOM      7  C6  UNL d   1       1.225  -2.730   3.107  0.00  0.00    -0.001 A 
ENDROOT
TORSDOF 0
ENDMDL
