MODEL 1
REMARK minimizedAffinity -3.74430966
REMARK minimizedRMSD -1
REMARK  0 active torsions:
REMARK  status: ('A' for Active; 'I' for Inactive)
ROOT
ATOM      1  N1  IND d   1       1.437   0.555  -1.892  0.00  0.00    -0.196 N 
ATOM      2  C2  IND d   1       1.250   0.013  -3.133  0.00  0.00     0.054 A 
ATOM      3  C3  IND d   1       0.053  -0.613  -3.197  0.00  0.00    -0.031 A 
ATOM      4  C4  IND d   1      -1.800  -0.785  -1.418  0.00  0.00     0.051 A 
ATOM      5  C5  IND d   1      -2.074  -0.478  -0.115  0.00  0.00    -0.031 A 
ATOM      6  C6  IND d   1      -1.175   0.204   0.678  0.00  0.00     0.015 A 
ATOM      7  C7  IND d   1       0.033   0.618   0.191  0.00  0.00    -0.016 A 
ATOM      8  C8  IND d   1       0.317   0.302  -1.130  0.00  0.00    -0.047 A 
ATOM      9  C9  IND d   1      -0.574  -0.428  -1.927  0.00  0.00    -0.096 A 
ATOM     10  HN1 IND d   1       2.136   0.982  -1.631  0.00  0.00     0.298 HD
ENDROOT
TORSDOF 0
ENDMDL
