MODEL 1
REMARK minimizedAffinity -1.78129244
REMARK minimizedRMSD -1
REMARK  0 active torsions:
REMARK  status: ('A' for Active; 'I' for Inactive)
ROOT
ATOM      1  N1  IND d   1       1.176  -0.799  -0.940  0.00  0.00    -0.196 N 
ATOM      2  C2  IND d   1       0.896  -0.458  -2.234  0.00  0.00     0.054 A 
ATOM      3  C3  IND d   1      -0.294   0.179  -2.306  0.00  0.00    -0.031 A 
ATOM      4  C4  IND d   1      -1.903   0.858  -0.415  0.00  0.00     0.051 A 
ATOM      5  C5  IND d   1      -2.095   0.733   0.933  0.00  0.00    -0.031 A 
ATOM      6  C6  IND d   1      -1.188   0.079   1.741  0.00  0.00     0.015 A 
ATOM      7  C7  IND d   1      -0.043  -0.465   1.232  0.00  0.00    -0.016 A 
ATOM      8  C8  IND d   1       0.152  -0.346  -0.137  0.00  0.00    -0.047 A 
ATOM      9  C9  IND d   1      -0.786   0.279  -0.969  0.00  0.00    -0.096 A 
ATOM     10  HN1 IND d   1       1.873  -1.225  -0.673  0.00  0.00     0.298 HD
ENDROOT
TORSDOF 0
ENDMDL
