MODEL 1
REMARK minimizedAffinity -2.25002027
REMARK minimizedRMSD -1
REMARK  0 active torsions:
REMARK  status: ('A' for Active; 'I' for Inactive)
ROOT
ATOM      1  N1  IND d   1       1.948  -0.767   2.006  0.00  0.00    -0.196 N 
ATOM      2  C2  IND d   1       1.874  -0.680   3.368  0.00  0.00     0.054 A 
ATOM      3  C3  IND d   1       0.637  -0.287   3.748  0.00  0.00    -0.031 A 
ATOM      4  C4  IND d   1      -1.448   0.170   2.308  0.00  0.00     0.051 A 
ATOM      5  C5  IND d   1      -1.861   0.257   1.008  0.00  0.00    -0.031 A 
ATOM      6  C6  IND d   1      -1.009  -0.001  -0.047  0.00  0.00     0.015 A 
ATOM      7  C7  IND d   1       0.290  -0.368   0.160  0.00  0.00    -0.016 A 
ATOM      8  C8  IND d   1       0.715  -0.450   1.479  0.00  0.00    -0.047 A 
ATOM      9  C9  IND d   1      -0.133  -0.149   2.552  0.00  0.00    -0.096 A 
ATOM     10  HN1 IND d   1       2.647  -0.983   1.554  0.00  0.00     0.298 HD
ENDROOT
TORSDOF 0
ENDMDL
