MODEL 1
REMARK minimizedAffinity -2.90469289
REMARK minimizedRMSD -1
REMARK  0 active torsions:
REMARK  status: ('A' for Active; 'I' for Inactive)
ROOT
ATOM      1  N1  IND d   1       1.381  -0.835   1.867  0.00  0.00    -0.196 N 
ATOM      2  C2  IND d   1       1.879  -1.186   0.644  0.00  0.00     0.054 A 
ATOM      3  C3  IND d   1       0.950  -0.988  -0.318  0.00  0.00    -0.031 A 
ATOM      4  C4  IND d   1      -1.419   0.000  -0.122  0.00  0.00     0.051 A 
ATOM      5  C5  IND d   1      -2.333   0.434   0.797  0.00  0.00    -0.031 A 
ATOM      6  C6  IND d   1      -2.049   0.470   2.147  0.00  0.00     0.015 A 
ATOM      7  C7  IND d   1      -0.831   0.082   2.629  0.00  0.00    -0.016 A 
ATOM      8  C8  IND d   1       0.097  -0.365   1.699  0.00  0.00    -0.047 A 
ATOM      9  C9  IND d   1      -0.200  -0.444   0.332  0.00  0.00    -0.096 A 
ATOM     10  HN1 IND d   1       1.799  -0.898   2.616  0.00  0.00     0.298 HD
ENDROOT
TORSDOF 0
ENDMDL
