MODEL 1
REMARK minimizedAffinity -1.31075764
REMARK minimizedRMSD -1
REMARK  0 active torsions:
REMARK  status: ('A' for Active; 'I' for Inactive)
ROOT
ATOM      1  N1  IND d   1      -0.733   0.589   2.322  0.00  0.00    -0.196 N 
ATOM      2  C2  IND d   1      -1.882   0.953   1.677  0.00  0.00     0.054 A 
ATOM      3  C3  IND d   1      -1.792   0.668   0.359  0.00  0.00    -0.031 A 
ATOM      4  C4  IND d   1       0.108  -0.486  -0.939  0.00  0.00     0.051 A 
ATOM      5  C5  IND d   1       1.378  -0.968  -0.788  0.00  0.00    -0.031 A 
ATOM      6  C6  IND d   1       2.021  -0.958   0.433  0.00  0.00     0.015 A 
ATOM      7  C7  IND d   1       1.411  -0.473   1.556  0.00  0.00    -0.016 A 
ATOM      8  C8  IND d   1       0.124   0.023   1.404  0.00  0.00    -0.047 A 
ATOM      9  C9  IND d   1      -0.517   0.054   0.159  0.00  0.00    -0.096 A 
ATOM     10  HN1 IND d   1      -0.572   0.697   3.160  0.00  0.00     0.298 HD
ENDROOT
TORSDOF 0
ENDMDL
