MODEL 1
REMARK minimizedAffinity -3.10575318
REMARK minimizedRMSD -1
REMARK  0 active torsions:
REMARK  status: ('A' for Active; 'I' for Inactive)
ROOT
ATOM      1  N1  IND d   1       1.688  -0.941   1.247  0.00  0.00    -0.196 N 
ATOM      2  C2  IND d   1       1.902  -0.935   2.597  0.00  0.00     0.054 A 
ATOM      3  C3  IND d   1       0.816  -0.456   3.243  0.00  0.00    -0.031 A 
ATOM      4  C4  IND d   1      -1.461   0.281   2.292  0.00  0.00     0.051 A 
ATOM      5  C5  IND d   1      -2.119   0.488   1.113  0.00  0.00    -0.031 A 
ATOM      6  C6  IND d   1      -1.531   0.222  -0.107  0.00  0.00     0.015 A 
ATOM      7  C7  IND d   1      -0.261  -0.275  -0.192  0.00  0.00    -0.016 A 
ATOM      8  C8  IND d   1       0.413  -0.480   1.003  0.00  0.00    -0.047 A 
ATOM      9  C9  IND d   1      -0.163  -0.172   2.242  0.00  0.00    -0.096 A 
ATOM     10  HN1 IND d   1       2.255  -1.190   0.650  0.00  0.00     0.298 HD
ENDROOT
TORSDOF 0
ENDMDL
