MODEL 1
REMARK minimizedAffinity -2.54179597
REMARK minimizedRMSD -1
REMARK  0 active torsions:
REMARK  status: ('A' for Active; 'I' for Inactive)
ROOT
ATOM      1  N1  IND d   1       0.352  -0.722  -0.270  0.00  0.00    -0.196 N 
ATOM      2  C2  IND d   1      -0.828  -0.526  -0.932  0.00  0.00     0.054 A 
ATOM      3  C3  IND d   1      -1.759  -0.018  -0.095  0.00  0.00    -0.031 A 
ATOM      4  C4  IND d   1      -1.536   0.667   2.377  0.00  0.00     0.051 A 
ATOM      5  C5  IND d   1      -0.661   0.643   3.427  0.00  0.00    -0.031 A 
ATOM      6  C6  IND d   1       0.623   0.156   3.294  0.00  0.00     0.015 A 
ATOM      7  C7  IND d   1       1.086  -0.318   2.099  0.00  0.00    -0.016 A 
ATOM      8  C8  IND d   1       0.198  -0.302   1.033  0.00  0.00    -0.047 A 
ATOM      9  C9  IND d   1      -1.120   0.152   1.172  0.00  0.00    -0.096 A 
ATOM     10  HN1 IND d   1       1.069  -1.053  -0.609  0.00  0.00     0.298 HD
ENDROOT
TORSDOF 0
ENDMDL
