MODEL 1
REMARK minimizedAffinity 4.39607
REMARK minimizedRMSD -1
REMARK  0 active torsions:
REMARK  status: ('A' for Active; 'I' for Inactive)
ROOT
ATOM      1  N1  IND d   1      -0.303   0.895   2.225  0.00  0.00    -0.196 N 
ATOM      2  C2  IND d   1      -1.327   0.444   3.010  0.00  0.00     0.054 A 
ATOM      3  C3  IND d   1      -2.172  -0.324   2.286  0.00  0.00    -0.031 A 
ATOM      4  C4  IND d   1      -2.012  -1.055  -0.177  0.00  0.00     0.051 A 
ATOM      5  C5  IND d   1      -1.274  -0.866  -1.311  0.00  0.00    -0.031 A 
ATOM      6  C6  IND d   1      -0.149  -0.067  -1.324  0.00  0.00     0.015 A 
ATOM      7  C7  IND d   1       0.287   0.568  -0.195  0.00  0.00    -0.016 A 
ATOM      8  C8  IND d   1      -0.465   0.384   0.956  0.00  0.00    -0.047 A 
ATOM      9  C9  IND d   1      -1.631  -0.392   0.966  0.00  0.00    -0.096 A 
ATOM     10  HN1 IND d   1       0.336   1.411   2.481  0.00  0.00     0.298 HD
ENDROOT
TORSDOF 0
ENDMDL
