MODEL 1
REMARK minimizedAffinity -2.23762155
REMARK minimizedRMSD -1
REMARK  0 active torsions:
REMARK  status: ('A' for Active; 'I' for Inactive)
ROOT
ATOM      1  N1  IND d   1      -0.455   0.963  -0.297  0.00  0.00    -0.196 N 
ATOM      2  C2  IND d   1      -0.638  -0.312   0.163  0.00  0.00     0.054 A 
ATOM      3  C3  IND d   1      -0.192  -1.208  -0.747  0.00  0.00    -0.031 A 
ATOM      4  C4  IND d   1       0.967  -0.803  -3.010  0.00  0.00     0.051 A 
ATOM      5  C5  IND d   1       1.321   0.194  -3.875  0.00  0.00    -0.031 A 
ATOM      6  C6  IND d   1       1.099   1.525  -3.585  0.00  0.00     0.015 A 
ATOM      7  C7  IND d   1       0.523   1.911  -2.408  0.00  0.00    -0.016 A 
ATOM      8  C8  IND d   1       0.155   0.901  -1.530  0.00  0.00    -0.047 A 
ATOM      9  C9  IND d   1       0.339  -0.453  -1.837  0.00  0.00    -0.096 A 
ATOM     10  HN1 IND d   1      -0.684   1.682   0.115  0.00  0.00     0.298 HD
ENDROOT
TORSDOF 0
ENDMDL
