MODEL 1
REMARK minimizedAffinity -3.07066655
REMARK minimizedRMSD -1
REMARK  0 active torsions:
REMARK  status: ('A' for Active; 'I' for Inactive)
ROOT
ATOM      1  N1  IND d   1       1.726  -0.774   2.481  0.00  0.00    -0.196 N 
ATOM      2  C2  IND d   1       1.449  -0.627   3.812  0.00  0.00     0.054 A 
ATOM      3  C3  IND d   1       0.235  -0.057   3.980  0.00  0.00    -0.031 A 
ATOM      4  C4  IND d   1      -1.511   0.624   2.214  0.00  0.00     0.051 A 
ATOM      5  C5  IND d   1      -1.697   0.717   0.863  0.00  0.00    -0.031 A 
ATOM      6  C6  IND d   1      -0.733   0.308  -0.035  0.00  0.00     0.015 A 
ATOM      7  C7  IND d   1       0.454  -0.223   0.385  0.00  0.00    -0.016 A 
ATOM      8  C8  IND d   1       0.649  -0.313   1.756  0.00  0.00    -0.047 A 
ATOM      9  C9  IND d   1      -0.309   0.140   2.673  0.00  0.00    -0.096 A 
ATOM     10  HN1 IND d   1       2.451  -1.099   2.152  0.00  0.00     0.298 HD
ENDROOT
TORSDOF 0
ENDMDL
