MODEL 1
REMARK minimizedAffinity -1.87210917
REMARK minimizedRMSD -1
REMARK  1 active torsions:
REMARK  status: ('A' for Active; 'I' for Inactive)
REMARK    1  A    between atoms: C1_2  and  C2_3 
ROOT
ATOM      1  C2  UNL d   1      -0.791   1.066  -1.118  0.00  0.00    -0.077 A 
ATOM      2  C3  UNL d   1      -0.988   0.302  -2.277  0.00  0.00     0.002 A 
ATOM      3  C4  UNL d   1      -1.719   0.819  -3.348  0.00  0.00     0.002 A 
ATOM      4  C5  UNL d   1      -2.256   2.102  -3.273  0.00  0.00    -0.004 A 
ATOM      5  C6  UNL d   1      -2.068   2.870  -2.124  0.00  0.00     0.002 A 
ATOM      6  C7  UNL d   1      -1.338   2.354  -1.052  0.00  0.00     0.002 A 
ENDROOT
BRANCH   1   7
ATOM      7  C1  UNL d   1       0.039   0.530   0.019  0.00  0.00     0.055 C 
ATOM      8  C   UNL d   1       1.217  -0.286  -0.493  0.00  0.00     0.019 C 
ENDBRANCH   1   7
TORSDOF 1
ENDMDL
