MODEL 1
REMARK minimizedAffinity -4.89834404
REMARK minimizedRMSD -1
REMARK  1 active torsions:
REMARK  status: ('A' for Active; 'I' for Inactive)
REMARK    1  A    between atoms: C1_2  and  C2_3 
ROOT
ATOM      1  C2  UNL d   1       0.220  -0.061   0.249  0.00  0.00    -0.077 A 
ATOM      2  C3  UNL d   1      -0.499  -0.354   1.416  0.00  0.00     0.002 A 
ATOM      3  C4  UNL d   1      -0.050  -1.343   2.293  0.00  0.00     0.002 A 
ATOM      4  C5  UNL d   1       1.122  -2.044   2.014  0.00  0.00    -0.004 A 
ATOM      5  C6  UNL d   1       1.843  -1.761   0.854  0.00  0.00     0.002 A 
ATOM      6  C7  UNL d   1       1.395  -0.773  -0.023  0.00  0.00     0.002 A 
ENDROOT
BRANCH   1   7
ATOM      7  C1  UNL d   1      -0.237   1.040  -0.673  0.00  0.00     0.055 C 
ATOM      8  C   UNL d   1      -1.633   0.767  -1.211  0.00  0.00     0.019 C 
ENDBRANCH   1   7
TORSDOF 1
ENDMDL
