MODEL 1
REMARK minimizedAffinity -2.49527597
REMARK minimizedRMSD -1
REMARK  1 active torsions:
REMARK  status: ('A' for Active; 'I' for Inactive)
REMARK    1  A    between atoms: C1_2  and  C2_3 
ROOT
ATOM      1  C2  UNL d   1      -0.085   0.414  -0.371  0.00  0.00    -0.077 A 
ATOM      2  C3  UNL d   1      -0.909   0.222   0.746  0.00  0.00     0.002 A 
ATOM      3  C4  UNL d   1      -0.554  -0.695   1.737  0.00  0.00     0.002 A 
ATOM      4  C5  UNL d   1       0.627  -1.425   1.622  0.00  0.00    -0.004 A 
ATOM      5  C6  UNL d   1       1.453  -1.243   0.514  0.00  0.00     0.002 A 
ATOM      6  C7  UNL d   1       1.099  -0.327  -0.478  0.00  0.00     0.002 A 
ENDROOT
BRANCH   1   7
ATOM      7  C1  UNL d   1      -0.441   1.438  -1.416  0.00  0.00     0.055 C 
ATOM      8  C   UNL d   1      -1.522   0.919  -2.354  0.00  0.00     0.019 C 
ENDBRANCH   1   7
TORSDOF 1
ENDMDL
