MODEL 1
REMARK minimizedAffinity -2.36942959
REMARK minimizedRMSD -1
REMARK  1 active torsions:
REMARK  status: ('A' for Active; 'I' for Inactive)
REMARK    1  A    between atoms: C1_2  and  C2_3 
ROOT
ATOM      1  C2  UNL d   1      -1.043   1.302  -1.184  0.00  0.00    -0.077 A 
ATOM      2  C3  UNL d   1      -2.279   0.703  -1.464  0.00  0.00     0.002 A 
ATOM      3  C4  UNL d   1      -2.924   0.951  -2.677  0.00  0.00     0.002 A 
ATOM      4  C5  UNL d   1      -2.340   1.794  -3.620  0.00  0.00    -0.004 A 
ATOM      5  C6  UNL d   1      -1.112   2.396  -3.350  0.00  0.00     0.002 A 
ATOM      6  C7  UNL d   1      -0.466   2.150  -2.138  0.00  0.00     0.002 A 
ENDROOT
BRANCH   1   7
ATOM      7  C1  UNL d   1      -0.321   0.997   0.103  0.00  0.00     0.055 C 
ATOM      8  C   UNL d   1       1.112   0.557  -0.157  0.00  0.00     0.019 C 
ENDBRANCH   1   7
TORSDOF 1
ENDMDL
