MODEL 1
REMARK minimizedAffinity -2.57651567
REMARK minimizedRMSD -1
REMARK  1 active torsions:
REMARK  status: ('A' for Active; 'I' for Inactive)
REMARK    1  A    between atoms: C1_2  and  C2_3 
ROOT
ATOM      1  C2  UNL d   1      -1.183   1.095  -1.244  0.00  0.00    -0.077 A 
ATOM      2  C3  UNL d   1      -2.577   1.208  -1.143  0.00  0.00     0.002 A 
ATOM      3  C4  UNL d   1      -3.346   1.497  -2.272  0.00  0.00     0.002 A 
ATOM      4  C5  UNL d   1      -2.731   1.670  -3.510  0.00  0.00    -0.004 A 
ATOM      5  C6  UNL d   1      -1.345   1.562  -3.621  0.00  0.00     0.002 A 
ATOM      6  C7  UNL d   1      -0.575   1.274  -2.493  0.00  0.00     0.002 A 
ENDROOT
BRANCH   1   7
ATOM      7  C1  UNL d   1      -0.357   0.735  -0.037  0.00  0.00     0.055 C 
ATOM      8  C   UNL d   1       0.767  -0.224  -0.402  0.00  0.00     0.019 C 
ENDBRANCH   1   7
TORSDOF 1
ENDMDL
