MODEL 1
REMARK minimizedAffinity -2.32143593
REMARK minimizedRMSD -1
REMARK  1 active torsions:
REMARK  status: ('A' for Active; 'I' for Inactive)
REMARK    1  A    between atoms: C1_2  and  C2_3 
ROOT
ATOM      1  C2  UNL d   1      -2.025   1.370  -0.768  0.00  0.00    -0.077 A 
ATOM      2  C3  UNL d   1      -1.077   2.260  -1.292  0.00  0.00     0.002 A 
ATOM      3  C4  UNL d   1      -1.238   2.790  -2.574  0.00  0.00     0.002 A 
ATOM      4  C5  UNL d   1      -2.348   2.439  -3.340  0.00  0.00    -0.004 A 
ATOM      5  C6  UNL d   1      -3.295   1.553  -2.828  0.00  0.00     0.002 A 
ATOM      6  C7  UNL d   1      -3.135   1.022  -1.547  0.00  0.00     0.002 A 
ENDROOT
BRANCH   1   7
ATOM      7  C1  UNL d   1      -1.878   0.836   0.633  0.00  0.00     0.055 C 
ATOM      8  C   UNL d   1      -1.112  -0.479   0.647  0.00  0.00     0.019 C 
ENDBRANCH   1   7
TORSDOF 1
ENDMDL
