MODEL 1
REMARK minimizedAffinity -0.327308983
REMARK minimizedRMSD -1
REMARK  1 active torsions:
REMARK  status: ('A' for Active; 'I' for Inactive)
REMARK    1  A    between atoms: C1_2  and  C2_3 
ROOT
ATOM      1  C2  UNL d   1      -0.662   1.067  -0.877  0.00  0.00    -0.077 A 
ATOM      2  C3  UNL d   1      -2.052   0.906  -0.969  0.00  0.00     0.002 A 
ATOM      3  C4  UNL d   1      -2.769   1.529  -1.992  0.00  0.00     0.002 A 
ATOM      4  C5  UNL d   1      -2.104   2.312  -2.934  0.00  0.00    -0.004 A 
ATOM      5  C6  UNL d   1      -0.722   2.479  -2.850  0.00  0.00     0.002 A 
ATOM      6  C7  UNL d   1      -0.004   1.859  -1.827  0.00  0.00     0.002 A 
ENDROOT
BRANCH   1   7
ATOM      7  C1  UNL d   1       0.119   0.356   0.197  0.00  0.00     0.055 C 
ATOM      8  C   UNL d   1       1.501  -0.045  -0.297  0.00  0.00     0.019 C 
ENDBRANCH   1   7
TORSDOF 1
ENDMDL
