MODEL 1
REMARK minimizedAffinity -5.9589715
REMARK minimizedRMSD -1
REMARK  1 active torsions:
REMARK  status: ('A' for Active; 'I' for Inactive)
REMARK    1  A    between atoms: C1_2  and  C2_3 
ROOT
ATOM      1  C2  UNL d   1       0.708  -1.434   1.158  0.00  0.00    -0.077 A 
ATOM      2  C3  UNL d   1       1.748  -1.092   0.281  0.00  0.00     0.002 A 
ATOM      3  C4  UNL d   1       1.590  -0.042  -0.626  0.00  0.00     0.002 A 
ATOM      4  C5  UNL d   1       0.396   0.675  -0.662  0.00  0.00    -0.004 A 
ATOM      5  C6  UNL d   1      -0.644   0.341   0.204  0.00  0.00     0.002 A 
ATOM      6  C7  UNL d   1      -0.489  -0.708   1.111  0.00  0.00     0.002 A 
ENDROOT
BRANCH   1   7
ATOM      7  C1  UNL d   1       0.895  -2.534   2.171  0.00  0.00     0.055 C 
ATOM      8  C   UNL d   1       0.374  -2.120   3.539  0.00  0.00     0.019 C 
ENDBRANCH   1   7
TORSDOF 1
ENDMDL
