MODEL 1
REMARK minimizedAffinity -5.31433964
REMARK minimizedRMSD -1
REMARK  1 active torsions:
REMARK  status: ('A' for Active; 'I' for Inactive)
REMARK    1  A    between atoms: C1_2  and  C2_3 
ROOT
ATOM      1  C2  UNL d   1       1.174  -0.887   0.568  0.00  0.00    -0.077 A 
ATOM      2  C3  UNL d   1      -0.171  -0.562   0.795  0.00  0.00     0.002 A 
ATOM      3  C4  UNL d   1      -0.815  -0.992   1.956  0.00  0.00     0.002 A 
ATOM      4  C5  UNL d   1      -0.122  -1.746   2.901  0.00  0.00    -0.004 A 
ATOM      5  C6  UNL d   1       1.215  -2.076   2.684  0.00  0.00     0.002 A 
ATOM      6  C7  UNL d   1       1.860  -1.648   1.523  0.00  0.00     0.002 A 
ENDROOT
BRANCH   1   7
ATOM      7  C1  UNL d   1       1.884  -0.382  -0.661  0.00  0.00     0.055 C 
ATOM      8  C   UNL d   1       1.840   1.137  -0.741  0.00  0.00     0.019 C 
ENDBRANCH   1   7
TORSDOF 1
ENDMDL
