MODEL 1
REMARK minimizedAffinity -1.51708412
REMARK minimizedRMSD -1
REMARK  0 active torsions:
REMARK  status: ('A' for Active; 'I' for Inactive)
ROOT
ATOM      1  C   UNL d   1      -0.733  -0.431   2.315  0.00  0.00     0.172 C 
ATOM      2  N   UNL d   1      -1.401   0.787   1.921  0.00  0.00    -0.070 N 
ATOM      3  C1  UNL d   1      -0.906   2.055   2.073  0.00  0.00    -0.004 A 
ATOM      4  C2  UNL d   1      -1.840   2.936   1.574  0.00  0.00    -0.047 A 
ATOM      5  C3  UNL d   1      -2.936   2.171   1.106  0.00  0.00    -0.047 A 
ATOM      6  C4  UNL d   1      -2.637   0.844   1.334  0.00  0.00    -0.004 A 
ENDROOT
TORSDOF 0
ENDMDL
