MODEL 1
REMARK minimizedAffinity 5.60705423
REMARK minimizedRMSD -1
REMARK  0 active torsions:
REMARK  status: ('A' for Active; 'I' for Inactive)
ROOT
ATOM      1  C   UNL d   1       1.321  -1.310  -4.166  0.00  0.00     0.172 C 
ATOM      2  N   UNL d   1       1.307  -0.757  -2.832  0.00  0.00    -0.070 N 
ATOM      3  C1  UNL d   1       1.100   0.560  -2.516  0.00  0.00    -0.004 A 
ATOM      4  C2  UNL d   1       1.162   0.679  -1.145  0.00  0.00    -0.047 A 
ATOM      5  C3  UNL d   1       1.416  -0.609  -0.618  0.00  0.00    -0.047 A 
ATOM      6  C4  UNL d   1       1.501  -1.479  -1.685  0.00  0.00    -0.004 A 
ENDROOT
TORSDOF 0
ENDMDL
