MODEL 1
REMARK minimizedAffinity 2.08183098
REMARK minimizedRMSD -1
REMARK  0 active torsions:
REMARK  status: ('A' for Active; 'I' for Inactive)
ROOT
ATOM      1  C   UNL d   1       0.038   2.009  -0.674  0.00  0.00     0.172 C 
ATOM      2  N   UNL d   1      -0.707   1.881   0.556  0.00  0.00    -0.070 N 
ATOM      3  C1  UNL d   1      -2.008   2.267   0.745  0.00  0.00    -0.004 A 
ATOM      4  C2  UNL d   1      -2.348   1.978   2.048  0.00  0.00    -0.047 A 
ATOM      5  C3  UNL d   1      -1.213   1.399   2.664  0.00  0.00    -0.047 A 
ATOM      6  C4  UNL d   1      -0.212   1.352   1.718  0.00  0.00    -0.004 A 
ENDROOT
TORSDOF 0
ENDMDL
