MODEL 1
REMARK minimizedAffinity -0.778341115
REMARK minimizedRMSD -1
REMARK  0 active torsions:
REMARK  status: ('A' for Active; 'I' for Inactive)
ROOT
ATOM      1  C   UNL d   1      -0.187   2.701   3.692  0.00  0.00     0.172 C 
ATOM      2  N   UNL d   1      -1.163   2.245   2.731  0.00  0.00    -0.070 N 
ATOM      3  C1  UNL d   1      -2.223   2.975   2.263  0.00  0.00    -0.004 A 
ATOM      4  C2  UNL d   1      -2.913   2.189   1.365  0.00  0.00    -0.047 A 
ATOM      5  C3  UNL d   1      -2.245   0.944   1.292  0.00  0.00    -0.047 A 
ATOM      6  C4  UNL d   1      -1.166   1.006   2.148  0.00  0.00    -0.004 A 
ENDROOT
TORSDOF 0
ENDMDL
