MODEL 1
REMARK minimizedAffinity -1.45147336
REMARK minimizedRMSD -1
REMARK  0 active torsions:
REMARK  status: ('A' for Active; 'I' for Inactive)
ROOT
ATOM      1  C   UNL d   1       0.452  -0.039   1.819  0.00  0.00     0.172 C 
ATOM      2  N   UNL d   1      -0.520   0.945   1.403  0.00  0.00    -0.070 N 
ATOM      3  C1  UNL d   1      -1.515   1.465   2.187  0.00  0.00    -0.004 A 
ATOM      4  C2  UNL d   1      -2.223   2.369   1.424  0.00  0.00    -0.047 A 
ATOM      5  C3  UNL d   1      -1.634   2.392   0.138  0.00  0.00    -0.047 A 
ATOM      6  C4  UNL d   1      -0.581   1.501   0.153  0.00  0.00    -0.004 A 
ENDROOT
TORSDOF 0
ENDMDL
