MODEL 1
REMARK minimizedAffinity 2.55258942
REMARK minimizedRMSD -1
REMARK  0 active torsions:
REMARK  status: ('A' for Active; 'I' for Inactive)
ROOT
ATOM      1  C   UNL d   1      -0.266   1.347  -0.679  0.00  0.00     0.172 C 
ATOM      2  N   UNL d   1      -1.120   1.657   0.443  0.00  0.00    -0.070 N 
ATOM      3  C1  UNL d   1      -0.833   1.405   1.758  0.00  0.00    -0.004 A 
ATOM      4  C2  UNL d   1      -1.897   1.848   2.515  0.00  0.00    -0.047 A 
ATOM      5  C3  UNL d   1      -2.856   2.384   1.624  0.00  0.00    -0.047 A 
ATOM      6  C4  UNL d   1      -2.350   2.253   0.348  0.00  0.00    -0.004 A 
ENDROOT
TORSDOF 0
ENDMDL
