MODEL 1
REMARK minimizedAffinity -0.251328945
REMARK minimizedRMSD -1
REMARK  0 active torsions:
REMARK  status: ('A' for Active; 'I' for Inactive)
ROOT
ATOM      1  C   UNL d   1       0.650   0.917  -0.234  0.00  0.00     0.172 C 
ATOM      2  N   UNL d   1      -0.548   1.392   0.419  0.00  0.00    -0.070 N 
ATOM      3  C1  UNL d   1      -0.768   1.406   1.770  0.00  0.00    -0.004 A 
ATOM      4  C2  UNL d   1      -2.023   1.931   1.988  0.00  0.00    -0.047 A 
ATOM      5  C3  UNL d   1      -2.577   2.243   0.723  0.00  0.00    -0.047 A 
ATOM      6  C4  UNL d   1      -1.642   1.899  -0.231  0.00  0.00    -0.004 A 
ENDROOT
TORSDOF 0
ENDMDL
