MODEL 1
REMARK minimizedAffinity 6.69142342
REMARK minimizedRMSD -1
REMARK  0 active torsions:
REMARK  status: ('A' for Active; 'I' for Inactive)
ROOT
ATOM      1  C   UNL d   1       3.107  -2.872  -5.074  0.00  0.00     0.172 C 
ATOM      2  N   UNL d   1       4.083  -3.375  -4.136  0.00  0.00    -0.070 N 
ATOM      3  C1  UNL d   1       5.413  -3.050  -4.117  0.00  0.00    -0.004 A 
ATOM      4  C2  UNL d   1       6.000  -3.736  -3.075  0.00  0.00    -0.047 A 
ATOM      5  C3  UNL d   1       4.988  -4.500  -2.448  0.00  0.00    -0.047 A 
ATOM      6  C4  UNL d   1       3.811  -4.258  -3.125  0.00  0.00    -0.004 A 
ENDROOT
TORSDOF 0
ENDMDL
