MODEL 1
REMARK minimizedAffinity 8.28170013
REMARK minimizedRMSD -1
REMARK  0 active torsions:
REMARK  status: ('A' for Active; 'I' for Inactive)
ROOT
ATOM      1  C   UNL d   1      -2.261   1.942   1.863  0.00  0.00     0.172 C 
ATOM      2  N   UNL d   1      -1.029   1.740   2.588  0.00  0.00    -0.070 N 
ATOM      3  C1  UNL d   1      -0.356   2.696   3.302  0.00  0.00    -0.004 A 
ATOM      4  C2  UNL d   1       0.767   2.107   3.842  0.00  0.00    -0.047 A 
ATOM      5  C3  UNL d   1       0.770   0.751   3.438  0.00  0.00    -0.047 A 
ATOM      6  C4  UNL d   1      -0.353   0.551   2.662  0.00  0.00    -0.004 A 
ENDROOT
TORSDOF 0
ENDMDL
