MODEL 1
REMARK minimizedAffinity 2.96206737
REMARK minimizedRMSD -1
REMARK  0 active torsions:
REMARK  status: ('A' for Active; 'I' for Inactive)
ROOT
ATOM      1  C   UNL d   1      -0.016   2.032  -1.115  0.00  0.00     0.172 C 
ATOM      2  N   UNL d   1      -0.941   2.181  -0.017  0.00  0.00    -0.070 N 
ATOM      3  C1  UNL d   1      -2.258   2.540  -0.125  0.00  0.00    -0.004 A 
ATOM      4  C2  UNL d   1      -2.794   2.569   1.144  0.00  0.00    -0.047 A 
ATOM      5  C3  UNL d   1      -1.762   2.217   2.047  0.00  0.00    -0.047 A 
ATOM      6  C4  UNL d   1      -0.627   1.981   1.301  0.00  0.00    -0.004 A 
ENDROOT
TORSDOF 0
ENDMDL
