MODEL 1
REMARK minimizedAffinity -1.72335088
REMARK minimizedRMSD -1
REMARK  0 active torsions:
REMARK  status: ('A' for Active; 'I' for Inactive)
ROOT
ATOM      1  C   UNL d   1       0.386   1.863  -1.291  0.00  0.00     0.172 C 
ATOM      2  N   UNL d   1      -0.372   1.597  -0.091  0.00  0.00    -0.070 N 
ATOM      3  C1  UNL d   1      -0.005   0.740   0.912  0.00  0.00    -0.004 A 
ATOM      4  C2  UNL d   1      -0.991   0.768   1.874  0.00  0.00    -0.047 A 
ATOM      5  C3  UNL d   1      -1.987   1.672   1.433  0.00  0.00    -0.047 A 
ATOM      6  C4  UNL d   1      -1.578   2.171   0.214  0.00  0.00    -0.004 A 
ENDROOT
TORSDOF 0
ENDMDL
