MODEL 1
REMARK minimizedAffinity 5.16585159
REMARK minimizedRMSD -1
REMARK  0 active torsions:
REMARK  status: ('A' for Active; 'I' for Inactive)
ROOT
ATOM      1  C   UNL d   1       0.941   1.880  -1.500  0.00  0.00     0.172 C 
ATOM      2  N   UNL d   1      -0.194   1.071  -1.880  0.00  0.00    -0.070 N 
ATOM      3  C1  UNL d   1      -0.132  -0.149  -2.499  0.00  0.00    -0.004 A 
ATOM      4  C2  UNL d   1      -1.424  -0.591  -2.689  0.00  0.00    -0.047 A 
ATOM      5  C3  UNL d   1      -2.291   0.398  -2.167  0.00  0.00    -0.047 A 
ATOM      6  C4  UNL d   1      -1.503   1.416  -1.672  0.00  0.00    -0.004 A 
ENDROOT
TORSDOF 0
ENDMDL
