MODEL 1
REMARK minimizedAffinity 3.21360755
REMARK minimizedRMSD -1
REMARK  0 active torsions:
REMARK  status: ('A' for Active; 'I' for Inactive)
ROOT
ATOM      1  C   UNL d   1       4.975  -5.291  -2.164  0.00  0.00     0.172 C 
ATOM      2  N   UNL d   1       5.391  -4.582  -0.976  0.00  0.00    -0.070 N 
ATOM      3  C1  UNL d   1       5.623  -3.236  -0.890  0.00  0.00    -0.004 A 
ATOM      4  C2  UNL d   1       6.000  -2.954   0.405  0.00  0.00    -0.047 A 
ATOM      5  C3  UNL d   1       5.995  -4.174   1.122  0.00  0.00    -0.047 A 
ATOM      6  C4  UNL d   1       5.615  -5.166   0.243  0.00  0.00    -0.004 A 
ENDROOT
TORSDOF 0
ENDMDL
