MODEL 1
REMARK minimizedAffinity 3.70974064
REMARK minimizedRMSD -1
REMARK  0 active torsions:
REMARK  status: ('A' for Active; 'I' for Inactive)
ROOT
ATOM      1  C   UNL d   1       0.282   2.422   3.255  0.00  0.00     0.172 C 
ATOM      2  N   UNL d   1      -0.914   2.305   2.454  0.00  0.00    -0.070 N 
ATOM      3  C1  UNL d   1      -1.878   1.343   2.595  0.00  0.00    -0.004 A 
ATOM      4  C2  UNL d   1      -2.851   1.578   1.647  0.00  0.00    -0.047 A 
ATOM      5  C3  UNL d   1      -2.457   2.720   0.911  0.00  0.00    -0.047 A 
ATOM      6  C4  UNL d   1      -1.255   3.150   1.431  0.00  0.00    -0.004 A 
ENDROOT
TORSDOF 0
ENDMDL
