MODEL 1
REMARK minimizedAffinity 1.36688805
REMARK minimizedRMSD -1
REMARK  0 active torsions:
REMARK  status: ('A' for Active; 'I' for Inactive)
ROOT
ATOM      1  C   UNL d   1       0.706   5.152  -0.127  0.00  0.00     0.172 C 
ATOM      2  N   UNL d   1       0.379   3.755  -0.288  0.00  0.00    -0.070 N 
ATOM      3  C1  UNL d   1       0.745   2.966  -1.346  0.00  0.00    -0.004 A 
ATOM      4  C2  UNL d   1       0.241   1.703  -1.125  0.00  0.00    -0.047 A 
ATOM      5  C3  UNL d   1      -0.453   1.733   0.108  0.00  0.00    -0.047 A 
ATOM      6  C4  UNL d   1      -0.352   3.016   0.604  0.00  0.00    -0.004 A 
ENDROOT
TORSDOF 0
ENDMDL
