MODEL 1
REMARK minimizedAffinity 1.43385446
REMARK minimizedRMSD -1
REMARK  0 active torsions:
REMARK  status: ('A' for Active; 'I' for Inactive)
ROOT
ATOM      1  C   UNL d   1      -5.877  -5.937   5.999  0.00  0.00     0.172 C 
ATOM      2  N   UNL d   1      -5.310  -4.714   5.480  0.00  0.00    -0.070 N 
ATOM      3  C1  UNL d   1      -6.000  -3.557   5.232  0.00  0.00    -0.004 A 
ATOM      4  C2  UNL d   1      -5.105  -2.628   4.747  0.00  0.00    -0.047 A 
ATOM      5  C3  UNL d   1      -3.834  -3.248   4.700  0.00  0.00    -0.047 A 
ATOM      6  C4  UNL d   1      -3.990  -4.539   5.160  0.00  0.00    -0.004 A 
ENDROOT
TORSDOF 0
ENDMDL
