MODEL 1
REMARK minimizedAffinity -0.369693547
REMARK minimizedRMSD -1
REMARK  0 active torsions:
REMARK  status: ('A' for Active; 'I' for Inactive)
ROOT
ATOM      1  C   UNL d   1       2.908  -1.013   1.385  0.00  0.00     0.172 C 
ATOM      2  N   UNL d   1       3.797  -2.109   1.079  0.00  0.00    -0.070 N 
ATOM      3  C1  UNL d   1       3.412  -3.390   0.783  0.00  0.00    -0.004 A 
ATOM      4  C2  UNL d   1       4.551  -4.131   0.554  0.00  0.00    -0.047 A 
ATOM      5  C3  UNL d   1       5.659  -3.266   0.718  0.00  0.00    -0.047 A 
ATOM      6  C4  UNL d   1       5.163  -2.021   1.044  0.00  0.00    -0.004 A 
ENDROOT
TORSDOF 0
ENDMDL
