MODEL 1
REMARK minimizedAffinity 0.357037425
REMARK minimizedRMSD -1
REMARK  0 active torsions:
REMARK  status: ('A' for Active; 'I' for Inactive)
ROOT
ATOM      1  C   UNL d   1      -0.376   5.956  -3.773  0.00  0.00     0.023 A 
ATOM      2  C1  UNL d   1      -1.549   5.972  -3.018  0.00  0.00     0.003 A 
ATOM      3  C2  UNL d   1      -2.791   5.985  -3.655  0.00  0.00     0.048 A 
ATOM      4  C3  UNL d   1      -2.853   5.981  -5.048  0.00  0.00     0.023 A 
ATOM      5  C4  UNL d   1      -1.682   5.964  -5.808  0.00  0.00     0.048 A 
ATOM      6  C5  UNL d   1      -0.443   5.952  -5.166  0.00  0.00     0.003 A 
ATOM      7  I   UNL d   1      -4.701   5.999  -5.999  0.00  0.00    -0.146 I 
ENDROOT
TORSDOF 0
ENDMDL
