MODEL 1
REMARK minimizedAffinity 4.04551506
REMARK minimizedRMSD -1
REMARK  0 active torsions:
REMARK  status: ('A' for Active; 'I' for Inactive)
ROOT
ATOM      1  C   UNL d   1      -5.439   5.248  -1.347  0.00  0.00     0.023 A 
ATOM      2  C1  UNL d   1      -4.057   5.105  -1.220  0.00  0.00     0.003 A 
ATOM      3  C2  UNL d   1      -3.234   5.239  -2.339  0.00  0.00     0.048 A 
ATOM      4  C3  UNL d   1      -3.799   5.517  -3.584  0.00  0.00     0.023 A 
ATOM      5  C4  UNL d   1      -5.181   5.662  -3.716  0.00  0.00     0.048 A 
ATOM      6  C5  UNL d   1      -6.000   5.526  -2.594  0.00  0.00     0.003 A 
ATOM      7  I   UNL d   1      -2.575   5.717  -5.252  0.00  0.00    -0.146 I 
ENDROOT
TORSDOF 0
ENDMDL
