MODEL 1
REMARK minimizedAffinity 4.6076479
REMARK minimizedRMSD -1
REMARK  0 active torsions:
REMARK  status: ('A' for Active; 'I' for Inactive)
ROOT
ATOM      1  C   UNL d   1      -4.744  -0.814   1.971  0.00  0.00     0.023 A 
ATOM      2  C1  UNL d   1      -5.492  -0.455   3.092  0.00  0.00     0.003 A 
ATOM      3  C2  UNL d   1      -4.854   0.058   4.223  0.00  0.00     0.048 A 
ATOM      4  C3  UNL d   1      -3.468   0.210   4.226  0.00  0.00     0.023 A 
ATOM      5  C4  UNL d   1      -2.716  -0.148   3.106  0.00  0.00     0.048 A 
ATOM      6  C5  UNL d   1      -3.358  -0.661   1.978  0.00  0.00     0.003 A 
ATOM      7  I   UNL d   1      -2.516   0.973   5.908  0.00  0.00    -0.146 I 
ENDROOT
TORSDOF 0
ENDMDL
