MODEL 1
REMARK minimizedAffinity 3.89552426
REMARK minimizedRMSD -1
REMARK  0 active torsions:
REMARK  status: ('A' for Active; 'I' for Inactive)
ROOT
ATOM      1  C   UNL d   1       2.503   2.879  -3.556  0.00  0.00     0.023 A 
ATOM      2  C1  UNL d   1       2.080   3.614  -2.449  0.00  0.00     0.003 A 
ATOM      3  C2  UNL d   1       2.994   4.390  -1.734  0.00  0.00     0.048 A 
ATOM      4  C3  UNL d   1       4.330   4.427  -2.132  0.00  0.00     0.023 A 
ATOM      5  C4  UNL d   1       4.758   3.693  -3.240  0.00  0.00     0.048 A 
ATOM      6  C5  UNL d   1       3.840   2.918  -3.951  0.00  0.00     0.003 A 
ATOM      7  I   UNL d   1       5.693   5.581  -1.069  0.00  0.00    -0.146 I 
ENDROOT
TORSDOF 0
ENDMDL
