MODEL 1
REMARK minimizedAffinity 14.8107758
REMARK minimizedRMSD -1
REMARK  0 active torsions:
REMARK  status: ('A' for Active; 'I' for Inactive)
ROOT
ATOM      1  C   UNL d   1      -5.999   2.007  -1.139  0.00  0.00     0.023 A 
ATOM      2  C1  UNL d   1      -5.825   0.957  -2.042  0.00  0.00     0.003 A 
ATOM      3  C2  UNL d   1      -5.150  -0.199  -1.647  0.00  0.00     0.048 A 
ATOM      4  C3  UNL d   1      -4.653  -0.301  -0.348  0.00  0.00     0.023 A 
ATOM      5  C4  UNL d   1      -4.826   0.747   0.559  0.00  0.00     0.048 A 
ATOM      6  C5  UNL d   1      -5.500   1.902   0.159  0.00  0.00     0.003 A 
ATOM      7  I   UNL d   1      -3.648  -2.022   0.243  0.00  0.00    -0.146 I 
ENDROOT
TORSDOF 0
ENDMDL
