MODEL 1
REMARK minimizedAffinity 18.1303158
REMARK minimizedRMSD -1
REMARK  0 active torsions:
REMARK  status: ('A' for Active; 'I' for Inactive)
ROOT
ATOM      1  C   UNL d   1       3.494  -4.859  -0.743  0.00  0.00     0.023 A 
ATOM      2  C1  UNL d   1       2.351  -5.234  -0.037  0.00  0.00     0.003 A 
ATOM      3  C2  UNL d   1       1.841  -4.401   0.961  0.00  0.00     0.048 A 
ATOM      4  C3  UNL d   1       2.478  -3.194   1.247  0.00  0.00     0.023 A 
ATOM      5  C4  UNL d   1       3.622  -2.815   0.543  0.00  0.00     0.048 A 
ATOM      6  C5  UNL d   1       4.129  -3.652  -0.453  0.00  0.00     0.003 A 
ATOM      7  I   UNL d   1       1.721  -1.953   2.732  0.00  0.00    -0.146 I 
ENDROOT
TORSDOF 0
ENDMDL
