MODEL 1
REMARK minimizedAffinity 12.8460045
REMARK minimizedRMSD -1
REMARK  0 active torsions:
REMARK  status: ('A' for Active; 'I' for Inactive)
ROOT
ATOM      1  C   UNL d   1      -0.241  -4.490  -2.982  0.00  0.00     0.023 A 
ATOM      2  C1  UNL d   1      -1.554  -4.114  -2.701  0.00  0.00     0.003 A 
ATOM      3  C2  UNL d   1      -2.596  -4.544  -3.525  0.00  0.00     0.048 A 
ATOM      4  C3  UNL d   1      -2.318  -5.352  -4.627  0.00  0.00     0.023 A 
ATOM      5  C4  UNL d   1      -1.006  -5.732  -4.911  0.00  0.00     0.048 A 
ATOM      6  C5  UNL d   1       0.033  -5.298  -4.086  0.00  0.00     0.003 A 
ATOM      7  I   UNL d   1      -3.868  -5.994  -5.854  0.00  0.00    -0.146 I 
ENDROOT
TORSDOF 0
ENDMDL
