MODEL 1
REMARK minimizedAffinity 16.2292328
REMARK minimizedRMSD -1
REMARK  0 active torsions:
REMARK  status: ('A' for Active; 'I' for Inactive)
ROOT
ATOM      1  C   UNL d   1      -4.033  -2.865   0.470  0.00  0.00     0.023 A 
ATOM      2  C1  UNL d   1      -3.988  -1.477   0.334  0.00  0.00     0.003 A 
ATOM      3  C2  UNL d   1      -2.863  -0.769   0.761  0.00  0.00     0.048 A 
ATOM      4  C3  UNL d   1      -1.786  -1.454   1.322  0.00  0.00     0.023 A 
ATOM      5  C4  UNL d   1      -1.826  -2.842   1.459  0.00  0.00     0.048 A 
ATOM      6  C5  UNL d   1      -2.953  -3.546   1.032  0.00  0.00     0.003 A 
ATOM      7  I   UNL d   1      -0.111  -0.401   1.958  0.00  0.00    -0.146 I 
ENDROOT
TORSDOF 0
ENDMDL
