MODEL 1
REMARK minimizedAffinity 14.0829659
REMARK minimizedRMSD -1
REMARK  0 active torsions:
REMARK  status: ('A' for Active; 'I' for Inactive)
ROOT
ATOM      1  C   UNL d   1       0.943  -2.210   3.195  0.00  0.00     0.023 A 
ATOM      2  C1  UNL d   1       2.303  -1.931   3.335  0.00  0.00     0.003 A 
ATOM      3  C2  UNL d   1       2.906  -0.969   2.521  0.00  0.00     0.048 A 
ATOM      4  C3  UNL d   1       2.144  -0.291   1.570  0.00  0.00     0.023 A 
ATOM      5  C4  UNL d   1       0.783  -0.567   1.428  0.00  0.00     0.048 A 
ATOM      6  C5  UNL d   1       0.185  -1.530   2.243  0.00  0.00     0.003 A 
ATOM      7  I   UNL d   1       3.040   1.140   0.358  0.00  0.00    -0.146 I 
ENDROOT
TORSDOF 0
ENDMDL
