MODEL 1
REMARK minimizedAffinity 15.2466841
REMARK minimizedRMSD -1
REMARK  0 active torsions:
REMARK  status: ('A' for Active; 'I' for Inactive)
ROOT
ATOM      1  C   UNL d   1       1.376  -1.562   4.130  0.00  0.00     0.023 A 
ATOM      2  C1  UNL d   1       0.330  -0.641   4.065  0.00  0.00     0.003 A 
ATOM      3  C2  UNL d   1      -0.639  -0.752   3.066  0.00  0.00     0.048 A 
ATOM      4  C3  UNL d   1      -0.557  -1.787   2.135  0.00  0.00     0.023 A 
ATOM      5  C4  UNL d   1       0.487  -2.711   2.196  0.00  0.00     0.048 A 
ATOM      6  C5  UNL d   1       1.455  -2.596   3.196  0.00  0.00     0.003 A 
ATOM      7  I   UNL d   1      -1.998  -1.955   0.647  0.00  0.00    -0.146 I 
ENDROOT
TORSDOF 0
ENDMDL
