MODEL 1
REMARK minimizedAffinity 14.9970026
REMARK minimizedRMSD -1
REMARK  0 active torsions:
REMARK  status: ('A' for Active; 'I' for Inactive)
ROOT
ATOM      1  C   UNL d   1      -3.066  -1.970  -1.289  0.00  0.00     0.023 A 
ATOM      2  C1  UNL d   1      -2.617  -1.422  -0.087  0.00  0.00     0.003 A 
ATOM      3  C2  UNL d   1      -3.293  -0.343   0.486  0.00  0.00     0.048 A 
ATOM      4  C3  UNL d   1      -4.419   0.183  -0.147  0.00  0.00     0.023 A 
ATOM      5  C4  UNL d   1      -4.873  -0.362  -1.349  0.00  0.00     0.048 A 
ATOM      6  C5  UNL d   1      -4.193  -1.440  -1.919  0.00  0.00     0.003 A 
ATOM      7  I   UNL d   1      -5.427   1.788   0.705  0.00  0.00    -0.146 I 
ENDROOT
TORSDOF 0
ENDMDL
