MODEL 1
REMARK minimizedAffinity 14.949935
REMARK minimizedRMSD -1
REMARK  0 active torsions:
REMARK  status: ('A' for Active; 'I' for Inactive)
ROOT
ATOM      1  C   UNL d   1      -2.948  -0.246   2.236  0.00  0.00     0.023 A 
ATOM      2  C1  UNL d   1      -2.160   0.615   3.000  0.00  0.00     0.003 A 
ATOM      3  C2  UNL d   1      -0.768   0.512   2.958  0.00  0.00     0.048 A 
ATOM      4  C3  UNL d   1      -0.170  -0.454   2.149  0.00  0.00     0.023 A 
ATOM      5  C4  UNL d   1      -0.955  -1.317   1.383  0.00  0.00     0.048 A 
ATOM      6  C5  UNL d   1      -2.346  -1.211   1.429  0.00  0.00     0.003 A 
ATOM      7  I   UNL d   1       1.901  -0.609   2.085  0.00  0.00    -0.146 I 
ENDROOT
TORSDOF 0
ENDMDL
