MODEL 1
REMARK minimizedAffinity 11.0829763
REMARK minimizedRMSD -1
REMARK  0 active torsions:
REMARK  status: ('A' for Active; 'I' for Inactive)
ROOT
ATOM      1  C   UNL d   1      -2.065   1.565   4.866  0.00  0.00     0.023 A 
ATOM      2  C1  UNL d   1      -1.386   0.397   5.214  0.00  0.00     0.003 A 
ATOM      3  C2  UNL d   1      -1.149  -0.588   4.254  0.00  0.00     0.048 A 
ATOM      4  C3  UNL d   1      -1.594  -0.399   2.945  0.00  0.00     0.023 A 
ATOM      5  C4  UNL d   1      -2.272   0.768   2.591  0.00  0.00     0.048 A 
ATOM      6  C5  UNL d   1      -2.507   1.750   3.556  0.00  0.00     0.003 A 
ATOM      7  I   UNL d   1      -1.243  -1.864   1.513  0.00  0.00    -0.146 I 
ENDROOT
TORSDOF 0
ENDMDL
