MODEL 1
REMARK minimizedAffinity 15.122344
REMARK minimizedRMSD -1
REMARK  0 active torsions:
REMARK  status: ('A' for Active; 'I' for Inactive)
ROOT
ATOM      1  C   UNL d   1      -5.990  -4.730   5.981  0.00  0.00     0.023 A 
ATOM      2  C1  UNL d   1      -5.982  -3.500   5.325  0.00  0.00     0.003 A 
ATOM      3  C2  UNL d   1      -5.959  -3.451   3.929  0.00  0.00     0.048 A 
ATOM      4  C3  UNL d   1      -5.945  -4.638   3.197  0.00  0.00     0.023 A 
ATOM      5  C4  UNL d   1      -5.954  -5.872   3.849  0.00  0.00     0.048 A 
ATOM      6  C5  UNL d   1      -5.975  -5.915   5.245  0.00  0.00     0.003 A 
ATOM      7  I   UNL d   1      -5.912  -4.569   1.120  0.00  0.00    -0.146 I 
ENDROOT
TORSDOF 0
ENDMDL
