MODEL 1
REMARK minimizedAffinity 14.7920818
REMARK minimizedRMSD -1
REMARK  0 active torsions:
REMARK  status: ('A' for Active; 'I' for Inactive)
ROOT
ATOM      1  C   UNL d   1       0.128  -1.516   2.233  0.00  0.00     0.023 A 
ATOM      2  C1  UNL d   1      -1.004  -1.024   1.582  0.00  0.00     0.003 A 
ATOM      3  C2  UNL d   1      -1.954  -0.287   2.292  0.00  0.00     0.048 A 
ATOM      4  C3  UNL d   1      -1.766  -0.045   3.652  0.00  0.00     0.023 A 
ATOM      5  C4  UNL d   1      -0.635  -0.534   4.308  0.00  0.00     0.048 A 
ATOM      6  C5  UNL d   1       0.312  -1.271   3.594  0.00  0.00     0.003 A 
ATOM      7  I   UNL d   1      -3.180   1.052   4.711  0.00  0.00    -0.146 I 
ENDROOT
TORSDOF 0
ENDMDL
