MODEL 1
REMARK minimizedAffinity 9.55201149
REMARK minimizedRMSD -1
REMARK  0 active torsions:
REMARK  status: ('A' for Active; 'I' for Inactive)
ROOT
ATOM      1  C   UNL d   1      -0.978  -0.928   2.196  0.00  0.00     0.023 A 
ATOM      2  C1  UNL d   1      -1.670  -1.474   1.115  0.00  0.00     0.003 A 
ATOM      3  C2  UNL d   1      -2.897  -0.934   0.725  0.00  0.00     0.048 A 
ATOM      4  C3  UNL d   1      -3.426   0.154   1.419  0.00  0.00     0.023 A 
ATOM      5  C4  UNL d   1      -2.737   0.704   2.501  0.00  0.00     0.048 A 
ATOM      6  C5  UNL d   1      -1.511   0.160   2.888  0.00  0.00     0.003 A 
ATOM      7  I   UNL d   1      -5.252   0.960   0.841  0.00  0.00    -0.146 I 
ENDROOT
TORSDOF 0
ENDMDL
