MODEL 1
REMARK minimizedAffinity 11.4415464
REMARK minimizedRMSD -1
REMARK  0 active torsions:
REMARK  status: ('A' for Active; 'I' for Inactive)
ROOT
ATOM      1  C   UNL d   1       1.166   4.013  -3.133  0.00  0.00     0.023 A 
ATOM      2  C1  UNL d   1       1.980   3.050  -3.731  0.00  0.00     0.003 A 
ATOM      3  C2  UNL d   1       3.367   3.210  -3.734  0.00  0.00     0.048 A 
ATOM      4  C3  UNL d   1       3.934   4.335  -3.136  0.00  0.00     0.023 A 
ATOM      5  C4  UNL d   1       3.124   5.300  -2.535  0.00  0.00     0.048 A 
ATOM      6  C5  UNL d   1       1.738   5.136  -2.536  0.00  0.00     0.003 A 
ATOM      7  I   UNL d   1       5.998   4.575  -3.138  0.00  0.00    -0.146 I 
ENDROOT
TORSDOF 0
ENDMDL
