MODEL 1
REMARK minimizedAffinity 10.9598246
REMARK minimizedRMSD -1
REMARK  0 active torsions:
REMARK  status: ('A' for Active; 'I' for Inactive)
ROOT
ATOM      1  C   UNL d   1       6.000   5.999  -3.964  0.00  0.00     0.023 A 
ATOM      2  C1  UNL d   1       5.456   5.999  -2.680  0.00  0.00     0.003 A 
ATOM      3  C2  UNL d   1       4.523   5.026  -2.315  0.00  0.00     0.048 A 
ATOM      4  C3  UNL d   1       4.139   4.056  -3.240  0.00  0.00     0.023 A 
ATOM      5  C4  UNL d   1       4.681   4.051  -4.526  0.00  0.00     0.048 A 
ATOM      6  C5  UNL d   1       5.613   5.026  -4.886  0.00  0.00     0.003 A 
ATOM      7  I   UNL d   1       2.751   2.606  -2.699  0.00  0.00    -0.146 I 
ENDROOT
TORSDOF 0
ENDMDL
