MODEL 1
REMARK minimizedAffinity 2.22641468
REMARK minimizedRMSD -1
REMARK  0 active torsions:
REMARK  status: ('A' for Active; 'I' for Inactive)
ROOT
ATOM      1  C   UNL d   1       2.927  -1.967  -0.265  0.00  0.00     0.172 C 
ATOM      2  N   UNL d   1       3.429  -0.613  -0.230  0.00  0.00    -0.070 N 
ATOM      3  C1  UNL d   1       2.710   0.495   0.130  0.00  0.00    -0.004 A 
ATOM      4  C2  UNL d   1       3.544   1.588   0.033  0.00  0.00    -0.047 A 
ATOM      5  C3  UNL d   1       4.807   1.120  -0.401  0.00  0.00    -0.047 A 
ATOM      6  C4  UNL d   1       4.708  -0.246  -0.556  0.00  0.00    -0.004 A 
ENDROOT
TORSDOF 0
ENDMDL
