MODEL 1
REMARK minimizedAffinity 2.98181295
REMARK minimizedRMSD -1
REMARK  0 active torsions:
REMARK  status: ('A' for Active; 'I' for Inactive)
ROOT
ATOM      1  C   UNL d   1       0.856   5.088   4.149  0.00  0.00     0.172 C 
ATOM      2  N   UNL d   1       0.282   3.913   3.537  0.00  0.00    -0.070 N 
ATOM      3  C1  UNL d   1       0.369   2.636   4.024  0.00  0.00    -0.004 A 
ATOM      4  C2  UNL d   1      -0.306   1.807   3.154  0.00  0.00    -0.047 A 
ATOM      5  C3  UNL d   1      -0.815   2.613   2.108  0.00  0.00    -0.047 A 
ATOM      6  C4  UNL d   1      -0.436   3.912   2.370  0.00  0.00    -0.004 A 
ENDROOT
TORSDOF 0
ENDMDL
