MODEL 1
REMARK minimizedAffinity 2.04753828
REMARK minimizedRMSD -1
REMARK  0 active torsions:
REMARK  status: ('A' for Active; 'I' for Inactive)
ROOT
ATOM      1  C   UNL d   1      -3.071  -1.032   0.760  0.00  0.00     0.172 C 
ATOM      2  N   UNL d   1      -1.660  -0.726   0.788  0.00  0.00    -0.070 N 
ATOM      3  C1  UNL d   1      -0.811  -0.774  -0.286  0.00  0.00    -0.004 A 
ATOM      4  C2  UNL d   1       0.445  -0.413   0.152  0.00  0.00    -0.047 A 
ATOM      5  C3  UNL d   1       0.347  -0.140   1.537  0.00  0.00    -0.047 A 
ATOM      6  C4  UNL d   1      -0.966  -0.341   1.905  0.00  0.00    -0.004 A 
ENDROOT
TORSDOF 0
ENDMDL
