MODEL 1
REMARK minimizedAffinity 0.0303746667
REMARK minimizedRMSD -1
REMARK  0 active torsions:
REMARK  status: ('A' for Active; 'I' for Inactive)
ROOT
ATOM      1  C   UNL d   1       1.819  -4.722   5.989  0.00  0.00     0.172 C 
ATOM      2  N   UNL d   1       0.487  -5.008   5.511  0.00  0.00    -0.070 N 
ATOM      3  C1  UNL d   1      -0.161  -4.340   4.507  0.00  0.00    -0.004 A 
ATOM      4  C2  UNL d   1      -1.405  -4.914   4.352  0.00  0.00    -0.047 A 
ATOM      5  C3  UNL d   1      -1.507  -5.964   5.296  0.00  0.00    -0.047 A 
ATOM      6  C4  UNL d   1      -0.322  -6.000   6.000  0.00  0.00    -0.004 A 
ENDROOT
TORSDOF 0
ENDMDL
