MODEL 1
REMARK minimizedAffinity 6.38327789
REMARK minimizedRMSD -1
REMARK  0 active torsions:
REMARK  status: ('A' for Active; 'I' for Inactive)
ROOT
ATOM      1  C   UNL d   1      -0.373  -2.607   4.907  0.00  0.00     0.172 C 
ATOM      2  N   UNL d   1      -0.393  -3.985   5.341  0.00  0.00    -0.070 N 
ATOM      3  C1  UNL d   1       0.708  -4.750   5.620  0.00  0.00    -0.004 A 
ATOM      4  C2  UNL d   1       0.268  -5.999   6.000  0.00  0.00    -0.047 A 
ATOM      5  C3  UNL d   1      -1.146  -5.985   5.946  0.00  0.00    -0.047 A 
ATOM      6  C4  UNL d   1      -1.529  -4.726   5.535  0.00  0.00    -0.004 A 
ENDROOT
TORSDOF 0
ENDMDL
