MODEL 1
REMARK minimizedAffinity 0.731125116
REMARK minimizedRMSD -1
REMARK  0 active torsions:
REMARK  status: ('A' for Active; 'I' for Inactive)
ROOT
ATOM      1  C   UNL d   1      -2.329  -5.621   6.000  0.00  0.00     0.172 C 
ATOM      2  N   UNL d   1      -1.202  -4.909   5.445  0.00  0.00    -0.070 N 
ATOM      3  C1  UNL d   1      -0.537  -5.238   4.295  0.00  0.00    -0.004 A 
ATOM      4  C2  UNL d   1       0.471  -4.317   4.111  0.00  0.00    -0.047 A 
ATOM      5  C3  UNL d   1       0.410  -3.402   5.188  0.00  0.00    -0.047 A 
ATOM      6  C4  UNL d   1      -0.635  -3.792   6.000  0.00  0.00    -0.004 A 
ENDROOT
TORSDOF 0
ENDMDL
