MODEL 1
REMARK minimizedAffinity 2.8044188
REMARK minimizedRMSD -1
REMARK  0 active torsions:
REMARK  status: ('A' for Active; 'I' for Inactive)
ROOT
ATOM      1  C   UNL d   1       2.459   4.696   5.650  0.00  0.00     0.172 C 
ATOM      2  N   UNL d   1       3.844   5.010   5.389  0.00  0.00    -0.070 N 
ATOM      3  C1  UNL d   1       4.567   6.000   6.000  0.00  0.00    -0.004 A 
ATOM      4  C2  UNL d   1       5.842   5.976   5.477  0.00  0.00    -0.047 A 
ATOM      5  C3  UNL d   1       5.887   4.936   4.518  0.00  0.00    -0.047 A 
ATOM      6  C4  UNL d   1       4.637   4.355   4.484  0.00  0.00    -0.004 A 
ENDROOT
TORSDOF 0
ENDMDL
