MODEL 1
REMARK minimizedAffinity 5.50103807
REMARK minimizedRMSD -1
REMARK  0 active torsions:
REMARK  status: ('A' for Active; 'I' for Inactive)
ROOT
ATOM      1  C   UNL d   1      -3.994   1.394   2.301  0.00  0.00     0.172 C 
ATOM      2  N   UNL d   1      -2.662   1.753   2.729  0.00  0.00    -0.070 N 
ATOM      3  C1  UNL d   1      -1.587   1.956   1.906  0.00  0.00    -0.004 A 
ATOM      4  C2  UNL d   1      -0.506   2.281   2.696  0.00  0.00    -0.047 A 
ATOM      5  C3  UNL d   1      -0.947   2.272   4.041  0.00  0.00    -0.047 A 
ATOM      6  C4  UNL d   1      -2.286   1.942   4.032  0.00  0.00    -0.004 A 
ENDROOT
TORSDOF 0
ENDMDL
