MODEL 1
REMARK minimizedAffinity -0.706179619
REMARK minimizedRMSD -1
REMARK  0 active torsions:
REMARK  status: ('A' for Active; 'I' for Inactive)
ROOT
ATOM      1  C   UNL d   1      -2.355  -6.000   5.967  0.00  0.00     0.172 C 
ATOM      2  N   UNL d   1      -1.363  -4.996   5.661  0.00  0.00    -0.070 N 
ATOM      3  C1  UNL d   1      -0.187  -5.213   4.994  0.00  0.00    -0.004 A 
ATOM      4  C2  UNL d   1       0.476  -4.009   4.905  0.00  0.00    -0.047 A 
ATOM      5  C3  UNL d   1      -0.329  -3.034   5.541  0.00  0.00    -0.047 A 
ATOM      6  C4  UNL d   1      -1.461  -3.673   6.000  0.00  0.00    -0.004 A 
ENDROOT
TORSDOF 0
ENDMDL
