MODEL 1
REMARK minimizedAffinity 3.79542375
REMARK minimizedRMSD -1
REMARK  0 active torsions:
REMARK  status: ('A' for Active; 'I' for Inactive)
ROOT
ATOM      1  C   UNL d   1      -2.360  -6.000   5.950  0.00  0.00     0.172 C 
ATOM      2  N   UNL d   1      -1.160  -5.409   5.406  0.00  0.00    -0.070 N 
ATOM      3  C1  UNL d   1      -0.559  -5.763   4.227  0.00  0.00    -0.004 A 
ATOM      4  C2  UNL d   1       0.555  -4.967   4.066  0.00  0.00    -0.047 A 
ATOM      5  C3  UNL d   1       0.626  -4.106   5.186  0.00  0.00    -0.047 A 
ATOM      6  C4  UNL d   1      -0.447  -4.401   6.000  0.00  0.00    -0.004 A 
ENDROOT
TORSDOF 0
ENDMDL
