MODEL 1
REMARK minimizedAffinity 14.2264862
REMARK minimizedRMSD -1
REMARK  0 active torsions:
REMARK  status: ('A' for Active; 'I' for Inactive)
ROOT
ATOM      1  C   UNL d   1       3.931   2.763   0.376  0.00  0.00     0.124 A 
ATOM      2  C1  UNL d   1       4.087   1.383   0.390  0.00  0.00     0.062 A 
ATOM      3  C2  UNL d   1       3.069   0.568   0.875  0.00  0.00     0.162 A 
ATOM      4  C3  UNL d   1       1.883   1.130   1.349  0.00  0.00    -0.034 A 
ATOM      5  C4  UNL d   1       1.733   2.518   1.333  0.00  0.00     0.162 A 
ATOM      6  C5  UNL d   1       2.754   3.328   0.847  0.00  0.00     0.062 A 
ATOM      7  F   UNL d   1       2.601   4.660   0.834  0.00  0.00    -0.097 F 
ATOM      8  F1  UNL d   1       0.607   3.091   1.781  0.00  0.00    -0.096 F 
ATOM      9  I   UNL d   1       0.358  -0.086   2.075  0.00  0.00    -0.060 I 
ATOM     10  F2  UNL d   1       3.247  -0.761   0.877  0.00  0.00    -0.096 F 
ATOM     11  F3  UNL d   1       5.223   0.834  -0.064  0.00  0.00    -0.097 F 
ATOM     12  F4  UNL d   1       4.913   3.545  -0.091  0.00  0.00    -0.092 F 
ENDROOT
TORSDOF 0
ENDMDL
