MODEL 1
REMARK minimizedAffinity 25.2722664
REMARK minimizedRMSD -1
REMARK  0 active torsions:
REMARK  status: ('A' for Active; 'I' for Inactive)
ROOT
ATOM      1  C   UNL d   1       3.851   2.449  -2.437  0.00  0.00     0.124 A 
ATOM      2  C1  UNL d   1       3.622   3.746  -2.000  0.00  0.00     0.062 A 
ATOM      3  C2  UNL d   1       3.283   4.742  -2.912  0.00  0.00     0.162 A 
ATOM      4  C3  UNL d   1       3.170   4.443  -4.270  0.00  0.00    -0.034 A 
ATOM      5  C4  UNL d   1       3.403   3.136  -4.701  0.00  0.00     0.162 A 
ATOM      6  C5  UNL d   1       3.741   2.145  -3.786  0.00  0.00     0.062 A 
ATOM      7  F   UNL d   1       3.962   0.892  -4.209  0.00  0.00    -0.097 F 
ATOM      8  F1  UNL d   1       3.302   2.814  -6.000  0.00  0.00    -0.096 F 
ATOM      9  I   UNL d   1       2.663   5.929  -5.637  0.00  0.00    -0.060 I 
ATOM     10  F2  UNL d   1       3.068   5.987  -2.463  0.00  0.00    -0.096 F 
ATOM     11  F3  UNL d   1       3.729   4.043  -0.697  0.00  0.00    -0.097 F 
ATOM     12  F4  UNL d   1       4.179   1.493  -1.557  0.00  0.00    -0.092 F 
ENDROOT
TORSDOF 0
ENDMDL
