MODEL 1
REMARK minimizedAffinity 17.7309227
REMARK minimizedRMSD -1
REMARK  0 active torsions:
REMARK  status: ('A' for Active; 'I' for Inactive)
ROOT
ATOM      1  C   UNL d   1       4.111   2.383  -2.410  0.00  0.00     0.124 A 
ATOM      2  C1  UNL d   1       4.008   3.711  -2.021  0.00  0.00     0.062 A 
ATOM      3  C2  UNL d   1       4.054   4.725  -2.973  0.00  0.00     0.162 A 
ATOM      4  C3  UNL d   1       4.202   4.416  -4.325  0.00  0.00    -0.034 A 
ATOM      5  C4  UNL d   1       4.306   3.077  -4.709  0.00  0.00     0.162 A 
ATOM      6  C5  UNL d   1       4.260   2.067  -3.753  0.00  0.00     0.062 A 
ATOM      7  F   UNL d   1       4.359   0.785  -4.132  0.00  0.00    -0.097 F 
ATOM      8  F1  UNL d   1       4.450   2.744  -6.000  0.00  0.00    -0.096 F 
ATOM      9  I   UNL d   1       4.272   5.929  -5.751  0.00  0.00    -0.060 I 
ATOM     10  F2  UNL d   1       3.952   6.000  -2.568  0.00  0.00    -0.096 F 
ATOM     11  F3  UNL d   1       3.864   4.018  -0.723  0.00  0.00    -0.097 F 
ATOM     12  F4  UNL d   1       4.067   1.409  -1.492  0.00  0.00    -0.092 F 
ENDROOT
TORSDOF 0
ENDMDL
