MODEL 1
REMARK minimizedAffinity 15.0332355
REMARK minimizedRMSD -1
REMARK  0 active torsions:
REMARK  status: ('A' for Active; 'I' for Inactive)
ROOT
ATOM      1  C   UNL d   1       2.442   2.630  -4.244  0.00  0.00     0.124 A 
ATOM      2  C1  UNL d   1       1.960   3.849  -4.700  0.00  0.00     0.062 A 
ATOM      3  C2  UNL d   1       2.839   4.807  -5.199  0.00  0.00     0.162 A 
ATOM      4  C3  UNL d   1       4.209   4.549  -5.245  0.00  0.00    -0.034 A 
ATOM      5  C4  UNL d   1       4.686   3.321  -4.784  0.00  0.00     0.162 A 
ATOM      6  C5  UNL d   1       3.804   2.367  -4.286  0.00  0.00     0.062 A 
ATOM      7  F   UNL d   1       4.272   1.190  -3.846  0.00  0.00    -0.097 F 
ATOM      8  F1  UNL d   1       5.997   3.040  -4.814  0.00  0.00    -0.096 F 
ATOM      9  I   UNL d   1       5.526   5.978  -5.990  0.00  0.00    -0.060 I 
ATOM     10  F2  UNL d   1       2.345   5.976  -5.633  0.00  0.00    -0.096 F 
ATOM     11  F3  UNL d   1       0.645   4.106  -4.659  0.00  0.00    -0.097 F 
ATOM     12  F4  UNL d   1       1.595   1.711  -3.763  0.00  0.00    -0.092 F 
ENDROOT
TORSDOF 0
ENDMDL
