MODEL 1
REMARK minimizedAffinity 6.77463293
REMARK minimizedRMSD -1
REMARK  0 active torsions:
REMARK  status: ('A' for Active; 'I' for Inactive)
ROOT
ATOM      1  C   UNL d   1      -3.394   0.663   3.273  0.00  0.00     0.124 A 
ATOM      2  C1  UNL d   1      -2.744  -0.563   3.251  0.00  0.00     0.062 A 
ATOM      3  C2  UNL d   1      -1.387  -0.631   2.948  0.00  0.00     0.162 A 
ATOM      4  C3  UNL d   1      -0.671   0.532   2.665  0.00  0.00    -0.034 A 
ATOM      5  C4  UNL d   1      -1.332   1.762   2.688  0.00  0.00     0.162 A 
ATOM      6  C5  UNL d   1      -2.688   1.824   2.992  0.00  0.00     0.062 A 
ATOM      7  F   UNL d   1      -3.314   3.009   3.013  0.00  0.00    -0.097 F 
ATOM      8  F1  UNL d   1      -0.673   2.899   2.421  0.00  0.00    -0.096 F 
ATOM      9  I   UNL d   1       1.358   0.436   2.211  0.00  0.00    -0.060 I 
ATOM     10  F2  UNL d   1      -0.784  -1.829   2.934  0.00  0.00    -0.096 F 
ATOM     11  F3  UNL d   1      -3.424  -1.686   3.522  0.00  0.00    -0.097 F 
ATOM     12  F4  UNL d   1      -4.700   0.725   3.565  0.00  0.00    -0.092 F 
ENDROOT
TORSDOF 0
ENDMDL
