MODEL 1
REMARK minimizedAffinity 17.5800762
REMARK minimizedRMSD -1
REMARK  0 active torsions:
REMARK  status: ('A' for Active; 'I' for Inactive)
ROOT
ATOM      1  C   UNL d   1       2.760   4.706   1.149  0.00  0.00     0.124 A 
ATOM      2  C1  UNL d   1       1.912   3.613   1.259  0.00  0.00     0.062 A 
ATOM      3  C2  UNL d   1       2.437   2.333   1.417  0.00  0.00     0.162 A 
ATOM      4  C3  UNL d   1       3.818   2.140   1.467  0.00  0.00    -0.034 A 
ATOM      5  C4  UNL d   1       4.664   3.245   1.355  0.00  0.00     0.162 A 
ATOM      6  C5  UNL d   1       4.135   4.521   1.197  0.00  0.00     0.062 A 
ATOM      7  F   UNL d   1       4.955   5.577   1.091  0.00  0.00    -0.097 F 
ATOM      8  F1  UNL d   1       5.996   3.095   1.399  0.00  0.00    -0.096 F 
ATOM      9  I   UNL d   1       4.607   0.229   1.703  0.00  0.00    -0.060 I 
ATOM     10  F2  UNL d   1       1.595   1.295   1.520  0.00  0.00    -0.096 F 
ATOM     11  F3  UNL d   1       0.584   3.789   1.212  0.00  0.00    -0.097 F 
ATOM     12  F4  UNL d   1       2.252   5.936   0.997  0.00  0.00    -0.092 F 
ENDROOT
TORSDOF 0
ENDMDL
