MODEL 1
REMARK minimizedAffinity 11.3286285
REMARK minimizedRMSD -1
REMARK  0 active torsions:
REMARK  status: ('A' for Active; 'I' for Inactive)
ROOT
ATOM      1  C   UNL d   1      -0.001   0.256   2.564  0.00  0.00     0.124 A 
ATOM      2  C1  UNL d   1      -0.385   1.586   2.474  0.00  0.00     0.062 A 
ATOM      3  C2  UNL d   1      -1.672   1.970   2.841  0.00  0.00     0.162 A 
ATOM      4  C3  UNL d   1      -2.584   1.021   3.302  0.00  0.00    -0.034 A 
ATOM      5  C4  UNL d   1      -2.191  -0.315   3.389  0.00  0.00     0.162 A 
ATOM      6  C5  UNL d   1      -0.904  -0.694   3.021  0.00  0.00     0.062 A 
ATOM      7  F   UNL d   1      -0.535  -1.980   3.109  0.00  0.00    -0.097 F 
ATOM      8  F1  UNL d   1      -3.043  -1.253   3.829  0.00  0.00    -0.096 F 
ATOM      9  I   UNL d   1      -4.509   1.591   3.852  0.00  0.00    -0.060 I 
ATOM     10  F2  UNL d   1      -2.015   3.263   2.744  0.00  0.00    -0.096 F 
ATOM     11  F3  UNL d   1       0.486   2.505   2.032  0.00  0.00    -0.097 F 
ATOM     12  F4  UNL d   1       1.237  -0.111   2.209  0.00  0.00    -0.092 F 
ENDROOT
TORSDOF 0
ENDMDL
