MODEL 1
REMARK minimizedAffinity -0.646979213
REMARK minimizedRMSD -1
REMARK  0 active torsions:
REMARK  status: ('A' for Active; 'I' for Inactive)
ROOT
ATOM      1  C   UNL d   1      -3.277   0.743   3.148  0.00  0.00     0.124 A 
ATOM      2  C1  UNL d   1      -2.872  -0.419   2.505  0.00  0.00     0.062 A 
ATOM      3  C2  UNL d   1      -1.636  -0.471   1.868  0.00  0.00     0.162 A 
ATOM      4  C3  UNL d   1      -0.795   0.642   1.870  0.00  0.00    -0.034 A 
ATOM      5  C4  UNL d   1      -1.209   1.807   2.517  0.00  0.00     0.162 A 
ATOM      6  C5  UNL d   1      -2.446   1.854   3.153  0.00  0.00     0.062 A 
ATOM      7  F   UNL d   1      -2.835   2.978   3.773  0.00  0.00    -0.097 F 
ATOM      8  F1  UNL d   1      -0.426   2.895   2.538  0.00  0.00    -0.096 F 
ATOM      9  I   UNL d   1       1.054   0.567   0.917  0.00  0.00    -0.060 I 
ATOM     10  F2  UNL d   1      -1.270  -1.607   1.255  0.00  0.00    -0.096 F 
ATOM     11  F3  UNL d   1      -3.673  -1.493   2.498  0.00  0.00    -0.097 F 
ATOM     12  F4  UNL d   1      -4.467   0.791   3.760  0.00  0.00    -0.092 F 
ENDROOT
TORSDOF 0
ENDMDL
