MODEL 1
REMARK minimizedAffinity 17.6307297
REMARK minimizedRMSD -1
REMARK  0 active torsions:
REMARK  status: ('A' for Active; 'I' for Inactive)
ROOT
ATOM      1  C   UNL d   1      -2.004   1.483   2.638  0.00  0.00     0.124 A 
ATOM      2  C1  UNL d   1      -2.507   0.257   3.051  0.00  0.00     0.062 A 
ATOM      3  C2  UNL d   1      -3.513   0.201   4.011  0.00  0.00     0.162 A 
ATOM      4  C3  UNL d   1      -4.025   1.375   4.564  0.00  0.00    -0.034 A 
ATOM      5  C4  UNL d   1      -3.513   2.604   4.144  0.00  0.00     0.162 A 
ATOM      6  C5  UNL d   1      -2.508   2.655   3.184  0.00  0.00     0.062 A 
ATOM      7  F   UNL d   1      -2.023   3.840   2.787  0.00  0.00    -0.097 F 
ATOM      8  F1  UNL d   1      -3.982   3.752   4.655  0.00  0.00    -0.096 F 
ATOM      9  I   UNL d   1      -5.529   1.295   5.999  0.00  0.00    -0.060 I 
ATOM     10  F2  UNL d   1      -3.980  -0.998   4.391  0.00  0.00    -0.096 F 
ATOM     11  F3  UNL d   1      -2.022  -0.877   2.525  0.00  0.00    -0.097 F 
ATOM     12  F4  UNL d   1      -1.035   1.534   1.715  0.00  0.00    -0.092 F 
ENDROOT
TORSDOF 0
ENDMDL
