MODEL 1
REMARK minimizedAffinity 13.5911646
REMARK minimizedRMSD -1
REMARK  0 active torsions:
REMARK  status: ('A' for Active; 'I' for Inactive)
ROOT
ATOM      1  C   UNL d   1      -1.983  -4.429  -0.958  0.00  0.00     0.124 A 
ATOM      2  C1  UNL d   1      -2.948  -3.460  -1.198  0.00  0.00     0.062 A 
ATOM      3  C2  UNL d   1      -3.021  -2.329  -0.390  0.00  0.00     0.162 A 
ATOM      4  C3  UNL d   1      -2.125  -2.160   0.666  0.00  0.00    -0.034 A 
ATOM      5  C4  UNL d   1      -1.158  -3.138   0.902  0.00  0.00     0.162 A 
ATOM      6  C5  UNL d   1      -1.089  -4.267   0.091  0.00  0.00     0.062 A 
ATOM      7  F   UNL d   1      -0.156  -5.201   0.324  0.00  0.00    -0.097 F 
ATOM      8  F1  UNL d   1      -0.280  -3.007   1.908  0.00  0.00    -0.096 F 
ATOM      9  I   UNL d   1      -2.230  -0.470   1.876  0.00  0.00    -0.060 I 
ATOM     10  F2  UNL d   1      -3.964  -1.410  -0.645  0.00  0.00    -0.096 F 
ATOM     11  F3  UNL d   1      -3.814  -3.615  -2.210  0.00  0.00    -0.097 F 
ATOM     12  F4  UNL d   1      -1.916  -5.516  -1.736  0.00  0.00    -0.092 F 
ENDROOT
TORSDOF 0
ENDMDL
