MODEL 1
REMARK minimizedAffinity 15.3723984
REMARK minimizedRMSD -1
REMARK  0 active torsions:
REMARK  status: ('A' for Active; 'I' for Inactive)
ROOT
ATOM      1  C   UNL d   1      -1.610   0.397   3.147  0.00  0.00     0.124 A 
ATOM      2  C1  UNL d   1      -0.303  -0.043   2.989  0.00  0.00     0.062 A 
ATOM      3  C2  UNL d   1       0.652   0.791   2.415  0.00  0.00     0.162 A 
ATOM      4  C3  UNL d   1       0.303   2.075   1.995  0.00  0.00    -0.034 A 
ATOM      5  C4  UNL d   1      -1.013   2.510   2.156  0.00  0.00     0.162 A 
ATOM      6  C5  UNL d   1      -1.964   1.672   2.730  0.00  0.00     0.062 A 
ATOM      7  F   UNL d   1      -3.226   2.099   2.882  0.00  0.00    -0.097 F 
ATOM      8  F1  UNL d   1      -1.382   3.738   1.763  0.00  0.00    -0.096 F 
ATOM      9  I   UNL d   1       1.728   3.325   1.136  0.00  0.00    -0.060 I 
ATOM     10  F2  UNL d   1       1.907   0.340   2.274  0.00  0.00    -0.096 F 
ATOM     11  F3  UNL d   1       0.041  -1.276   3.389  0.00  0.00    -0.097 F 
ATOM     12  F4  UNL d   1      -2.527  -0.409   3.699  0.00  0.00    -0.092 F 
ENDROOT
TORSDOF 0
ENDMDL
