MODEL 1
REMARK minimizedAffinity 11.6022615
REMARK minimizedRMSD -1
REMARK  0 active torsions:
REMARK  status: ('A' for Active; 'I' for Inactive)
ROOT
ATOM      1  C   UNL d   1      -0.749   1.241   2.448  0.00  0.00     0.124 A 
ATOM      2  C1  UNL d   1      -0.205  -0.034   2.531  0.00  0.00     0.062 A 
ATOM      3  C2  UNL d   1      -1.010  -1.117   2.875  0.00  0.00     0.162 A 
ATOM      4  C3  UNL d   1      -2.367  -0.930   3.136  0.00  0.00    -0.034 A 
ATOM      5  C4  UNL d   1      -2.906   0.355   3.052  0.00  0.00     0.162 A 
ATOM      6  C5  UNL d   1      -2.098   1.434   2.708  0.00  0.00     0.062 A 
ATOM      7  F   UNL d   1      -2.625   2.664   2.628  0.00  0.00    -0.097 F 
ATOM      8  F1  UNL d   1      -4.207   0.570   3.297  0.00  0.00    -0.096 F 
ATOM      9  I   UNL d   1      -3.573  -2.547   3.650  0.00  0.00    -0.060 I 
ATOM     10  F2  UNL d   1      -0.458  -2.337   2.948  0.00  0.00    -0.096 F 
ATOM     11  F3  UNL d   1       1.098  -0.223   2.281  0.00  0.00    -0.097 F 
ATOM     12  F4  UNL d   1       0.028   2.281   2.118  0.00  0.00    -0.092 F 
ENDROOT
TORSDOF 0
ENDMDL
