MODEL 1
REMARK minimizedAffinity 13.7642994
REMARK minimizedRMSD -1
REMARK  0 active torsions:
REMARK  status: ('A' for Active; 'I' for Inactive)
ROOT
ATOM      1  C   UNL d   1      -3.681   3.658   1.860  0.00  0.00     0.124 A 
ATOM      2  C1  UNL d   1      -3.822   2.734   2.886  0.00  0.00     0.062 A 
ATOM      3  C2  UNL d   1      -2.723   1.997   3.320  0.00  0.00     0.162 A 
ATOM      4  C3  UNL d   1      -1.474   2.183   2.729  0.00  0.00    -0.034 A 
ATOM      5  C4  UNL d   1      -1.340   3.114   1.697  0.00  0.00     0.162 A 
ATOM      6  C5  UNL d   1      -2.441   3.847   1.267  0.00  0.00     0.062 A 
ATOM      7  F   UNL d   1      -2.303   4.740   0.276  0.00  0.00    -0.097 F 
ATOM      8  F1  UNL d   1      -0.153   3.317   1.107  0.00  0.00    -0.096 F 
ATOM      9  I   UNL d   1       0.171   1.084   3.375  0.00  0.00    -0.060 I 
ATOM     10  F2  UNL d   1      -2.888   1.111   4.313  0.00  0.00    -0.096 F 
ATOM     11  F3  UNL d   1      -5.019   2.549   3.460  0.00  0.00    -0.097 F 
ATOM     12  F4  UNL d   1      -4.740   4.365   1.444  0.00  0.00    -0.092 F 
ENDROOT
TORSDOF 0
ENDMDL
