MODEL 1
REMARK minimizedAffinity 6.3526454
REMARK minimizedRMSD -1
REMARK  0 active torsions:
REMARK  status: ('A' for Active; 'I' for Inactive)
ROOT
ATOM      1  C   UNL d   1      -2.261   1.436   2.698  0.00  0.00     0.124 A 
ATOM      2  C1  UNL d   1      -1.999   0.100   2.971  0.00  0.00     0.062 A 
ATOM      3  C2  UNL d   1      -0.704  -0.397   2.853  0.00  0.00     0.162 A 
ATOM      4  C3  UNL d   1       0.339   0.442   2.462  0.00  0.00    -0.034 A 
ATOM      5  C4  UNL d   1       0.067   1.784   2.188  0.00  0.00     0.162 A 
ATOM      6  C5  UNL d   1      -1.229   2.276   2.307  0.00  0.00     0.062 A 
ATOM      7  F   UNL d   1      -1.480   3.566   2.043  0.00  0.00    -0.097 F 
ATOM      8  F1  UNL d   1       1.047   2.618   1.809  0.00  0.00    -0.096 F 
ATOM      9  I   UNL d   1       2.276  -0.297   2.285  0.00  0.00    -0.060 I 
ATOM     10  F2  UNL d   1      -0.480  -1.691   3.124  0.00  0.00    -0.096 F 
ATOM     11  F3  UNL d   1      -2.995  -0.714   3.348  0.00  0.00    -0.097 F 
ATOM     12  F4  UNL d   1      -3.508   1.911   2.811  0.00  0.00    -0.092 F 
ENDROOT
TORSDOF 0
ENDMDL
