MODEL 1
REMARK minimizedAffinity 16.5767422
REMARK minimizedRMSD -1
REMARK  0 active torsions:
REMARK  status: ('A' for Active; 'I' for Inactive)
ROOT
ATOM      1  C   UNL d   1      -1.915   1.598   2.269  0.00  0.00     0.124 A 
ATOM      2  C1  UNL d   1      -2.575   0.440   2.656  0.00  0.00     0.062 A 
ATOM      3  C2  UNL d   1      -3.606   0.500   3.590  0.00  0.00     0.162 A 
ATOM      4  C3  UNL d   1      -3.985   1.724   4.141  0.00  0.00    -0.034 A 
ATOM      5  C4  UNL d   1      -3.316   2.885   3.747  0.00  0.00     0.162 A 
ATOM      6  C5  UNL d   1      -2.286   2.818   2.814  0.00  0.00     0.062 A 
ATOM      7  F   UNL d   1      -1.650   3.938   2.441  0.00  0.00    -0.097 F 
ATOM      8  F1  UNL d   1      -3.654   4.078   4.258  0.00  0.00    -0.096 F 
ATOM      9  I   UNL d   1      -5.526   1.819   5.537  0.00  0.00    -0.060 I 
ATOM     10  F2  UNL d   1      -4.226  -0.634   3.946  0.00  0.00    -0.096 F 
ATOM     11  F3  UNL d   1      -2.218  -0.741   2.132  0.00  0.00    -0.097 F 
ATOM     12  F4  UNL d   1      -0.923   1.536   1.372  0.00  0.00    -0.092 F 
ENDROOT
TORSDOF 0
ENDMDL
