MODEL 1
REMARK minimizedAffinity 6.55042982
REMARK minimizedRMSD -1
REMARK  0 active torsions:
REMARK  status: ('A' for Active; 'I' for Inactive)
ROOT
ATOM      1  C   UNL d   1       1.805  -2.547   0.235  0.00  0.00     0.023 A 
ATOM      2  C1  UNL d   1       2.709  -3.599   0.381  0.00  0.00     0.003 A 
ATOM      3  C2  UNL d   1       3.532  -3.663   1.507  0.00  0.00     0.048 A 
ATOM      4  C3  UNL d   1       3.444  -2.673   2.485  0.00  0.00     0.023 A 
ATOM      5  C4  UNL d   1       2.541  -1.619   2.344  0.00  0.00     0.048 A 
ATOM      6  C5  UNL d   1       1.721  -1.558   1.215  0.00  0.00     0.003 A 
ATOM      7  I   UNL d   1       4.668  -2.767   4.162  0.00  0.00    -0.146 I 
ENDROOT
TORSDOF 0
ENDMDL
