MODEL 1
REMARK minimizedAffinity 1.8661834
REMARK minimizedRMSD -1
REMARK  0 active torsions:
REMARK  status: ('A' for Active; 'I' for Inactive)
ROOT
ATOM      1  C   UNL d   1       6.000   4.447  -5.028  0.00  0.00     0.023 A 
ATOM      2  C1  UNL d   1       4.956   3.606  -4.642  0.00  0.00     0.003 A 
ATOM      3  C2  UNL d   1       3.634   3.959  -4.919  0.00  0.00     0.048 A 
ATOM      4  C3  UNL d   1       3.363   5.155  -5.584  0.00  0.00     0.023 A 
ATOM      5  C4  UNL d   1       4.404   5.999  -5.973  0.00  0.00     0.048 A 
ATOM      6  C5  UNL d   1       5.724   5.642  -5.693  0.00  0.00     0.003 A 
ATOM      7  I   UNL d   1       1.396   5.683  -5.999  0.00  0.00    -0.146 I 
ENDROOT
TORSDOF 0
ENDMDL
