MODEL 1
REMARK minimizedAffinity 9.66065025
REMARK minimizedRMSD -1
REMARK  0 active torsions:
REMARK  status: ('A' for Active; 'I' for Inactive)
ROOT
ATOM      1  C   UNL d   1       1.076  -1.028   1.622  0.00  0.00     0.023 A 
ATOM      2  C1  UNL d   1       2.423  -1.374   1.735  0.00  0.00     0.003 A 
ATOM      3  C2  UNL d   1       2.882  -2.582   1.206  0.00  0.00     0.048 A 
ATOM      4  C3  UNL d   1       1.988  -3.439   0.564  0.00  0.00     0.023 A 
ATOM      5  C4  UNL d   1       0.640  -3.097   0.448  0.00  0.00     0.048 A 
ATOM      6  C5  UNL d   1       0.186  -1.888   0.979  0.00  0.00     0.003 A 
ATOM      7  I   UNL d   1       2.668  -5.238  -0.224  0.00  0.00    -0.146 I 
ENDROOT
TORSDOF 0
ENDMDL
