MODEL 1
REMARK minimizedAffinity 13.475379
REMARK minimizedRMSD -1
REMARK  0 active torsions:
REMARK  status: ('A' for Active; 'I' for Inactive)
ROOT
ATOM      1  C   UNL d   1       0.904  -2.078   0.541  0.00  0.00     0.023 A 
ATOM      2  C1  UNL d   1       1.943  -3.009   0.506  0.00  0.00     0.003 A 
ATOM      3  C2  UNL d   1       2.905  -3.021   1.519  0.00  0.00     0.048 A 
ATOM      4  C3  UNL d   1       2.820  -2.102   2.564  0.00  0.00     0.023 A 
ATOM      5  C4  UNL d   1       1.782  -1.170   2.603  0.00  0.00     0.048 A 
ATOM      6  C5  UNL d   1       0.824  -1.160   1.588  0.00  0.00     0.003 A 
ATOM      7  I   UNL d   1       4.249  -2.119   4.073  0.00  0.00    -0.146 I 
ENDROOT
TORSDOF 0
ENDMDL
