MODEL 1
REMARK minimizedAffinity 7.14177752
REMARK minimizedRMSD -1
REMARK  0 active torsions:
REMARK  status: ('A' for Active; 'I' for Inactive)
ROOT
ATOM      1  C   UNL d   1       5.288  -5.897   5.809  0.00  0.00     0.023 A 
ATOM      2  C1  UNL d   1       6.000  -4.713   6.000  0.00  0.00     0.003 A 
ATOM      3  C2  UNL d   1       5.392  -3.483   5.740  0.00  0.00     0.048 A 
ATOM      4  C3  UNL d   1       4.073  -3.444   5.290  0.00  0.00     0.023 A 
ATOM      5  C4  UNL d   1       3.357  -4.627   5.100  0.00  0.00     0.048 A 
ATOM      6  C5  UNL d   1       3.969  -5.855   5.360  0.00  0.00     0.003 A 
ATOM      7  I   UNL d   1       3.166  -1.615   4.903  0.00  0.00    -0.146 I 
ENDROOT
TORSDOF 0
ENDMDL
