MODEL 1
REMARK minimizedAffinity 15.3963909
REMARK minimizedRMSD -1
REMARK  0 active torsions:
REMARK  status: ('A' for Active; 'I' for Inactive)
ROOT
ATOM      1  C   UNL d   1      -1.026   2.787  -4.174  0.00  0.00     0.023 A 
ATOM      2  C1  UNL d   1      -2.145   3.039  -3.381  0.00  0.00     0.003 A 
ATOM      3  C2  UNL d   1      -3.398   2.556  -3.765  0.00  0.00     0.048 A 
ATOM      4  C3  UNL d   1      -3.523   1.821  -4.944  0.00  0.00     0.023 A 
ATOM      5  C4  UNL d   1      -2.406   1.566  -5.740  0.00  0.00     0.048 A 
ATOM      6  C5  UNL d   1      -1.156   2.051  -5.352  0.00  0.00     0.003 A 
ATOM      7  I   UNL d   1      -5.387   1.101  -5.518  0.00  0.00    -0.146 I 
ENDROOT
TORSDOF 0
ENDMDL
