MODEL 1
REMARK minimizedAffinity 11.3974676
REMARK minimizedRMSD -1
REMARK  0 active torsions:
REMARK  status: ('A' for Active; 'I' for Inactive)
ROOT
ATOM      1  C   UNL d   1       1.480  -1.730   0.789  0.00  0.00     0.023 A 
ATOM      2  C1  UNL d   1       1.032  -1.208   2.003  0.00  0.00     0.003 A 
ATOM      3  C2  UNL d   1       1.785  -1.394   3.164  0.00  0.00     0.048 A 
ATOM      4  C3  UNL d   1       2.985  -2.102   3.105  0.00  0.00     0.023 A 
ATOM      5  C4  UNL d   1       3.438  -2.624   1.892  0.00  0.00     0.048 A 
ATOM      6  C5  UNL d   1       2.681  -2.437   0.734  0.00  0.00     0.003 A 
ATOM      7  I   UNL d   1       4.107  -2.380   4.832  0.00  0.00    -0.146 I 
ENDROOT
TORSDOF 0
ENDMDL
