MODEL 1
REMARK minimizedAffinity 11.5360498
REMARK minimizedRMSD -1
REMARK  0 active torsions:
REMARK  status: ('A' for Active; 'I' for Inactive)
ROOT
ATOM      1  C   UNL d   1       5.636   4.124  -5.751  0.00  0.00     0.023 A 
ATOM      2  C1  UNL d   1       5.415   5.499  -5.834  0.00  0.00     0.003 A 
ATOM      3  C2  UNL d   1       4.112   5.996  -5.905  0.00  0.00     0.048 A 
ATOM      4  C3  UNL d   1       3.034   5.111  -5.892  0.00  0.00     0.023 A 
ATOM      5  C4  UNL d   1       3.250   3.735  -5.808  0.00  0.00     0.048 A 
ATOM      6  C5  UNL d   1       4.554   3.243  -5.738  0.00  0.00     0.003 A 
ATOM      7  I   UNL d   1       1.093   5.847  -5.997  0.00  0.00    -0.146 I 
ENDROOT
TORSDOF 0
ENDMDL
