MODEL 1
REMARK minimizedAffinity 6.12025547
REMARK minimizedRMSD -1
REMARK  0 active torsions:
REMARK  status: ('A' for Active; 'I' for Inactive)
ROOT
ATOM      1  C   UNL d   1       5.978   4.040   0.351  0.00  0.00     0.023 A 
ATOM      2  C1  UNL d   1       5.986   3.229  -0.784  0.00  0.00     0.003 A 
ATOM      3  C2  UNL d   1       5.993   1.839  -0.650  0.00  0.00     0.048 A 
ATOM      4  C3  UNL d   1       5.990   1.267   0.621  0.00  0.00     0.023 A 
ATOM      5  C4  UNL d   1       5.981   2.075   1.760  0.00  0.00     0.048 A 
ATOM      6  C5  UNL d   1       5.975   3.464   1.621  0.00  0.00     0.003 A 
ATOM      7  I   UNL d   1       6.000  -0.802   0.823  0.00  0.00    -0.146 I 
ENDROOT
TORSDOF 0
ENDMDL
