MODEL 1
REMARK minimizedAffinity 2.75129914
REMARK minimizedRMSD -1
REMARK  0 active torsions:
REMARK  status: ('A' for Active; 'I' for Inactive)
ROOT
ATOM      1  C   UNL d   1       5.998   4.335  -4.911  0.00  0.00     0.023 A 
ATOM      2  C1  UNL d   1       5.854   5.491  -5.679  0.00  0.00     0.003 A 
ATOM      3  C2  UNL d   1       4.579   5.969  -5.990  0.00  0.00     0.048 A 
ATOM      4  C3  UNL d   1       3.454   5.287  -5.530  0.00  0.00     0.023 A 
ATOM      5  C4  UNL d   1       3.593   4.130  -4.761  0.00  0.00     0.048 A 
ATOM      6  C5  UNL d   1       4.869   3.655  -4.453  0.00  0.00     0.003 A 
ATOM      7  I   UNL d   1       1.556   5.997  -5.992  0.00  0.00    -0.146 I 
ENDROOT
TORSDOF 0
ENDMDL
