MODEL 1
REMARK minimizedAffinity 8.43331337
REMARK minimizedRMSD -1
REMARK  1 active torsions:
REMARK  status: ('A' for Active; 'I' for Inactive)
REMARK    1  A    between atoms: C1_2  and  C2_3 
ROOT
ATOM      1  C2  UNL d   1       2.308  -1.103   1.273  0.00  0.00    -0.076 A 
ATOM      2  C3  UNL d   1       0.910  -1.226   1.360  0.00  0.00     0.004 A 
ATOM      3  C4  UNL d   1       0.322  -2.383   1.868  0.00  0.00    -0.003 A 
ATOM      4  C5  UNL d   1       1.122  -3.436   2.297  0.00  0.00     0.000 A 
ATOM      5  C6  UNL d   1       2.511  -3.324   2.234  0.00  0.00     0.000 A 
ATOM      6  C7  UNL d   1       3.120  -2.158   1.740  0.00  0.00    -0.073 A 
ATOM      7  C8  UNL d   1       4.622  -2.094   1.690  0.00  0.00     0.078 C 
ENDROOT
BRANCH   1   8
ATOM      8  C1  UNL d   1       2.888   0.165   0.688  0.00  0.00     0.053 C 
ATOM      9  C   UNL d   1       2.087   1.401   1.066  0.00  0.00     0.018 C 
ENDBRANCH   1   8
TORSDOF 1
ENDMDL
