MODEL 1
REMARK minimizedAffinity -2.39089274
REMARK minimizedRMSD -1
REMARK  1 active torsions:
REMARK  status: ('A' for Active; 'I' for Inactive)
REMARK    1  A    between atoms: C1_2  and  C2_3 
ROOT
ATOM      1  C2  UNL d   1       2.611  -1.716   1.776  0.00  0.00    -0.076 A 
ATOM      2  C3  UNL d   1       3.718  -2.019   2.588  0.00  0.00     0.004 A 
ATOM      3  C4  UNL d   1       3.596  -2.882   3.675  0.00  0.00    -0.003 A 
ATOM      4  C5  UNL d   1       2.365  -3.458   3.968  0.00  0.00     0.000 A 
ATOM      5  C6  UNL d   1       1.260  -3.184   3.163  0.00  0.00     0.000 A 
ATOM      6  C7  UNL d   1       1.370  -2.328   2.053  0.00  0.00    -0.073 A 
ATOM      7  C8  UNL d   1       0.145  -2.062   1.222  0.00  0.00     0.078 C 
ENDROOT
BRANCH   1   8
ATOM      8  C1  UNL d   1       2.798  -0.752   0.627  0.00  0.00     0.053 C 
ATOM      9  C   UNL d   1       2.506   0.688   1.021  0.00  0.00     0.018 C 
ENDBRANCH   1   8
TORSDOF 1
ENDMDL
