MODEL 1
REMARK minimizedAffinity 4.13395405
REMARK minimizedRMSD -1
REMARK  1 active torsions:
REMARK  status: ('A' for Active; 'I' for Inactive)
REMARK    1  A    between atoms: C1_2  and  C2_3 
ROOT
ATOM      1  C2  UNL d   1       0.361  -1.131   1.770  0.00  0.00    -0.076 A 
ATOM      2  C3  UNL d   1       0.877   0.177   1.755  0.00  0.00     0.004 A 
ATOM      3  C4  UNL d   1       2.232   0.416   1.982  0.00  0.00    -0.003 A 
ATOM      4  C5  UNL d   1       3.092  -0.648   2.225  0.00  0.00     0.000 A 
ATOM      5  C6  UNL d   1       2.601  -1.953   2.226  0.00  0.00     0.000 A 
ATOM      6  C7  UNL d   1       1.241  -2.213   1.984  0.00  0.00    -0.073 A 
ATOM      7  C8  UNL d   1       0.765  -3.640   2.003  0.00  0.00     0.078 C 
ENDROOT
BRANCH   1   8
ATOM      8  C1  UNL d   1      -1.121  -1.327   1.545  0.00  0.00     0.053 C 
ATOM      9  C   UNL d   1      -1.861  -0.012   1.358  0.00  0.00     0.018 C 
ENDBRANCH   1   8
TORSDOF 1
ENDMDL
