MODEL 1
REMARK minimizedAffinity 1.4313252
REMARK minimizedRMSD -1
REMARK  1 active torsions:
REMARK  status: ('A' for Active; 'I' for Inactive)
REMARK    1  A    between atoms: C1_2  and  C2_3 
ROOT
ATOM      1  C2  UNL d   1       1.341  -2.426  -1.276  0.00  0.00    -0.076 A 
ATOM      2  C3  UNL d   1       2.165  -2.623  -0.154  0.00  0.00     0.004 A 
ATOM      3  C4  UNL d   1       1.683  -2.413   1.136  0.00  0.00    -0.003 A 
ATOM      4  C5  UNL d   1       0.368  -2.003   1.327  0.00  0.00     0.000 A 
ATOM      5  C6  UNL d   1      -0.469  -1.820   0.227  0.00  0.00     0.000 A 
ATOM      6  C7  UNL d   1      -0.004  -2.043  -1.080  0.00  0.00    -0.073 A 
ATOM      7  C8  UNL d   1      -0.948  -1.824  -2.230  0.00  0.00     0.078 C 
ENDROOT
BRANCH   1   8
ATOM      8  C1  UNL d   1       1.926  -2.644  -2.653  0.00  0.00     0.053 C 
ATOM      9  C   UNL d   1       3.095  -1.714  -2.942  0.00  0.00     0.018 C 
ENDBRANCH   1   8
TORSDOF 1
ENDMDL
