MODEL 1
REMARK minimizedAffinity 1.6627003
REMARK minimizedRMSD -1
REMARK  1 active torsions:
REMARK  status: ('A' for Active; 'I' for Inactive)
REMARK    1  A    between atoms: C1_2  and  C2_3 
ROOT
ATOM      1  C2  UNL d   1       0.895  -2.208   2.661  0.00  0.00    -0.076 A 
ATOM      2  C3  UNL d   1      -0.304  -1.734   2.102  0.00  0.00     0.004 A 
ATOM      3  C4  UNL d   1      -0.322  -1.135   0.844  0.00  0.00    -0.003 A 
ATOM      4  C5  UNL d   1       0.860  -1.003   0.123  0.00  0.00     0.000 A 
ATOM      5  C6  UNL d   1       2.056  -1.484   0.654  0.00  0.00     0.000 A 
ATOM      6  C7  UNL d   1       2.089  -2.104   1.915  0.00  0.00    -0.073 A 
ATOM      7  C8  UNL d   1       3.407  -2.599   2.442  0.00  0.00     0.078 C 
ENDROOT
BRANCH   1   8
ATOM      8  C1  UNL d   1       0.857  -2.824   4.042  0.00  0.00     0.053 C 
ATOM      9  C   UNL d   1       0.071  -4.125   4.078  0.00  0.00     0.018 C 
ENDBRANCH   1   8
TORSDOF 1
ENDMDL
