MODEL 1
REMARK minimizedAffinity 5.11255074
REMARK minimizedRMSD -1
REMARK  1 active torsions:
REMARK  status: ('A' for Active; 'I' for Inactive)
REMARK    1  A    between atoms: C1_2  and  C2_3 
ROOT
ATOM      1  C2  UNL d   1       3.136  -1.382   1.329  0.00  0.00    -0.076 A 
ATOM      2  C3  UNL d   1       2.599  -2.678   1.235  0.00  0.00     0.004 A 
ATOM      3  C4  UNL d   1       1.244  -2.912   1.464  0.00  0.00    -0.003 A 
ATOM      4  C5  UNL d   1       0.404  -1.853   1.789  0.00  0.00     0.000 A 
ATOM      5  C6  UNL d   1       0.916  -0.558   1.869  0.00  0.00     0.000 A 
ATOM      6  C7  UNL d   1       2.276  -0.303   1.626  0.00  0.00    -0.073 A 
ATOM      7  C8  UNL d   1       2.776   1.112   1.732  0.00  0.00     0.078 C 
ENDROOT
BRANCH   1   8
ATOM      8  C1  UNL d   1       4.618  -1.194   1.097  0.00  0.00     0.053 C 
ATOM      9  C   UNL d   1       5.452  -2.292   1.738  0.00  0.00     0.018 C 
ENDBRANCH   1   8
TORSDOF 1
ENDMDL
