MODEL 1
REMARK minimizedAffinity -0.519789755
REMARK minimizedRMSD -1
REMARK  1 active torsions:
REMARK  status: ('A' for Active; 'I' for Inactive)
REMARK    1  A    between atoms: C1_2  and  C2_3 
ROOT
ATOM      1  C2  UNL d   1       3.197   1.169   1.190  0.00  0.00    -0.077 A 
ATOM      2  C3  UNL d   1       3.933  -0.019   1.296  0.00  0.00     0.002 A 
ATOM      3  C4  UNL d   1       5.328   0.010   1.276  0.00  0.00     0.002 A 
ATOM      4  C5  UNL d   1       6.000   1.225   1.153  0.00  0.00    -0.004 A 
ATOM      5  C6  UNL d   1       5.277   2.412   1.045  0.00  0.00     0.002 A 
ATOM      6  C7  UNL d   1       3.882   2.385   1.064  0.00  0.00     0.002 A 
ENDROOT
BRANCH   1   7
ATOM      7  C1  UNL d   1       1.692   1.145   1.261  0.00  0.00     0.055 C 
ATOM      8  C   UNL d   1       1.210   0.500   2.552  0.00  0.00     0.019 C 
ENDBRANCH   1   7
TORSDOF 1
ENDMDL
