MODEL 1
REMARK minimizedAffinity -0.386137545
REMARK minimizedRMSD -1
REMARK  1 active torsions:
REMARK  status: ('A' for Active; 'I' for Inactive)
REMARK    1  A    between atoms: C1_2  and  C2_3 
ROOT
ATOM      1  C2  UNL d   1      -1.227  -3.087  -2.008  0.00  0.00    -0.077 A 
ATOM      2  C3  UNL d   1      -0.590  -2.708  -0.818  0.00  0.00     0.002 A 
ATOM      3  C4  UNL d   1      -1.335  -2.476   0.339  0.00  0.00     0.002 A 
ATOM      4  C5  UNL d   1      -2.720  -2.625   0.320  0.00  0.00    -0.004 A 
ATOM      5  C6  UNL d   1      -3.364  -3.000  -0.859  0.00  0.00     0.002 A 
ATOM      6  C7  UNL d   1      -2.621  -3.231  -2.017  0.00  0.00     0.002 A 
ENDROOT
BRANCH   1   7
ATOM      7  C1  UNL d   1      -0.421  -3.385  -3.245  0.00  0.00     0.055 C 
ATOM      8  C   UNL d   1       0.867  -4.120  -2.902  0.00  0.00     0.019 C 
ENDBRANCH   1   7
TORSDOF 1
ENDMDL
