MODEL 1
REMARK minimizedAffinity -0.881403148
REMARK minimizedRMSD -1
REMARK  1 active torsions:
REMARK  status: ('A' for Active; 'I' for Inactive)
REMARK    1  A    between atoms: C1_2  and  C2_3 
ROOT
ATOM      1  C2  UNL d   1      -1.777  -2.317  -3.194  0.00  0.00    -0.077 A 
ATOM      2  C3  UNL d   1      -2.922  -2.982  -2.735  0.00  0.00     0.002 A 
ATOM      3  C4  UNL d   1      -2.911  -3.640  -1.503  0.00  0.00     0.002 A 
ATOM      4  C5  UNL d   1      -1.759  -3.636  -0.720  0.00  0.00    -0.004 A 
ATOM      5  C6  UNL d   1      -0.614  -2.979  -1.169  0.00  0.00     0.002 A 
ATOM      6  C7  UNL d   1      -0.623  -2.322  -2.400  0.00  0.00     0.002 A 
ENDROOT
BRANCH   1   7
ATOM      7  C1  UNL d   1      -1.802  -1.566  -4.500  0.00  0.00     0.055 C 
ATOM      8  C   UNL d   1      -1.330  -2.441  -5.652  0.00  0.00     0.019 C 
ENDBRANCH   1   7
TORSDOF 1
ENDMDL
