MODEL 1
REMARK minimizedAffinity 3.88896275
REMARK minimizedRMSD -1
REMARK  1 active torsions:
REMARK  status: ('A' for Active; 'I' for Inactive)
REMARK    1  A    between atoms: C1_2  and  C2_3 
ROOT
ATOM      1  C2  UNL d   1      -3.803  -3.918  -2.542  0.00  0.00    -0.077 A 
ATOM      2  C3  UNL d   1      -3.678  -4.987  -1.644  0.00  0.00     0.002 A 
ATOM      3  C4  UNL d   1      -4.705  -5.923  -1.513  0.00  0.00     0.002 A 
ATOM      4  C5  UNL d   1      -5.863  -5.802  -2.279  0.00  0.00    -0.004 A 
ATOM      5  C6  UNL d   1      -5.998  -4.741  -3.173  0.00  0.00     0.002 A 
ATOM      6  C7  UNL d   1      -4.973  -3.804  -3.305  0.00  0.00     0.002 A 
ENDROOT
BRANCH   1   7
ATOM      7  C1  UNL d   1      -2.676  -2.935  -2.721  0.00  0.00     0.055 C 
ATOM      8  C   UNL d   1      -2.414  -2.154  -1.442  0.00  0.00     0.019 C 
ENDBRANCH   1   7
TORSDOF 1
ENDMDL
