MODEL 1
REMARK minimizedAffinity 5.65805769
REMARK minimizedRMSD -1
REMARK  1 active torsions:
REMARK  status: ('A' for Active; 'I' for Inactive)
REMARK    1  A    between atoms: C1_2  and  C2_3 
ROOT
ATOM      1  C2  UNL d   1       2.333   1.069   1.049  0.00  0.00    -0.077 A 
ATOM      2  C3  UNL d   1       1.982   1.029  -0.307  0.00  0.00     0.002 A 
ATOM      3  C4  UNL d   1       2.833   0.430  -1.239  0.00  0.00     0.002 A 
ATOM      4  C5  UNL d   1       4.036  -0.136  -0.824  0.00  0.00    -0.004 A 
ATOM      5  C6  UNL d   1       4.395  -0.099   0.522  0.00  0.00     0.002 A 
ATOM      6  C7  UNL d   1       3.547   0.500   1.455  0.00  0.00     0.002 A 
ENDROOT
BRANCH   1   7
ATOM      7  C1  UNL d   1       1.395   1.670   2.063  0.00  0.00     0.055 C 
ATOM      8  C   UNL d   1       1.261   0.779   3.290  0.00  0.00     0.019 C 
ENDBRANCH   1   7
TORSDOF 1
ENDMDL
