MODEL 1
REMARK minimizedAffinity 3.2314117
REMARK minimizedRMSD -1
REMARK  1 active torsions:
REMARK  status: ('A' for Active; 'I' for Inactive)
REMARK    1  A    between atoms: C1_2  and  C2_3 
ROOT
ATOM      1  C2  UNL d   1      -2.639  -3.277  -0.852  0.00  0.00    -0.077 A 
ATOM      2  C3  UNL d   1      -1.302  -2.939  -0.598  0.00  0.00     0.002 A 
ATOM      3  C4  UNL d   1      -0.669  -3.385   0.564  0.00  0.00     0.002 A 
ATOM      4  C5  UNL d   1      -1.363  -4.174   1.478  0.00  0.00    -0.004 A 
ATOM      5  C6  UNL d   1      -2.693  -4.514   1.235  0.00  0.00     0.002 A 
ATOM      6  C7  UNL d   1      -3.328  -4.069   0.075  0.00  0.00     0.002 A 
ENDROOT
BRANCH   1   7
ATOM      7  C1  UNL d   1      -3.308  -2.838  -2.128  0.00  0.00     0.055 C 
ATOM      8  C   UNL d   1      -2.341  -2.084  -3.029  0.00  0.00     0.019 C 
ENDBRANCH   1   7
TORSDOF 1
ENDMDL
