MODEL 1
REMARK minimizedAffinity 2.31667781
REMARK minimizedRMSD -1
REMARK  1 active torsions:
REMARK  status: ('A' for Active; 'I' for Inactive)
REMARK    1  A    between atoms: C1_2  and  C2_3 
ROOT
ATOM      1  C2  UNL d   1      -1.543  -2.992  -2.832  0.00  0.00    -0.077 A 
ATOM      2  C3  UNL d   1      -0.308  -3.438  -2.341  0.00  0.00     0.002 A 
ATOM      3  C4  UNL d   1      -0.040  -3.409  -0.971  0.00  0.00     0.002 A 
ATOM      4  C5  UNL d   1      -1.004  -2.940  -0.081  0.00  0.00    -0.004 A 
ATOM      5  C6  UNL d   1      -2.235  -2.493  -0.559  0.00  0.00     0.002 A 
ATOM      6  C7  UNL d   1      -2.503  -2.519  -1.928  0.00  0.00     0.002 A 
ENDROOT
BRANCH   1   7
ATOM      7  C1  UNL d   1      -1.852  -3.067  -4.304  0.00  0.00     0.055 C 
ATOM      8  C   UNL d   1      -0.878  -2.228  -5.118  0.00  0.00     0.019 C 
ENDBRANCH   1   7
TORSDOF 1
ENDMDL
