MODEL 1
REMARK minimizedAffinity 10.3537102
REMARK minimizedRMSD -1
REMARK  1 active torsions:
REMARK  status: ('A' for Active; 'I' for Inactive)
REMARK    1  A    between atoms: C1_2  and  C2_3 
ROOT
ATOM      1  C2  UNL d   1       2.652   1.703   0.732  0.00  0.00    -0.077 A 
ATOM      2  C3  UNL d   1       3.856   2.390   0.940  0.00  0.00     0.002 A 
ATOM      3  C4  UNL d   1       3.850   3.762   1.204  0.00  0.00     0.002 A 
ATOM      4  C5  UNL d   1       2.643   4.455   1.266  0.00  0.00    -0.004 A 
ATOM      5  C6  UNL d   1       1.440   3.781   1.058  0.00  0.00     0.002 A 
ATOM      6  C7  UNL d   1       1.445   2.411   0.793  0.00  0.00     0.002 A 
ENDROOT
BRANCH   1   7
ATOM      7  C1  UNL d   1       2.653   0.215   0.496  0.00  0.00     0.055 C 
ATOM      8  C   UNL d   1       4.018  -0.391   0.790  0.00  0.00     0.019 C 
ENDBRANCH   1   7
TORSDOF 1
ENDMDL
