MODEL 1
REMARK minimizedAffinity 9.73490238
REMARK minimizedRMSD -1
REMARK  1 active torsions:
REMARK  status: ('A' for Active; 'I' for Inactive)
REMARK    1  A    between atoms: C1_2  and  C2_3 
ROOT
ATOM      1  C2  UNL d   1      -0.895  -2.967  -0.870  0.00  0.00    -0.077 A 
ATOM      2  C3  UNL d   1      -0.808  -3.873  -1.937  0.00  0.00     0.002 A 
ATOM      3  C4  UNL d   1      -1.834  -3.952  -2.881  0.00  0.00     0.002 A 
ATOM      4  C5  UNL d   1      -2.950  -3.126  -2.771  0.00  0.00    -0.004 A 
ATOM      5  C6  UNL d   1      -3.047  -2.224  -1.712  0.00  0.00     0.002 A 
ATOM      6  C7  UNL d   1      -2.024  -2.144  -0.766  0.00  0.00     0.002 A 
ENDROOT
BRANCH   1   7
ATOM      7  C1  UNL d   1       0.232  -2.846   0.122  0.00  0.00     0.055 C 
ATOM      8  C   UNL d   1       0.953  -1.513  -0.020  0.00  0.00     0.019 C 
ENDBRANCH   1   7
TORSDOF 1
ENDMDL
