MODEL 1
REMARK minimizedAffinity 5.9597435
REMARK minimizedRMSD -1
REMARK  1 active torsions:
REMARK  status: ('A' for Active; 'I' for Inactive)
REMARK    1  A    between atoms: C1_2  and  C2_3 
ROOT
ATOM      1  C2  UNL d   1      -1.550  -2.926  -0.793  0.00  0.00    -0.077 A 
ATOM      2  C3  UNL d   1      -0.568  -3.766  -1.337  0.00  0.00     0.002 A 
ATOM      3  C4  UNL d   1      -0.660  -4.193  -2.663  0.00  0.00     0.002 A 
ATOM      4  C5  UNL d   1      -1.729  -3.782  -3.457  0.00  0.00    -0.004 A 
ATOM      5  C6  UNL d   1      -2.711  -2.949  -2.924  0.00  0.00     0.002 A 
ATOM      6  C7  UNL d   1      -2.622  -2.522  -1.598  0.00  0.00     0.002 A 
ENDROOT
BRANCH   1   7
ATOM      7  C1  UNL d   1      -1.426  -2.425   0.623  0.00  0.00     0.055 C 
ATOM      8  C   UNL d   1      -1.483  -3.570   1.623  0.00  0.00     0.019 C 
ENDBRANCH   1   7
TORSDOF 1
ENDMDL
