MODEL 1
REMARK minimizedAffinity -1.92428923
REMARK minimizedRMSD -1
REMARK  1 active torsions:
REMARK  status: ('A' for Active; 'I' for Inactive)
REMARK    1  A    between atoms: N_2  and  C1_3 
ROOT
ATOM      1  C1  UNL d   1       1.048  -1.881   1.252  0.00  0.00     0.143 A 
ATOM      2  C2  UNL d   1       1.363  -1.401  -0.024  0.00  0.00    -0.057 A 
ATOM      3  C3  UNL d   1       0.625  -0.368  -0.613  0.00  0.00     0.033 A 
ATOM      4  C4  UNL d   1      -0.463   0.186   0.053  0.00  0.00    -0.042 A 
ATOM      5  C5  UNL d   1      -0.810  -0.293   1.312  0.00  0.00     0.033 A 
ATOM      6  C6  UNL d   1      -0.065  -1.320   1.898  0.00  0.00    -0.057 A 
ENDROOT
BRANCH   1   7
ATOM      7  N   UNL d   1       1.682  -2.973   1.851  0.00  0.00    -0.732 N 
ATOM      8  C   UNL d   1       2.333  -3.982   1.043  0.00  0.00     0.284 C 
ATOM      9  H3  UNL d   1       2.201  -2.710   2.686  0.00  0.00     0.395 HD
ENDBRANCH   1   7
TORSDOF 1
ENDMDL
