MODEL 1
REMARK minimizedAffinity -4.05843401
REMARK minimizedRMSD -1
REMARK  1 active torsions:
REMARK  status: ('A' for Active; 'I' for Inactive)
REMARK    1  A    between atoms: N_2  and  C1_3 
ROOT
ATOM      1  C1  UNL d   1      -0.104   0.745  -1.394  0.00  0.00     0.143 A 
ATOM      2  C2  UNL d   1      -1.467   0.676  -1.700  0.00  0.00    -0.057 A 
ATOM      3  C3  UNL d   1      -2.096   1.683  -2.442  0.00  0.00     0.033 A 
ATOM      4  C4  UNL d   1      -1.377   2.794  -2.869  0.00  0.00    -0.042 A 
ATOM      5  C5  UNL d   1      -0.026   2.896  -2.555  0.00  0.00     0.033 A 
ATOM      6  C6  UNL d   1       0.598   1.884  -1.819  0.00  0.00    -0.057 A 
ENDROOT
BRANCH   1   7
ATOM      7  N   UNL d   1       0.557  -0.174  -0.576  0.00  0.00    -0.732 N 
ATOM      8  C   UNL d   1       0.396  -0.131   0.861  0.00  0.00     0.284 C 
ATOM      9  H3  UNL d   1       0.555  -1.114  -0.967  0.00  0.00     0.395 HD
ENDBRANCH   1   7
TORSDOF 1
ENDMDL
