MODEL 1
REMARK minimizedAffinity -1.14525628
REMARK minimizedRMSD -1
REMARK  1 active torsions:
REMARK  status: ('A' for Active; 'I' for Inactive)
REMARK    1  A    between atoms: N_2  and  C1_3 
ROOT
ATOM      1  C1  UNL d   1      -0.778   0.485  -1.730  0.00  0.00     0.143 A 
ATOM      2  C2  UNL d   1       0.423  -0.149  -2.064  0.00  0.00    -0.057 A 
ATOM      3  C3  UNL d   1       1.140  -0.891  -1.118  0.00  0.00     0.033 A 
ATOM      4  C4  UNL d   1       0.681  -0.988   0.192  0.00  0.00    -0.042 A 
ATOM      5  C5  UNL d   1      -0.497  -0.345   0.553  0.00  0.00     0.033 A 
ATOM      6  C6  UNL d   1      -1.212   0.389  -0.398  0.00  0.00    -0.057 A 
ENDROOT
BRANCH   1   7
ATOM      7  N   UNL d   1      -1.486   1.319  -2.599  0.00  0.00    -0.732 N 
ATOM      8  C   UNL d   1      -0.982   2.634  -2.933  0.00  0.00     0.284 C 
ATOM      9  H3  UNL d   1      -1.879   0.812  -3.389  0.00  0.00     0.395 HD
ENDBRANCH   1   7
TORSDOF 1
ENDMDL
