MODEL 1
REMARK minimizedAffinity -4.86434889
REMARK minimizedRMSD -1
REMARK  0 active torsions:
REMARK  status: ('A' for Active; 'I' for Inactive)
ROOT
ATOM      1  N1  IND d   1      -0.211  -0.633  -0.033  0.00  0.00    -0.196 N 
ATOM      2  C2  IND d   1       0.224  -1.928   0.014  0.00  0.00     0.054 A 
ATOM      3  C3  IND d   1       1.346  -2.074  -0.726  0.00  0.00    -0.031 A 
ATOM      4  C4  IND d   1       2.699  -0.303  -2.014  0.00  0.00     0.051 A 
ATOM      5  C5  IND d   1       2.676   1.014  -2.380  0.00  0.00    -0.031 A 
ATOM      6  C6  IND d   1       1.671   1.867  -1.972  0.00  0.00     0.015 A 
ATOM      7  C7  IND d   1       0.653   1.435  -1.170  0.00  0.00    -0.016 A 
ATOM      8  C8  IND d   1       0.669   0.098  -0.802  0.00  0.00    -0.047 A 
ATOM      9  C9  IND d   1       1.663  -0.783  -1.248  0.00  0.00    -0.096 A 
ATOM     10  HN1 IND d   1      -0.915  -0.325   0.353  0.00  0.00     0.298 HD
ENDROOT
TORSDOF 0
ENDMDL
