MODEL 1
REMARK minimizedAffinity -4.72281981
REMARK minimizedRMSD -1
REMARK  0 active torsions:
REMARK  status: ('A' for Active; 'I' for Inactive)
ROOT
ATOM      1  N1  IND d   1      -1.168  -0.425   0.242  0.00  0.00    -0.196 N 
ATOM      2  C2  IND d   1      -2.049  -1.338  -0.266  0.00  0.00     0.054 A 
ATOM      3  C3  IND d   1      -3.098  -1.496   0.571  0.00  0.00    -0.031 A 
ATOM      4  C4  IND d   1      -3.626  -0.281   2.779  0.00  0.00     0.051 A 
ATOM      5  C5  IND d   1      -3.100   0.613   3.669  0.00  0.00    -0.031 A 
ATOM      6  C6  IND d   1      -1.880   1.221   3.456  0.00  0.00     0.015 A 
ATOM      7  C7  IND d   1      -1.142   0.965   2.335  0.00  0.00    -0.016 A 
ATOM      8  C8  IND d   1      -1.670   0.053   1.433  0.00  0.00    -0.047 A 
ATOM      9  C9  IND d   1      -2.887  -0.600   1.664  0.00  0.00    -0.096 A 
ATOM     10  HN1 IND d   1      -0.425  -0.188  -0.121  0.00  0.00     0.298 HD
ENDROOT
TORSDOF 0
ENDMDL
