MODEL 1
REMARK minimizedAffinity -0.890069604
REMARK minimizedRMSD -1
REMARK  0 active torsions:
REMARK  status: ('A' for Active; 'I' for Inactive)
ROOT
ATOM      1  N1  IND d   1      -1.652  -0.632   0.162  0.00  0.00    -0.196 N 
ATOM      2  C2  IND d   1      -0.560   0.022  -0.338  0.00  0.00     0.054 A 
ATOM      3  C3  IND d   1      -0.145   0.973   0.528  0.00  0.00    -0.031 A 
ATOM      4  C4  IND d   1      -1.044   1.561   2.868  0.00  0.00     0.051 A 
ATOM      5  C5  IND d   1      -2.053   1.262   3.740  0.00  0.00    -0.031 A 
ATOM      6  C6  IND d   1      -2.997   0.295   3.460  0.00  0.00     0.015 A 
ATOM      7  C7  IND d   1      -2.960  -0.420   2.297  0.00  0.00    -0.016 A 
ATOM      8  C8  IND d   1      -1.942  -0.115   1.406  0.00  0.00    -0.047 A 
ATOM      9  C9  IND d   1      -1.006   0.895   1.666  0.00  0.00    -0.096 A 
ATOM     10  HN1 IND d   1      -2.084  -1.261  -0.233  0.00  0.00     0.298 HD
ENDROOT
TORSDOF 0
ENDMDL
