MODEL 1
REMARK minimizedAffinity -2.06314445
REMARK minimizedRMSD -1
REMARK  0 active torsions:
REMARK  status: ('A' for Active; 'I' for Inactive)
ROOT
ATOM      1  N1  IND d   1      -0.766   0.371  -0.019  0.00  0.00    -0.196 N 
ATOM      2  C2  IND d   1      -0.533   1.698  -0.253  0.00  0.00     0.054 A 
ATOM      3  C3  IND d   1       0.715   1.878  -0.741  0.00  0.00    -0.031 A 
ATOM      4  C4  IND d   1       2.508   0.127  -1.332  0.00  0.00     0.051 A 
ATOM      5  C5  IND d   1       2.771  -1.212  -1.259  0.00  0.00    -0.031 A 
ATOM      6  C6  IND d   1       1.849  -2.110  -0.762  0.00  0.00     0.015 A 
ATOM      7  C7  IND d   1       0.620  -1.702  -0.327  0.00  0.00    -0.016 A 
ATOM      8  C8  IND d   1       0.352  -0.342  -0.393  0.00  0.00    -0.047 A 
ATOM      9  C9  IND d   1       1.299   0.579  -0.857  0.00  0.00    -0.096 A 
ATOM     10  HN1 IND d   1      -1.488   0.039   0.308  0.00  0.00     0.298 HD
ENDROOT
TORSDOF 0
ENDMDL
