MODEL 1
REMARK minimizedAffinity -4.46826267
REMARK minimizedRMSD -1
REMARK  0 active torsions:
REMARK  status: ('A' for Active; 'I' for Inactive)
ROOT
ATOM      1  N1  IND d   1      -0.824   0.021   0.318  0.00  0.00    -0.196 N 
ATOM      2  C2  IND d   1      -2.062   0.589   0.209  0.00  0.00     0.054 A 
ATOM      3  C3  IND d   1      -2.996  -0.360  -0.026  0.00  0.00    -0.031 A 
ATOM      4  C4  IND d   1      -2.730  -2.916  -0.170  0.00  0.00     0.051 A 
ATOM      5  C5  IND d   1      -1.784  -3.902  -0.171  0.00  0.00    -0.031 A 
ATOM      6  C6  IND d   1      -0.442  -3.626  -0.003  0.00  0.00     0.015 A 
ATOM      7  C7  IND d   1       0.004  -2.348   0.184  0.00  0.00    -0.016 A 
ATOM      8  C8  IND d   1      -0.954  -1.344   0.179  0.00  0.00    -0.047 A 
ATOM      9  C9  IND d   1      -2.312  -1.614  -0.034  0.00  0.00    -0.096 A 
ATOM     10  HN1 IND d   1      -0.087   0.444   0.451  0.00  0.00     0.298 HD
ENDROOT
TORSDOF 0
ENDMDL
