MODEL 1
REMARK minimizedAffinity -1.94637883
REMARK minimizedRMSD -1
REMARK  0 active torsions:
REMARK  status: ('A' for Active; 'I' for Inactive)
ROOT
ATOM      1  N1  IND d   1      -3.099  -1.543  -0.405  0.00  0.00    -0.196 N 
ATOM      2  C2  IND d   1      -3.064  -2.902  -0.545  0.00  0.00     0.054 A 
ATOM      3  C3  IND d   1      -1.800  -3.358  -0.397  0.00  0.00    -0.031 A 
ATOM      4  C4  IND d   1       0.348  -2.062   0.182  0.00  0.00     0.051 A 
ATOM      5  C5  IND d   1       0.824  -0.795   0.369  0.00  0.00    -0.031 A 
ATOM      6  C6  IND d   1      -0.001   0.310   0.310  0.00  0.00     0.015 A 
ATOM      7  C7  IND d   1      -1.340   0.187   0.071  0.00  0.00    -0.016 A 
ATOM      8  C8  IND d   1      -1.826  -1.098  -0.127  0.00  0.00    -0.047 A 
ATOM      9  C9  IND d   1      -0.986  -2.219  -0.110  0.00  0.00    -0.096 A 
ATOM     10  HN1 IND d   1      -3.799  -1.049  -0.478  0.00  0.00     0.298 HD
ENDROOT
TORSDOF 0
ENDMDL
