MODEL 1
REMARK minimizedAffinity -0.867519319
REMARK minimizedRMSD -1
REMARK  0 active torsions:
REMARK  status: ('A' for Active; 'I' for Inactive)
ROOT
ATOM      1  N1  IND d   1      -3.739  -0.638   5.016  0.00  0.00    -0.196 N 
ATOM      2  C2  IND d   1      -4.250  -1.459   4.050  0.00  0.00     0.054 A 
ATOM      3  C3  IND d   1      -3.662  -1.206   2.859  0.00  0.00    -0.031 A 
ATOM      4  C4  IND d   1      -1.766   0.439   2.287  0.00  0.00     0.051 A 
ATOM      5  C5  IND d   1      -0.999   1.430   2.832  0.00  0.00    -0.031 A 
ATOM      6  C6  IND d   1      -1.107   1.789   4.160  0.00  0.00     0.015 A 
ATOM      7  C7  IND d   1      -1.981   1.158   4.999  0.00  0.00    -0.016 A 
ATOM      8  C8  IND d   1      -2.766   0.155   4.448  0.00  0.00    -0.047 A 
ATOM      9  C9  IND d   1      -2.692  -0.184   3.091  0.00  0.00    -0.096 A 
ATOM     10  HN1 IND d   1      -3.984  -0.620   5.840  0.00  0.00     0.298 HD
ENDROOT
TORSDOF 0
ENDMDL
