MODEL 1
REMARK minimizedAffinity -2.63948488
REMARK minimizedRMSD -1
REMARK  0 active torsions:
REMARK  status: ('A' for Active; 'I' for Inactive)
ROOT
ATOM      1  N1  IND d   1      -2.917  -1.765  -0.759  0.00  0.00    -0.196 N 
ATOM      2  C2  IND d   1      -3.090  -3.119  -0.823  0.00  0.00     0.054 A 
ATOM      3  C3  IND d   1      -1.919  -3.755  -0.594  0.00  0.00    -0.031 A 
ATOM      4  C4  IND d   1       0.384  -2.774   0.006  0.00  0.00     0.051 A 
ATOM      5  C5  IND d   1       1.046  -1.587   0.144  0.00  0.00    -0.031 A 
ATOM      6  C6  IND d   1       0.408  -0.373  -0.013  0.00  0.00     0.015 A 
ATOM      7  C7  IND d   1      -0.925  -0.302  -0.303  0.00  0.00    -0.016 A 
ATOM      8  C8  IND d   1      -1.599  -1.506  -0.451  0.00  0.00    -0.047 A 
ATOM      9  C9  IND d   1      -0.947  -2.741  -0.335  0.00  0.00    -0.096 A 
ATOM     10  HN1 IND d   1      -3.527  -1.174  -0.890  0.00  0.00     0.298 HD
ENDROOT
TORSDOF 0
ENDMDL
