MODEL 1
REMARK minimizedAffinity -4.3945756
REMARK minimizedRMSD -1
REMARK  0 active torsions:
REMARK  status: ('A' for Active; 'I' for Inactive)
ROOT
ATOM      1  N1  IND d   1      -0.763   0.390   0.107  0.00  0.00    -0.196 N 
ATOM      2  C2  IND d   1      -1.188  -0.898   0.275  0.00  0.00     0.054 A 
ATOM      3  C3  IND d   1      -0.269  -1.763  -0.210  0.00  0.00    -0.031 A 
ATOM      4  C4  IND d   1       2.046  -1.288  -1.231  0.00  0.00     0.051 A 
ATOM      5  C5  IND d   1       2.859  -0.263  -1.626  0.00  0.00    -0.031 A 
ATOM      6  C6  IND d   1       2.500   1.059  -1.458  0.00  0.00     0.015 A 
ATOM      7  C7  IND d   1       1.314   1.406  -0.876  0.00  0.00    -0.016 A 
ATOM      8  C8  IND d   1       0.483   0.368  -0.480  0.00  0.00    -0.047 A 
ATOM      9  C9  IND d   1       0.823  -0.975  -0.686  0.00  0.00    -0.096 A 
ATOM     10  HN1 IND d   1      -1.201   1.096   0.329  0.00  0.00     0.298 HD
ENDROOT
TORSDOF 0
ENDMDL
