MODEL 1
REMARK minimizedAffinity -0.988576591
REMARK minimizedRMSD -1
REMARK  0 active torsions:
REMARK  status: ('A' for Active; 'I' for Inactive)
ROOT
ATOM      1  N1  IND d   1      -0.096  -0.782   0.584  0.00  0.00    -0.196 N 
ATOM      2  C2  IND d   1       0.300   0.464   0.984  0.00  0.00     0.054 A 
ATOM      3  C3  IND d   1       1.443   0.818   0.355  0.00  0.00    -0.031 A 
ATOM      4  C4  IND d   1       2.780  -0.447  -1.444  0.00  0.00     0.051 A 
ATOM      5  C5  IND d   1       2.831  -1.641  -2.108  0.00  0.00    -0.031 A 
ATOM      6  C6  IND d   1       1.888  -2.628  -1.906  0.00  0.00     0.015 A 
ATOM      7  C7  IND d   1       0.848  -2.453  -1.038  0.00  0.00    -0.016 A 
ATOM      8  C8  IND d   1       0.798  -1.245  -0.357  0.00  0.00    -0.047 A 
ATOM      9  C9  IND d   1       1.775  -0.256  -0.526  0.00  0.00    -0.096 A 
ATOM     10  HN1 IND d   1      -0.787  -1.205   0.872  0.00  0.00     0.298 HD
ENDROOT
TORSDOF 0
ENDMDL
