MODEL 1
REMARK minimizedAffinity 0.69287163
REMARK minimizedRMSD -1
REMARK  0 active torsions:
REMARK  status: ('A' for Active; 'I' for Inactive)
ROOT
ATOM      1  N1  IND d   1       5.006   2.660   5.198  0.00  0.00    -0.196 N 
ATOM      2  C2  IND d   1       4.128   1.907   4.471  0.00  0.00     0.054 A 
ATOM      3  C3  IND d   1       3.737   2.577   3.364  0.00  0.00    -0.031 A 
ATOM      4  C4  IND d   1       4.492   4.881   2.496  0.00  0.00     0.051 A 
ATOM      5  C5  IND d   1       5.254   5.963   2.836  0.00  0.00    -0.031 A 
ATOM      6  C6  IND d   1       5.990   5.999   4.003  0.00  0.00     0.015 A 
ATOM      7  C7  IND d   1       5.999   4.945   4.872  0.00  0.00    -0.016 A 
ATOM      8  C8  IND d   1       5.221   3.847   4.533  0.00  0.00    -0.047 A 
ATOM      9  C9  IND d   1       4.439   3.822   3.371  0.00  0.00    -0.096 A 
ATOM     10  HN1 IND d   1       5.365   2.430   5.946  0.00  0.00     0.298 HD
ENDROOT
TORSDOF 0
ENDMDL
