MODEL 1
REMARK minimizedAffinity 10.4278545
REMARK minimizedRMSD -1
REMARK  0 active torsions:
REMARK  status: ('A' for Active; 'I' for Inactive)
ROOT
ATOM      1  N1  IND d   1       4.117   1.724   3.723  0.00  0.00    -0.196 N 
ATOM      2  C2  IND d   1       4.494   1.065   4.860  0.00  0.00     0.054 A 
ATOM      3  C3  IND d   1       5.283   1.856   5.622  0.00  0.00    -0.031 A 
ATOM      4  C4  IND d   1       6.000   4.300   5.247  0.00  0.00     0.051 A 
ATOM      5  C5  IND d   1       5.934   5.313   4.332  0.00  0.00    -0.031 A 
ATOM      6  C6  IND d   1       5.244   5.180   3.145  0.00  0.00     0.015 A 
ATOM      7  C7  IND d   1       4.580   4.028   2.832  0.00  0.00    -0.016 A 
ATOM      8  C8  IND d   1       4.650   2.994   3.755  0.00  0.00    -0.047 A 
ATOM      9  C9  IND d   1       5.385   3.108   4.942  0.00  0.00    -0.096 A 
ATOM     10  HN1 IND d   1       3.630   1.400   3.094  0.00  0.00     0.298 HD
ENDROOT
TORSDOF 0
ENDMDL
