MODEL 1
REMARK minimizedAffinity -5.26062822
REMARK minimizedRMSD -1
REMARK  0 active torsions:
REMARK  status: ('A' for Active; 'I' for Inactive)
ROOT
ATOM      1  N1  IND d   1       5.197   0.872   3.386  0.00  0.00    -0.196 N 
ATOM      2  C2  IND d   1       5.362   0.499   4.691  0.00  0.00     0.054 A 
ATOM      3  C3  IND d   1       5.594   1.584   5.464  0.00  0.00    -0.031 A 
ATOM      4  C4  IND d   1       5.644   4.075   4.815  0.00  0.00     0.051 A 
ATOM      5  C5  IND d   1       5.583   4.907   3.733  0.00  0.00    -0.031 A 
ATOM      6  C6  IND d   1       5.383   4.428   2.454  0.00  0.00     0.015 A 
ATOM      7  C7  IND d   1       5.225   3.093   2.211  0.00  0.00    -0.016 A 
ATOM      8  C8  IND d   1       5.294   2.244   3.306  0.00  0.00    -0.047 A 
ATOM      9  C9  IND d   1       5.539   2.721   4.601  0.00  0.00    -0.096 A 
ATOM     10  HN1 IND d   1       5.056   0.339   2.726  0.00  0.00     0.298 HD
ENDROOT
TORSDOF 0
ENDMDL
