MODEL 1
REMARK minimizedAffinity -4.56747484
REMARK minimizedRMSD -1
REMARK  0 active torsions:
REMARK  status: ('A' for Active; 'I' for Inactive)
ROOT
ATOM      1  N1  IND d   1       5.266  -1.326   2.262  0.00  0.00    -0.196 N 
ATOM      2  C2  IND d   1       5.351  -2.396   3.108  0.00  0.00     0.054 A 
ATOM      3  C3  IND d   1       5.649  -1.983   4.360  0.00  0.00    -0.031 A 
ATOM      4  C4  IND d   1       5.938   0.408   5.269  0.00  0.00     0.051 A 
ATOM      5  C5  IND d   1       5.989   1.714   4.868  0.00  0.00    -0.031 A 
ATOM      6  C6  IND d   1       5.795   2.081   3.552  0.00  0.00     0.015 A 
ATOM      7  C7  IND d   1       5.530   1.152   2.585  0.00  0.00    -0.016 A 
ATOM      8  C8  IND d   1       5.485  -0.175   2.987  0.00  0.00    -0.047 A 
ATOM      9  C9  IND d   1       5.723  -0.557   4.314  0.00  0.00    -0.096 A 
ATOM     10  HN1 IND d   1       5.104  -1.365   1.418  0.00  0.00     0.298 HD
ENDROOT
TORSDOF 0
ENDMDL
