MODEL 1
REMARK minimizedAffinity -1.35814738
REMARK minimizedRMSD -1
REMARK  0 active torsions:
REMARK  status: ('A' for Active; 'I' for Inactive)
ROOT
ATOM      1  N1  IND d   1       6.000  -2.108   5.877  0.00  0.00    -0.196 N 
ATOM      2  C2  IND d   1       5.890  -3.006   4.852  0.00  0.00     0.054 A 
ATOM      3  C3  IND d   1       5.630  -2.365   3.690  0.00  0.00    -0.031 A 
ATOM      4  C4  IND d   1       5.442   0.160   3.222  0.00  0.00     0.051 A 
ATOM      5  C5  IND d   1       5.432   1.374   3.850  0.00  0.00    -0.031 A 
ATOM      6  C6  IND d   1       5.617   1.492   5.212  0.00  0.00     0.015 A 
ATOM      7  C7  IND d   1       5.831   0.396   6.000  0.00  0.00    -0.016 A 
ATOM      8  C8  IND d   1       5.835  -0.839   5.367  0.00  0.00    -0.047 A 
ATOM      9  C9  IND d   1       5.606  -0.968   3.991  0.00  0.00    -0.096 A 
ATOM     10  HN1 IND d   1       6.147  -2.303   6.701  0.00  0.00     0.298 HD
ENDROOT
TORSDOF 0
ENDMDL
