MODEL 1
REMARK minimizedAffinity -1.8939786
REMARK minimizedRMSD -1
REMARK  0 active torsions:
REMARK  status: ('A' for Active; 'I' for Inactive)
ROOT
ATOM      1  N1  IND d   1       4.823  -0.031   6.000  0.00  0.00    -0.196 N 
ATOM      2  C2  IND d   1       5.474  -0.984   5.267  0.00  0.00     0.054 A 
ATOM      3  C3  IND d   1       6.000  -0.439   4.147  0.00  0.00    -0.031 A 
ATOM      4  C4  IND d   1       5.999   2.015   3.367  0.00  0.00     0.051 A 
ATOM      5  C5  IND d   1       5.498   3.246   3.685  0.00  0.00    -0.031 A 
ATOM      6  C6  IND d   1       4.733   3.452   4.814  0.00  0.00     0.015 A 
ATOM      7  C7  IND d   1       4.449   2.433   5.679  0.00  0.00    -0.016 A 
ATOM      8  C8  IND d   1       4.950   1.180   5.356  0.00  0.00    -0.047 A 
ATOM      9  C9  IND d   1       5.691   0.956   4.188  0.00  0.00    -0.096 A 
ATOM     10  HN1 IND d   1       4.404  -0.166   6.738  0.00  0.00     0.298 HD
ENDROOT
TORSDOF 0
ENDMDL
