MODEL 1
REMARK minimizedAffinity -3.4404912
REMARK minimizedRMSD -1
REMARK  0 active torsions:
REMARK  status: ('A' for Active; 'I' for Inactive)
ROOT
ATOM      1  C1  BNZ d   1      -1.840   0.583   2.241  0.00  0.00     0.000 A 
ATOM      2  C2  BNZ d   1      -1.213  -0.592   1.923  0.00  0.00     0.000 A 
ATOM      3  C3  BNZ d   1      -0.475  -0.705   0.779  0.00  0.00     0.000 A 
ATOM      4  C4  BNZ d   1      -0.397   0.344  -0.066  0.00  0.00     0.000 A 
ATOM      5  C5  BNZ d   1      -1.031   1.533   0.235  0.00  0.00     0.000 A 
ATOM      6  C6  BNZ d   1      -1.742   1.654   1.407  0.00  0.00     0.000 A 
ENDROOT
TORSDOF 0
ENDMDL
