MODEL 1
REMARK minimizedAffinity -2.76739907
REMARK minimizedRMSD -1
REMARK  0 active torsions:
REMARK  status: ('A' for Active; 'I' for Inactive)
ROOT
ATOM      1  C1  BNZ d   1      -1.276   2.419   2.193  0.00  0.00     0.000 A 
ATOM      2  C2  BNZ d   1      -1.170   1.089   1.886  0.00  0.00     0.000 A 
ATOM      3  C3  BNZ d   1      -0.570   0.684   0.726  0.00  0.00     0.000 A 
ATOM      4  C4  BNZ d   1      -0.115   1.609  -0.143  0.00  0.00     0.000 A 
ATOM      5  C5  BNZ d   1      -0.223   2.954   0.148  0.00  0.00     0.000 A 
ATOM      6  C6  BNZ d   1      -0.792   3.357   1.334  0.00  0.00     0.000 A 
ENDROOT
TORSDOF 0
ENDMDL
