MODEL 1
REMARK minimizedAffinity -3.69876599
REMARK minimizedRMSD -1
REMARK  0 active torsions:
REMARK  status: ('A' for Active; 'I' for Inactive)
ROOT
ATOM      1  C1  BNZ d   1      -1.257   0.486   1.428  0.00  0.00     0.000 A 
ATOM      2  C2  BNZ d   1      -2.063   1.320   2.155  0.00  0.00     0.000 A 
ATOM      3  C3  BNZ d   1      -2.235   2.625   1.787  0.00  0.00     0.000 A 
ATOM      4  C4  BNZ d   1      -1.570   3.104   0.717  0.00  0.00     0.000 A 
ATOM      5  C5  BNZ d   1      -0.746   2.279  -0.022  0.00  0.00     0.000 A 
ATOM      6  C6  BNZ d   1      -0.606   0.956   0.329  0.00  0.00     0.000 A 
ENDROOT
TORSDOF 0
ENDMDL
