MODEL 1
REMARK minimizedAffinity -5.16546583
REMARK minimizedRMSD -1
REMARK  0 active torsions:
REMARK  status: ('A' for Active; 'I' for Inactive)
ROOT
ATOM      1  C1  BNZ d   1      -0.970   0.553   1.171  0.00  0.00     0.000 A 
ATOM      2  C2  BNZ d   1      -2.005   1.328   1.621  0.00  0.00     0.000 A 
ATOM      3  C3  BNZ d   1      -2.310   2.513   1.012  0.00  0.00     0.000 A 
ATOM      4  C4  BNZ d   1      -1.554   2.941  -0.020  0.00  0.00     0.000 A 
ATOM      5  C5  BNZ d   1      -0.501   2.176  -0.479  0.00  0.00     0.000 A 
ATOM      6  C6  BNZ d   1      -0.222   0.965   0.111  0.00  0.00     0.000 A 
ENDROOT
TORSDOF 0
ENDMDL
