MODEL 1
REMARK minimizedAffinity -5.36280823
REMARK minimizedRMSD -1
REMARK  0 active torsions:
REMARK  status: ('A' for Active; 'I' for Inactive)
ROOT
ATOM      1  C1  BNZ d   1      -0.801   1.462  -0.484  0.00  0.00     0.000 A 
ATOM      2  C2  BNZ d   1      -1.691   1.425   0.556  0.00  0.00     0.000 A 
ATOM      3  C3  BNZ d   1      -1.907   2.529   1.332  0.00  0.00     0.000 A 
ATOM      4  C4  BNZ d   1      -1.206   3.656   1.092  0.00  0.00     0.000 A 
ATOM      5  C5  BNZ d   1      -0.299   3.706   0.052  0.00  0.00     0.000 A 
ATOM      6  C6  BNZ d   1      -0.112   2.605  -0.751  0.00  0.00     0.000 A 
ENDROOT
TORSDOF 0
ENDMDL
