MODEL 1
REMARK minimizedAffinity -3.51676035
REMARK minimizedRMSD -1
REMARK  0 active torsions:
REMARK  status: ('A' for Active; 'I' for Inactive)
ROOT
ATOM      1  C1  BNZ d   1       1.822  -3.103  -1.887  0.00  0.00     0.000 A 
ATOM      2  C2  BNZ d   1       1.584  -1.866  -1.351  0.00  0.00     0.000 A 
ATOM      3  C3  BNZ d   1       0.310  -1.461  -1.063  0.00  0.00     0.000 A 
ATOM      4  C4  BNZ d   1      -0.725  -2.277  -1.348  0.00  0.00     0.000 A 
ATOM      5  C5  BNZ d   1      -0.502  -3.524  -1.897  0.00  0.00     0.000 A 
ATOM      6  C6  BNZ d   1       0.785  -3.944  -2.149  0.00  0.00     0.000 A 
ENDROOT
TORSDOF 0
ENDMDL
