MODEL 1
REMARK minimizedAffinity -3.90287828
REMARK minimizedRMSD -1
REMARK  0 active torsions:
REMARK  status: ('A' for Active; 'I' for Inactive)
ROOT
ATOM      1  C1  BNZ d   1      -1.072   0.601   2.304  0.00  0.00     0.000 A 
ATOM      2  C2  BNZ d   1      -0.321  -0.487   1.949  0.00  0.00     0.000 A 
ATOM      3  C3  BNZ d   1       0.373  -0.504   0.771  0.00  0.00     0.000 A 
ATOM      4  C4  BNZ d   1       0.284   0.549  -0.066  0.00  0.00     0.000 A 
ATOM      5  C5  BNZ d   1      -0.476   1.650   0.274  0.00  0.00     0.000 A 
ATOM      6  C6  BNZ d   1      -1.142   1.680   1.478  0.00  0.00     0.000 A 
ENDROOT
TORSDOF 0
ENDMDL
