MODEL 1
REMARK minimizedAffinity -4.42863703
REMARK minimizedRMSD -1
REMARK  0 active torsions:
REMARK  status: ('A' for Active; 'I' for Inactive)
ROOT
ATOM      1  C1  BNZ d   1      -0.948  -0.918  -1.715  0.00  0.00     0.000 A 
ATOM      2  C2  BNZ d   1      -0.781  -2.157  -2.274  0.00  0.00     0.000 A 
ATOM      3  C3  BNZ d   1       0.291  -2.936  -1.941  0.00  0.00     0.000 A 
ATOM      4  C4  BNZ d   1       1.216  -2.460  -1.082  0.00  0.00     0.000 A 
ATOM      5  C5  BNZ d   1       1.066  -1.209  -0.518  0.00  0.00     0.000 A 
ATOM      6  C6  BNZ d   1      -0.035  -0.443  -0.825  0.00  0.00     0.000 A 
ENDROOT
TORSDOF 0
ENDMDL
