MODEL 1
REMARK minimizedAffinity -5.05008316
REMARK minimizedRMSD -1
REMARK  0 active torsions:
REMARK  status: ('A' for Active; 'I' for Inactive)
ROOT
ATOM      1  C1  BNZ d   1      -0.632   3.624   0.237  0.00  0.00     0.000 A 
ATOM      2  C2  BNZ d   1      -1.606   3.393   1.170  0.00  0.00     0.000 A 
ATOM      3  C3  BNZ d   1      -2.135   2.143   1.336  0.00  0.00     0.000 A 
ATOM      4  C4  BNZ d   1      -1.718   1.136   0.542  0.00  0.00     0.000 A 
ATOM      5  C5  BNZ d   1      -0.742   1.355  -0.410  0.00  0.00     0.000 A 
ATOM      6  C6  BNZ d   1      -0.185   2.606  -0.548  0.00  0.00     0.000 A 
ENDROOT
TORSDOF 0
ENDMDL
