MODEL 1
REMARK minimizedAffinity -2.63228774
REMARK minimizedRMSD -1
REMARK  0 active torsions:
REMARK  status: ('A' for Active; 'I' for Inactive)
ROOT
ATOM      1  C1  BNZ d   1      -0.666   0.310   1.142  0.00  0.00     0.000 A 
ATOM      2  C2  BNZ d   1      -0.456   0.745  -0.139  0.00  0.00     0.000 A 
ATOM      3  C3  BNZ d   1       0.489   0.157  -0.932  0.00  0.00     0.000 A 
ATOM      4  C4  BNZ d   1       1.250  -0.837  -0.431  0.00  0.00     0.000 A 
ATOM      5  C5  BNZ d   1       1.057  -1.281   0.862  0.00  0.00     0.000 A 
ATOM      6  C6  BNZ d   1       0.078  -0.713   1.645  0.00  0.00     0.000 A 
ENDROOT
TORSDOF 0
ENDMDL
