MODEL 1
REMARK minimizedAffinity -4.79406977
REMARK minimizedRMSD -1
REMARK  0 active torsions:
REMARK  status: ('A' for Active; 'I' for Inactive)
ROOT
ATOM      1  C1  BNZ d   1      -1.514   2.350   0.318  0.00  0.00     0.000 A 
ATOM      2  C2  BNZ d   1      -0.809   1.404  -0.376  0.00  0.00     0.000 A 
ATOM      3  C3  BNZ d   1      -0.223   0.352   0.272  0.00  0.00     0.000 A 
ATOM      4  C4  BNZ d   1      -0.310   0.270   1.615  0.00  0.00     0.000 A 
ATOM      5  C5  BNZ d   1      -1.010   1.221   2.330  0.00  0.00     0.000 A 
ATOM      6  C6  BNZ d   1      -1.631   2.257   1.671  0.00  0.00     0.000 A 
ENDROOT
TORSDOF 0
ENDMDL
