MODEL 1
REMARK minimizedAffinity -5.20677376
REMARK minimizedRMSD -1
REMARK  0 active torsions:
REMARK  status: ('A' for Active; 'I' for Inactive)
ROOT
ATOM      1  C1  BNZ d   1      -0.800   3.805   0.131  0.00  0.00     0.000 A 
ATOM      2  C2  BNZ d   1      -1.678   3.381   1.093  0.00  0.00     0.000 A 
ATOM      3  C3  BNZ d   1      -1.832   2.050   1.363  0.00  0.00     0.000 A 
ATOM      4  C4  BNZ d   1      -1.140   1.143   0.644  0.00  0.00     0.000 A 
ATOM      5  C5  BNZ d   1      -0.258   1.554  -0.336  0.00  0.00     0.000 A 
ATOM      6  C6  BNZ d   1      -0.076   2.896  -0.578  0.00  0.00     0.000 A 
ENDROOT
TORSDOF 0
ENDMDL
