MODEL 1
REMARK minimizedAffinity -4.08091736
REMARK minimizedRMSD -1
REMARK  0 active torsions:
REMARK  status: ('A' for Active; 'I' for Inactive)
ROOT
ATOM      1  C1  BNZ d   1       0.024   2.134  -0.798  0.00  0.00     0.000 A 
ATOM      2  C2  BNZ d   1      -0.481   3.237  -0.162  0.00  0.00     0.000 A 
ATOM      3  C3  BNZ d   1      -1.247   3.107   0.962  0.00  0.00     0.000 A 
ATOM      4  C4  BNZ d   1      -1.541   1.875   1.426  0.00  0.00     0.000 A 
ATOM      5  C5  BNZ d   1      -1.047   0.753   0.790  0.00  0.00     0.000 A 
ATOM      6  C6  BNZ d   1      -0.244   0.889  -0.319  0.00  0.00     0.000 A 
ENDROOT
TORSDOF 0
ENDMDL
