MODEL 1
REMARK minimizedAffinity -5.15817881
REMARK minimizedRMSD -1
REMARK  0 active torsions:
REMARK  status: ('A' for Active; 'I' for Inactive)
ROOT
ATOM      1  C1  BNZ d   1      -0.468   1.531  -0.304  0.00  0.00     0.000 A 
ATOM      2  C2  BNZ d   1      -1.285   1.128   0.719  0.00  0.00     0.000 A 
ATOM      3  C3  BNZ d   1      -1.918   2.045   1.511  0.00  0.00     0.000 A 
ATOM      4  C4  BNZ d   1      -1.701   3.360   1.306  0.00  0.00     0.000 A 
ATOM      5  C5  BNZ d   1      -0.873   3.782   0.285  0.00  0.00     0.000 A 
ATOM      6  C6  BNZ d   1      -0.268   2.857  -0.535  0.00  0.00     0.000 A 
ENDROOT
TORSDOF 0
ENDMDL
