MODEL 1
REMARK minimizedAffinity -3.24745274
REMARK minimizedRMSD -1
REMARK  0 active torsions:
REMARK  status: ('A' for Active; 'I' for Inactive)
ROOT
ATOM      1  C1  BNZ d   1      -1.589  -0.616  -1.033  0.00  0.00     0.000 A 
ATOM      2  C2  BNZ d   1      -0.319  -0.306  -0.627  0.00  0.00     0.000 A 
ATOM      3  C3  BNZ d   1      -0.053  -0.019   0.683  0.00  0.00     0.000 A 
ATOM      4  C4  BNZ d   1      -1.062  -0.004   1.577  0.00  0.00     0.000 A 
ATOM      5  C5  BNZ d   1      -2.350  -0.306   1.181  0.00  0.00     0.000 A 
ATOM      6  C6  BNZ d   1      -2.608  -0.632  -0.130  0.00  0.00     0.000 A 
ENDROOT
TORSDOF 0
ENDMDL
