MODEL 1
REMARK minimizedAffinity -0.884339273
REMARK minimizedRMSD -1
REMARK  0 active torsions:
REMARK  status: ('A' for Active; 'I' for Inactive)
ROOT
ATOM      1  C1  BNZ d   1       1.325   0.038   0.350  0.00  0.00     0.000 A 
ATOM      2  C2  BNZ d   1       0.320   0.968   0.340  0.00  0.00     0.000 A 
ATOM      3  C3  BNZ d   1      -0.452   1.152  -0.773  0.00  0.00     0.000 A 
ATOM      4  C4  BNZ d   1      -0.193   0.436  -1.886  0.00  0.00     0.000 A 
ATOM      5  C5  BNZ d   1       0.823  -0.498  -1.894  0.00  0.00     0.000 A 
ATOM      6  C6  BNZ d   1       1.573  -0.709  -0.760  0.00  0.00     0.000 A 
ENDROOT
TORSDOF 0
ENDMDL
