MODEL 1
REMARK minimizedAffinity -5.14877796
REMARK minimizedRMSD -1
REMARK  0 active torsions:
REMARK  status: ('A' for Active; 'I' for Inactive)
ROOT
ATOM      1  C1  BNZ d   1       2.238  -1.694   2.173  0.00  0.00     0.000 A 
ATOM      2  C2  BNZ d   1       1.351  -0.690   2.455  0.00  0.00     0.000 A 
ATOM      3  C3  BNZ d   1       0.667  -0.059   1.454  0.00  0.00     0.000 A 
ATOM      4  C4  BNZ d   1       0.900  -0.404   0.172  0.00  0.00     0.000 A 
ATOM      5  C5  BNZ d   1       1.799  -1.408  -0.130  0.00  0.00     0.000 A 
ATOM      6  C6  BNZ d   1       2.457  -2.068   0.883  0.00  0.00     0.000 A 
ENDROOT
TORSDOF 0
ENDMDL
