MODEL 1
REMARK minimizedAffinity -2.59460092
REMARK minimizedRMSD -1
REMARK  0 active torsions:
REMARK  status: ('A' for Active; 'I' for Inactive)
ROOT
ATOM      1  C1  BNZ d   1      -0.135   0.826  -1.119  0.00  0.00     0.000 A 
ATOM      2  C2  BNZ d   1       0.168   1.483   0.044  0.00  0.00     0.000 A 
ATOM      3  C3  BNZ d   1      -0.173   0.953   1.257  0.00  0.00     0.000 A 
ATOM      4  C4  BNZ d   1      -0.852  -0.211   1.304  0.00  0.00     0.000 A 
ATOM      5  C5  BNZ d   1      -1.174  -0.881   0.140  0.00  0.00     0.000 A 
ATOM      6  C6  BNZ d   1      -0.794  -0.364  -1.077  0.00  0.00     0.000 A 
ENDROOT
TORSDOF 0
ENDMDL
