MODEL 1
REMARK minimizedAffinity -3.78287625
REMARK minimizedRMSD -1
REMARK  0 active torsions:
REMARK  status: ('A' for Active; 'I' for Inactive)
ROOT
ATOM      1  C1  BNZ d   1       0.648   0.147   0.589  0.00  0.00     0.000 A 
ATOM      2  C2  BNZ d   1       1.967  -0.204   0.708  0.00  0.00     0.000 A 
ATOM      3  C3  BNZ d   1       2.364  -1.129   1.632  0.00  0.00     0.000 A 
ATOM      4  C4  BNZ d   1       1.451  -1.671   2.463  0.00  0.00     0.000 A 
ATOM      5  C5  BNZ d   1       0.119  -1.321   2.362  0.00  0.00     0.000 A 
ATOM      6  C6  BNZ d   1      -0.283  -0.418   1.405  0.00  0.00     0.000 A 
ENDROOT
TORSDOF 0
ENDMDL
