MODEL 1
REMARK minimizedAffinity -1.88344145
REMARK minimizedRMSD -1
REMARK  2 active torsions:
REMARK  status: ('A' for Active; 'I' for Inactive)
REMARK    1  A    between atoms: C1_2  and  C2_3 
REMARK    2  A    between atoms: C2_3  and  C3_4 
ROOT
ATOM      1  C3  UNL d   1       1.124  -0.070   0.870  0.00  0.00    -0.075 A 
ATOM      2  C4  UNL d   1       1.382  -0.936   1.942  0.00  0.00     0.002 A 
ATOM      3  C5  UNL d   1       0.331  -1.535   2.637  0.00  0.00     0.002 A 
ATOM      4  C6  UNL d   1      -0.988  -1.269   2.277  0.00  0.00    -0.004 A 
ATOM      5  C7  UNL d   1      -1.256  -0.398   1.224  0.00  0.00     0.002 A 
ATOM      6  C8  UNL d   1      -0.207   0.200   0.524  0.00  0.00     0.002 A 
ENDROOT
BRANCH   1   7
ATOM      7  C2  UNL d   1       2.257   0.559   0.095  0.00  0.00     0.056 C 
BRANCH   7   8
ATOM      8  C1  UNL d   1       2.170   0.347  -1.420  0.00  0.00     0.007 C 
ATOM      9  C   UNL d   1       1.886  -1.098  -1.809  0.00  0.00     0.009 C 
ENDBRANCH   7   8
ENDBRANCH   1   7
TORSDOF 2
ENDMDL
