MODEL 1
REMARK minimizedAffinity -5.08226204
REMARK minimizedRMSD -1
REMARK  2 active torsions:
REMARK  status: ('A' for Active; 'I' for Inactive)
REMARK    1  A    between atoms: C1_2  and  C2_3 
REMARK    2  A    between atoms: C2_3  and  C3_4 
ROOT
ATOM      1  C3  UNL d   1       1.357  -0.466   1.263  0.00  0.00    -0.075 A 
ATOM      2  C4  UNL d   1       2.283  -1.331   0.661  0.00  0.00     0.002 A 
ATOM      3  C5  UNL d   1       2.059  -1.824  -0.625  0.00  0.00     0.002 A 
ATOM      4  C6  UNL d   1       0.904  -1.470  -1.319  0.00  0.00    -0.004 A 
ATOM      5  C7  UNL d   1      -0.030  -0.625  -0.723  0.00  0.00     0.002 A 
ATOM      6  C8  UNL d   1       0.193  -0.126   0.561  0.00  0.00     0.002 A 
ENDROOT
BRANCH   1   7
ATOM      7  C2  UNL d   1       1.608   0.095   2.643  0.00  0.00     0.056 C 
BRANCH   7   8
ATOM      8  C1  UNL d   1       1.653  -0.965   3.748  0.00  0.00     0.007 C 
ATOM      9  C   UNL d   1       0.433  -1.876   3.757  0.00  0.00     0.009 C 
ENDBRANCH   7   8
ENDBRANCH   1   7
TORSDOF 2
ENDMDL
