MODEL 1
REMARK minimizedAffinity -4.69146538
REMARK minimizedRMSD -1
REMARK  2 active torsions:
REMARK  status: ('A' for Active; 'I' for Inactive)
REMARK    1  A    between atoms: C1_2  and  C2_3 
REMARK    2  A    between atoms: C2_3  and  C3_4 
ROOT
ATOM      1  C3  UNL d   1       0.085   0.165   0.147  0.00  0.00    -0.075 A 
ATOM      2  C4  UNL d   1       1.397   0.433   0.565  0.00  0.00     0.002 A 
ATOM      3  C5  UNL d   1       1.856  -0.027   1.799  0.00  0.00     0.002 A 
ATOM      4  C6  UNL d   1       1.008  -0.751   2.635  0.00  0.00    -0.004 A 
ATOM      5  C7  UNL d   1      -0.302  -1.009   2.238  0.00  0.00     0.002 A 
ATOM      6  C8  UNL d   1      -0.762  -0.554   1.001  0.00  0.00     0.002 A 
ENDROOT
BRANCH   1   7
ATOM      7  C2  UNL d   1      -0.408   0.634  -1.200  0.00  0.00     0.056 C 
BRANCH   7   8
ATOM      8  C1  UNL d   1       0.239   1.937  -1.682  0.00  0.00     0.007 C 
ATOM      9  C   UNL d   1      -0.731   2.854  -2.416  0.00  0.00     0.009 C 
ENDBRANCH   7   8
ENDBRANCH   1   7
TORSDOF 2
ENDMDL
