MODEL 1
REMARK minimizedAffinity -4.98565912
REMARK minimizedRMSD -1
REMARK  2 active torsions:
REMARK  status: ('A' for Active; 'I' for Inactive)
REMARK    1  A    between atoms: C1_2  and  C2_3 
REMARK    2  A    between atoms: C2_3  and  C3_4 
ROOT
ATOM      1  C3  UNL d   1       0.082  -0.038  -0.121  0.00  0.00    -0.075 A 
ATOM      2  C4  UNL d   1       1.307  -0.721  -0.115  0.00  0.00     0.002 A 
ATOM      3  C5  UNL d   1       1.794  -1.292   1.061  0.00  0.00     0.002 A 
ATOM      4  C6  UNL d   1       1.069  -1.180   2.245  0.00  0.00    -0.004 A 
ATOM      5  C7  UNL d   1      -0.141  -0.489   2.254  0.00  0.00     0.002 A 
ATOM      6  C8  UNL d   1      -0.632   0.080   1.078  0.00  0.00     0.002 A 
ENDROOT
BRANCH   1   7
ATOM      7  C2  UNL d   1      -0.464   0.558  -1.397  0.00  0.00     0.056 C 
BRANCH   7   8
ATOM      8  C1  UNL d   1      -0.193   2.058  -1.551  0.00  0.00     0.007 C 
ATOM      9  C   UNL d   1      -0.954   2.689  -2.710  0.00  0.00     0.009 C 
ENDBRANCH   7   8
ENDBRANCH   1   7
TORSDOF 2
ENDMDL
