MODEL 1
REMARK minimizedAffinity -4.53230715
REMARK minimizedRMSD -1
REMARK  2 active torsions:
REMARK  status: ('A' for Active; 'I' for Inactive)
REMARK    1  A    between atoms: C1_2  and  C2_3 
REMARK    2  A    between atoms: C2_3  and  C3_4 
ROOT
ATOM      1  C3  UNL d   1      -0.558   0.311  -0.766  0.00  0.00    -0.075 A 
ATOM      2  C4  UNL d   1      -1.238   0.082   0.439  0.00  0.00     0.002 A 
ATOM      3  C5  UNL d   1      -0.570  -0.459   1.538  0.00  0.00     0.002 A 
ATOM      4  C6  UNL d   1       0.781  -0.787   1.444  0.00  0.00    -0.004 A 
ATOM      5  C7  UNL d   1       1.463  -0.579   0.247  0.00  0.00     0.002 A 
ATOM      6  C8  UNL d   1       0.798  -0.034  -0.853  0.00  0.00     0.002 A 
ENDROOT
BRANCH   1   7
ATOM      7  C2  UNL d   1      -1.268   0.923  -1.949  0.00  0.00     0.056 C 
BRANCH   7   8
ATOM      8  C1  UNL d   1      -0.552   2.140  -2.544  0.00  0.00     0.007 C 
ATOM      9  C   UNL d   1      -1.381   3.416  -2.476  0.00  0.00     0.009 C 
ENDBRANCH   7   8
ENDBRANCH   1   7
TORSDOF 2
ENDMDL
