MODEL 1
REMARK minimizedAffinity -4.4864192
REMARK minimizedRMSD -1
REMARK  2 active torsions:
REMARK  status: ('A' for Active; 'I' for Inactive)
REMARK    1  A    between atoms: C1_2  and  C2_3 
REMARK    2  A    between atoms: C2_3  and  C3_4 
ROOT
ATOM      1  C3  UNL d   1      -0.240   0.210  -0.016  0.00  0.00    -0.075 A 
ATOM      2  C4  UNL d   1       1.111   0.258   0.358  0.00  0.00     0.002 A 
ATOM      3  C5  UNL d   1       1.525  -0.263   1.584  0.00  0.00     0.002 A 
ATOM      4  C6  UNL d   1       0.595  -0.828   2.454  0.00  0.00    -0.004 A 
ATOM      5  C7  UNL d   1      -0.752  -0.866   2.100  0.00  0.00     0.002 A 
ATOM      6  C8  UNL d   1      -1.168  -0.349   0.872  0.00  0.00     0.002 A 
ENDROOT
BRANCH   1   7
ATOM      7  C2  UNL d   1      -0.690   0.745  -1.355  0.00  0.00     0.056 C 
BRANCH   7   8
ATOM      8  C1  UNL d   1       0.406   1.481  -2.133  0.00  0.00     0.007 C 
ATOM      9  C   UNL d   1      -0.039   2.839  -2.658  0.00  0.00     0.009 C 
ENDBRANCH   7   8
ENDBRANCH   1   7
TORSDOF 2
ENDMDL
