MODEL 1
REMARK minimizedAffinity -1.46667731
REMARK minimizedRMSD -1
REMARK  2 active torsions:
REMARK  status: ('A' for Active; 'I' for Inactive)
REMARK    1  A    between atoms: C1_2  and  C2_3 
REMARK    2  A    between atoms: C2_3  and  C3_4 
ROOT
ATOM      1  C3  UNL d   1      -0.258  -0.333  -0.147  0.00  0.00    -0.075 A 
ATOM      2  C4  UNL d   1       0.890  -1.099   0.100  0.00  0.00     0.002 A 
ATOM      3  C5  UNL d   1       1.164  -1.571   1.384  0.00  0.00     0.002 A 
ATOM      4  C6  UNL d   1       0.300  -1.277   2.437  0.00  0.00    -0.004 A 
ATOM      5  C7  UNL d   1      -0.836  -0.504   2.206  0.00  0.00     0.002 A 
ATOM      6  C8  UNL d   1      -1.114  -0.033   0.921  0.00  0.00     0.002 A 
ENDROOT
BRANCH   1   7
ATOM      7  C2  UNL d   1      -0.575   0.157  -1.540  0.00  0.00     0.056 C 
BRANCH   7   8
ATOM      8  C1  UNL d   1      -0.715   1.679  -1.649  0.00  0.00     0.007 C 
ATOM      9  C   UNL d   1      -1.873   2.113  -2.538  0.00  0.00     0.009 C 
ENDBRANCH   7   8
ENDBRANCH   1   7
TORSDOF 2
ENDMDL
