MODEL 1
REMARK minimizedAffinity -5.5193553
REMARK minimizedRMSD -1
REMARK  2 active torsions:
REMARK  status: ('A' for Active; 'I' for Inactive)
REMARK    1  A    between atoms: C1_2  and  C2_3 
REMARK    2  A    between atoms: C2_3  and  C3_4 
ROOT
ATOM      1  C3  UNL d   1       0.405  -0.662   0.879  0.00  0.00    -0.075 A 
ATOM      2  C4  UNL d   1       1.432  -1.306   0.173  0.00  0.00     0.002 A 
ATOM      3  C5  UNL d   1       2.471  -1.939   0.856  0.00  0.00     0.002 A 
ATOM      4  C6  UNL d   1       2.502  -1.929   2.249  0.00  0.00    -0.004 A 
ATOM      5  C7  UNL d   1       1.496  -1.278   2.959  0.00  0.00     0.002 A 
ATOM      6  C8  UNL d   1       0.452  -0.647   2.279  0.00  0.00     0.002 A 
ENDROOT
BRANCH   1   7
ATOM      7  C2  UNL d   1      -0.738  -0.000   0.147  0.00  0.00     0.056 C 
BRANCH   7   8
ATOM      8  C1  UNL d   1      -0.638  -0.094  -1.380  0.00  0.00     0.007 C 
ATOM      9  C   UNL d   1      -1.167   1.144  -2.093  0.00  0.00     0.009 C 
ENDBRANCH   7   8
ENDBRANCH   1   7
TORSDOF 2
ENDMDL
