MODEL 1
REMARK minimizedAffinity -1.52314794
REMARK minimizedRMSD -1
REMARK  2 active torsions:
REMARK  status: ('A' for Active; 'I' for Inactive)
REMARK    1  A    between atoms: C1_2  and  C2_3 
REMARK    2  A    between atoms: C2_3  and  C3_4 
ROOT
ATOM      1  C3  UNL d   1       0.248  -1.099   0.569  0.00  0.00    -0.075 A 
ATOM      2  C4  UNL d   1       0.103  -1.586   1.876  0.00  0.00     0.002 A 
ATOM      3  C5  UNL d   1       1.223  -1.798   2.681  0.00  0.00     0.002 A 
ATOM      4  C6  UNL d   1       2.499  -1.535   2.188  0.00  0.00    -0.004 A 
ATOM      5  C7  UNL d   1       2.656  -1.066   0.885  0.00  0.00     0.002 A 
ATOM      6  C8  UNL d   1       1.537  -0.850   0.079  0.00  0.00     0.002 A 
ENDROOT
BRANCH   1   7
ATOM      7  C2  UNL d   1      -0.961  -0.839  -0.297  0.00  0.00     0.056 C 
BRANCH   7   8
ATOM      8  C1  UNL d   1      -2.006   0.077   0.349  0.00  0.00     0.007 C 
ATOM      9  C   UNL d   1      -3.257  -0.664   0.802  0.00  0.00     0.009 C 
ENDBRANCH   7   8
ENDBRANCH   1   7
TORSDOF 2
ENDMDL
