MODEL 1
REMARK minimizedAffinity 0.972839952
REMARK minimizedRMSD -1
REMARK  1 active torsions:
REMARK  status: ('A' for Active; 'I' for Inactive)
REMARK    1  A    between atoms: C1_2  and  C2_3 
ROOT
ATOM      1  C2  UNL d   1      -5.297   2.875   1.407  0.00  0.00    -0.077 A 
ATOM      2  C3  UNL d   1      -3.997   3.205   0.997  0.00  0.00     0.002 A 
ATOM      3  C4  UNL d   1      -3.414   4.409   1.398  0.00  0.00     0.002 A 
ATOM      4  C5  UNL d   1      -4.121   5.289   2.214  0.00  0.00    -0.004 A 
ATOM      5  C6  UNL d   1      -5.415   4.971   2.626  0.00  0.00     0.002 A 
ATOM      6  C7  UNL d   1      -6.000   3.769   2.225  0.00  0.00     0.002 A 
ENDROOT
BRANCH   1   7
ATOM      7  C1  UNL d   1      -5.909   1.556   1.016  0.00  0.00     0.055 C 
ATOM      8  C   UNL d   1      -5.339   1.049  -0.301  0.00  0.00     0.019 C 
ENDBRANCH   1   7
TORSDOF 1
ENDMDL
