MODEL 1
REMARK minimizedAffinity -1.09471917
REMARK minimizedRMSD -1
REMARK  1 active torsions:
REMARK  status: ('A' for Active; 'I' for Inactive)
REMARK    1  A    between atoms: C1_2  and  C2_3 
ROOT
ATOM      1  C2  UNL d   1      -4.747   1.218  -3.495  0.00  0.00    -0.077 A 
ATOM      2  C3  UNL d   1      -4.820   2.618  -3.485  0.00  0.00     0.002 A 
ATOM      3  C4  UNL d   1      -3.655   3.385  -3.420  0.00  0.00     0.002 A 
ATOM      4  C5  UNL d   1      -2.410   2.761  -3.369  0.00  0.00    -0.004 A 
ATOM      5  C6  UNL d   1      -2.328   1.370  -3.376  0.00  0.00     0.002 A 
ATOM      6  C7  UNL d   1      -3.491   0.601  -3.440  0.00  0.00     0.002 A 
ENDROOT
BRANCH   1   7
ATOM      7  C1  UNL d   1      -6.000   0.389  -3.615  0.00  0.00     0.055 C 
ATOM      8  C   UNL d   1      -6.000  -0.432  -4.897  0.00  0.00     0.019 C 
ENDBRANCH   1   7
TORSDOF 1
ENDMDL
