MODEL 1
REMARK minimizedAffinity 9.39199829
REMARK minimizedRMSD -1
REMARK  3 active torsions:
REMARK  status: ('A' for Active; 'I' for Inactive)
REMARK    1  A    between atoms: C3'_2  and  C2'_3 
REMARK    2  A    between atoms: C2'_3  and  C1'_4 
REMARK    3  A    between atoms: C1'_4  and  C1_5 
ROOT
ATOM      1  C1  N4B d   1       5.470  -2.524  -3.489  0.00  0.00    -0.075 A 
ATOM      2  C2  N4B d   1       4.499  -1.804  -4.220  0.00  0.00     0.002 A 
ATOM      3  C3  N4B d   1       4.104  -2.247  -5.458  0.00  0.00     0.002 A 
ATOM      4  C4  N4B d   1       4.677  -3.391  -5.993  0.00  0.00    -0.004 A 
ATOM      5  C5  N4B d   1       5.596  -4.094  -5.270  0.00  0.00     0.002 A 
ATOM      6  C6  N4B d   1       6.000  -3.663  -4.022  0.00  0.00     0.002 A 
ENDROOT
BRANCH   1   7
ATOM      7  C1' N4B d   1       5.997  -2.032  -2.169  0.00  0.00     0.057 C 
BRANCH   7   8
ATOM      8  C2' N4B d   1       5.105  -0.901  -1.664  0.00  0.00     0.009 C 
BRANCH   8   9
ATOM      9  C3' N4B d   1       4.874  -0.985  -0.165  0.00  0.00     0.004 C 
ATOM     10  C4' N4B d   1       3.880   0.024   0.327  0.00  0.00     0.003 C 
ENDBRANCH   8   9
ENDBRANCH   7   8
ENDBRANCH   1   7
TORSDOF 3
ENDMDL
