MODEL 1
REMARK minimizedAffinity 7.74842167
REMARK minimizedRMSD -1
REMARK  3 active torsions:
REMARK  status: ('A' for Active; 'I' for Inactive)
REMARK    1  A    between atoms: C3'_2  and  C2'_3 
REMARK    2  A    between atoms: C2'_3  and  C1'_4 
REMARK    3  A    between atoms: C1'_4  and  C1_5 
ROOT
ATOM      1  C1  N4B d   1      -1.480   2.232  -1.465  0.00  0.00    -0.075 A 
ATOM      2  C2  N4B d   1      -1.095   3.265  -2.347  0.00  0.00     0.002 A 
ATOM      3  C3  N4B d   1       0.153   3.828  -2.242  0.00  0.00     0.002 A 
ATOM      4  C4  N4B d   1       1.023   3.388  -1.255  0.00  0.00    -0.004 A 
ATOM      5  C5  N4B d   1       0.653   2.372  -0.424  0.00  0.00     0.002 A 
ATOM      6  C6  N4B d   1      -0.597   1.794  -0.520  0.00  0.00     0.002 A 
ENDROOT
BRANCH   1   7
ATOM      7  C1' N4B d   1      -2.865   1.645  -1.485  0.00  0.00     0.057 C 
BRANCH   7   8
ATOM      8  C2' N4B d   1      -3.877   2.737  -1.150  0.00  0.00     0.009 C 
BRANCH   8   9
ATOM      9  C3' N4B d   1      -5.255   2.167  -0.864  0.00  0.00     0.004 C 
ATOM     10  C4' N4B d   1      -5.522   1.999   0.602  0.00  0.00     0.003 C 
ENDBRANCH   8   9
ENDBRANCH   7   8
ENDBRANCH   1   7
TORSDOF 3
ENDMDL
