MODEL 1
REMARK minimizedAffinity 12.5797825
REMARK minimizedRMSD -1
REMARK  3 active torsions:
REMARK  status: ('A' for Active; 'I' for Inactive)
REMARK    1  A    between atoms: C3'_2  and  C2'_3 
REMARK    2  A    between atoms: C2'_3  and  C1'_4 
REMARK    3  A    between atoms: C1'_4  and  C1_5 
ROOT
ATOM      1  C1  N4B d   1      -1.515  -2.283   2.765  0.00  0.00    -0.075 A 
ATOM      2  C2  N4B d   1      -1.313  -1.362   3.816  0.00  0.00     0.002 A 
ATOM      3  C3  N4B d   1      -0.177  -0.591   3.845  0.00  0.00     0.002 A 
ATOM      4  C4  N4B d   1       0.776  -0.736   2.848  0.00  0.00    -0.004 A 
ATOM      5  C5  N4B d   1       0.562  -1.609   1.822  0.00  0.00     0.002 A 
ATOM      6  C6  N4B d   1      -0.577  -2.388   1.778  0.00  0.00     0.002 A 
ENDROOT
BRANCH   1   7
ATOM      7  C1' N4B d   1      -2.700  -3.209   2.736  0.00  0.00     0.057 C 
BRANCH   7   8
ATOM      8  C2' N4B d   1      -3.717  -2.690   1.725  0.00  0.00     0.009 C 
BRANCH   8   9
ATOM      9  C3' N4B d   1      -5.082  -2.471   2.353  0.00  0.00     0.004 C 
ATOM     10  C4' N4B d   1      -5.635  -1.104   2.081  0.00  0.00     0.003 C 
ENDBRANCH   8   9
ENDBRANCH   7   8
ENDBRANCH   1   7
TORSDOF 3
ENDMDL
