MODEL 1
REMARK minimizedAffinity 9.85274029
REMARK minimizedRMSD -1
REMARK  3 active torsions:
REMARK  status: ('A' for Active; 'I' for Inactive)
REMARK    1  A    between atoms: C3'_2  and  C2'_3 
REMARK    2  A    between atoms: C2'_3  and  C1'_4 
REMARK    3  A    between atoms: C1'_4  and  C1_5 
ROOT
ATOM      1  C1  N4B d   1      -2.984   3.181  -2.424  0.00  0.00    -0.075 A 
ATOM      2  C2  N4B d   1      -3.337   4.190  -1.502  0.00  0.00     0.002 A 
ATOM      3  C3  N4B d   1      -4.473   4.058  -0.742  0.00  0.00     0.002 A 
ATOM      4  C4  N4B d   1      -5.278   2.940  -0.900  0.00  0.00    -0.004 A 
ATOM      5  C5  N4B d   1      -4.916   1.958  -1.775  0.00  0.00     0.002 A 
ATOM      6  C6  N4B d   1      -3.775   2.075  -2.542  0.00  0.00     0.002 A 
ENDROOT
BRANCH   1   7
ATOM      7  C1' N4B d   1      -1.797   3.321  -3.339  0.00  0.00     0.057 C 
BRANCH   7   8
ATOM      8  C2' N4B d   1      -0.624   2.537  -2.760  0.00  0.00     0.009 C 
BRANCH   8   9
ATOM      9  C3' N4B d   1      -0.777   2.304  -1.267  0.00  0.00     0.004 C 
ATOM     10  C4' N4B d   1       0.485   2.576  -0.504  0.00  0.00     0.003 C 
ENDBRANCH   8   9
ENDBRANCH   7   8
ENDBRANCH   1   7
TORSDOF 3
ENDMDL
