MODEL 1
REMARK minimizedAffinity 9.21326542
REMARK minimizedRMSD -1
REMARK  3 active torsions:
REMARK  status: ('A' for Active; 'I' for Inactive)
REMARK    1  A    between atoms: C3'_2  and  C2'_3 
REMARK    2  A    between atoms: C2'_3  and  C1'_4 
REMARK    3  A    between atoms: C1'_4  and  C1_5 
ROOT
ATOM      1  C1  N4B d   1       4.210  -0.349  -0.854  0.00  0.00    -0.075 A 
ATOM      2  C2  N4B d   1       3.325   0.743  -0.724  0.00  0.00     0.002 A 
ATOM      3  C3  N4B d   1       2.258   0.665   0.138  0.00  0.00     0.002 A 
ATOM      4  C4  N4B d   1       2.047  -0.499   0.862  0.00  0.00    -0.004 A 
ATOM      5  C5  N4B d   1       2.920  -1.540   0.750  0.00  0.00     0.002 A 
ATOM      6  C6  N4B d   1       3.999  -1.474  -0.109  0.00  0.00     0.002 A 
ENDROOT
BRANCH   1   7
ATOM      7  C1' N4B d   1       5.340  -0.342  -1.847  0.00  0.00     0.057 C 
BRANCH   7   8
ATOM      8  C2' N4B d   1       5.610   1.093  -2.288  0.00  0.00     0.009 C 
BRANCH   8   9
ATOM      9  C3' N4B d   1       5.147   1.347  -3.712  0.00  0.00     0.004 C 
ATOM     10  C4' N4B d   1       5.999   2.351  -4.430  0.00  0.00     0.003 C 
ENDBRANCH   8   9
ENDBRANCH   7   8
ENDBRANCH   1   7
TORSDOF 3
ENDMDL
