MODEL 1
REMARK minimizedAffinity 5.41797686
REMARK minimizedRMSD -1
REMARK  3 active torsions:
REMARK  status: ('A' for Active; 'I' for Inactive)
REMARK    1  A    between atoms: C3'_2  and  C2'_3 
REMARK    2  A    between atoms: C2'_3  and  C1'_4 
REMARK    3  A    between atoms: C1'_4  and  C1_5 
ROOT
ATOM      1  C1  N4B d   1      -0.498   3.256  -2.352  0.00  0.00    -0.075 A 
ATOM      2  C2  N4B d   1      -0.104   4.489  -1.787  0.00  0.00     0.002 A 
ATOM      3  C3  N4B d   1       0.652   4.508  -0.640  0.00  0.00     0.002 A 
ATOM      4  C4  N4B d   1       1.009   3.312  -0.034  0.00  0.00    -0.004 A 
ATOM      5  C5  N4B d   1       0.646   2.126  -0.601  0.00  0.00     0.002 A 
ATOM      6  C6  N4B d   1      -0.111   2.092  -1.755  0.00  0.00     0.002 A 
ENDROOT
BRANCH   1   7
ATOM      7  C1' N4B d   1      -1.397   3.187  -3.556  0.00  0.00     0.057 C 
BRANCH   7   8
ATOM      8  C2' N4B d   1      -1.890   4.590  -3.895  0.00  0.00     0.009 C 
BRANCH   8   9
ATOM      9  C3' N4B d   1      -2.019   4.801  -5.394  0.00  0.00     0.004 C 
ATOM     10  C4' N4B d   1      -3.165   4.039  -5.991  0.00  0.00     0.003 C 
ENDBRANCH   8   9
ENDBRANCH   7   8
ENDBRANCH   1   7
TORSDOF 3
ENDMDL
