MODEL 1
REMARK minimizedAffinity 10.1462545
REMARK minimizedRMSD -1
REMARK  3 active torsions:
REMARK  status: ('A' for Active; 'I' for Inactive)
REMARK    1  A    between atoms: C3'_2  and  C2'_3 
REMARK    2  A    between atoms: C2'_3  and  C1'_4 
REMARK    3  A    between atoms: C1'_4  and  C1_5 
ROOT
ATOM      1  C1  N4B d   1       0.552  -3.279   3.531  0.00  0.00    -0.075 A 
ATOM      2  C2  N4B d   1      -0.750  -3.766   3.285  0.00  0.00     0.002 A 
ATOM      3  C3  N4B d   1      -1.642  -3.009   2.567  0.00  0.00     0.002 A 
ATOM      4  C4  N4B d   1      -1.262  -1.759   2.102  0.00  0.00    -0.004 A 
ATOM      5  C5  N4B d   1       0.006  -1.306   2.323  0.00  0.00     0.002 A 
ATOM      6  C6  N4B d   1       0.914  -2.058   3.040  0.00  0.00     0.002 A 
ENDROOT
BRANCH   1   7
ATOM      7  C1' N4B d   1       1.535  -4.034   4.385  0.00  0.00     0.057 C 
BRANCH   7   8
ATOM      8  C2' N4B d   1       1.987  -5.286   3.640  0.00  0.00     0.009 C 
BRANCH   8   9
ATOM      9  C3' N4B d   1       3.118  -5.999   4.361  0.00  0.00     0.004 C 
ATOM     10  C4' N4B d   1       3.110  -5.752   5.840  0.00  0.00     0.003 C 
ENDBRANCH   8   9
ENDBRANCH   7   8
ENDBRANCH   1   7
TORSDOF 3
ENDMDL
