MODEL 1
REMARK minimizedAffinity 11.2059269
REMARK minimizedRMSD -1
REMARK  3 active torsions:
REMARK  status: ('A' for Active; 'I' for Inactive)
REMARK    1  A    between atoms: C3'_2  and  C2'_3 
REMARK    2  A    between atoms: C2'_3  and  C1'_4 
REMARK    3  A    between atoms: C1'_4  and  C1_5 
ROOT
ATOM      1  C1  N4B d   1      -1.417  -1.852   4.903  0.00  0.00    -0.075 A 
ATOM      2  C2  N4B d   1      -1.485  -3.060   4.174  0.00  0.00     0.002 A 
ATOM      3  C3  N4B d   1      -0.622  -3.282   3.129  0.00  0.00     0.002 A 
ATOM      4  C4  N4B d   1       0.302  -2.307   2.785  0.00  0.00    -0.004 A 
ATOM      5  C5  N4B d   1       0.379  -1.153   3.510  0.00  0.00     0.002 A 
ATOM      6  C6  N4B d   1      -0.480  -0.919   4.565  0.00  0.00     0.002 A 
ENDROOT
BRANCH   1   7
ATOM      7  C1' N4B d   1      -2.396  -1.528   5.997  0.00  0.00     0.057 C 
BRANCH   7   8
ATOM      8  C2' N4B d   1      -3.513  -2.568   5.993  0.00  0.00     0.009 C 
BRANCH   8   9
ATOM      9  C3' N4B d   1      -4.889  -1.923   5.999  0.00  0.00     0.004 C 
ATOM     10  C4' N4B d   1      -5.998  -2.920   5.838  0.00  0.00     0.003 C 
ENDBRANCH   8   9
ENDBRANCH   7   8
ENDBRANCH   1   7
TORSDOF 3
ENDMDL
