MODEL 1
REMARK minimizedAffinity 19.5863457
REMARK minimizedRMSD -1
REMARK  3 active torsions:
REMARK  status: ('A' for Active; 'I' for Inactive)
REMARK    1  A    between atoms: C3'_2  and  C2'_3 
REMARK    2  A    between atoms: C2'_3  and  C1'_4 
REMARK    3  A    between atoms: C1'_4  and  C1_5 
ROOT
ATOM      1  C1  N4B d   1       1.446   0.959   0.630  0.00  0.00    -0.075 A 
ATOM      2  C2  N4B d   1       0.249   0.222   0.762  0.00  0.00     0.002 A 
ATOM      3  C3  N4B d   1       0.295  -1.104   1.116  0.00  0.00     0.002 A 
ATOM      4  C4  N4B d   1       1.522  -1.716   1.324  0.00  0.00    -0.004 A 
ATOM      5  C5  N4B d   1       2.673  -0.990   1.220  0.00  0.00     0.002 A 
ATOM      6  C6  N4B d   1       2.641   0.344   0.869  0.00  0.00     0.002 A 
ENDROOT
BRANCH   1   7
ATOM      7  C1' N4B d   1       1.451   2.389   0.161  0.00  0.00     0.057 C 
BRANCH   7   8
ATOM      8  C2' N4B d   1       0.111   2.703  -0.499  0.00  0.00     0.009 C 
BRANCH   8   9
ATOM      9  C3' N4B d   1       0.288   3.346  -1.864  0.00  0.00     0.004 C 
ATOM     10  C4' N4B d   1      -0.810   2.988  -2.820  0.00  0.00     0.003 C 
ENDBRANCH   8   9
ENDBRANCH   7   8
ENDBRANCH   1   7
TORSDOF 3
ENDMDL
