MODEL 1
REMARK minimizedAffinity 7.79765463
REMARK minimizedRMSD -1
REMARK  0 active torsions:
REMARK  status: ('A' for Active; 'I' for Inactive)
ROOT
ATOM      1  C1  DEN d   1       4.893  -1.687  -2.644  0.00  0.00     0.130 A 
ATOM      2  C2  DEN d   1       3.830  -1.024  -1.893  0.00  0.00    -0.031 A 
ATOM      3  C3  DEN d   1       3.373   0.139  -2.680  0.00  0.00     0.027 A 
ATOM      4  C4  DEN d   1       4.198   0.970  -4.978  0.00  0.00     0.027 A 
ATOM      5  C5  DEN d   1       5.092   0.739  -6.000  0.00  0.00    -0.003 A 
ATOM      6  C6  DEN d   1       5.998  -0.288  -5.960  0.00  0.00     0.001 A 
ATOM      7  C7  DEN d   1       6.000  -1.150  -4.896  0.00  0.00     0.017 A 
ATOM      8  C8  DEN d   1       5.106  -0.920  -3.858  0.00  0.00    -0.094 A 
ATOM      9  C9  DEN d   1       4.190   0.116  -3.923  0.00  0.00    -0.072 A 
ENDROOT
TORSDOF 0
ENDMDL
