MODEL 1
REMARK minimizedAffinity 4.85584497
REMARK minimizedRMSD -1
REMARK  0 active torsions:
REMARK  status: ('A' for Active; 'I' for Inactive)
ROOT
ATOM      1  C1  DEN d   1       2.457  -0.790  -3.849  0.00  0.00     0.130 A 
ATOM      2  C2  DEN d   1       2.670  -2.157  -3.380  0.00  0.00    -0.031 A 
ATOM      3  C3  DEN d   1       3.983  -2.612  -3.882  0.00  0.00     0.027 A 
ATOM      4  C4  DEN d   1       5.698  -1.338  -5.327  0.00  0.00     0.027 A 
ATOM      5  C5  DEN d   1       5.955  -0.154  -5.981  0.00  0.00    -0.003 A 
ATOM      6  C6  DEN d   1       5.057   0.880  -5.999  0.00  0.00     0.001 A 
ATOM      7  C7  DEN d   1       3.877   0.767  -5.312  0.00  0.00     0.017 A 
ATOM      8  C8  DEN d   1       3.608  -0.427  -4.656  0.00  0.00    -0.094 A 
ATOM      9  C9  DEN d   1       4.533  -1.456  -4.640  0.00  0.00    -0.072 A 
ENDROOT
TORSDOF 0
ENDMDL
