MODEL 1
REMARK minimizedAffinity 12.3784571
REMARK minimizedRMSD -1
REMARK  0 active torsions:
REMARK  status: ('A' for Active; 'I' for Inactive)
ROOT
ATOM      1  C1  DEN d   1       2.593  -5.115   3.208  0.00  0.00     0.130 A 
ATOM      2  C2  DEN d   1       2.363  -5.733   1.905  0.00  0.00    -0.031 A 
ATOM      3  C3  DEN d   1       1.631  -4.766   1.063  0.00  0.00     0.027 A 
ATOM      4  C4  DEN d   1       0.840  -2.381   1.645  0.00  0.00     0.027 A 
ATOM      5  C5  DEN d   1       0.793  -1.424   2.635  0.00  0.00    -0.003 A 
ATOM      6  C6  DEN d   1       1.309  -1.641   3.885  0.00  0.00     0.001 A 
ATOM      7  C7  DEN d   1       1.934  -2.827   4.165  0.00  0.00     0.017 A 
ATOM      8  C8  DEN d   1       1.979  -3.800   3.175  0.00  0.00    -0.094 A 
ATOM      9  C9  DEN d   1       1.462  -3.557   1.913  0.00  0.00    -0.072 A 
ENDROOT
TORSDOF 0
ENDMDL
