MODEL 1
REMARK minimizedAffinity 2.83023548
REMARK minimizedRMSD -1
REMARK  0 active torsions:
REMARK  status: ('A' for Active; 'I' for Inactive)
ROOT
ATOM      1  C1  DEN d   1       2.644  -0.216  -3.711  0.00  0.00     0.130 A 
ATOM      2  C2  DEN d   1       2.976  -1.554  -3.229  0.00  0.00    -0.031 A 
ATOM      3  C3  DEN d   1       4.297  -1.922  -3.777  0.00  0.00     0.027 A 
ATOM      4  C4  DEN d   1       5.853  -0.556  -5.314  0.00  0.00     0.027 A 
ATOM      5  C5  DEN d   1       5.996   0.631  -5.998  0.00  0.00    -0.003 A 
ATOM      6  C6  DEN d   1       5.025   1.597  -5.996  0.00  0.00     0.001 A 
ATOM      7  C7  DEN d   1       3.886   1.411  -5.258  0.00  0.00     0.017 A 
ATOM      8  C8  DEN d   1       3.731   0.214  -4.572  0.00  0.00    -0.094 A 
ATOM      9  C9  DEN d   1       4.730  -0.745  -4.577  0.00  0.00    -0.072 A 
ENDROOT
TORSDOF 0
ENDMDL
