MODEL 1
REMARK minimizedAffinity 6.71733618
REMARK minimizedRMSD -1
REMARK  0 active torsions:
REMARK  status: ('A' for Active; 'I' for Inactive)
ROOT
ATOM      1  C1  DEN d   1      -5.998  -2.289  -5.609  0.00  0.00     0.130 A 
ATOM      2  C2  DEN d   1      -5.113  -1.417  -4.842  0.00  0.00    -0.031 A 
ATOM      3  C3  DEN d   1      -4.052  -2.254  -4.246  0.00  0.00     0.027 A 
ATOM      4  C4  DEN d   1      -3.693  -4.800  -4.441  0.00  0.00     0.027 A 
ATOM      5  C5  DEN d   1      -4.193  -5.967  -4.976  0.00  0.00    -0.003 A 
ATOM      6  C6  DEN d   1      -5.339  -5.994  -5.726  0.00  0.00     0.001 A 
ATOM      7  C7  DEN d   1      -5.999  -4.825  -5.999  0.00  0.00     0.017 A 
ATOM      8  C8  DEN d   1      -5.506  -3.646  -5.456  0.00  0.00    -0.094 A 
ATOM      9  C9  DEN d   1      -4.339  -3.638  -4.711  0.00  0.00    -0.072 A 
ENDROOT
TORSDOF 0
ENDMDL
