MODEL 1
REMARK minimizedAffinity 17.8051472
REMARK minimizedRMSD -1
REMARK  0 active torsions:
REMARK  status: ('A' for Active; 'I' for Inactive)
ROOT
ATOM      1  C1  DEN d   1       2.844  -0.747   1.344  0.00  0.00     0.130 A 
ATOM      2  C2  DEN d   1       1.423  -0.711   1.679  0.00  0.00    -0.031 A 
ATOM      3  C3  DEN d   1       0.656  -0.742   0.418  0.00  0.00     0.027 A 
ATOM      4  C4  DEN d   1       1.526  -0.848  -2.008  0.00  0.00     0.027 A 
ATOM      5  C5  DEN d   1       2.656  -0.884  -2.795  0.00  0.00    -0.003 A 
ATOM      6  C6  DEN d   1       3.917  -0.843  -2.263  0.00  0.00     0.001 A 
ATOM      7  C7  DEN d   1       4.080  -0.809  -0.904  0.00  0.00     0.017 A 
ATOM      8  C8  DEN d   1       2.945  -0.765  -0.104  0.00  0.00    -0.094 A 
ATOM      9  C9  DEN d   1       1.679  -0.819  -0.660  0.00  0.00    -0.072 A 
ENDROOT
TORSDOF 0
ENDMDL
