MODEL 1
REMARK minimizedAffinity 1.79973483
REMARK minimizedRMSD -1
REMARK  0 active torsions:
REMARK  status: ('A' for Active; 'I' for Inactive)
ROOT
ATOM      1  C1  DEN d   1       3.902  -2.727   5.027  0.00  0.00     0.130 A 
ATOM      2  C2  DEN d   1       5.208  -2.631   4.381  0.00  0.00    -0.031 A 
ATOM      3  C3  DEN d   1       4.997  -2.183   2.989  0.00  0.00     0.027 A 
ATOM      4  C4  DEN d   1       2.787  -1.629   1.780  0.00  0.00     0.027 A 
ATOM      5  C5  DEN d   1       1.418  -1.573   1.915  0.00  0.00    -0.003 A 
ATOM      6  C6  DEN d   1       0.783  -1.928   3.076  0.00  0.00     0.001 A 
ATOM      7  C7  DEN d   1       1.522  -2.311   4.164  0.00  0.00     0.017 A 
ATOM      8  C8  DEN d   1       2.903  -2.377   4.033  0.00  0.00    -0.094 A 
ATOM      9  C9  DEN d   1       3.527  -2.003   2.855  0.00  0.00    -0.072 A 
ENDROOT
TORSDOF 0
ENDMDL
