MODEL 1
REMARK minimizedAffinity 19.7114582
REMARK minimizedRMSD -1
REMARK  0 active torsions:
REMARK  status: ('A' for Active; 'I' for Inactive)
ROOT
ATOM      1  C1  DEN d   1      -5.952   3.226  -2.386  0.00  0.00     0.130 A 
ATOM      2  C2  DEN d   1      -5.998   3.033  -3.833  0.00  0.00    -0.031 A 
ATOM      3  C3  DEN d   1      -4.773   2.313  -4.236  0.00  0.00     0.027 A 
ATOM      4  C4  DEN d   1      -2.824   1.478  -2.768  0.00  0.00     0.027 A 
ATOM      5  C5  DEN d   1      -2.332   1.419  -1.483  0.00  0.00    -0.003 A 
ATOM      6  C6  DEN d   1      -2.990   1.983  -0.422  0.00  0.00     0.001 A 
ATOM      7  C7  DEN d   1      -4.201   2.593  -0.621  0.00  0.00     0.017 A 
ATOM      8  C8  DEN d   1      -4.700   2.663  -1.915  0.00  0.00    -0.094 A 
ATOM      9  C9  DEN d   1      -4.025   2.076  -2.972  0.00  0.00    -0.072 A 
ENDROOT
TORSDOF 0
ENDMDL
