MODEL 1
REMARK minimizedAffinity 4.43181753
REMARK minimizedRMSD -1
REMARK  1 active torsions:
REMARK  status: ('A' for Active; 'I' for Inactive)
REMARK    1  A    between atoms: C1_2  and  C2_3 
ROOT
ATOM      1  C2  UNL d   1       1.587  -4.277  -2.276  0.00  0.00    -0.073 A 
ATOM      2  C3  UNL d   1       1.039  -3.686  -1.132  0.00  0.00    -0.002 A 
ATOM      3  C4  UNL d   1       1.737  -3.707   0.076  0.00  0.00     0.004 A 
ATOM      4  C5  UNL d   1       2.992  -4.311   0.151  0.00  0.00    -0.004 A 
ATOM      5  C6  UNL d   1       3.562  -4.897  -0.984  0.00  0.00    -0.075 A 
ATOM      6  C7  UNL d   1       4.910  -5.553  -0.919  0.00  0.00     0.076 C 
ATOM      7  C8  UNL d   1       2.853  -4.874  -2.193  0.00  0.00     0.001 A 
ENDROOT
BRANCH   1   8
ATOM      8  C1  UNL d   1       0.840  -4.251  -3.584  0.00  0.00     0.053 C 
ATOM      9  C   UNL d   1       1.748  -3.901  -4.753  0.00  0.00     0.018 C 
ENDBRANCH   1   8
TORSDOF 1
ENDMDL
