MODEL 1
REMARK minimizedAffinity 14.6252918
REMARK minimizedRMSD -1
REMARK  1 active torsions:
REMARK  status: ('A' for Active; 'I' for Inactive)
REMARK    1  A    between atoms: C1_2  and  C2_3 
ROOT
ATOM      1  C2  UNL d   1       2.579  -2.436   0.437  0.00  0.00    -0.073 A 
ATOM      2  C3  UNL d   1       3.181  -1.177   0.320  0.00  0.00    -0.002 A 
ATOM      3  C4  UNL d   1       3.395  -0.391   1.453  0.00  0.00     0.004 A 
ATOM      4  C5  UNL d   1       3.017  -0.857   2.713  0.00  0.00    -0.004 A 
ATOM      5  C6  UNL d   1       2.426  -2.117   2.851  0.00  0.00    -0.075 A 
ATOM      6  C7  UNL d   1       2.011  -2.631   4.198  0.00  0.00     0.076 C 
ATOM      7  C8  UNL d   1       2.211  -2.899   1.708  0.00  0.00     0.001 A 
ENDROOT
BRANCH   1   8
ATOM      8  C1  UNL d   1       2.352  -3.291  -0.783  0.00  0.00     0.053 C 
ATOM      9  C   UNL d   1       0.906  -3.748  -0.897  0.00  0.00     0.018 C 
ENDBRANCH   1   8
TORSDOF 1
ENDMDL
