MODEL 1
REMARK minimizedAffinity 19.3518276
REMARK minimizedRMSD -1
REMARK  1 active torsions:
REMARK  status: ('A' for Active; 'I' for Inactive)
REMARK    1  A    between atoms: C1_2  and  C2_3 
ROOT
ATOM      1  C2  UNL d   1      -4.208   2.477  -4.755  0.00  0.00    -0.073 A 
ATOM      2  C3  UNL d   1      -2.879   2.909  -4.682  0.00  0.00    -0.002 A 
ATOM      3  C4  UNL d   1      -2.507   3.894  -3.766  0.00  0.00     0.004 A 
ATOM      4  C5  UNL d   1      -3.456   4.452  -2.911  0.00  0.00    -0.004 A 
ATOM      5  C6  UNL d   1      -4.787   4.025  -2.960  0.00  0.00    -0.075 A 
ATOM      6  C7  UNL d   1      -5.822   4.617  -2.048  0.00  0.00     0.076 C 
ATOM      7  C8  UNL d   1      -5.154   3.037  -3.884  0.00  0.00     0.001 A 
ENDROOT
BRANCH   1   8
ATOM      8  C1  UNL d   1      -4.613   1.409  -5.737  0.00  0.00     0.053 C 
ATOM      9  C   UNL d   1      -3.807   0.132  -5.556  0.00  0.00     0.018 C 
ENDBRANCH   1   8
TORSDOF 1
ENDMDL
