MODEL 1
REMARK minimizedAffinity 25.0443363
REMARK minimizedRMSD -1
REMARK  1 active torsions:
REMARK  status: ('A' for Active; 'I' for Inactive)
REMARK    1  A    between atoms: C1_2  and  C2_3 
ROOT
ATOM      1  C2  UNL d   1      -1.403   0.724   2.682  0.00  0.00    -0.073 A 
ATOM      2  C3  UNL d   1      -2.469  -0.032   2.180  0.00  0.00    -0.002 A 
ATOM      3  C4  UNL d   1      -2.799  -1.257   2.760  0.00  0.00     0.004 A 
ATOM      4  C5  UNL d   1      -2.074  -1.735   3.851  0.00  0.00    -0.004 A 
ATOM      5  C6  UNL d   1      -1.013  -0.989   4.375  0.00  0.00    -0.075 A 
ATOM      6  C7  UNL d   1      -0.221  -1.490   5.547  0.00  0.00     0.076 C 
ATOM      7  C8  UNL d   1      -0.685   0.239   3.785  0.00  0.00     0.001 A 
ENDROOT
BRANCH   1   8
ATOM      8  C1  UNL d   1      -1.047   2.051   2.062  0.00  0.00     0.053 C 
ATOM      9  C   UNL d   1      -0.579   1.900   0.623  0.00  0.00     0.018 C 
ENDBRANCH   1   8
TORSDOF 1
ENDMDL
