MODEL 1
REMARK minimizedAffinity 13.9180346
REMARK minimizedRMSD -1
REMARK  1 active torsions:
REMARK  status: ('A' for Active; 'I' for Inactive)
REMARK    1  A    between atoms: C1_2  and  C2_3 
ROOT
ATOM      1  C2  UNL d   1       0.001   0.588   2.867  0.00  0.00    -0.073 A 
ATOM      2  C3  UNL d   1      -1.373   0.335   2.948  0.00  0.00    -0.002 A 
ATOM      3  C4  UNL d   1      -2.241   0.843   1.980  0.00  0.00     0.004 A 
ATOM      4  C5  UNL d   1      -1.744   1.602   0.920  0.00  0.00    -0.004 A 
ATOM      5  C6  UNL d   1      -0.373   1.855   0.816  0.00  0.00    -0.075 A 
ATOM      6  C7  UNL d   1       0.177   2.671  -0.316  0.00  0.00     0.076 C 
ATOM      7  C8  UNL d   1       0.492   1.344   1.793  0.00  0.00     0.001 A 
ENDROOT
BRANCH   1   8
ATOM      8  C1  UNL d   1       0.943   0.036   3.906  0.00  0.00     0.053 C 
ATOM      9  C   UNL d   1       0.407  -1.237   4.542  0.00  0.00     0.018 C 
ENDBRANCH   1   8
TORSDOF 1
ENDMDL
