MODEL 1
REMARK minimizedAffinity 13.5424109
REMARK minimizedRMSD -1
REMARK  1 active torsions:
REMARK  status: ('A' for Active; 'I' for Inactive)
REMARK    1  A    between atoms: C1_2  and  C2_3 
ROOT
ATOM      1  C2  UNL d   1       1.391   3.489  -1.716  0.00  0.00    -0.073 A 
ATOM      2  C3  UNL d   1       2.554   3.256  -0.973  0.00  0.00    -0.002 A 
ATOM      3  C4  UNL d   1       2.521   2.424   0.147  0.00  0.00     0.004 A 
ATOM      4  C5  UNL d   1       1.328   1.812   0.531  0.00  0.00    -0.004 A 
ATOM      5  C6  UNL d   1       0.158   2.022  -0.206  0.00  0.00    -0.075 A 
ATOM      6  C7  UNL d   1      -1.134   1.372   0.195  0.00  0.00     0.076 C 
ATOM      7  C8  UNL d   1       0.199   2.861  -1.327  0.00  0.00     0.001 A 
ENDROOT
BRANCH   1   8
ATOM      8  C1  UNL d   1       1.424   4.381  -2.929  0.00  0.00     0.053 C 
ATOM      9  C   UNL d   1       2.187   5.671  -2.668  0.00  0.00     0.018 C 
ENDBRANCH   1   8
TORSDOF 1
ENDMDL
