MODEL 1
REMARK minimizedAffinity -2.43508029
REMARK minimizedRMSD -1
REMARK  0 active torsions:
REMARK  status: ('A' for Active; 'I' for Inactive)
ROOT
ATOM      1  C   UNL d   1       2.048  -1.487  -0.826  0.00  0.00    -0.002 A 
ATOM      2  C1  UNL d   1       2.339  -0.296  -1.477  0.00  0.00     0.010 A 
ATOM      3  C2  UNL d   1       1.420   0.756  -1.478  0.00  0.00     0.041 A 
ATOM      4  C3  UNL d   1       0.193   0.590  -0.806  0.00  0.00    -0.075 A 
ATOM      5  S   UNL d   1      -1.083   1.741  -0.673  0.00  0.00     0.015 SA
ATOM      6  C4  UNL d   1      -2.044   0.679   0.252  0.00  0.00     0.022 A 
ATOM      7  C5  UNL d   1      -1.422  -0.528   0.463  0.00  0.00     0.026 A 
ATOM      8  C6  UNL d   1      -0.122  -0.600  -0.142  0.00  0.00    -0.082 A 
ATOM      9  C7  UNL d   1       0.830  -1.648  -0.161  0.00  0.00     0.045 A 
ENDROOT
TORSDOF 0
ENDMDL
