MODEL 1
REMARK minimizedAffinity -3.49023342
REMARK minimizedRMSD -1
REMARK  0 active torsions:
REMARK  status: ('A' for Active; 'I' for Inactive)
ROOT
ATOM      1  C   UNL d   1       2.733  -1.065  -1.167  0.00  0.00    -0.002 A 
ATOM      2  C1  UNL d   1       1.880  -1.936  -0.503  0.00  0.00     0.010 A 
ATOM      3  C2  UNL d   1       0.615  -1.513  -0.089  0.00  0.00     0.041 A 
ATOM      4  C3  UNL d   1       0.217  -0.189  -0.358  0.00  0.00    -0.075 A 
ATOM      5  S   UNL d   1      -1.286   0.549   0.053  0.00  0.00     0.015 SA
ATOM      6  C4  UNL d   1      -0.832   2.036  -0.643  0.00  0.00     0.022 A 
ATOM      7  C5  UNL d   1       0.433   1.989  -1.181  0.00  0.00     0.026 A 
ATOM      8  C6  UNL d   1       1.058   0.706  -1.026  0.00  0.00    -0.082 A 
ATOM      9  C7  UNL d   1       2.335   0.248  -1.432  0.00  0.00     0.045 A 
ENDROOT
TORSDOF 0
ENDMDL
