MODEL 1
REMARK minimizedAffinity -2.00150704
REMARK minimizedRMSD -1
REMARK  0 active torsions:
REMARK  status: ('A' for Active; 'I' for Inactive)
ROOT
ATOM      1  C   UNL d   1       0.396  -1.902   0.025  0.00  0.00    -0.002 A 
ATOM      2  C1  UNL d   1      -0.761  -1.259   0.442  0.00  0.00     0.010 A 
ATOM      3  C2  UNL d   1      -1.072   0.019  -0.026  0.00  0.00     0.041 A 
ATOM      4  C3  UNL d   1      -0.193   0.645  -0.932  0.00  0.00    -0.075 A 
ATOM      5  S   UNL d   1      -0.369   2.207  -1.640  0.00  0.00     0.015 SA
ATOM      6  C4  UNL d   1       1.086   2.058  -2.513  0.00  0.00     0.022 A 
ATOM      7  C5  UNL d   1       1.705   0.852  -2.282  0.00  0.00     0.026 A 
ATOM      8  C6  UNL d   1       0.977   0.018  -1.368  0.00  0.00    -0.082 A 
ATOM      9  C7  UNL d   1       1.265  -1.278  -0.873  0.00  0.00     0.045 A 
ENDROOT
TORSDOF 0
ENDMDL
