MODEL 1
REMARK minimizedAffinity -2.39803886
REMARK minimizedRMSD -1
REMARK  0 active torsions:
REMARK  status: ('A' for Active; 'I' for Inactive)
ROOT
ATOM      1  C   UNL d   1      -0.682   2.095  -1.417  0.00  0.00    -0.002 A 
ATOM      2  C1  UNL d   1      -1.459   1.039  -0.962  0.00  0.00     0.010 A 
ATOM      3  C2  UNL d   1      -0.874  -0.189  -0.646  0.00  0.00     0.041 A 
ATOM      4  C3  UNL d   1       0.519  -0.338  -0.794  0.00  0.00    -0.075 A 
ATOM      5  S   UNL d   1       1.454  -1.750  -0.467  0.00  0.00     0.015 SA
ATOM      6  C4  UNL d   1       2.907  -0.984  -0.922  0.00  0.00     0.022 A 
ATOM      7  C5  UNL d   1       2.702   0.317  -1.317  0.00  0.00     0.026 A 
ATOM      8  C6  UNL d   1       1.323   0.711  -1.249  0.00  0.00    -0.082 A 
ATOM      9  C7  UNL d   1       0.700   1.943  -1.562  0.00  0.00     0.045 A 
ENDROOT
TORSDOF 0
ENDMDL
