MODEL 1
REMARK minimizedAffinity -0.987525105
REMARK minimizedRMSD -1
REMARK  0 active torsions:
REMARK  status: ('A' for Active; 'I' for Inactive)
ROOT
ATOM      1  C   UNL d   1      -0.179  -1.465  -0.524  0.00  0.00    -0.002 A 
ATOM      2  C1  UNL d   1       0.841  -0.777   0.118  0.00  0.00     0.010 A 
ATOM      3  C2  UNL d   1       0.580  -0.026   1.266  0.00  0.00     0.041 A 
ATOM      4  C3  UNL d   1      -0.737   0.020   1.764  0.00  0.00    -0.075 A 
ATOM      5  S   UNL d   1      -1.292   0.873   3.156  0.00  0.00     0.015 SA
ATOM      6  C4  UNL d   1      -2.897   0.343   2.933  0.00  0.00     0.022 A 
ATOM      7  C5  UNL d   1      -3.024  -0.465   1.828  0.00  0.00     0.026 A 
ATOM      8  C6  UNL d   1      -1.781  -0.665   1.137  0.00  0.00    -0.082 A 
ATOM      9  C7  UNL d   1      -1.484  -1.417  -0.026  0.00  0.00     0.045 A 
ENDROOT
TORSDOF 0
ENDMDL
