MODEL 1
REMARK minimizedAffinity -0.948098779
REMARK minimizedRMSD -1
REMARK  0 active torsions:
REMARK  status: ('A' for Active; 'I' for Inactive)
ROOT
ATOM      1  C   UNL d   1       1.864  -1.999  -0.813  0.00  0.00    -0.002 A 
ATOM      2  C1  UNL d   1       0.956  -2.168   0.223  0.00  0.00     0.010 A 
ATOM      3  C2  UNL d   1      -0.038  -1.216   0.458  0.00  0.00     0.041 A 
ATOM      4  C3  UNL d   1      -0.106  -0.081  -0.374  0.00  0.00    -0.075 A 
ATOM      5  S   UNL d   1      -1.239   1.215  -0.275  0.00  0.00     0.015 SA
ATOM      6  C4  UNL d   1      -0.545   2.022  -1.606  0.00  0.00     0.022 A 
ATOM      7  C5  UNL d   1       0.526   1.334  -2.125  0.00  0.00     0.026 A 
ATOM      8  C6  UNL d   1       0.796   0.110  -1.424  0.00  0.00    -0.082 A 
ATOM      9  C7  UNL d   1       1.793  -0.872  -1.637  0.00  0.00     0.045 A 
ENDROOT
TORSDOF 0
ENDMDL
