MODEL 1
REMARK minimizedAffinity -2.02653909
REMARK minimizedRMSD -1
REMARK  0 active torsions:
REMARK  status: ('A' for Active; 'I' for Inactive)
ROOT
ATOM      1  C   UNL d   1       2.924   0.651  -2.337  0.00  0.00    -0.002 A 
ATOM      2  C1  UNL d   1       3.316  -0.580  -1.828  0.00  0.00     0.010 A 
ATOM      3  C2  UNL d   1       2.511  -1.258  -0.910  0.00  0.00     0.041 A 
ATOM      4  C3  UNL d   1       1.294  -0.673  -0.509  0.00  0.00    -0.075 A 
ATOM      5  S   UNL d   1       0.147  -1.321   0.604  0.00  0.00     0.015 SA
ATOM      6  C4  UNL d   1      -0.891   0.020   0.429  0.00  0.00     0.022 A 
ATOM      7  C5  UNL d   1      -0.390   0.948  -0.452  0.00  0.00     0.026 A 
ATOM      8  C6  UNL d   1       0.877   0.564  -1.008  0.00  0.00    -0.082 A 
ATOM      9  C7  UNL d   1       1.715   1.227  -1.936  0.00  0.00     0.045 A 
ENDROOT
TORSDOF 0
ENDMDL
