MODEL 1
REMARK minimizedAffinity -4.08168554
REMARK minimizedRMSD -1
REMARK  0 active torsions:
REMARK  status: ('A' for Active; 'I' for Inactive)
ROOT
ATOM      1  C   UNL d   1       3.191  -0.155  -2.115  0.00  0.00    -0.002 A 
ATOM      2  C1  UNL d   1       2.528   0.914  -2.702  0.00  0.00     0.010 A 
ATOM      3  C2  UNL d   1       1.222   1.233  -2.324  0.00  0.00     0.041 A 
ATOM      4  C3  UNL d   1       0.588   0.453  -1.337  0.00  0.00    -0.075 A 
ATOM      5  S   UNL d   1      -1.007   0.658  -0.716  0.00  0.00     0.015 SA
ATOM      6  C4  UNL d   1      -0.846  -0.668   0.343  0.00  0.00     0.022 A 
ATOM      7  C5  UNL d   1       0.388  -1.264   0.238  0.00  0.00     0.026 A 
ATOM      8  C6  UNL d   1       1.235  -0.628  -0.731  0.00  0.00    -0.082 A 
ATOM      9  C7  UNL d   1       2.559  -0.926  -1.136  0.00  0.00     0.045 A 
ENDROOT
TORSDOF 0
ENDMDL
