MODEL 1
REMARK minimizedAffinity -3.90526795
REMARK minimizedRMSD -1
REMARK  0 active torsions:
REMARK  status: ('A' for Active; 'I' for Inactive)
ROOT
ATOM      1  C   UNL d   1       3.195  -0.399  -1.832  0.00  0.00    -0.002 A 
ATOM      2  C1  UNL d   1       2.801   0.920  -1.659  0.00  0.00     0.010 A 
ATOM      3  C2  UNL d   1       1.613   1.224  -0.991  0.00  0.00     0.041 A 
ATOM      4  C3  UNL d   1       0.821   0.170  -0.494  0.00  0.00    -0.075 A 
ATOM      5  S   UNL d   1      -0.673   0.304   0.357  0.00  0.00     0.015 SA
ATOM      6  C4  UNL d   1      -0.821  -1.387   0.511  0.00  0.00     0.022 A 
ATOM      7  C5  UNL d   1       0.234  -2.053  -0.067  0.00  0.00     0.026 A 
ATOM      8  C6  UNL d   1       1.198  -1.166  -0.655  0.00  0.00    -0.082 A 
ATOM      9  C7  UNL d   1       2.408  -1.442  -1.337  0.00  0.00     0.045 A 
ENDROOT
TORSDOF 0
ENDMDL
