MODEL 1
REMARK minimizedAffinity -0.644377172
REMARK minimizedRMSD -1
REMARK  0 active torsions:
REMARK  status: ('A' for Active; 'I' for Inactive)
ROOT
ATOM      1  C   UNL d   1       5.661  -1.531   5.223  0.00  0.00    -0.002 A 
ATOM      2  C1  UNL d   1       5.306  -1.410   3.887  0.00  0.00     0.010 A 
ATOM      3  C2  UNL d   1       5.190  -0.151   3.294  0.00  0.00     0.041 A 
ATOM      4  C3  UNL d   1       5.440   0.995   4.074  0.00  0.00    -0.075 A 
ATOM      5  S   UNL d   1       5.360   2.639   3.561  0.00  0.00     0.015 SA
ATOM      6  C4  UNL d   1       5.795   3.219   5.104  0.00  0.00     0.022 A 
ATOM      7  C5  UNL d   1       6.000   2.197   6.000  0.00  0.00     0.026 A 
ATOM      8  C6  UNL d   1       5.799   0.899   5.421  0.00  0.00    -0.082 A 
ATOM      9  C7  UNL d   1       5.908  -0.392   5.993  0.00  0.00     0.045 A 
ENDROOT
TORSDOF 0
ENDMDL
