MODEL 1
REMARK minimizedAffinity -2.97000885
REMARK minimizedRMSD -1
REMARK  0 active torsions:
REMARK  status: ('A' for Active; 'I' for Inactive)
ROOT
ATOM      1  O1  BZF d   1       1.571  -0.230   1.582  0.00  0.00    -0.204 OA
ATOM      2  C2  BZF d   1       0.855  -0.422   2.747  0.00  0.00     0.174 A 
ATOM      3  C3  BZF d   1      -0.471  -0.399   2.503  0.00  0.00    -0.012 A 
ATOM      4  C3A BZF d   1      -0.590  -0.271   1.083  0.00  0.00    -0.107 A 
ATOM      5  C4  BZF d   1      -1.656  -0.209   0.232  0.00  0.00     0.055 A 
ATOM      6  C5  BZF d   1      -1.432  -0.010  -1.094  0.00  0.00    -0.016 A 
ATOM      7  C6  BZF d   1      -0.158   0.136  -1.601  0.00  0.00     0.022 A 
ATOM      8  C7  BZF d   1       0.931   0.076  -0.797  0.00  0.00     0.029 A 
ATOM      9  C7A BZF d   1       0.710  -0.158   0.539  0.00  0.00     0.058 A 
ENDROOT
TORSDOF 0
ENDMDL
