MODEL 1
REMARK minimizedAffinity -4.890769
REMARK minimizedRMSD -1
REMARK  0 active torsions:
REMARK  status: ('A' for Active; 'I' for Inactive)
ROOT
ATOM      1  O1  BZF d   1      -0.678  -0.601  -0.767  0.00  0.00    -0.204 OA
ATOM      2  C2  BZF d   1       0.423  -0.834  -1.569  0.00  0.00     0.174 A 
ATOM      3  C3  BZF d   1       1.546  -0.920  -0.827  0.00  0.00    -0.012 A 
ATOM      4  C3A BZF d   1       1.108  -0.821   0.531  0.00  0.00    -0.107 A 
ATOM      5  C4  BZF d   1       1.757  -0.855   1.732  0.00  0.00     0.055 A 
ATOM      6  C5  BZF d   1       1.047  -0.656   2.873  0.00  0.00    -0.016 A 
ATOM      7  C6  BZF d   1      -0.311  -0.416   2.851  0.00  0.00     0.022 A 
ATOM      8  C7  BZF d   1      -1.000  -0.378   1.684  0.00  0.00     0.029 A 
ATOM      9  C7A BZF d   1      -0.291  -0.611   0.531  0.00  0.00     0.058 A 
ENDROOT
TORSDOF 0
ENDMDL
