MODEL 1
REMARK minimizedAffinity -2.00903678
REMARK minimizedRMSD -1
REMARK  0 active torsions:
REMARK  status: ('A' for Active; 'I' for Inactive)
ROOT
ATOM      1  O1  BZF d   1       0.742   0.488  -1.015  0.00  0.00    -0.204 OA
ATOM      2  C2  BZF d   1      -0.550   0.752  -1.427  0.00  0.00     0.174 A 
ATOM      3  C3  BZF d   1      -1.437   0.401  -0.474  0.00  0.00    -0.012 A 
ATOM      4  C3A BZF d   1      -0.645  -0.029   0.637  0.00  0.00    -0.107 A 
ATOM      5  C4  BZF d   1      -0.950  -0.484   1.888  0.00  0.00     0.055 A 
ATOM      6  C5  BZF d   1       0.055  -0.891   2.707  0.00  0.00    -0.016 A 
ATOM      7  C6  BZF d   1       1.375  -0.861   2.306  0.00  0.00     0.022 A 
ATOM      8  C7  BZF d   1       1.727  -0.414   1.077  0.00  0.00     0.029 A 
ATOM      9  C7A BZF d   1       0.716   0.029   0.259  0.00  0.00     0.058 A 
ENDROOT
TORSDOF 0
ENDMDL
