MODEL 1
REMARK minimizedAffinity -1.57646835
REMARK minimizedRMSD -1
REMARK  0 active torsions:
REMARK  status: ('A' for Active; 'I' for Inactive)
ROOT
ATOM      1  O1  BZF d   1       0.155  -1.473   2.484  0.00  0.00    -0.204 OA
ATOM      2  C2  BZF d   1       1.486  -1.243   2.774  0.00  0.00     0.174 A 
ATOM      3  C3  BZF d   1       2.063  -0.495   1.812  0.00  0.00    -0.012 A 
ATOM      4  C3A BZF d   1       1.005  -0.163   0.907  0.00  0.00    -0.107 A 
ATOM      5  C4  BZF d   1       0.948   0.574  -0.241  0.00  0.00     0.055 A 
ATOM      6  C5  BZF d   1      -0.225   0.641  -0.924  0.00  0.00    -0.016 A 
ATOM      7  C6  BZF d   1      -1.356  -0.019  -0.492  0.00  0.00     0.022 A 
ATOM      8  C7  BZF d   1      -1.349  -0.759   0.643  0.00  0.00     0.029 A 
ATOM      9  C7A BZF d   1      -0.175  -0.802   1.354  0.00  0.00     0.058 A 
ENDROOT
TORSDOF 0
ENDMDL
