MODEL 1
REMARK minimizedAffinity -4.21229792
REMARK minimizedRMSD -1
REMARK  0 active torsions:
REMARK  status: ('A' for Active; 'I' for Inactive)
ROOT
ATOM      1  O1  BZF d   1      -1.390  -0.682   0.528  0.00  0.00    -0.204 OA
ATOM      2  C2  BZF d   1      -1.203   0.062  -0.621  0.00  0.00     0.174 A 
ATOM      3  C3  BZF d   1       0.011   0.649  -0.619  0.00  0.00    -0.012 A 
ATOM      4  C3A BZF d   1       0.658   0.172   0.564  0.00  0.00    -0.107 A 
ATOM      5  C4  BZF d   1       1.891   0.384   1.111  0.00  0.00     0.055 A 
ATOM      6  C5  BZF d   1       2.185  -0.173   2.315  0.00  0.00    -0.016 A 
ATOM      7  C6  BZF d   1       1.269  -0.944   3.001  0.00  0.00     0.022 A 
ATOM      8  C7  BZF d   1       0.035  -1.187   2.497  0.00  0.00     0.029 A 
ATOM      9  C7A BZF d   1      -0.253  -0.652   1.265  0.00  0.00     0.058 A 
ENDROOT
TORSDOF 0
ENDMDL
