MODEL 1
REMARK minimizedAffinity -1.18570626
REMARK minimizedRMSD -1
REMARK  0 active torsions:
REMARK  status: ('A' for Active; 'I' for Inactive)
ROOT
ATOM      1  O1  BZF d   1       1.169   0.792  -1.481  0.00  0.00    -0.204 OA
ATOM      2  C2  BZF d   1       0.289   0.068  -0.699  0.00  0.00     0.174 A 
ATOM      3  C3  BZF d   1      -0.975   0.506  -0.871  0.00  0.00    -0.012 A 
ATOM      4  C3A BZF d   1      -0.891   1.508  -1.888  0.00  0.00    -0.107 A 
ATOM      5  C4  BZF d   1      -1.817   2.300  -2.504  0.00  0.00     0.055 A 
ATOM      6  C5  BZF d   1      -1.399   3.228  -3.404  0.00  0.00    -0.016 A 
ATOM      7  C6  BZF d   1      -0.063   3.395  -3.707  0.00  0.00     0.022 A 
ATOM      8  C7  BZF d   1       0.892   2.630  -3.125  0.00  0.00     0.029 A 
ATOM      9  C7A BZF d   1       0.469   1.669  -2.240  0.00  0.00     0.058 A 
ENDROOT
TORSDOF 0
ENDMDL
