MODEL 1
REMARK minimizedAffinity -4.75106335
REMARK minimizedRMSD -1
REMARK  0 active torsions:
REMARK  status: ('A' for Active; 'I' for Inactive)
ROOT
ATOM      1  O1  BZF d   1       2.167  -1.356   1.703  0.00  0.00    -0.204 OA
ATOM      2  C2  BZF d   1       1.618  -1.171   2.958  0.00  0.00     0.174 A 
ATOM      3  C3  BZF d   1       0.469  -0.471   2.879  0.00  0.00    -0.012 A 
ATOM      4  C3A BZF d   1       0.240  -0.280   1.479  0.00  0.00    -0.107 A 
ATOM      5  C4  BZF d   1      -0.751   0.331   0.765  0.00  0.00     0.055 A 
ATOM      6  C5  BZF d   1      -0.639   0.407  -0.587  0.00  0.00    -0.016 A 
ATOM      7  C6  BZF d   1       0.450  -0.112  -1.256  0.00  0.00     0.022 A 
ATOM      8  C7  BZF d   1       1.455  -0.732  -0.591  0.00  0.00     0.029 A 
ATOM      9  C7A BZF d   1       1.329  -0.839   0.773  0.00  0.00     0.058 A 
ENDROOT
TORSDOF 0
ENDMDL
