MODEL 1
REMARK minimizedAffinity 8.45083141
REMARK minimizedRMSD -1
REMARK  0 active torsions:
REMARK  status: ('A' for Active; 'I' for Inactive)
ROOT
ATOM      1  C   UNL d   1       4.820   6.000  -2.011  0.00  0.00     0.020 A 
ATOM      2  C1  UNL d   1       6.000   5.604  -2.639  0.00  0.00     0.020 A 
ATOM      3  C2  UNL d   1       5.993   4.519  -3.518  0.00  0.00     0.034 A 
ATOM      4  C3  UNL d   1       4.803   3.826  -3.771  0.00  0.00     0.017 A 
ATOM      5  C4  UNL d   1       3.619   4.224  -3.140  0.00  0.00     0.017 A 
ATOM      6  C5  UNL d   1       3.632   5.312  -2.261  0.00  0.00     0.034 A 
ATOM      7 Cl   UNL d   1       2.113   3.419  -3.403  0.00  0.00    -0.070 Cl
ATOM      8 Cl1  UNL d   1       4.868   2.494  -4.870  0.00  0.00    -0.070 Cl
ENDROOT
TORSDOF 0
ENDMDL
