MODEL 1
REMARK minimizedAffinity 0.966394722
REMARK minimizedRMSD -1
REMARK  0 active torsions:
REMARK  status: ('A' for Active; 'I' for Inactive)
ROOT
ATOM      1  C   UNL d   1       5.932  -3.006   5.634  0.00  0.00     0.020 A 
ATOM      2  C1  UNL d   1       5.999  -3.592   4.370  0.00  0.00     0.020 A 
ATOM      3  C2  UNL d   1       4.940  -3.439   3.472  0.00  0.00     0.034 A 
ATOM      4  C3  UNL d   1       3.810  -2.699   3.837  0.00  0.00     0.017 A 
ATOM      5  C4  UNL d   1       3.743  -2.111   5.105  0.00  0.00     0.017 A 
ATOM      6  C5  UNL d   1       4.806  -2.267   6.000  0.00  0.00     0.034 A 
ATOM      7 Cl   UNL d   1       2.381  -1.183   5.626  0.00  0.00    -0.070 Cl
ATOM      8 Cl1  UNL d   1       2.538  -2.551   2.676  0.00  0.00    -0.070 Cl
ENDROOT
TORSDOF 0
ENDMDL
