MODEL 1
REMARK minimizedAffinity 1.85167944
REMARK minimizedRMSD -1
REMARK  0 active torsions:
REMARK  status: ('A' for Active; 'I' for Inactive)
ROOT
ATOM      1  C   UNL d   1       5.651   4.870  -4.698  0.00  0.00     0.020 A 
ATOM      2  C1  UNL d   1       4.421   4.232  -4.859  0.00  0.00     0.020 A 
ATOM      3  C2  UNL d   1       3.540   4.132  -3.781  0.00  0.00     0.034 A 
ATOM      4  C3  UNL d   1       3.887   4.670  -2.536  0.00  0.00     0.017 A 
ATOM      5  C4  UNL d   1       5.121   5.310  -2.375  0.00  0.00     0.017 A 
ATOM      6  C5  UNL d   1       6.000   5.408  -3.458  0.00  0.00     0.034 A 
ATOM      7 Cl   UNL d   1       5.619   5.998  -0.870  0.00  0.00    -0.070 Cl
ATOM      8 Cl1  UNL d   1       2.749   4.509  -1.246  0.00  0.00    -0.070 Cl
ENDROOT
TORSDOF 0
ENDMDL
