MODEL 1
REMARK minimizedAffinity 7.7489295
REMARK minimizedRMSD -1
REMARK  0 active torsions:
REMARK  status: ('A' for Active; 'I' for Inactive)
ROOT
ATOM      1  C   UNL d   1       0.460  -5.579  -3.971  0.00  0.00     0.020 A 
ATOM      2  C1  UNL d   1      -0.595  -5.503  -3.063  0.00  0.00     0.020 A 
ATOM      3  C2  UNL d   1      -0.716  -4.392  -2.225  0.00  0.00     0.034 A 
ATOM      4  C3  UNL d   1       0.219  -3.353  -2.294  0.00  0.00     0.017 A 
ATOM      5  C4  UNL d   1       1.277  -3.430  -3.207  0.00  0.00     0.017 A 
ATOM      6  C5  UNL d   1       1.394  -4.544  -4.043  0.00  0.00     0.034 A 
ATOM      7 Cl   UNL d   1       2.470  -2.187  -3.350  0.00  0.00    -0.070 Cl
ATOM      8 Cl1  UNL d   1       0.007  -2.009  -1.229  0.00  0.00    -0.070 Cl
ENDROOT
TORSDOF 0
ENDMDL
