MODEL 1
REMARK minimizedAffinity 1.78157485
REMARK minimizedRMSD -1
REMARK  0 active torsions:
REMARK  status: ('A' for Active; 'I' for Inactive)
ROOT
ATOM      1  C   UNL d   1       5.991  -3.932   5.048  0.00  0.00     0.020 A 
ATOM      2  C1  UNL d   1       4.977  -3.830   6.000  0.00  0.00     0.020 A 
ATOM      3  C2  UNL d   1       3.662  -3.588   5.597  0.00  0.00     0.034 A 
ATOM      4  C3  UNL d   1       3.358  -3.447   4.238  0.00  0.00     0.017 A 
ATOM      5  C4  UNL d   1       4.376  -3.549   3.283  0.00  0.00     0.017 A 
ATOM      6  C5  UNL d   1       5.691  -3.791   3.692  0.00  0.00     0.034 A 
ATOM      7 Cl   UNL d   1       4.077  -3.387   1.589  0.00  0.00    -0.070 Cl
ATOM      8 Cl1  UNL d   1       1.710  -3.150   3.811  0.00  0.00    -0.070 Cl
ENDROOT
TORSDOF 0
ENDMDL
