MODEL 1
REMARK minimizedAffinity 8.64275074
REMARK minimizedRMSD -1
REMARK  0 active torsions:
REMARK  status: ('A' for Active; 'I' for Inactive)
ROOT
ATOM      1  C   UNL d   1       5.863  -2.440   5.717  0.00  0.00     0.020 A 
ATOM      2  C1  UNL d   1       6.000  -3.099   4.497  0.00  0.00     0.020 A 
ATOM      3  C2  UNL d   1       4.968  -3.051   3.558  0.00  0.00     0.034 A 
ATOM      4  C3  UNL d   1       3.794  -2.342   3.838  0.00  0.00     0.017 A 
ATOM      5  C4  UNL d   1       3.658  -1.680   5.063  0.00  0.00     0.017 A 
ATOM      6  C5  UNL d   1       4.695  -1.732   6.000  0.00  0.00     0.034 A 
ATOM      7 Cl   UNL d   1       2.239  -0.785   5.481  0.00  0.00    -0.070 Cl
ATOM      8 Cl1  UNL d   1       2.558  -2.325   2.630  0.00  0.00    -0.070 Cl
ENDROOT
TORSDOF 0
ENDMDL
