MODEL 1
REMARK minimizedAffinity 21.744194
REMARK minimizedRMSD -1
REMARK  0 active torsions:
REMARK  status: ('A' for Active; 'I' for Inactive)
ROOT
ATOM      1  C   UNL d   1       3.003  -1.173   4.023  0.00  0.00     0.020 A 
ATOM      2  C1  UNL d   1       3.166  -1.193   5.408  0.00  0.00     0.020 A 
ATOM      3  C2  UNL d   1       4.012  -2.135   5.997  0.00  0.00     0.034 A 
ATOM      4  C3  UNL d   1       4.699  -3.060   5.202  0.00  0.00     0.017 A 
ATOM      5  C4  UNL d   1       4.534  -3.038   3.812  0.00  0.00     0.017 A 
ATOM      6  C5  UNL d   1       3.686  -2.093   3.227  0.00  0.00     0.034 A 
ATOM      7 Cl   UNL d   1       5.348  -4.148   2.766  0.00  0.00    -0.070 Cl
ATOM      8 Cl1  UNL d   1       5.729  -4.196   5.998  0.00  0.00    -0.070 Cl
ENDROOT
TORSDOF 0
ENDMDL
