MODEL 1
REMARK minimizedAffinity 2.51580119
REMARK minimizedRMSD -1
REMARK  0 active torsions:
REMARK  status: ('A' for Active; 'I' for Inactive)
ROOT
ATOM      1  C   UNL d   1       5.919   4.548  -2.156  0.00  0.00     0.020 A 
ATOM      2  C1  UNL d   1       4.999   5.570  -1.929  0.00  0.00     0.020 A 
ATOM      3  C2  UNL d   1       4.158   5.994  -2.960  0.00  0.00     0.034 A 
ATOM      4  C3  UNL d   1       4.236   5.395  -4.223  0.00  0.00     0.017 A 
ATOM      5  C4  UNL d   1       5.160   4.369  -4.450  0.00  0.00     0.017 A 
ATOM      6  C5  UNL d   1       5.999   3.948  -3.414  0.00  0.00     0.034 A 
ATOM      7 Cl   UNL d   1       5.314   3.582  -5.981  0.00  0.00    -0.070 Cl
ATOM      8 Cl1  UNL d   1       3.165   5.969  -5.452  0.00  0.00    -0.070 Cl
ENDROOT
TORSDOF 0
ENDMDL
