MODEL 1
REMARK minimizedAffinity 6.43214703
REMARK minimizedRMSD -1
REMARK  0 active torsions:
REMARK  status: ('A' for Active; 'I' for Inactive)
ROOT
ATOM      1  C   UNL d   1       4.379  -0.592   5.230  0.00  0.00     0.020 A 
ATOM      2  C1  UNL d   1       5.518  -0.902   5.971  0.00  0.00     0.020 A 
ATOM      3  C2  UNL d   1       5.997  -2.214   6.000  0.00  0.00     0.034 A 
ATOM      4  C3  UNL d   1       5.336  -3.220   5.285  0.00  0.00     0.017 A 
ATOM      5  C4  UNL d   1       4.192  -2.907   4.541  0.00  0.00     0.017 A 
ATOM      6  C5  UNL d   1       3.718  -1.592   4.516  0.00  0.00     0.034 A 
ATOM      7 Cl   UNL d   1       3.323  -4.094   3.635  0.00  0.00    -0.070 Cl
ATOM      8 Cl1  UNL d   1       5.983  -4.820   5.365  0.00  0.00    -0.070 Cl
ENDROOT
TORSDOF 0
ENDMDL
