MODEL 1
REMARK minimizedAffinity 2.04365921
REMARK minimizedRMSD -1
REMARK  0 active torsions:
REMARK  status: ('A' for Active; 'I' for Inactive)
ROOT
ATOM      1  C   UNL d   1      -0.990  -2.781  -2.259  0.00  0.00     0.020 A 
ATOM      2  C1  UNL d   1      -0.111  -1.948  -1.567  0.00  0.00     0.020 A 
ATOM      3  C2  UNL d   1      -0.362  -1.625  -0.232  0.00  0.00     0.034 A 
ATOM      4  C3  UNL d   1      -1.494  -2.134   0.416  0.00  0.00     0.017 A 
ATOM      5  C4  UNL d   1      -2.375  -2.970  -0.280  0.00  0.00     0.017 A 
ATOM      6  C5  UNL d   1      -2.119  -3.291  -1.617  0.00  0.00     0.034 A 
ATOM      7 Cl   UNL d   1      -3.792  -3.637   0.451  0.00  0.00    -0.070 Cl
ATOM      8 Cl1  UNL d   1      -1.741  -1.692   2.068  0.00  0.00    -0.070 Cl
ENDROOT
TORSDOF 0
ENDMDL
