MODEL 1
REMARK minimizedAffinity 3.14061952
REMARK minimizedRMSD -1
REMARK  0 active torsions:
REMARK  status: ('A' for Active; 'I' for Inactive)
ROOT
ATOM      1  C   UNL d   1       4.868   3.575  -4.910  0.00  0.00     0.020 A 
ATOM      2  C1  UNL d   1       5.994   3.576  -4.088  0.00  0.00     0.020 A 
ATOM      3  C2  UNL d   1       6.000   4.331  -2.913  0.00  0.00     0.034 A 
ATOM      4  C3  UNL d   1       4.878   5.089  -2.558  0.00  0.00     0.017 A 
ATOM      5  C4  UNL d   1       3.749   5.088  -3.384  0.00  0.00     0.017 A 
ATOM      6  C5  UNL d   1       3.748   4.329  -4.559  0.00  0.00     0.034 A 
ATOM      7 Cl   UNL d   1       2.327   5.998  -3.012  0.00  0.00    -0.070 Cl
ATOM      8 Cl1  UNL d   1       4.956   6.000  -1.091  0.00  0.00    -0.070 Cl
ENDROOT
TORSDOF 0
ENDMDL
