MODEL 1
REMARK minimizedAffinity 4.39628267
REMARK minimizedRMSD -1
REMARK  0 active torsions:
REMARK  status: ('A' for Active; 'I' for Inactive)
ROOT
ATOM      1  C   UNL d   1      -0.390  -2.774  -5.999  0.00  0.00     0.020 A 
ATOM      2  C1  UNL d   1      -0.037  -4.123  -5.999  0.00  0.00     0.020 A 
ATOM      3  C2  UNL d   1       0.118  -4.805  -4.790  0.00  0.00     0.034 A 
ATOM      4  C3  UNL d   1      -0.080  -4.138  -3.576  0.00  0.00     0.017 A 
ATOM      5  C4  UNL d   1      -0.434  -2.784  -3.576  0.00  0.00     0.017 A 
ATOM      6  C5  UNL d   1      -0.588  -2.106  -4.790  0.00  0.00     0.034 A 
ATOM      7 Cl   UNL d   1      -0.695  -1.894  -2.118  0.00  0.00    -0.070 Cl
ATOM      8 Cl1  UNL d   1       0.129  -5.043  -2.119  0.00  0.00    -0.070 Cl
ENDROOT
TORSDOF 0
ENDMDL
