MODEL 1
REMARK minimizedAffinity 6.19074106
REMARK minimizedRMSD -1
REMARK  0 active torsions:
REMARK  status: ('A' for Active; 'I' for Inactive)
ROOT
ATOM      1  C   UNL d   1       5.998   4.924  -1.634  0.00  0.00     0.020 A 
ATOM      2  C1  UNL d   1       5.018   5.898  -1.451  0.00  0.00     0.020 A 
ATOM      3  C2  UNL d   1       3.956   5.999  -2.353  0.00  0.00     0.034 A 
ATOM      4  C3  UNL d   1       3.872   5.123  -3.441  0.00  0.00     0.017 A 
ATOM      5  C4  UNL d   1       4.856   4.145  -3.625  0.00  0.00     0.017 A 
ATOM      6  C5  UNL d   1       5.917   4.049  -2.719  0.00  0.00     0.034 A 
ATOM      7 Cl   UNL d   1       4.820   3.030  -4.944  0.00  0.00    -0.070 Cl
ATOM      8 Cl1  UNL d   1       2.531   5.304  -4.516  0.00  0.00    -0.070 Cl
ENDROOT
TORSDOF 0
ENDMDL
