MODEL 1
REMARK minimizedAffinity 4.60473251
REMARK minimizedRMSD -1
REMARK  0 active torsions:
REMARK  status: ('A' for Active; 'I' for Inactive)
ROOT
ATOM      1  C   UNL d   1      -1.394  -2.854  -1.804  0.00  0.00     0.020 A 
ATOM      2  C1  UNL d   1      -0.506  -1.849  -1.419  0.00  0.00     0.020 A 
ATOM      3  C2  UNL d   1       0.783  -1.815  -1.954  0.00  0.00     0.034 A 
ATOM      4  C3  UNL d   1       1.189  -2.787  -2.877  0.00  0.00     0.017 A 
ATOM      5  C4  UNL d   1       0.297  -3.794  -3.262  0.00  0.00     0.017 A 
ATOM      6  C5  UNL d   1      -0.993  -3.824  -2.724  0.00  0.00     0.034 A 
ATOM      7 Cl   UNL d   1       0.725  -5.027  -4.395  0.00  0.00    -0.070 Cl
ATOM      8 Cl1  UNL d   1       2.798  -2.683  -3.497  0.00  0.00    -0.070 Cl
ENDROOT
TORSDOF 0
ENDMDL
