MODEL 1
REMARK minimizedAffinity 1.87412941
REMARK minimizedRMSD -1
REMARK  0 active torsions:
REMARK  status: ('A' for Active; 'I' for Inactive)
ROOT
ATOM      1  C   UNL d   1      -0.318  -1.324  -0.518  0.00  0.00     0.020 A 
ATOM      2  C1  UNL d   1      -1.091  -2.213  -1.264  0.00  0.00     0.020 A 
ATOM      3  C2  UNL d   1      -2.289  -2.704  -0.741  0.00  0.00     0.034 A 
ATOM      4  C3  UNL d   1      -2.717  -2.308   0.531  0.00  0.00     0.017 A 
ATOM      5  C4  UNL d   1      -1.940  -1.416   1.279  0.00  0.00     0.017 A 
ATOM      6  C5  UNL d   1      -0.742  -0.926   0.751  0.00  0.00     0.034 A 
ATOM      7 Cl   UNL d   1      -2.403  -0.881   2.856  0.00  0.00    -0.070 Cl
ATOM      8 Cl1  UNL d   1      -4.209  -2.955   1.114  0.00  0.00    -0.070 Cl
ENDROOT
TORSDOF 0
ENDMDL
