MODEL 1
REMARK minimizedAffinity 6.01561308
REMARK minimizedRMSD -1
REMARK  0 active torsions:
REMARK  status: ('A' for Active; 'I' for Inactive)
ROOT
ATOM      1  C   UNL d   1      -0.025  -1.923  -2.617  0.00  0.00     0.020 A 
ATOM      2  C1  UNL d   1       0.072  -2.041  -1.231  0.00  0.00     0.020 A 
ATOM      3  C2  UNL d   1       1.327  -2.068  -0.619  0.00  0.00     0.034 A 
ATOM      4  C3  UNL d   1       2.489  -1.976  -1.392  0.00  0.00     0.017 A 
ATOM      5  C4  UNL d   1       2.391  -1.858  -2.783  0.00  0.00     0.017 A 
ATOM      6  C5  UNL d   1       1.132  -1.832  -3.391  0.00  0.00     0.034 A 
ATOM      7 Cl   UNL d   1       3.781  -1.741  -3.804  0.00  0.00    -0.070 Cl
ATOM      8 Cl1  UNL d   1       4.008  -2.015  -0.568  0.00  0.00    -0.070 Cl
ENDROOT
TORSDOF 0
ENDMDL
