MODEL 1
REMARK minimizedAffinity 5.99059677
REMARK minimizedRMSD -1
REMARK  0 active torsions:
REMARK  status: ('A' for Active; 'I' for Inactive)
ROOT
ATOM      1  C   UNL d   1      -3.682  -2.416  -0.348  0.00  0.00     0.020 A 
ATOM      2  C1  UNL d   1      -3.645  -2.821   0.986  0.00  0.00     0.020 A 
ATOM      3  C2  UNL d   1      -2.426  -3.152   1.582  0.00  0.00     0.034 A 
ATOM      4  C3  UNL d   1      -1.239  -3.080   0.843  0.00  0.00     0.017 A 
ATOM      5  C4  UNL d   1      -1.277  -2.674  -0.496  0.00  0.00     0.017 A 
ATOM      6  C5  UNL d   1      -2.500  -2.343  -1.087  0.00  0.00     0.034 A 
ATOM      7 Cl   UNL d   1       0.146  -2.560  -1.471  0.00  0.00    -0.070 Cl
ATOM      8 Cl1  UNL d   1       0.232  -3.504   1.644  0.00  0.00    -0.070 Cl
ENDROOT
TORSDOF 0
ENDMDL
