MODEL 1
REMARK minimizedAffinity 7.27164364
REMARK minimizedRMSD -1
REMARK  0 active torsions:
REMARK  status: ('A' for Active; 'I' for Inactive)
ROOT
ATOM      1  C   UNL d   1      -0.093  -1.642  -1.153  0.00  0.00     0.020 A 
ATOM      2  C1  UNL d   1      -0.525  -2.886  -0.695  0.00  0.00     0.020 A 
ATOM      3  C2  UNL d   1      -0.563  -3.976  -1.568  0.00  0.00     0.034 A 
ATOM      4  C3  UNL d   1      -0.170  -3.824  -2.902  0.00  0.00     0.017 A 
ATOM      5  C4  UNL d   1       0.263  -2.574  -3.361  0.00  0.00     0.017 A 
ATOM      6  C5  UNL d   1       0.300  -1.487  -2.483  0.00  0.00     0.034 A 
ATOM      7 Cl   UNL d   1       0.765  -2.309  -4.993  0.00  0.00    -0.070 Cl
ATOM      8 Cl1  UNL d   1      -0.243  -5.214  -3.925  0.00  0.00    -0.070 Cl
ENDROOT
TORSDOF 0
ENDMDL
