MODEL 1
REMARK minimizedAffinity 5.94328833
REMARK minimizedRMSD -1
REMARK  0 active torsions:
REMARK  status: ('A' for Active; 'I' for Inactive)
ROOT
ATOM      1  C   UNL d   1      -0.127  -1.930  -1.244  0.00  0.00     0.020 A 
ATOM      2  C1  UNL d   1      -0.887  -3.078  -1.024  0.00  0.00     0.020 A 
ATOM      3  C2  UNL d   1      -1.143  -3.959  -2.077  0.00  0.00     0.034 A 
ATOM      4  C3  UNL d   1      -0.639  -3.693  -3.355  0.00  0.00     0.017 A 
ATOM      5  C4  UNL d   1       0.123  -2.541  -3.575  0.00  0.00     0.017 A 
ATOM      6  C5  UNL d   1       0.377  -1.662  -2.517  0.00  0.00     0.034 A 
ATOM      7 Cl   UNL d   1       0.779  -2.145  -5.125  0.00  0.00    -0.070 Cl
ATOM      8 Cl1  UNL d   1      -0.995  -4.826  -4.610  0.00  0.00    -0.070 Cl
ENDROOT
TORSDOF 0
ENDMDL
