MODEL 1
REMARK minimizedAffinity -3.43802309
REMARK minimizedRMSD -1
REMARK  0 active torsions:
REMARK  status: ('A' for Active; 'I' for Inactive)
ROOT
ATOM      1  C   UNL d   1      -1.715   0.901   1.988  0.00  0.00     0.077 C 
ATOM      2  C1  UNL d   1      -0.822   0.265   0.964  0.00  0.00    -0.074 A 
ATOM      3  C2  UNL d   1      -0.236   1.027  -0.052  0.00  0.00    -0.005 A 
ATOM      4  C3  UNL d   1       0.599   0.423  -0.991  0.00  0.00     0.006 A 
ATOM      5  C4  UNL d   1       0.857  -0.947  -0.925  0.00  0.00    -0.005 A 
ATOM      6  C5  UNL d   1       0.281  -1.725   0.084  0.00  0.00    -0.074 A 
ATOM      7  C6  UNL d   1       0.555  -3.196   0.176  0.00  0.00     0.077 C 
ATOM      8  C7  UNL d   1      -0.552  -1.109   1.029  0.00  0.00    -0.001 A 
ENDROOT
TORSDOF 0
ENDMDL
