MODEL 1
REMARK minimizedAffinity -2.27914047
REMARK minimizedRMSD -1
REMARK  0 active torsions:
REMARK  status: ('A' for Active; 'I' for Inactive)
ROOT
ATOM      1  C   UNL d   1       0.710  -3.206   0.474  0.00  0.00     0.077 C 
ATOM      2  C1  UNL d   1       0.709  -1.917  -0.294  0.00  0.00    -0.074 A 
ATOM      3  C2  UNL d   1       1.011  -1.894  -1.659  0.00  0.00    -0.005 A 
ATOM      4  C3  UNL d   1       0.996  -0.690  -2.363  0.00  0.00     0.006 A 
ATOM      5  C4  UNL d   1       0.679   0.502  -1.709  0.00  0.00    -0.005 A 
ATOM      6  C5  UNL d   1       0.373   0.498  -0.344  0.00  0.00    -0.074 A 
ATOM      7  C6  UNL d   1       0.021   1.768   0.371  0.00  0.00     0.077 C 
ATOM      8  C7  UNL d   1       0.384  -0.717   0.354  0.00  0.00    -0.001 A 
ENDROOT
TORSDOF 0
ENDMDL
