MODEL 1
REMARK minimizedAffinity -2.70454645
REMARK minimizedRMSD -1
REMARK  0 active torsions:
REMARK  status: ('A' for Active; 'I' for Inactive)
ROOT
ATOM      1  C   UNL d   1       0.345   4.418   2.447  0.00  0.00     0.077 C 
ATOM      2  C1  UNL d   1       1.065   3.652   1.377  0.00  0.00    -0.074 A 
ATOM      3  C2  UNL d   1       2.456   3.723   1.254  0.00  0.00    -0.005 A 
ATOM      4  C3  UNL d   1       3.112   2.997   0.260  0.00  0.00     0.006 A 
ATOM      5  C4  UNL d   1       2.385   2.194  -0.620  0.00  0.00    -0.005 A 
ATOM      6  C5  UNL d   1       0.993   2.110  -0.511  0.00  0.00    -0.074 A 
ATOM      7  C6  UNL d   1       0.197   1.244  -1.442  0.00  0.00     0.077 C 
ATOM      8  C7  UNL d   1       0.342   2.837   0.495  0.00  0.00    -0.001 A 
ENDROOT
TORSDOF 0
ENDMDL
