MODEL 1
REMARK minimizedAffinity -4.18537569
REMARK minimizedRMSD -1
REMARK  0 active torsions:
REMARK  status: ('A' for Active; 'I' for Inactive)
ROOT
ATOM      1  C   UNL d   1       0.241   1.415  -0.495  0.00  0.00     0.077 C 
ATOM      2  C1  UNL d   1      -0.045  -0.041  -0.275  0.00  0.00    -0.074 A 
ATOM      3  C2  UNL d   1      -0.696  -0.478   0.883  0.00  0.00    -0.005 A 
ATOM      4  C3  UNL d   1      -0.963  -1.834   1.070  0.00  0.00     0.006 A 
ATOM      5  C4  UNL d   1      -0.582  -2.765   0.103  0.00  0.00    -0.005 A 
ATOM      6  C5  UNL d   1       0.070  -2.346  -1.062  0.00  0.00    -0.074 A 
ATOM      7  C6  UNL d   1       0.477  -3.332  -2.116  0.00  0.00     0.077 C 
ATOM      8  C7  UNL d   1       0.328  -0.981  -1.245  0.00  0.00    -0.001 A 
ENDROOT
TORSDOF 0
ENDMDL
