MODEL 1
REMARK minimizedAffinity -6.16844034
REMARK minimizedRMSD -1
REMARK  0 active torsions:
REMARK  status: ('A' for Active; 'I' for Inactive)
ROOT
ATOM      1  C   UNL d   1      -2.059  -1.244   2.969  0.00  0.00     0.077 C 
ATOM      2  C1  UNL d   1      -1.147  -1.291   1.779  0.00  0.00    -0.074 A 
ATOM      3  C2  UNL d   1      -0.589  -2.499   1.347  0.00  0.00    -0.005 A 
ATOM      4  C3  UNL d   1       0.249  -2.528   0.233  0.00  0.00     0.006 A 
ATOM      5  C4  UNL d   1       0.538  -1.351  -0.460  0.00  0.00    -0.005 A 
ATOM      6  C5  UNL d   1      -0.012  -0.135  -0.044  0.00  0.00    -0.074 A 
ATOM      7  C6  UNL d   1       0.280   1.137  -0.784  0.00  0.00     0.077 C 
ATOM      8  C7  UNL d   1      -0.859  -0.115   1.072  0.00  0.00    -0.001 A 
ENDROOT
TORSDOF 0
ENDMDL
