MODEL 1
REMARK minimizedAffinity -3.88408923
REMARK minimizedRMSD -1
REMARK  0 active torsions:
REMARK  status: ('A' for Active; 'I' for Inactive)
ROOT
ATOM      1  C   UNL d   1      -0.054  -3.891   0.359  0.00  0.00     0.077 C 
ATOM      2  C1  UNL d   1      -0.510  -2.472   0.529  0.00  0.00    -0.074 A 
ATOM      3  C2  UNL d   1      -1.863  -2.168   0.709  0.00  0.00    -0.005 A 
ATOM      4  C3  UNL d   1      -2.270  -0.845   0.875  0.00  0.00     0.006 A 
ATOM      5  C4  UNL d   1      -1.330   0.187   0.862  0.00  0.00    -0.005 A 
ATOM      6  C5  UNL d   1       0.027  -0.098   0.683  0.00  0.00    -0.074 A 
ATOM      7  C6  UNL d   1       1.051   0.997   0.677  0.00  0.00     0.077 C 
ATOM      8  C7  UNL d   1       0.429  -1.431   0.525  0.00  0.00    -0.001 A 
ENDROOT
TORSDOF 0
ENDMDL
