MODEL 1
REMARK minimizedAffinity -4.51487255
REMARK minimizedRMSD -1
REMARK  0 active torsions:
REMARK  status: ('A' for Active; 'I' for Inactive)
ROOT
ATOM      1  C   UNL d   1       0.501  -3.403   0.592  0.00  0.00     0.077 C 
ATOM      2  C1  UNL d   1      -0.080  -2.024   0.694  0.00  0.00    -0.074 A 
ATOM      3  C2  UNL d   1      -1.049  -1.721   1.657  0.00  0.00    -0.005 A 
ATOM      4  C3  UNL d   1      -1.573  -0.432   1.745  0.00  0.00     0.006 A 
ATOM      5  C4  UNL d   1      -1.136   0.566   0.873  0.00  0.00    -0.005 A 
ATOM      6  C5  UNL d   1      -0.168   0.282  -0.095  0.00  0.00    -0.074 A 
ATOM      7  C6  UNL d   1       0.319   1.346  -1.034  0.00  0.00     0.077 C 
ATOM      8  C7  UNL d   1       0.359  -1.014  -0.173  0.00  0.00    -0.001 A 
ENDROOT
TORSDOF 0
ENDMDL
