MODEL 1
REMARK minimizedAffinity -1.20640469
REMARK minimizedRMSD -1
REMARK  0 active torsions:
REMARK  status: ('A' for Active; 'I' for Inactive)
ROOT
ATOM      1  C   UNL d   1       0.989   2.848   0.448  0.00  0.00     0.077 C 
ATOM      2  C1  UNL d   1       0.960   1.634  -0.432  0.00  0.00    -0.074 A 
ATOM      3  C2  UNL d   1       0.855   1.756  -1.822  0.00  0.00    -0.005 A 
ATOM      4  C3  UNL d   1       0.839   0.619  -2.628  0.00  0.00     0.006 A 
ATOM      5  C4  UNL d   1       0.928  -0.650  -2.055  0.00  0.00    -0.005 A 
ATOM      6  C5  UNL d   1       1.034  -0.792  -0.668  0.00  0.00    -0.074 A 
ATOM      7  C6  UNL d   1       1.139  -2.148  -0.036  0.00  0.00     0.077 C 
ATOM      8  C7  UNL d   1       1.056   0.356   0.136  0.00  0.00    -0.001 A 
ENDROOT
TORSDOF 0
ENDMDL
