MODEL 1
REMARK minimizedAffinity -2.39877677
REMARK minimizedRMSD -1
REMARK  0 active torsions:
REMARK  status: ('A' for Active; 'I' for Inactive)
ROOT
ATOM      1  C   UNL d   1       0.216   2.115   0.846  0.00  0.00     0.077 C 
ATOM      2  C1  UNL d   1       0.399   0.989  -0.127  0.00  0.00    -0.074 A 
ATOM      3  C2  UNL d   1       0.443   1.229  -1.504  0.00  0.00    -0.005 A 
ATOM      4  C3  UNL d   1       0.623   0.173  -2.397  0.00  0.00     0.006 A 
ATOM      5  C4  UNL d   1       0.760  -1.132  -1.923  0.00  0.00    -0.005 A 
ATOM      6  C5  UNL d   1       0.719  -1.392  -0.550  0.00  0.00    -0.074 A 
ATOM      7  C6  UNL d   1       0.875  -2.788  -0.023  0.00  0.00     0.077 C 
ATOM      8  C7  UNL d   1       0.545  -0.324   0.341  0.00  0.00    -0.001 A 
ENDROOT
TORSDOF 0
ENDMDL
