MODEL 1
REMARK minimizedAffinity -4.58720255
REMARK minimizedRMSD -1
REMARK  0 active torsions:
REMARK  status: ('A' for Active; 'I' for Inactive)
ROOT
ATOM      1  C   UNL d   1       0.007   0.057   0.640  0.00  0.00     0.077 C 
ATOM      2  C1  UNL d   1       0.743   1.363   0.662  0.00  0.00    -0.074 A 
ATOM      3  C2  UNL d   1       1.013   2.016   1.869  0.00  0.00    -0.005 A 
ATOM      4  C3  UNL d   1       1.708   3.225   1.874  0.00  0.00     0.006 A 
ATOM      5  C4  UNL d   1       2.139   3.793   0.674  0.00  0.00    -0.005 A 
ATOM      6  C5  UNL d   1       1.878   3.155  -0.542  0.00  0.00    -0.074 A 
ATOM      7  C6  UNL d   1       2.343   3.746  -1.840  0.00  0.00     0.077 C 
ATOM      8  C7  UNL d   1       1.186   1.936  -0.539  0.00  0.00    -0.001 A 
ENDROOT
TORSDOF 0
ENDMDL
