MODEL 1
REMARK minimizedAffinity -3.30896282
REMARK minimizedRMSD -1
REMARK  0 active torsions:
REMARK  status: ('A' for Active; 'I' for Inactive)
ROOT
ATOM      1  C   UNL d   1       0.473  -2.484  -2.916  0.00  0.00     0.077 C 
ATOM      2  C1  UNL d   1      -0.013  -1.980  -1.590  0.00  0.00    -0.074 A 
ATOM      3  C2  UNL d   1      -0.724  -2.814  -0.721  0.00  0.00    -0.005 A 
ATOM      4  C3  UNL d   1      -1.162  -2.334   0.514  0.00  0.00     0.006 A 
ATOM      5  C4  UNL d   1      -0.894  -1.018   0.891  0.00  0.00    -0.005 A 
ATOM      6  C5  UNL d   1      -0.184  -0.169   0.035  0.00  0.00    -0.074 A 
ATOM      7  C6  UNL d   1       0.121   1.246   0.429  0.00  0.00     0.077 C 
ATOM      8  C7  UNL d   1       0.258  -0.661  -1.200  0.00  0.00    -0.001 A 
ENDROOT
TORSDOF 0
ENDMDL
