MODEL 1
REMARK minimizedAffinity -6.07233572
REMARK minimizedRMSD -1
REMARK  0 active torsions:
REMARK  status: ('A' for Active; 'I' for Inactive)
ROOT
ATOM      1  C   UNL d   1       0.401  -3.480  -0.024  0.00  0.00     0.077 C 
ATOM      2  C1  UNL d   1      -0.159  -2.148   0.379  0.00  0.00    -0.074 A 
ATOM      3  C2  UNL d   1      -1.291  -2.063   1.197  0.00  0.00    -0.005 A 
ATOM      4  C3  UNL d   1      -1.795  -0.818   1.572  0.00  0.00     0.006 A 
ATOM      5  C4  UNL d   1      -1.175   0.353   1.133  0.00  0.00    -0.005 A 
ATOM      6  C5  UNL d   1      -0.042   0.287   0.316  0.00  0.00    -0.074 A 
ATOM      7  C6  UNL d   1       0.643   1.535  -0.156  0.00  0.00     0.077 C 
ATOM      8  C7  UNL d   1       0.463  -0.968  -0.051  0.00  0.00    -0.001 A 
ENDROOT
TORSDOF 0
ENDMDL
