MODEL 1
REMARK minimizedAffinity -4.641716
REMARK minimizedRMSD -1
REMARK  0 active torsions:
REMARK  status: ('A' for Active; 'I' for Inactive)
ROOT
ATOM      1  C   UNL d   1       0.640  -3.329   0.763  0.00  0.00     0.077 C 
ATOM      2  C1  UNL d   1       0.551  -2.181  -0.197  0.00  0.00    -0.074 A 
ATOM      3  C2  UNL d   1       1.018  -2.304  -1.510  0.00  0.00    -0.005 A 
ATOM      4  C3  UNL d   1       0.920  -1.230  -2.395  0.00  0.00     0.006 A 
ATOM      5  C4  UNL d   1       0.354  -0.025  -1.977  0.00  0.00    -0.005 A 
ATOM      6  C5  UNL d   1      -0.120   0.116  -0.669  0.00  0.00    -0.074 A 
ATOM      7  C6  UNL d   1      -0.740   1.401  -0.207  0.00  0.00     0.077 C 
ATOM      8  C7  UNL d   1      -0.024  -0.969   0.212  0.00  0.00    -0.001 A 
ENDROOT
TORSDOF 0
ENDMDL
