MODEL 1
REMARK minimizedAffinity -3.81866765
REMARK minimizedRMSD -1
REMARK  0 active torsions:
REMARK  status: ('A' for Active; 'I' for Inactive)
ROOT
ATOM      1  C   UNL d   1      -1.458  -0.754   1.432  0.00  0.00     0.077 C 
ATOM      2  C1  UNL d   1      -0.767   0.138   0.444  0.00  0.00    -0.074 A 
ATOM      3  C2  UNL d   1      -0.545  -0.282  -0.872  0.00  0.00    -0.005 A 
ATOM      4  C3  UNL d   1       0.090   0.562  -1.782  0.00  0.00     0.006 A 
ATOM      5  C4  UNL d   1       0.510   1.833  -1.387  0.00  0.00    -0.005 A 
ATOM      6  C5  UNL d   1       0.297   2.271  -0.076  0.00  0.00    -0.074 A 
ATOM      7  C6  UNL d   1       0.733   3.637   0.362  0.00  0.00     0.077 C 
ATOM      8  C7  UNL d   1      -0.349   1.419   0.831  0.00  0.00    -0.001 A 
ENDROOT
TORSDOF 0
ENDMDL
