MODEL 1
REMARK minimizedAffinity -5.84758568
REMARK minimizedRMSD -1
REMARK  0 active torsions:
REMARK  status: ('A' for Active; 'I' for Inactive)
ROOT
ATOM      1  C   UNL d   1       0.451  -3.552   0.359  0.00  0.00     0.077 C 
ATOM      2  C1  UNL d   1      -0.158  -2.199   0.579  0.00  0.00    -0.074 A 
ATOM      3  C2  UNL d   1      -1.451  -2.069   1.097  0.00  0.00    -0.005 A 
ATOM      4  C3  UNL d   1      -2.000  -0.804   1.305  0.00  0.00     0.006 A 
ATOM      5  C4  UNL d   1      -1.264   0.341   0.999  0.00  0.00    -0.005 A 
ATOM      6  C5  UNL d   1       0.030   0.230   0.481  0.00  0.00    -0.074 A 
ATOM      7  C6  UNL d   1       0.838   1.451   0.155  0.00  0.00     0.077 C 
ATOM      8  C7  UNL d   1       0.578  -1.044   0.281  0.00  0.00    -0.001 A 
ENDROOT
TORSDOF 0
ENDMDL
