MODEL 1
REMARK minimizedAffinity -3.27655029
REMARK minimizedRMSD -1
REMARK  0 active torsions:
REMARK  status: ('A' for Active; 'I' for Inactive)
ROOT
ATOM      1  C   UNL d   1       0.089   0.666  -0.501  0.00  0.00     0.077 C 
ATOM      2  C1  UNL d   1      -0.632   0.026   0.648  0.00  0.00    -0.074 A 
ATOM      3  C2  UNL d   1      -0.415   0.455   1.962  0.00  0.00    -0.005 A 
ATOM      4  C3  UNL d   1      -1.101  -0.142   3.019  0.00  0.00     0.006 A 
ATOM      5  C4  UNL d   1      -2.009  -1.173   2.775  0.00  0.00    -0.005 A 
ATOM      6  C5  UNL d   1      -2.240  -1.615   1.468  0.00  0.00    -0.074 A 
ATOM      7  C6  UNL d   1      -3.220  -2.715   1.187  0.00  0.00     0.077 C 
ATOM      8  C7  UNL d   1      -1.552  -1.005   0.410  0.00  0.00    -0.001 A 
ENDROOT
TORSDOF 0
ENDMDL
