MODEL 1
REMARK minimizedAffinity -2.08519554
REMARK minimizedRMSD -1
REMARK  1 active torsions:
REMARK  status: ('A' for Active; 'I' for Inactive)
REMARK    1  A    between atoms: N_2  and  C1_3 
ROOT
ATOM      1  C1  UNL d   1       0.613  -0.637  -0.652  0.00  0.00     0.143 A 
ATOM      2  C2  UNL d   1       0.562   0.695  -1.078  0.00  0.00    -0.057 A 
ATOM      3  C3  UNL d   1      -0.128   1.666  -0.342  0.00  0.00     0.033 A 
ATOM      4  C4  UNL d   1      -0.806   1.316   0.820  0.00  0.00    -0.042 A 
ATOM      5  C5  UNL d   1      -0.790  -0.007   1.249  0.00  0.00     0.033 A 
ATOM      6  C6  UNL d   1      -0.094  -0.971   0.514  0.00  0.00    -0.057 A 
ENDROOT
BRANCH   1   7
ATOM      7  N   UNL d   1       1.199  -1.668  -1.391  0.00  0.00    -0.732 N 
ATOM      8  C   UNL d   1       0.400  -2.483  -2.281  0.00  0.00     0.284 C 
ATOM      9  H3  UNL d   1       2.107  -1.407  -1.768  0.00  0.00     0.395 HD
ENDBRANCH   1   7
TORSDOF 1
ENDMDL
