MODEL 1
REMARK minimizedAffinity -1.77586293
REMARK minimizedRMSD -1
REMARK  1 active torsions:
REMARK  status: ('A' for Active; 'I' for Inactive)
REMARK    1  A    between atoms: N_2  and  C1_3 
ROOT
ATOM      1  C1  UNL d   1       0.159  -0.873  -0.239  0.00  0.00     0.143 A 
ATOM      2  C2  UNL d   1       0.135   0.412  -0.792  0.00  0.00    -0.057 A 
ATOM      3  C3  UNL d   1      -0.420   1.492  -0.096  0.00  0.00     0.033 A 
ATOM      4  C4  UNL d   1      -0.988   1.301   1.159  0.00  0.00    -0.042 A 
ATOM      5  C5  UNL d   1      -0.998   0.028   1.719  0.00  0.00     0.033 A 
ATOM      6  C6  UNL d   1      -0.436  -1.046   1.021  0.00  0.00    -0.057 A 
ENDROOT
BRANCH   1   7
ATOM      7  N   UNL d   1       0.607  -2.006  -0.922  0.00  0.00    -0.732 N 
ATOM      8  C   UNL d   1      -0.274  -2.721  -1.820  0.00  0.00     0.284 C 
ATOM      9  H3  UNL d   1       1.557  -1.900  -1.269  0.00  0.00     0.395 HD
ENDBRANCH   1   7
TORSDOF 1
ENDMDL
