MODEL 1
REMARK minimizedAffinity 0.224267319
REMARK minimizedRMSD -1
REMARK  1 active torsions:
REMARK  status: ('A' for Active; 'I' for Inactive)
REMARK    1  A    between atoms: N_2  and  C1_3 
ROOT
ATOM      1  C1  UNL d   1       0.590  -0.761  -1.054  0.00  0.00     0.143 A 
ATOM      2  C2  UNL d   1       0.853   0.478  -1.647  0.00  0.00    -0.057 A 
ATOM      3  C3  UNL d   1       0.162   1.632  -1.258  0.00  0.00     0.033 A 
ATOM      4  C4  UNL d   1      -0.829   1.561  -0.285  0.00  0.00    -0.042 A 
ATOM      5  C5  UNL d   1      -1.126   0.335   0.301  0.00  0.00     0.033 A 
ATOM      6  C6  UNL d   1      -0.427  -0.812  -0.087  0.00  0.00    -0.057 A 
ENDROOT
BRANCH   1   7
ATOM      7  N   UNL d   1       1.173  -1.961  -1.466  0.00  0.00    -0.732 N 
ATOM      8  C   UNL d   1       0.479  -2.843  -2.380  0.00  0.00     0.284 C 
ATOM      9  H3  UNL d   1       2.168  -1.864  -1.657  0.00  0.00     0.395 HD
ENDBRANCH   1   7
TORSDOF 1
ENDMDL
