MODEL 1
REMARK minimizedAffinity -3.94119239
REMARK minimizedRMSD -1
REMARK  1 active torsions:
REMARK  status: ('A' for Active; 'I' for Inactive)
REMARK    1  A    between atoms: N_2  and  C1_3 
ROOT
ATOM      1  C1  UNL d   1      -0.440   0.754   0.066  0.00  0.00     0.143 A 
ATOM      2  C2  UNL d   1       0.299  -0.412  -0.161  0.00  0.00    -0.057 A 
ATOM      3  C3  UNL d   1       0.436  -1.390   0.832  0.00  0.00     0.033 A 
ATOM      4  C4  UNL d   1      -0.142  -1.204   2.084  0.00  0.00    -0.042 A 
ATOM      5  C5  UNL d   1      -0.860  -0.041   2.340  0.00  0.00     0.033 A 
ATOM      6  C6  UNL d   1      -0.999   0.928   1.342  0.00  0.00    -0.057 A 
ENDROOT
BRANCH   1   7
ATOM      7  N   UNL d   1      -0.531   1.808  -0.846  0.00  0.00    -0.732 N 
ATOM      8  C   UNL d   1       0.652   2.309  -1.513  0.00  0.00     0.284 C 
ATOM      9  H3  UNL d   1      -1.347   1.730  -1.450  0.00  0.00     0.395 HD
ENDBRANCH   1   7
TORSDOF 1
ENDMDL
