MODEL 1
REMARK minimizedAffinity -4.8063488
REMARK minimizedRMSD -1
REMARK  1 active torsions:
REMARK  status: ('A' for Active; 'I' for Inactive)
REMARK    1  A    between atoms: N_2  and  C1_3 
ROOT
ATOM      1  C1  UNL d   1       0.122   0.358   0.180  0.00  0.00     0.143 A 
ATOM      2  C2  UNL d   1      -0.103  -0.011   1.511  0.00  0.00    -0.057 A 
ATOM      3  C3  UNL d   1      -0.855   0.798   2.371  0.00  0.00     0.033 A 
ATOM      4  C4  UNL d   1      -1.373   2.008   1.923  0.00  0.00    -0.042 A 
ATOM      5  C5  UNL d   1      -1.141   2.407   0.611  0.00  0.00     0.033 A 
ATOM      6  C6  UNL d   1      -0.395   1.592  -0.246  0.00  0.00    -0.057 A 
ENDROOT
BRANCH   1   7
ATOM      7  N   UNL d   1       0.943  -0.355  -0.697  0.00  0.00    -0.732 N 
ATOM      8  C   UNL d   1       0.501  -1.610  -1.265  0.00  0.00     0.284 C 
ATOM      9  H3  UNL d   1       1.428   0.252  -1.355  0.00  0.00     0.395 HD
ENDBRANCH   1   7
TORSDOF 1
ENDMDL
