MODEL 1
REMARK minimizedAffinity -5.17970514
REMARK minimizedRMSD -1
REMARK  1 active torsions:
REMARK  status: ('A' for Active; 'I' for Inactive)
REMARK    1  A    between atoms: N_2  and  C1_3 
ROOT
ATOM      1  C1  UNL d   1      -0.343   0.987  -0.367  0.00  0.00     0.143 A 
ATOM      2  C2  UNL d   1      -0.702   0.819   0.975  0.00  0.00    -0.057 A 
ATOM      3  C3  UNL d   1      -1.345   1.838   1.688  0.00  0.00     0.033 A 
ATOM      4  C4  UNL d   1      -1.616   3.058   1.078  0.00  0.00    -0.042 A 
ATOM      5  C5  UNL d   1      -1.246   3.257  -0.248  0.00  0.00     0.033 A 
ATOM      6  C6  UNL d   1      -0.610   2.233  -0.957  0.00  0.00    -0.057 A 
ENDROOT
BRANCH   1   7
ATOM      7  N   UNL d   1       0.386   0.049  -1.101  0.00  0.00    -0.732 N 
ATOM      8  C   UNL d   1       1.159  -0.974  -0.429  0.00  0.00     0.284 C 
ATOM      9  H3  UNL d   1      -0.121  -0.283  -1.919  0.00  0.00     0.395 HD
ENDBRANCH   1   7
TORSDOF 1
ENDMDL
