MODEL 1
REMARK minimizedAffinity -4.98963928
REMARK minimizedRMSD -1
REMARK  1 active torsions:
REMARK  status: ('A' for Active; 'I' for Inactive)
REMARK    1  A    between atoms: N_2  and  C1_3 
ROOT
ATOM      1  C1  UNL d   1      -0.330   1.047   0.017  0.00  0.00     0.143 A 
ATOM      2  C2  UNL d   1      -1.314   1.581   0.856  0.00  0.00    -0.057 A 
ATOM      3  C3  UNL d   1      -1.737   2.909   0.725  0.00  0.00     0.033 A 
ATOM      4  C4  UNL d   1      -1.162   3.737  -0.232  0.00  0.00    -0.042 A 
ATOM      5  C5  UNL d   1      -0.165   3.235  -1.061  0.00  0.00     0.033 A 
ATOM      6  C6  UNL d   1       0.249   1.906  -0.930  0.00  0.00    -0.057 A 
ENDROOT
BRANCH   1   7
ATOM      7  N   UNL d   1       0.203  -0.236   0.162  0.00  0.00    -0.732 N 
ATOM      8  C   UNL d   1       1.187  -0.736  -0.775  0.00  0.00     0.284 C 
ATOM      9  H3  UNL d   1       0.399  -0.468   1.133  0.00  0.00     0.395 HD
ENDBRANCH   1   7
TORSDOF 1
ENDMDL
