MODEL 1
REMARK minimizedAffinity -4.48005104
REMARK minimizedRMSD -1
REMARK  1 active torsions:
REMARK  status: ('A' for Active; 'I' for Inactive)
REMARK    1  A    between atoms: N_2  and  C1_3 
ROOT
ATOM      1  C1  UNL d   1       0.093   0.067  -0.004  0.00  0.00     0.143 A 
ATOM      2  C2  UNL d   1      -0.548   1.158  -0.601  0.00  0.00    -0.057 A 
ATOM      3  C3  UNL d   1      -1.537   1.879   0.078  0.00  0.00     0.033 A 
ATOM      4  C4  UNL d   1      -1.923   1.504   1.361  0.00  0.00    -0.042 A 
ATOM      5  C5  UNL d   1      -1.317   0.408   1.964  0.00  0.00     0.033 A 
ATOM      6  C6  UNL d   1      -0.325  -0.305   1.283  0.00  0.00    -0.057 A 
ENDROOT
BRANCH   1   7
ATOM      7  N   UNL d   1       1.014  -0.751  -0.665  0.00  0.00    -0.732 N 
ATOM      8  C   UNL d   1       0.563  -1.788  -1.567  0.00  0.00     0.284 C 
ATOM      9  H3  UNL d   1       1.824  -0.233  -0.998  0.00  0.00     0.395 HD
ENDBRANCH   1   7
TORSDOF 1
ENDMDL
