MODEL 1
REMARK minimizedAffinity -4.34776402
REMARK minimizedRMSD -1
REMARK  1 active torsions:
REMARK  status: ('A' for Active; 'I' for Inactive)
REMARK    1  A    between atoms: N_2  and  C1_3 
ROOT
ATOM      1  C1  UNL d   1       0.300  -0.112  -0.301  0.00  0.00     0.143 A 
ATOM      2  C2  UNL d   1       0.024  -0.505   1.013  0.00  0.00    -0.057 A 
ATOM      3  C3  UNL d   1      -0.953   0.146   1.776  0.00  0.00     0.033 A 
ATOM      4  C4  UNL d   1      -1.654   1.224   1.245  0.00  0.00    -0.042 A 
ATOM      5  C5  UNL d   1      -1.379   1.648  -0.050  0.00  0.00     0.033 A 
ATOM      6  C6  UNL d   1      -0.406   0.990  -0.809  0.00  0.00    -0.057 A 
ENDROOT
BRANCH   1   7
ATOM      7  N   UNL d   1       1.328  -0.655  -1.076  0.00  0.00    -0.732 N 
ATOM      8  C   UNL d   1       1.143  -1.912  -1.769  0.00  0.00     0.284 C 
ATOM      9  H3  UNL d   1       1.819   0.051  -1.619  0.00  0.00     0.395 HD
ENDBRANCH   1   7
TORSDOF 1
ENDMDL
