MODEL 1
REMARK minimizedAffinity -3.73409629
REMARK minimizedRMSD -1
REMARK  1 active torsions:
REMARK  status: ('A' for Active; 'I' for Inactive)
REMARK    1  A    between atoms: N_2  and  C1_3 
ROOT
ATOM      1  C1  UNL d   1       0.051  -0.346   0.050  0.00  0.00     0.143 A 
ATOM      2  C2  UNL d   1      -0.395  -0.450   1.372  0.00  0.00    -0.057 A 
ATOM      3  C3  UNL d   1      -1.246   0.513   1.929  0.00  0.00     0.033 A 
ATOM      4  C4  UNL d   1      -1.644   1.615   1.180  0.00  0.00    -0.042 A 
ATOM      5  C5  UNL d   1      -1.193   1.752  -0.128  0.00  0.00     0.033 A 
ATOM      6  C6  UNL d   1      -0.349   0.784  -0.681  0.00  0.00    -0.057 A 
ENDROOT
BRANCH   1   7
ATOM      7  N   UNL d   1       0.976  -1.218  -0.529  0.00  0.00    -0.732 N 
ATOM      8  C   UNL d   1       0.580  -2.106  -1.601  0.00  0.00     0.284 C 
ATOM      9  H3  UNL d   1       1.887  -0.785  -0.663  0.00  0.00     0.395 HD
ENDBRANCH   1   7
TORSDOF 1
ENDMDL
