MODEL 1
REMARK minimizedAffinity -3.40397048
REMARK minimizedRMSD -1
REMARK  1 active torsions:
REMARK  status: ('A' for Active; 'I' for Inactive)
REMARK    1  A    between atoms: N_2  and  C1_3 
ROOT
ATOM      1  C1  UNL d   1       0.189  -0.047   0.053  0.00  0.00     0.143 A 
ATOM      2  C2  UNL d   1       0.292  -0.049   1.448  0.00  0.00    -0.057 A 
ATOM      3  C3  UNL d   1      -0.482   0.813   2.234  0.00  0.00     0.033 A 
ATOM      4  C4  UNL d   1      -1.355   1.716   1.635  0.00  0.00    -0.042 A 
ATOM      5  C5  UNL d   1      -1.455   1.752   0.248  0.00  0.00     0.033 A 
ATOM      6  C6  UNL d   1      -0.684   0.884  -0.531  0.00  0.00    -0.057 A 
ENDROOT
BRANCH   1   7
ATOM      7  N   UNL d   1       1.003  -0.811  -0.787  0.00  0.00    -0.732 N 
ATOM      8  C   UNL d   1       0.462  -1.945  -1.506  0.00  0.00     0.284 C 
ATOM      9  H3  UNL d   1       1.642  -0.239  -1.334  0.00  0.00     0.395 HD
ENDBRANCH   1   7
TORSDOF 1
ENDMDL
