MODEL 1
REMARK minimizedAffinity 0.584758759
REMARK minimizedRMSD -1
REMARK  1 active torsions:
REMARK  status: ('A' for Active; 'I' for Inactive)
REMARK    1  A    between atoms: N_2  and  C1_3 
ROOT
ATOM      1  C1  UNL d   1       1.350   1.501  -0.370  0.00  0.00     0.143 A 
ATOM      2  C2  UNL d   1      -0.019   1.740  -0.203  0.00  0.00    -0.057 A 
ATOM      3  C3  UNL d   1      -0.913   0.693   0.051  0.00  0.00     0.033 A 
ATOM      4  C4  UNL d   1      -0.456  -0.619   0.116  0.00  0.00    -0.042 A 
ATOM      5  C5  UNL d   1       0.896  -0.883  -0.071  0.00  0.00     0.033 A 
ATOM      6  C6  UNL d   1       1.785   0.168  -0.319  0.00  0.00    -0.057 A 
ENDROOT
BRANCH   1   7
ATOM      7  N   UNL d   1       2.274   2.488  -0.723  0.00  0.00    -0.732 N 
ATOM      8  C   UNL d   1       3.479   2.143  -1.446  0.00  0.00     0.284 C 
ATOM      9  H3  UNL d   1       1.826   3.342  -1.045  0.00  0.00     0.395 HD
ENDBRANCH   1   7
TORSDOF 1
ENDMDL
