MODEL 1
REMARK minimizedAffinity 2.78512478
REMARK minimizedRMSD -1
REMARK  1 active torsions:
REMARK  status: ('A' for Active; 'I' for Inactive)
REMARK    1  A    between atoms: N_2  and  C1_3 
ROOT
ATOM      1  C1  UNL d   1      -5.047  -4.990   1.695  0.00  0.00     0.143 A 
ATOM      2  C2  UNL d   1      -4.491  -3.872   1.063  0.00  0.00    -0.057 A 
ATOM      3  C3  UNL d   1      -4.504  -3.745  -0.331  0.00  0.00     0.033 A 
ATOM      4  C4  UNL d   1      -5.049  -4.750  -1.122  0.00  0.00    -0.042 A 
ATOM      5  C5  UNL d   1      -5.585  -5.882  -0.517  0.00  0.00     0.033 A 
ATOM      6  C6  UNL d   1      -5.575  -6.000   0.876  0.00  0.00    -0.057 A 
ENDROOT
BRANCH   1   7
ATOM      7  N   UNL d   1      -4.977  -5.221   3.071  0.00  0.00    -0.732 N 
ATOM      8  C   UNL d   1      -5.996  -6.000   3.740  0.00  0.00     0.284 C 
ATOM      9  H3  UNL d   1      -4.029  -5.419   3.384  0.00  0.00     0.395 HD
ENDBRANCH   1   7
TORSDOF 1
ENDMDL
