MODEL 1
REMARK minimizedAffinity -3.46088743
REMARK minimizedRMSD -1
REMARK  1 active torsions:
REMARK  status: ('A' for Active; 'I' for Inactive)
REMARK    1  A    between atoms: N_2  and  C1_3 
ROOT
ATOM      1  C1  UNL d   1      -1.243  -2.328   0.759  0.00  0.00     0.143 A 
ATOM      2  C2  UNL d   1      -0.174  -3.157   0.404  0.00  0.00    -0.057 A 
ATOM      3  C3  UNL d   1       1.129  -2.656   0.294  0.00  0.00     0.033 A 
ATOM      4  C4  UNL d   1       1.382  -1.305   0.510  0.00  0.00    -0.042 A 
ATOM      5  C5  UNL d   1       0.330  -0.457   0.840  0.00  0.00     0.033 A 
ATOM      6  C6  UNL d   1      -0.967  -0.965   0.954  0.00  0.00    -0.057 A 
ENDROOT
BRANCH   1   7
ATOM      7  N   UNL d   1      -2.575  -2.746   0.788  0.00  0.00    -0.732 N 
ATOM      8  C   UNL d   1      -3.191  -3.328  -0.385  0.00  0.00     0.284 C 
ATOM      9  H3  UNL d   1      -2.817  -3.212   1.659  0.00  0.00     0.395 HD
ENDBRANCH   1   7
TORSDOF 1
ENDMDL
