MODEL 1
REMARK minimizedAffinity 5.1258564
REMARK minimizedRMSD -1
REMARK  1 active torsions:
REMARK  status: ('A' for Active; 'I' for Inactive)
REMARK    1  A    between atoms: N_2  and  C1_3 
ROOT
ATOM      1  C1  UNL d   1       1.447   3.739  -1.607  0.00  0.00     0.143 A 
ATOM      2  C2  UNL d   1       0.699   2.600  -1.290  0.00  0.00    -0.057 A 
ATOM      3  C3  UNL d   1       1.323   1.390  -0.962  0.00  0.00     0.033 A 
ATOM      4  C4  UNL d   1       2.711   1.291  -0.972  0.00  0.00    -0.042 A 
ATOM      5  C5  UNL d   1       3.473   2.404  -1.308  0.00  0.00     0.033 A 
ATOM      6  C6  UNL d   1       2.844   3.611  -1.628  0.00  0.00    -0.057 A 
ENDROOT
BRANCH   1   7
ATOM      7  N   UNL d   1       0.884   4.943  -2.038  0.00  0.00    -0.732 N 
ATOM      8  C   UNL d   1       0.470   5.113  -3.414  0.00  0.00     0.284 C 
ATOM      9  H3  UNL d   1       0.237   5.335  -1.357  0.00  0.00     0.395 HD
ENDBRANCH   1   7
TORSDOF 1
ENDMDL
