MODEL 1
REMARK minimizedAffinity 1.43079305
REMARK minimizedRMSD -1
REMARK  1 active torsions:
REMARK  status: ('A' for Active; 'I' for Inactive)
REMARK    1  A    between atoms: N_2  and  C1_3 
ROOT
ATOM      1  C1  UNL d   1      -4.332  -5.307  -0.483  0.00  0.00     0.143 A 
ATOM      2  C2  UNL d   1      -3.899  -4.005  -0.757  0.00  0.00    -0.057 A 
ATOM      3  C3  UNL d   1      -4.156  -3.399  -1.993  0.00  0.00     0.033 A 
ATOM      4  C4  UNL d   1      -4.827  -4.098  -2.991  0.00  0.00    -0.042 A 
ATOM      5  C5  UNL d   1      -5.244  -5.402  -2.750  0.00  0.00     0.033 A 
ATOM      6  C6  UNL d   1      -4.991  -5.999  -1.512  0.00  0.00    -0.057 A 
ENDROOT
BRANCH   1   7
ATOM      7  N   UNL d   1      -4.022  -5.999   0.690  0.00  0.00    -0.732 N 
ATOM      8  C   UNL d   1      -3.976  -5.311   1.962  0.00  0.00     0.284 C 
ATOM      9  H3  UNL d   1      -4.464  -6.915   0.729  0.00  0.00     0.395 HD
ENDBRANCH   1   7
TORSDOF 1
ENDMDL
