MODEL 1
REMARK minimizedAffinity 8.62220955
REMARK minimizedRMSD -1
REMARK  1 active torsions:
REMARK  status: ('A' for Active; 'I' for Inactive)
REMARK    1  A    between atoms: N_2  and  C1_3 
ROOT
ATOM      1  C1  UNL d   1      -0.134   4.222  -4.111  0.00  0.00     0.143 A 
ATOM      2  C2  UNL d   1      -1.130   3.567  -4.843  0.00  0.00    -0.057 A 
ATOM      3  C3  UNL d   1      -2.162   2.870  -4.203  0.00  0.00     0.033 A 
ATOM      4  C4  UNL d   1      -2.200   2.792  -2.815  0.00  0.00    -0.042 A 
ATOM      5  C5  UNL d   1      -1.207   3.415  -2.067  0.00  0.00     0.033 A 
ATOM      6  C6  UNL d   1      -0.182   4.115  -2.713  0.00  0.00    -0.057 A 
ENDROOT
BRANCH   1   7
ATOM      7  N   UNL d   1       0.972   4.848  -4.691  0.00  0.00    -0.732 N 
ATOM      8  C   UNL d   1       2.125   4.076  -5.101  0.00  0.00     0.284 C 
ATOM      9  H3  UNL d   1       0.706   5.578  -5.348  0.00  0.00     0.395 HD
ENDBRANCH   1   7
TORSDOF 1
ENDMDL
