MODEL 1
REMARK minimizedAffinity 9.08823586
REMARK minimizedRMSD -1
REMARK  1 active torsions:
REMARK  status: ('A' for Active; 'I' for Inactive)
REMARK    1  A    between atoms: N_2  and  C1_3 
ROOT
ATOM      1  C1  UNL d   1       1.908  -0.284   0.745  0.00  0.00     0.143 A 
ATOM      2  C2  UNL d   1       0.983  -0.955   1.552  0.00  0.00    -0.057 A 
ATOM      3  C3  UNL d   1      -0.355  -0.549   1.615  0.00  0.00     0.033 A 
ATOM      4  C4  UNL d   1      -0.787   0.558   0.892  0.00  0.00    -0.042 A 
ATOM      5  C5  UNL d   1       0.121   1.255   0.102  0.00  0.00     0.033 A 
ATOM      6  C6  UNL d   1       1.454   0.841   0.038  0.00  0.00    -0.057 A 
ENDROOT
BRANCH   1   7
ATOM      7  N   UNL d   1       3.274  -0.579   0.716  0.00  0.00    -0.732 N 
ATOM      8  C   UNL d   1       4.135  -0.190   1.812  0.00  0.00     0.284 C 
ATOM      9  H3  UNL d   1       3.462  -1.509   0.349  0.00  0.00     0.395 HD
ENDBRANCH   1   7
TORSDOF 1
ENDMDL
