MODEL 1
REMARK minimizedAffinity 6.39123487
REMARK minimizedRMSD -1
REMARK  1 active torsions:
REMARK  status: ('A' for Active; 'I' for Inactive)
REMARK    1  A    between atoms: N_2  and  C1_3 
ROOT
ATOM      1  C1  UNL d   1       2.096   2.818  -0.641  0.00  0.00     0.143 A 
ATOM      2  C2  UNL d   1       2.184   1.661   0.140  0.00  0.00    -0.057 A 
ATOM      3  C3  UNL d   1       3.319   0.842   0.100  0.00  0.00     0.033 A 
ATOM      4  C4  UNL d   1       4.378   1.152  -0.747  0.00  0.00    -0.042 A 
ATOM      5  C5  UNL d   1       4.302   2.284  -1.551  0.00  0.00     0.033 A 
ATOM      6  C6  UNL d   1       3.168   3.101  -1.502  0.00  0.00    -0.057 A 
ENDROOT
BRANCH   1   7
ATOM      7  N   UNL d   1       0.954   3.618  -0.719  0.00  0.00    -0.732 N 
ATOM      8  C   UNL d   1       0.432   4.035  -2.003  0.00  0.00     0.284 C 
ATOM      9  H3  UNL d   1       0.239   3.342  -0.050  0.00  0.00     0.395 HD
ENDBRANCH   1   7
TORSDOF 1
ENDMDL
