MODEL 1
REMARK minimizedAffinity 9.81479263
REMARK minimizedRMSD -1
REMARK  1 active torsions:
REMARK  status: ('A' for Active; 'I' for Inactive)
REMARK    1  A    between atoms: N_2  and  C1_3 
ROOT
ATOM      1  C1  UNL d   1       1.710  -0.665   1.719  0.00  0.00     0.143 A 
ATOM      2  C2  UNL d   1       0.691  -0.410   2.644  0.00  0.00    -0.057 A 
ATOM      3  C3  UNL d   1      -0.425  -1.250   2.745  0.00  0.00     0.033 A 
ATOM      4  C4  UNL d   1      -0.556  -2.347   1.899  0.00  0.00    -0.042 A 
ATOM      5  C5  UNL d   1       0.432  -2.605   0.956  0.00  0.00     0.033 A 
ATOM      6  C6  UNL d   1       1.547  -1.767   0.865  0.00  0.00    -0.057 A 
ENDROOT
BRANCH   1   7
ATOM      7  N   UNL d   1       2.795   0.187   1.503  0.00  0.00    -0.732 N 
ATOM      8  C   UNL d   1       4.035  -0.001   2.226  0.00  0.00     0.284 C 
ATOM      9  H3  UNL d   1       2.918   0.419   0.520  0.00  0.00     0.395 HD
ENDBRANCH   1   7
TORSDOF 1
ENDMDL
