MODEL 1
REMARK minimizedAffinity -0.196051627
REMARK minimizedRMSD -1
REMARK  1 active torsions:
REMARK  status: ('A' for Active; 'I' for Inactive)
REMARK    1  A    between atoms: N_2  and  C1_3 
ROOT
ATOM      1  C1  UNL d   1       0.393  -0.991   0.024  0.00  0.00     0.143 A 
ATOM      2  C2  UNL d   1       0.828  -0.926  -1.304  0.00  0.00    -0.057 A 
ATOM      3  C3  UNL d   1       0.418   0.109  -2.153  0.00  0.00     0.033 A 
ATOM      4  C4  UNL d   1      -0.461   1.084  -1.695  0.00  0.00    -0.042 A 
ATOM      5  C5  UNL d   1      -0.926   1.026  -0.386  0.00  0.00     0.033 A 
ATOM      6  C6  UNL d   1      -0.507  -0.006   0.458  0.00  0.00    -0.057 A 
ENDROOT
BRANCH   1   7
ATOM      7  N   UNL d   1       0.688  -2.049   0.888  0.00  0.00    -0.732 N 
ATOM      8  C   UNL d   1       0.186  -2.053   2.245  0.00  0.00     0.284 C 
ATOM      9  H3  UNL d   1       0.641  -2.953   0.425  0.00  0.00     0.395 HD
ENDBRANCH   1   7
TORSDOF 1
ENDMDL
