MODEL 1
REMARK minimizedAffinity 9.24053669
REMARK minimizedRMSD -1
REMARK  1 active torsions:
REMARK  status: ('A' for Active; 'I' for Inactive)
REMARK    1  A    between atoms: N_2  and  C1_3 
ROOT
ATOM      1  C1  UNL d   1       1.876   2.348  -0.860  0.00  0.00     0.143 A 
ATOM      2  C2  UNL d   1       1.647   1.080  -0.314  0.00  0.00    -0.057 A 
ATOM      3  C3  UNL d   1       2.498   0.004  -0.595  0.00  0.00     0.033 A 
ATOM      4  C4  UNL d   1       3.580   0.171  -1.453  0.00  0.00    -0.042 A 
ATOM      5  C5  UNL d   1       3.812   1.416  -2.027  0.00  0.00     0.033 A 
ATOM      6  C6  UNL d   1       2.963   2.488  -1.737  0.00  0.00    -0.057 A 
ENDROOT
BRANCH   1   7
ATOM      7  N   UNL d   1       1.010   3.432  -0.698  0.00  0.00    -0.732 N 
ATOM      8  C   UNL d   1       0.228   3.924  -1.811  0.00  0.00     0.284 C 
ATOM      9  H3  UNL d   1       0.503   3.396   0.183  0.00  0.00     0.395 HD
ENDBRANCH   1   7
TORSDOF 1
ENDMDL
