MODEL 1
REMARK minimizedAffinity -2.40341806
REMARK minimizedRMSD -1
REMARK  1 active torsions:
REMARK  status: ('A' for Active; 'I' for Inactive)
REMARK    1  A    between atoms: N_2  and  C1_3 
ROOT
ATOM      1  C1  UNL d   1       0.060  -0.583   0.443  0.00  0.00     0.143 A 
ATOM      2  C2  UNL d   1      -0.576  -1.821   0.584  0.00  0.00    -0.057 A 
ATOM      3  C3  UNL d   1       0.140  -3.021   0.484  0.00  0.00     0.033 A 
ATOM      4  C4  UNL d   1       1.504  -3.003   0.211  0.00  0.00    -0.042 A 
ATOM      5  C5  UNL d   1       2.152  -1.785   0.042  0.00  0.00     0.033 A 
ATOM      6  C6  UNL d   1       1.433  -0.590   0.149  0.00  0.00    -0.057 A 
ENDROOT
BRANCH   1   7
ATOM      7  N   UNL d   1      -0.614   0.641   0.433  0.00  0.00    -0.732 N 
ATOM      8  C   UNL d   1      -0.143   1.735  -0.388  0.00  0.00     0.284 C 
ATOM      9  H3  UNL d   1      -1.625   0.528   0.435  0.00  0.00     0.395 HD
ENDBRANCH   1   7
TORSDOF 1
ENDMDL
