MODEL 1
REMARK minimizedAffinity 12.6616545
REMARK minimizedRMSD -1
REMARK  1 active torsions:
REMARK  status: ('A' for Active; 'I' for Inactive)
REMARK    1  A    between atoms: N_2  and  C1_3 
ROOT
ATOM      1  C1  UNL d   1      -2.674  -3.722  -2.622  0.00  0.00     0.143 A 
ATOM      2  C2  UNL d   1      -3.601  -3.364  -1.637  0.00  0.00    -0.057 A 
ATOM      3  C3  UNL d   1      -4.474  -4.309  -1.085  0.00  0.00     0.033 A 
ATOM      4  C4  UNL d   1      -4.454  -5.627  -1.529  0.00  0.00    -0.042 A 
ATOM      5  C5  UNL d   1      -3.558  -6.000  -2.525  0.00  0.00     0.033 A 
ATOM      6  C6  UNL d   1      -2.684  -5.053  -3.068  0.00  0.00    -0.057 A 
ENDROOT
BRANCH   1   7
ATOM      7  N   UNL d   1      -1.847  -2.808  -3.280  0.00  0.00    -0.732 N 
ATOM      8  C   UNL d   1      -0.423  -2.788  -3.028  0.00  0.00     0.284 C 
ATOM      9  H3  UNL d   1      -2.098  -2.694  -4.260  0.00  0.00     0.395 HD
ENDBRANCH   1   7
TORSDOF 1
ENDMDL
