MODEL 1
REMARK minimizedAffinity -1.11596859
REMARK minimizedRMSD -1
REMARK  1 active torsions:
REMARK  status: ('A' for Active; 'I' for Inactive)
REMARK    1  A    between atoms: N_2  and  C1_3 
ROOT
ATOM      1  C1  UNL d   1       5.099  -1.454  -4.101  0.00  0.00     0.143 A 
ATOM      2  C2  UNL d   1       6.000  -2.414  -3.629  0.00  0.00    -0.057 A 
ATOM      3  C3  UNL d   1       5.968  -3.733  -4.099  0.00  0.00     0.033 A 
ATOM      4  C4  UNL d   1       5.012  -4.122  -5.031  0.00  0.00    -0.042 A 
ATOM      5  C5  UNL d   1       4.090  -3.191  -5.496  0.00  0.00     0.033 A 
ATOM      6  C6  UNL d   1       4.132  -1.874  -5.028  0.00  0.00    -0.057 A 
ENDROOT
BRANCH   1   7
ATOM      7  N   UNL d   1       5.016  -0.152  -3.601  0.00  0.00    -0.732 N 
ATOM      8  C   UNL d   1       4.048   0.185  -2.580  0.00  0.00     0.284 C 
ATOM      9  H3  UNL d   1       5.932   0.269  -3.461  0.00  0.00     0.395 HD
ENDBRANCH   1   7
TORSDOF 1
ENDMDL
