MODEL 1
REMARK minimizedAffinity -4.59840298
REMARK minimizedRMSD -1
REMARK  1 active torsions:
REMARK  status: ('A' for Active; 'I' for Inactive)
REMARK    1  A    between atoms: C1_2  and  C2_3 
ROOT
ATOM      1  C2  UNL d   1       1.131  -0.770  -0.232  0.00  0.00    -0.077 A 
ATOM      2  C3  UNL d   1       0.856   0.399   0.491  0.00  0.00     0.002 A 
ATOM      3  C4  UNL d   1      -0.378   1.039   0.356  0.00  0.00     0.002 A 
ATOM      4  C5  UNL d   1      -1.347   0.515  -0.498  0.00  0.00    -0.004 A 
ATOM      5  C6  UNL d   1      -1.081  -0.646  -1.223  0.00  0.00     0.002 A 
ATOM      6  C7  UNL d   1       0.152  -1.286  -1.090  0.00  0.00     0.002 A 
ENDROOT
BRANCH   1   7
ATOM      7  C1  UNL d   1       2.443  -1.488  -0.051  0.00  0.00     0.055 C 
ATOM      8  C   UNL d   1       2.896  -1.455   1.402  0.00  0.00     0.019 C 
ENDBRANCH   1   7
TORSDOF 1
ENDMDL
