MODEL 1
REMARK minimizedAffinity -4.72103071
REMARK minimizedRMSD -1
REMARK  1 active torsions:
REMARK  status: ('A' for Active; 'I' for Inactive)
REMARK    1  A    between atoms: C1_2  and  C2_3 
ROOT
ATOM      1  C2  UNL d   1       1.169  -0.667   0.466  0.00  0.00    -0.077 A 
ATOM      2  C3  UNL d   1       0.182  -1.349  -0.259  0.00  0.00     0.002 A 
ATOM      3  C4  UNL d   1      -0.915  -0.659  -0.779  0.00  0.00     0.002 A 
ATOM      4  C5  UNL d   1      -1.033   0.716  -0.583  0.00  0.00    -0.004 A 
ATOM      5  C6  UNL d   1      -0.057   1.402   0.138  0.00  0.00     0.002 A 
ATOM      6  C7  UNL d   1       1.040   0.714   0.659  0.00  0.00     0.002 A 
ENDROOT
BRANCH   1   7
ATOM      7  C1  UNL d   1       2.378  -1.401   0.985  0.00  0.00     0.055 C 
ATOM      8  C   UNL d   1       3.022  -2.247  -0.105  0.00  0.00     0.019 C 
ENDBRANCH   1   7
TORSDOF 1
ENDMDL
