MODEL 1
REMARK minimizedAffinity -4.6244607
REMARK minimizedRMSD -1
REMARK  1 active torsions:
REMARK  status: ('A' for Active; 'I' for Inactive)
REMARK    1  A    between atoms: C1_2  and  C2_3 
ROOT
ATOM      1  C2  UNL d   1      -1.211   0.406   0.033  0.00  0.00    -0.077 A 
ATOM      2  C3  UNL d   1      -1.082  -0.835  -0.607  0.00  0.00     0.002 A 
ATOM      3  C4  UNL d   1       0.121  -1.540  -0.542  0.00  0.00     0.002 A 
ATOM      4  C5  UNL d   1       1.202  -1.016   0.164  0.00  0.00    -0.004 A 
ATOM      5  C6  UNL d   1       1.083   0.218   0.802  0.00  0.00     0.002 A 
ATOM      6  C7  UNL d   1      -0.118   0.925   0.738  0.00  0.00     0.002 A 
ENDROOT
BRANCH   1   7
ATOM      7  C1  UNL d   1      -2.523   1.146   0.006  0.00  0.00     0.055 C 
ATOM      8  C   UNL d   1      -2.935   1.593   1.401  0.00  0.00     0.019 C 
ENDBRANCH   1   7
TORSDOF 1
ENDMDL
