MODEL 1
REMARK minimizedAffinity -5.62303782
REMARK minimizedRMSD -1
REMARK  1 active torsions:
REMARK  status: ('A' for Active; 'I' for Inactive)
REMARK    1  A    between atoms: C1_2  and  C2_3 
ROOT
ATOM      1  C2  UNL d   1       1.353  -0.173   0.518  0.00  0.00    -0.077 A 
ATOM      2  C3  UNL d   1       1.672   1.192   0.553  0.00  0.00     0.002 A 
ATOM      3  C4  UNL d   1       0.781   2.139   0.044  0.00  0.00     0.002 A 
ATOM      4  C5  UNL d   1      -0.435   1.731  -0.501  0.00  0.00    -0.004 A 
ATOM      5  C6  UNL d   1      -0.760   0.376  -0.542  0.00  0.00     0.002 A 
ATOM      6  C7  UNL d   1       0.129  -0.572  -0.035  0.00  0.00     0.002 A 
ENDROOT
BRANCH   1   7
ATOM      7  C1  UNL d   1       2.291  -1.192   1.112  0.00  0.00     0.055 C 
ATOM      8  C   UNL d   1       3.722  -0.964   0.647  0.00  0.00     0.019 C 
ENDBRANCH   1   7
TORSDOF 1
ENDMDL
