MODEL 1
REMARK minimizedAffinity -4.05987787
REMARK minimizedRMSD -1
REMARK  1 active torsions:
REMARK  status: ('A' for Active; 'I' for Inactive)
REMARK    1  A    between atoms: C1_2  and  C2_3 
ROOT
ATOM      1  C2  UNL d   1      -0.140  -0.062  -0.264  0.00  0.00    -0.077 A 
ATOM      2  C3  UNL d   1       0.173  -1.414  -0.461  0.00  0.00     0.002 A 
ATOM      3  C4  UNL d   1       1.406  -1.921  -0.048  0.00  0.00     0.002 A 
ATOM      4  C5  UNL d   1       2.335  -1.084   0.568  0.00  0.00    -0.004 A 
ATOM      5  C6  UNL d   1       2.033   0.263   0.767  0.00  0.00     0.002 A 
ATOM      6  C7  UNL d   1       0.801   0.771   0.354  0.00  0.00     0.002 A 
ENDROOT
BRANCH   1   7
ATOM      7  C1  UNL d   1      -1.490   0.475  -0.664  0.00  0.00     0.055 C 
ATOM      8  C   UNL d   1      -2.344   0.790   0.556  0.00  0.00     0.019 C 
ENDBRANCH   1   7
TORSDOF 1
ENDMDL
