MODEL 1
REMARK minimizedAffinity -5.43529654
REMARK minimizedRMSD -1
REMARK  2 active torsions:
REMARK  status: ('A' for Active; 'I' for Inactive)
REMARK    1  A    between atoms: C1_2  and  C2_3 
REMARK    2  A    between atoms: C2_3  and  C3_4 
ROOT
ATOM      1  C3  UNL d   1      -0.524   1.576  -0.385  0.00  0.00    -0.075 A 
ATOM      2  C4  UNL d   1      -0.786   2.145   0.869  0.00  0.00     0.002 A 
ATOM      3  C5  UNL d   1      -0.973   3.522   0.997  0.00  0.00     0.002 A 
ATOM      4  C6  UNL d   1      -0.890   4.346  -0.123  0.00  0.00    -0.004 A 
ATOM      5  C7  UNL d   1      -0.613   3.793  -1.371  0.00  0.00     0.002 A 
ATOM      6  C8  UNL d   1      -0.430   2.415  -1.503  0.00  0.00     0.002 A 
ENDROOT
BRANCH   1   7
ATOM      7  C2  UNL d   1      -0.350   0.083  -0.535  0.00  0.00     0.056 C 
BRANCH   7   8
ATOM      8  C1  UNL d   1       1.050  -0.422  -0.170  0.00  0.00     0.007 C 
ATOM      9  C   UNL d   1       1.249  -0.608   1.328  0.00  0.00     0.009 C 
ENDBRANCH   7   8
ENDBRANCH   1   7
TORSDOF 2
ENDMDL
