MODEL 1
REMARK minimizedAffinity -5.8330245
REMARK minimizedRMSD -1
REMARK  2 active torsions:
REMARK  status: ('A' for Active; 'I' for Inactive)
REMARK    1  A    between atoms: C1_2  and  C2_3 
REMARK    2  A    between atoms: C2_3  and  C3_4 
ROOT
ATOM      1  C3  UNL d   1      -0.569   1.478   0.483  0.00  0.00    -0.075 A 
ATOM      2  C4  UNL d   1       0.275   0.979   1.486  0.00  0.00     0.002 A 
ATOM      3  C5  UNL d   1       1.173  -0.051   1.208  0.00  0.00     0.002 A 
ATOM      4  C6  UNL d   1       1.232  -0.602  -0.070  0.00  0.00    -0.004 A 
ATOM      5  C7  UNL d   1       0.387  -0.126  -1.070  0.00  0.00     0.002 A 
ATOM      6  C8  UNL d   1      -0.510   0.908  -0.796  0.00  0.00     0.002 A 
ENDROOT
BRANCH   1   7
ATOM      7  C2  UNL d   1      -1.522   2.614   0.769  0.00  0.00     0.056 C 
BRANCH   7   8
ATOM      8  C1  UNL d   1      -0.894   4.005   0.637  0.00  0.00     0.007 C 
ATOM      9  C   UNL d   1      -0.597   4.395  -0.805  0.00  0.00     0.009 C 
ENDBRANCH   7   8
ENDBRANCH   1   7
TORSDOF 2
ENDMDL
