MODEL 1
REMARK minimizedAffinity -1.85715771
REMARK minimizedRMSD -1
REMARK  2 active torsions:
REMARK  status: ('A' for Active; 'I' for Inactive)
REMARK    1  A    between atoms: C1_2  and  C2_3 
REMARK    2  A    between atoms: C2_3  and  C3_4 
ROOT
ATOM      1  C3  UNL d   1      -0.106   0.133  -0.721  0.00  0.00    -0.075 A 
ATOM      2  C4  UNL d   1      -0.913   0.539   0.352  0.00  0.00     0.002 A 
ATOM      3  C5  UNL d   1      -1.582   1.762   0.313  0.00  0.00     0.002 A 
ATOM      4  C6  UNL d   1      -1.446   2.599  -0.793  0.00  0.00    -0.004 A 
ATOM      5  C7  UNL d   1      -0.635   2.213  -1.858  0.00  0.00     0.002 A 
ATOM      6  C8  UNL d   1       0.033   0.988  -1.823  0.00  0.00     0.002 A 
ENDROOT
BRANCH   1   7
ATOM      7  C2  UNL d   1       0.597  -1.202  -0.698  0.00  0.00     0.056 C 
BRANCH   7   8
ATOM      8  C1  UNL d   1      -0.281  -2.378  -1.139  0.00  0.00     0.007 C 
ATOM      9  C   UNL d   1       0.454  -3.712  -1.134  0.00  0.00     0.009 C 
ENDBRANCH   7   8
ENDBRANCH   1   7
TORSDOF 2
ENDMDL
