MODEL 1
REMARK minimizedAffinity -4.24434948
REMARK minimizedRMSD -1
REMARK  2 active torsions:
REMARK  status: ('A' for Active; 'I' for Inactive)
REMARK    1  A    between atoms: C1_2  and  C2_3 
REMARK    2  A    between atoms: C2_3  and  C3_4 
ROOT
ATOM      1  C3  UNL d   1       0.052   1.607  -0.953  0.00  0.00    -0.075 A 
ATOM      2  C4  UNL d   1      -0.066   2.980  -1.212  0.00  0.00     0.002 A 
ATOM      3  C5  UNL d   1      -0.108   3.898  -0.162  0.00  0.00     0.002 A 
ATOM      4  C6  UNL d   1      -0.043   3.455   1.157  0.00  0.00    -0.004 A 
ATOM      5  C7  UNL d   1       0.058   2.092   1.427  0.00  0.00     0.002 A 
ATOM      6  C8  UNL d   1       0.104   1.172   0.378  0.00  0.00     0.002 A 
ENDROOT
BRANCH   1   7
ATOM      7  C2  UNL d   1       0.128   0.611  -2.085  0.00  0.00     0.056 C 
BRANCH   7   8
ATOM      8  C1  UNL d   1      -0.554  -0.728  -1.785  0.00  0.00     0.007 C 
ATOM      9  C   UNL d   1       0.399  -1.775  -1.224  0.00  0.00     0.009 C 
ENDBRANCH   7   8
ENDBRANCH   1   7
TORSDOF 2
ENDMDL
