MODEL 1
REMARK minimizedAffinity -4.48436975
REMARK minimizedRMSD -1
REMARK  2 active torsions:
REMARK  status: ('A' for Active; 'I' for Inactive)
REMARK    1  A    between atoms: C1_2  and  C2_3 
REMARK    2  A    between atoms: C2_3  and  C3_4 
ROOT
ATOM      1  C3  UNL d   1       0.032   0.092  -0.033  0.00  0.00    -0.075 A 
ATOM      2  C4  UNL d   1      -1.127   0.823  -0.332  0.00  0.00     0.002 A 
ATOM      3  C5  UNL d   1      -1.618   1.771   0.566  0.00  0.00     0.002 A 
ATOM      4  C6  UNL d   1      -0.966   1.992   1.776  0.00  0.00    -0.004 A 
ATOM      5  C7  UNL d   1       0.177   1.260   2.092  0.00  0.00     0.002 A 
ATOM      6  C8  UNL d   1       0.674   0.314   1.193  0.00  0.00     0.002 A 
ENDROOT
BRANCH   1   7
ATOM      7  C2  UNL d   1       0.586  -0.914  -1.013  0.00  0.00     0.056 C 
BRANCH   7   8
ATOM      8  C1  UNL d   1      -0.350  -2.095  -1.291  0.00  0.00     0.007 C 
ATOM      9  C   UNL d   1       0.380  -3.426  -1.403  0.00  0.00     0.009 C 
ENDBRANCH   7   8
ENDBRANCH   1   7
TORSDOF 2
ENDMDL
