MODEL 1
REMARK minimizedAffinity -5.88231277
REMARK minimizedRMSD -1
REMARK  2 active torsions:
REMARK  status: ('A' for Active; 'I' for Inactive)
REMARK    1  A    between atoms: C1_2  and  C2_3 
REMARK    2  A    between atoms: C2_3  and  C3_4 
ROOT
ATOM      1  C3  UNL d   1      -0.048   0.515   0.719  0.00  0.00    -0.075 A 
ATOM      2  C4  UNL d   1      -0.052   1.754   0.061  0.00  0.00     0.002 A 
ATOM      3  C5  UNL d   1      -0.642   2.870   0.654  0.00  0.00     0.002 A 
ATOM      4  C6  UNL d   1      -1.244   2.761   1.905  0.00  0.00    -0.004 A 
ATOM      5  C7  UNL d   1      -1.261   1.532   2.561  0.00  0.00     0.002 A 
ATOM      6  C8  UNL d   1      -0.667   0.414   1.972  0.00  0.00     0.002 A 
ENDROOT
BRANCH   1   7
ATOM      7  C2  UNL d   1       0.615  -0.689   0.096  0.00  0.00     0.056 C 
BRANCH   7   8
ATOM      8  C1  UNL d   1      -0.265  -1.432  -0.915  0.00  0.00     0.007 C 
ATOM      9  C   UNL d   1       0.358  -2.729  -1.414  0.00  0.00     0.009 C 
ENDBRANCH   7   8
ENDBRANCH   1   7
TORSDOF 2
ENDMDL
