MODEL 1
REMARK minimizedAffinity -1.14020705
REMARK minimizedRMSD -1
REMARK  2 active torsions:
REMARK  status: ('A' for Active; 'I' for Inactive)
REMARK    1  A    between atoms: C1_2  and  C2_3 
REMARK    2  A    between atoms: C2_3  and  C3_4 
ROOT
ATOM      1  C3  UNL d   1       0.238  -4.739  -1.217  0.00  0.00    -0.075 A 
ATOM      2  C4  UNL d   1      -0.477  -3.770  -0.499  0.00  0.00     0.002 A 
ATOM      3  C5  UNL d   1      -1.528  -3.076  -1.099  0.00  0.00     0.002 A 
ATOM      4  C6  UNL d   1      -1.869  -3.333  -2.425  0.00  0.00    -0.004 A 
ATOM      5  C7  UNL d   1      -1.155  -4.282  -3.153  0.00  0.00     0.002 A 
ATOM      6  C8  UNL d   1      -0.106  -4.981  -2.554  0.00  0.00     0.002 A 
ENDROOT
BRANCH   1   7
ATOM      7  C2  UNL d   1       1.357  -5.515  -0.565  0.00  0.00     0.056 C 
BRANCH   7   8
ATOM      8  C1  UNL d   1       2.730  -4.843  -0.676  0.00  0.00     0.007 C 
ATOM      9  C   UNL d   1       3.864  -5.699  -0.126  0.00  0.00     0.009 C 
ENDBRANCH   7   8
ENDBRANCH   1   7
TORSDOF 2
ENDMDL
