MODEL 1
REMARK minimizedAffinity -3.20620203
REMARK minimizedRMSD -1
REMARK  0 active torsions:
REMARK  status: ('A' for Active; 'I' for Inactive)
ROOT
ATOM      1  C   UNL d   1      -4.878   1.130  -1.871  0.00  0.00     0.077 C 
ATOM      2  C1  UNL d   1      -4.880   2.489  -1.235  0.00  0.00    -0.074 A 
ATOM      3  C2  UNL d   1      -6.000   2.955  -0.539  0.00  0.00    -0.005 A 
ATOM      4  C3  UNL d   1      -5.984   4.217   0.055  0.00  0.00     0.006 A 
ATOM      5  C4  UNL d   1      -4.850   5.024  -0.041  0.00  0.00    -0.005 A 
ATOM      6  C5  UNL d   1      -3.720   4.574  -0.733  0.00  0.00    -0.074 A 
ATOM      7  C6  UNL d   1      -2.490   5.425  -0.838  0.00  0.00     0.077 C 
ATOM      8  C7  UNL d   1      -3.742   3.302  -1.321  0.00  0.00    -0.001 A 
ENDROOT
TORSDOF 0
ENDMDL
