MODEL 1
REMARK minimizedAffinity -3.22986221
REMARK minimizedRMSD -1
REMARK  0 active torsions:
REMARK  status: ('A' for Active; 'I' for Inactive)
ROOT
ATOM      1  C   UNL d   1      -0.961   1.804   1.915  0.00  0.00     0.077 C 
ATOM      2  C1  UNL d   1      -1.178   0.695   2.902  0.00  0.00    -0.074 A 
ATOM      3  C2  UNL d   1      -0.138   0.250   3.723  0.00  0.00    -0.005 A 
ATOM      4  C3  UNL d   1      -0.357  -0.775   4.642  0.00  0.00     0.006 A 
ATOM      5  C4  UNL d   1      -1.617  -1.365   4.750  0.00  0.00    -0.005 A 
ATOM      6  C5  UNL d   1      -2.670  -0.933   3.937  0.00  0.00    -0.074 A 
ATOM      7  C6  UNL d   1      -4.033  -1.549   4.046  0.00  0.00     0.077 C 
ATOM      8  C7  UNL d   1      -2.444   0.103   3.021  0.00  0.00    -0.001 A 
ENDROOT
TORSDOF 0
ENDMDL
