MODEL 1
REMARK minimizedAffinity 2.31015897
REMARK minimizedRMSD -1
REMARK  0 active torsions:
REMARK  status: ('A' for Active; 'I' for Inactive)
ROOT
ATOM      1  C   UNL d   1       0.379  -4.464  -6.000  0.00  0.00     0.077 C 
ATOM      2  C1  UNL d   1      -0.361  -4.514  -4.696  0.00  0.00    -0.074 A 
ATOM      3  C2  UNL d   1      -1.508  -5.300  -4.550  0.00  0.00    -0.005 A 
ATOM      4  C3  UNL d   1      -2.180  -5.344  -3.329  0.00  0.00     0.006 A 
ATOM      5  C4  UNL d   1      -1.712  -4.603  -2.243  0.00  0.00    -0.005 A 
ATOM      6  C5  UNL d   1      -0.566  -3.812  -2.369  0.00  0.00    -0.074 A 
ATOM      7  C6  UNL d   1      -0.044  -3.017  -1.209  0.00  0.00     0.077 C 
ATOM      8  C7  UNL d   1       0.107  -3.779  -3.598  0.00  0.00    -0.001 A 
ENDROOT
TORSDOF 0
ENDMDL
