MODEL 1
REMARK minimizedAffinity -0.000214999338
REMARK minimizedRMSD -1
REMARK  0 active torsions:
REMARK  status: ('A' for Active; 'I' for Inactive)
ROOT
ATOM      1  C   UNL d   1      -1.961   1.042   4.441  0.00  0.00     0.077 C 
ATOM      2  C1  UNL d   1      -1.820   0.716   2.984  0.00  0.00    -0.074 A 
ATOM      3  C2  UNL d   1      -0.686   0.054   2.502  0.00  0.00    -0.005 A 
ATOM      4  C3  UNL d   1      -0.573  -0.251   1.146  0.00  0.00     0.006 A 
ATOM      5  C4  UNL d   1      -1.591   0.102   0.259  0.00  0.00    -0.005 A 
ATOM      6  C5  UNL d   1      -2.733   0.763   0.723  0.00  0.00    -0.074 A 
ATOM      7  C6  UNL d   1      -3.841   1.141  -0.215  0.00  0.00     0.077 C 
ATOM      8  C7  UNL d   1      -2.842   1.060   2.088  0.00  0.00    -0.001 A 
ENDROOT
TORSDOF 0
ENDMDL
