MODEL 1
REMARK minimizedAffinity 4.31027269
REMARK minimizedRMSD -1
REMARK  0 active torsions:
REMARK  status: ('A' for Active; 'I' for Inactive)
ROOT
ATOM      1  C   UNL d   1      -3.393   0.076  -0.561  0.00  0.00     0.077 C 
ATOM      2  C1  UNL d   1      -2.723   0.286   0.764  0.00  0.00    -0.074 A 
ATOM      3  C2  UNL d   1      -1.934   1.416   1.000  0.00  0.00    -0.005 A 
ATOM      4  C3  UNL d   1      -1.325   1.602   2.241  0.00  0.00     0.006 A 
ATOM      5  C4  UNL d   1      -1.498   0.661   3.257  0.00  0.00    -0.005 A 
ATOM      6  C5  UNL d   1      -2.285  -0.475   3.040  0.00  0.00    -0.074 A 
ATOM      7  C6  UNL d   1      -2.489  -1.490   4.124  0.00  0.00     0.077 C 
ATOM      8  C7  UNL d   1      -2.899  -0.651   1.792  0.00  0.00    -0.001 A 
ENDROOT
TORSDOF 0
ENDMDL
