MODEL 1
REMARK minimizedAffinity -0.786435366
REMARK minimizedRMSD -1
REMARK  0 active torsions:
REMARK  status: ('A' for Active; 'I' for Inactive)
ROOT
ATOM      1  C   UNL d   1      -1.165  -5.587  -3.397  0.00  0.00     0.077 C 
ATOM      2  C1  UNL d   1      -0.277  -4.379  -3.385  0.00  0.00    -0.074 A 
ATOM      3  C2  UNL d   1       0.093  -3.747  -4.577  0.00  0.00    -0.005 A 
ATOM      4  C3  UNL d   1       0.912  -2.618  -4.549  0.00  0.00     0.006 A 
ATOM      5  C4  UNL d   1       1.368  -2.110  -3.332  0.00  0.00    -0.005 A 
ATOM      6  C5  UNL d   1       1.007  -2.728  -2.131  0.00  0.00    -0.074 A 
ATOM      7  C6  UNL d   1       1.480  -2.189  -0.813  0.00  0.00     0.077 C 
ATOM      8  C7  UNL d   1       0.178  -3.858  -2.166  0.00  0.00    -0.001 A 
ENDROOT
TORSDOF 0
ENDMDL
