MODEL 1
REMARK minimizedAffinity 7.43766546
REMARK minimizedRMSD -1
REMARK  0 active torsions:
REMARK  status: ('A' for Active; 'I' for Inactive)
ROOT
ATOM      1  C   UNL d   1      -4.743   2.243  -0.303  0.00  0.00     0.077 C 
ATOM      2  C1  UNL d   1      -3.680   1.433   0.380  0.00  0.00    -0.074 A 
ATOM      3  C2  UNL d   1      -2.805   2.024   1.297  0.00  0.00    -0.005 A 
ATOM      4  C3  UNL d   1      -1.829   1.257   1.931  0.00  0.00     0.006 A 
ATOM      5  C4  UNL d   1      -1.717  -0.107   1.656  0.00  0.00    -0.005 A 
ATOM      6  C5  UNL d   1      -2.584  -0.715   0.742  0.00  0.00    -0.074 A 
ATOM      7  C6  UNL d   1      -2.484  -2.181   0.441  0.00  0.00     0.077 C 
ATOM      8  C7  UNL d   1      -3.567   0.062   0.114  0.00  0.00    -0.001 A 
ENDROOT
TORSDOF 0
ENDMDL
