MODEL 1
REMARK minimizedAffinity 1.70719695
REMARK minimizedRMSD -1
REMARK  0 active torsions:
REMARK  status: ('A' for Active; 'I' for Inactive)
ROOT
ATOM      1  C   UNL d   1      -1.415   2.077   2.595  0.00  0.00     0.077 C 
ATOM      2  C1  UNL d   1      -1.865   0.824   1.904  0.00  0.00    -0.074 A 
ATOM      3  C2  UNL d   1      -1.655  -0.431   2.483  0.00  0.00    -0.005 A 
ATOM      4  C3  UNL d   1      -2.087  -1.587   1.833  0.00  0.00     0.006 A 
ATOM      5  C4  UNL d   1      -2.734  -1.499   0.599  0.00  0.00    -0.005 A 
ATOM      6  C5  UNL d   1      -2.954  -0.252   0.005  0.00  0.00    -0.074 A 
ATOM      7  C6  UNL d   1      -3.656  -0.139  -1.315  0.00  0.00     0.077 C 
ATOM      8  C7  UNL d   1      -2.523   0.905   0.668  0.00  0.00    -0.001 A 
ENDROOT
TORSDOF 0
ENDMDL
