MODEL 1
REMARK minimizedAffinity 1.33636594
REMARK minimizedRMSD -1
REMARK  0 active torsions:
REMARK  status: ('A' for Active; 'I' for Inactive)
ROOT
ATOM      1  C   UNL d   1      -0.209  -1.036  -4.033  0.00  0.00     0.077 C 
ATOM      2  C1  UNL d   1      -0.404  -2.465  -4.443  0.00  0.00    -0.074 A 
ATOM      3  C2  UNL d   1       0.691  -3.291  -4.715  0.00  0.00    -0.005 A 
ATOM      4  C3  UNL d   1       0.494  -4.621  -5.086  0.00  0.00     0.006 A 
ATOM      5  C4  UNL d   1      -0.798  -5.138  -5.188  0.00  0.00    -0.005 A 
ATOM      6  C5  UNL d   1      -1.905  -4.328  -4.918  0.00  0.00    -0.074 A 
ATOM      7  C6  UNL d   1      -3.300  -4.871  -5.013  0.00  0.00     0.077 C 
ATOM      8  C7  UNL d   1      -1.699  -2.994  -4.539  0.00  0.00    -0.001 A 
ENDROOT
TORSDOF 0
ENDMDL
