MODEL 1
REMARK minimizedAffinity 2.09653997
REMARK minimizedRMSD -1
REMARK  0 active torsions:
REMARK  status: ('A' for Active; 'I' for Inactive)
ROOT
ATOM      1  C   UNL d   1      -1.875  -2.625   0.636  0.00  0.00     0.077 C 
ATOM      2  C1  UNL d   1      -2.306  -1.213   0.899  0.00  0.00    -0.074 A 
ATOM      3  C2  UNL d   1      -1.848  -0.519   2.023  0.00  0.00    -0.005 A 
ATOM      4  C3  UNL d   1      -2.250   0.797   2.250  0.00  0.00     0.006 A 
ATOM      5  C4  UNL d   1      -3.113   1.432   1.356  0.00  0.00    -0.005 A 
ATOM      6  C5  UNL d   1      -3.581   0.754   0.226  0.00  0.00    -0.074 A 
ATOM      7  C6  UNL d   1      -4.502   1.425  -0.750  0.00  0.00     0.077 C 
ATOM      8  C7  UNL d   1      -3.167  -0.566   0.001  0.00  0.00    -0.001 A 
ENDROOT
TORSDOF 0
ENDMDL
