MODEL 1
REMARK minimizedAffinity 1.74520946
REMARK minimizedRMSD -1
REMARK  0 active torsions:
REMARK  status: ('A' for Active; 'I' for Inactive)
ROOT
ATOM      1  C   UNL d   1      -3.516  -4.758  -5.875  0.00  0.00     0.077 C 
ATOM      2  C1  UNL d   1      -2.330  -4.463  -5.006  0.00  0.00    -0.074 A 
ATOM      3  C2  UNL d   1      -1.055  -4.923  -5.351  0.00  0.00    -0.005 A 
ATOM      4  C3  UNL d   1       0.041  -4.632  -4.538  0.00  0.00     0.006 A 
ATOM      5  C4  UNL d   1      -0.126  -3.880  -3.375  0.00  0.00    -0.005 A 
ATOM      6  C5  UNL d   1      -1.394  -3.411  -3.015  0.00  0.00    -0.074 A 
ATOM      7  C6  UNL d   1      -1.590  -2.593  -1.773  0.00  0.00     0.077 C 
ATOM      8  C7  UNL d   1      -2.489  -3.701  -3.840  0.00  0.00    -0.001 A 
ENDROOT
TORSDOF 0
ENDMDL
