MODEL 1
REMARK minimizedAffinity 8.13767242
REMARK minimizedRMSD -1
REMARK  0 active torsions:
REMARK  status: ('A' for Active; 'I' for Inactive)
ROOT
ATOM      1  C   UNL d   1      -4.746  -1.274   4.272  0.00  0.00     0.077 C 
ATOM      2  C1  UNL d   1      -3.620  -0.839   3.381  0.00  0.00    -0.074 A 
ATOM      3  C2  UNL d   1      -2.709  -1.768   2.869  0.00  0.00    -0.005 A 
ATOM      4  C3  UNL d   1      -1.673  -1.350   2.034  0.00  0.00     0.006 A 
ATOM      5  C4  UNL d   1      -1.538  -0.002   1.704  0.00  0.00    -0.005 A 
ATOM      6  C5  UNL d   1      -2.440   0.942   2.206  0.00  0.00    -0.074 A 
ATOM      7  C6  UNL d   1      -2.314   2.394   1.852  0.00  0.00     0.077 C 
ATOM      8  C7  UNL d   1      -3.482   0.513   3.038  0.00  0.00    -0.001 A 
ENDROOT
TORSDOF 0
ENDMDL
