MODEL 1
REMARK minimizedAffinity 2.24269032
REMARK minimizedRMSD -1
REMARK  0 active torsions:
REMARK  status: ('A' for Active; 'I' for Inactive)
ROOT
ATOM      1  C1  BNZ d   1      -1.167  -0.531   2.766  0.00  0.00     0.000 A 
ATOM      2  C2  BNZ d   1      -2.182  -0.058   1.979  0.00  0.00     0.000 A 
ATOM      3  C3  BNZ d   1      -2.056  -0.025   0.618  0.00  0.00     0.000 A 
ATOM      4  C4  BNZ d   1      -0.900  -0.426   0.050  0.00  0.00     0.000 A 
ATOM      5  C5  BNZ d   1       0.136  -0.897   0.831  0.00  0.00     0.000 A 
ATOM      6  C6  BNZ d   1      -0.009  -0.965   2.197  0.00  0.00     0.000 A 
ENDROOT
TORSDOF 0
ENDMDL
