MODEL 1
REMARK minimizedAffinity -2.23107719
REMARK minimizedRMSD -1
REMARK  0 active torsions:
REMARK  status: ('A' for Active; 'I' for Inactive)
ROOT
ATOM      1  C1  BNZ d   1       0.072  -1.021   0.885  0.00  0.00     0.000 A 
ATOM      2  C2  BNZ d   1       0.828  -2.162   0.876  0.00  0.00     0.000 A 
ATOM      3  C3  BNZ d   1       0.724  -3.078   1.885  0.00  0.00     0.000 A 
ATOM      4  C4  BNZ d   1      -0.106  -2.834   2.920  0.00  0.00     0.000 A 
ATOM      5  C5  BNZ d   1      -0.868  -1.683   2.948  0.00  0.00     0.000 A 
ATOM      6  C6  BNZ d   1      -0.789  -0.781   1.911  0.00  0.00     0.000 A 
ENDROOT
TORSDOF 0
ENDMDL
