MODEL 1
REMARK minimizedAffinity 1.34685707
REMARK minimizedRMSD -1
REMARK  0 active torsions:
REMARK  status: ('A' for Active; 'I' for Inactive)
ROOT
ATOM      1  C1  BNZ d   1       3.786  -5.775   2.411  0.00  0.00     0.000 A 
ATOM      2  C2  BNZ d   1       2.626  -5.735   3.138  0.00  0.00     0.000 A 
ATOM      3  C3  BNZ d   1       1.575  -4.959   2.736  0.00  0.00     0.000 A 
ATOM      4  C4  BNZ d   1       1.699  -4.195   1.632  0.00  0.00     0.000 A 
ATOM      5  C5  BNZ d   1       2.866  -4.217   0.894  0.00  0.00     0.000 A 
ATOM      6  C6  BNZ d   1       3.908  -5.029   1.280  0.00  0.00     0.000 A 
ENDROOT
TORSDOF 0
ENDMDL
