MODEL 1
REMARK minimizedAffinity 2.21860385
REMARK minimizedRMSD -1
REMARK  0 active torsions:
REMARK  status: ('A' for Active; 'I' for Inactive)
ROOT
ATOM      1  C1  BNZ d   1      -5.739   0.363  -4.082  0.00  0.00     0.000 A 
ATOM      2  C2  BNZ d   1      -5.626  -0.747  -4.875  0.00  0.00     0.000 A 
ATOM      3  C3  BNZ d   1      -4.643  -0.834  -5.821  0.00  0.00     0.000 A 
ATOM      4  C4  BNZ d   1      -3.802   0.205  -6.000  0.00  0.00     0.000 A 
ATOM      5  C5  BNZ d   1      -3.909   1.335  -5.214  0.00  0.00     0.000 A 
ATOM      6  C6  BNZ d   1      -4.875   1.403  -4.237  0.00  0.00     0.000 A 
ENDROOT
TORSDOF 0
ENDMDL
