MODEL 1
REMARK minimizedAffinity -2.25767183
REMARK minimizedRMSD -1
REMARK  0 active torsions:
REMARK  status: ('A' for Active; 'I' for Inactive)
ROOT
ATOM      1  C1  BNZ d   1      -0.377  -0.101   0.044  0.00  0.00     0.000 A 
ATOM      2  C2  BNZ d   1      -1.077   0.058   1.210  0.00  0.00     0.000 A 
ATOM      3  C3  BNZ d   1      -0.961  -0.851   2.225  0.00  0.00     0.000 A 
ATOM      4  C4  BNZ d   1      -0.178  -1.936   2.058  0.00  0.00     0.000 A 
ATOM      5  C5  BNZ d   1       0.526  -2.115   0.884  0.00  0.00     0.000 A 
ATOM      6  C6  BNZ d   1       0.438  -1.179  -0.120  0.00  0.00     0.000 A 
ENDROOT
TORSDOF 0
ENDMDL
