MODEL 1
REMARK minimizedAffinity -0.716269255
REMARK minimizedRMSD -1
REMARK  0 active torsions:
REMARK  status: ('A' for Active; 'I' for Inactive)
ROOT
ATOM      1  C1  BNZ d   1       1.744   1.112  -1.989  0.00  0.00     0.000 A 
ATOM      2  C2  BNZ d   1       1.871   2.239  -2.756  0.00  0.00     0.000 A 
ATOM      3  C3  BNZ d   1       0.820   3.098  -2.917  0.00  0.00     0.000 A 
ATOM      4  C4  BNZ d   1      -0.366   2.809  -2.344  0.00  0.00     0.000 A 
ATOM      5  C5  BNZ d   1      -0.513   1.671  -1.576  0.00  0.00     0.000 A 
ATOM      6  C6  BNZ d   1       0.558   0.829  -1.384  0.00  0.00     0.000 A 
ENDROOT
TORSDOF 0
ENDMDL
