MODEL 1
REMARK minimizedAffinity 3.27949095
REMARK minimizedRMSD -1
REMARK  0 active torsions:
REMARK  status: ('A' for Active; 'I' for Inactive)
ROOT
ATOM      1  C1  BNZ d   1       5.240  -4.012  -0.305  0.00  0.00     0.000 A 
ATOM      2  C2  BNZ d   1       3.926  -4.076   0.074  0.00  0.00     0.000 A 
ATOM      3  C3  BNZ d   1       3.098  -3.000  -0.086  0.00  0.00     0.000 A 
ATOM      4  C4  BNZ d   1       3.594  -1.851  -0.587  0.00  0.00     0.000 A 
ATOM      5  C5  BNZ d   1       4.919  -1.767  -0.965  0.00  0.00     0.000 A 
ATOM      6  C6  BNZ d   1       5.740  -2.864  -0.839  0.00  0.00     0.000 A 
ENDROOT
TORSDOF 0
ENDMDL
