MODEL 1
REMARK minimizedAffinity 2.85657406
REMARK minimizedRMSD -1
REMARK  0 active torsions:
REMARK  status: ('A' for Active; 'I' for Inactive)
ROOT
ATOM      1  C1  BNZ d   1      -0.731   2.357   0.098  0.00  0.00     0.000 A 
ATOM      2  C2  BNZ d   1      -0.346   2.832  -1.127  0.00  0.00     0.000 A 
ATOM      3  C3  BNZ d   1      -0.473   4.157  -1.436  0.00  0.00     0.000 A 
ATOM      4  C4  BNZ d   1      -1.022   4.998  -0.536  0.00  0.00     0.000 A 
ATOM      5  C5  BNZ d   1      -1.424   4.533   0.700  0.00  0.00     0.000 A 
ATOM      6  C6  BNZ d   1      -1.258   3.206   1.022  0.00  0.00     0.000 A 
ENDROOT
TORSDOF 0
ENDMDL
