MODEL 1
REMARK minimizedAffinity 7.93963766
REMARK minimizedRMSD -1
REMARK  0 active torsions:
REMARK  status: ('A' for Active; 'I' for Inactive)
ROOT
ATOM      1  C1  BNZ d   1      -2.470   0.944  -1.386  0.00  0.00     0.000 A 
ATOM      2  C2  BNZ d   1      -1.609  -0.015  -1.847  0.00  0.00     0.000 A 
ATOM      3  C3  BNZ d   1      -2.008  -1.317  -1.962  0.00  0.00     0.000 A 
ATOM      4  C4  BNZ d   1      -3.253  -1.665  -1.579  0.00  0.00     0.000 A 
ATOM      5  C5  BNZ d   1      -4.131  -0.711  -1.104  0.00  0.00     0.000 A 
ATOM      6  C6  BNZ d   1      -3.738   0.605  -1.026  0.00  0.00     0.000 A 
ENDROOT
TORSDOF 0
ENDMDL
