MODEL 1
REMARK minimizedAffinity 3.09430599
REMARK minimizedRMSD -1
REMARK  0 active torsions:
REMARK  status: ('A' for Active; 'I' for Inactive)
ROOT
ATOM      1  C1  BNZ d   1      -0.727   0.974   3.005  0.00  0.00     0.000 A 
ATOM      2  C2  BNZ d   1       0.418   0.987   3.757  0.00  0.00     0.000 A 
ATOM      3  C3  BNZ d   1       1.472   1.786   3.413  0.00  0.00     0.000 A 
ATOM      4  C4  BNZ d   1       1.396   2.540   2.298  0.00  0.00     0.000 A 
ATOM      5  C5  BNZ d   1       0.253   2.531   1.524  0.00  0.00     0.000 A 
ATOM      6  C6  BNZ d   1      -0.821   1.755   1.895  0.00  0.00     0.000 A 
ENDROOT
TORSDOF 0
ENDMDL
