MODEL 1
REMARK minimizedAffinity 0.723933101
REMARK minimizedRMSD -1
REMARK  0 active torsions:
REMARK  status: ('A' for Active; 'I' for Inactive)
ROOT
ATOM      1  C1  BNZ d   1      -0.892   2.618   2.167  0.00  0.00     0.000 A 
ATOM      2  C2  BNZ d   1      -1.027   3.287   0.980  0.00  0.00     0.000 A 
ATOM      3  C3  BNZ d   1       0.063   3.820   0.350  0.00  0.00     0.000 A 
ATOM      4  C4  BNZ d   1       1.278   3.719   0.927  0.00  0.00     0.000 A 
ATOM      5  C5  BNZ d   1       1.428   3.056   2.128  0.00  0.00     0.000 A 
ATOM      6  C6  BNZ d   1       0.335   2.486   2.740  0.00  0.00     0.000 A 
ENDROOT
TORSDOF 0
ENDMDL
