MODEL 1
REMARK minimizedAffinity 1.9379487
REMARK minimizedRMSD -1
REMARK  0 active torsions:
REMARK  status: ('A' for Active; 'I' for Inactive)
ROOT
ATOM      1  C1  BNZ d   1      -1.762  -1.158  -2.528  0.00  0.00     0.000 A 
ATOM      2  C2  BNZ d   1      -0.927  -0.885  -1.478  0.00  0.00     0.000 A 
ATOM      3  C3  BNZ d   1       0.426  -0.814  -1.659  0.00  0.00     0.000 A 
ATOM      4  C4  BNZ d   1       0.945  -1.055  -2.880  0.00  0.00     0.000 A 
ATOM      5  C5  BNZ d   1       0.117  -1.341  -3.948  0.00  0.00     0.000 A 
ATOM      6  C6  BNZ d   1      -1.247  -1.373  -3.770  0.00  0.00     0.000 A 
ENDROOT
TORSDOF 0
ENDMDL
