MODEL 1
REMARK minimizedAffinity 3.113626
REMARK minimizedRMSD -1
REMARK  0 active torsions:
REMARK  status: ('A' for Active; 'I' for Inactive)
ROOT
ATOM      1  C1  BNZ d   1      -0.366   3.736   0.724  0.00  0.00     0.000 A 
ATOM      2  C2  BNZ d   1      -0.425   4.884  -0.020  0.00  0.00     0.000 A 
ATOM      3  C3  BNZ d   1      -0.734   4.841  -1.351  0.00  0.00     0.000 A 
ATOM      4  C4  BNZ d   1      -0.944   3.648  -1.944  0.00  0.00     0.000 A 
ATOM      5  C5  BNZ d   1      -0.880   2.481  -1.209  0.00  0.00     0.000 A 
ATOM      6  C6  BNZ d   1      -0.607   2.531   0.138  0.00  0.00     0.000 A 
ENDROOT
TORSDOF 0
ENDMDL
