MODEL 1
REMARK minimizedAffinity 8.26012611
REMARK minimizedRMSD -1
REMARK  0 active torsions:
REMARK  status: ('A' for Active; 'I' for Inactive)
ROOT
ATOM      1  C1  BNZ d   1      -2.472  -0.045  -1.022  0.00  0.00     0.000 A 
ATOM      2  C2  BNZ d   1      -1.888  -1.107  -1.658  0.00  0.00     0.000 A 
ATOM      3  C3  BNZ d   1      -0.558  -1.089  -1.974  0.00  0.00     0.000 A 
ATOM      4  C4  BNZ d   1       0.176   0.006  -1.690  0.00  0.00     0.000 A 
ATOM      5  C5  BNZ d   1      -0.401   1.089  -1.057  0.00  0.00     0.000 A 
ATOM      6  C6  BNZ d   1      -1.731   1.052  -0.705  0.00  0.00     0.000 A 
ENDROOT
TORSDOF 0
ENDMDL
