MODEL 1
REMARK minimizedAffinity 10.1520643
REMARK minimizedRMSD -1
REMARK  0 active torsions:
REMARK  status: ('A' for Active; 'I' for Inactive)
ROOT
ATOM      1  C1  BNZ d   1      -0.872  -0.998  -1.794  0.00  0.00     0.000 A 
ATOM      2  C2  BNZ d   1      -2.156  -1.473  -1.786  0.00  0.00     0.000 A 
ATOM      3  C3  BNZ d   1      -3.193  -0.680  -1.381  0.00  0.00     0.000 A 
ATOM      4  C4  BNZ d   1      -2.941   0.571  -0.946  0.00  0.00     0.000 A 
ATOM      5  C5  BNZ d   1      -1.650   1.062  -0.938  0.00  0.00     0.000 A 
ATOM      6  C6  BNZ d   1      -0.613   0.274  -1.384  0.00  0.00     0.000 A 
ENDROOT
TORSDOF 0
ENDMDL
