MODEL 1
REMARK minimizedAffinity 5.65661001
REMARK minimizedRMSD -1
REMARK  0 active torsions:
REMARK  status: ('A' for Active; 'I' for Inactive)
ROOT
ATOM      1  C1  BNZ d   1      -1.022   2.565   2.548  0.00  0.00     0.000 A 
ATOM      2  C2  BNZ d   1      -1.009   3.096   1.286  0.00  0.00     0.000 A 
ATOM      3  C3  BNZ d   1       0.161   3.509   0.712  0.00  0.00     0.000 A 
ATOM      4  C4  BNZ d   1       1.309   3.428   1.415  0.00  0.00     0.000 A 
ATOM      5  C5  BNZ d   1       1.311   2.904   2.692  0.00  0.00     0.000 A 
ATOM      6  C6  BNZ d   1       0.138   2.453   3.252  0.00  0.00     0.000 A 
ENDROOT
TORSDOF 0
ENDMDL
