MODEL 1
REMARK minimizedAffinity -2.61720824
REMARK minimizedRMSD -1
REMARK  0 active torsions:
REMARK  status: ('A' for Active; 'I' for Inactive)
ROOT
ATOM      1  C2' OXE d   1       0.635  -0.071   2.338  0.00  0.00     0.078 C 
ATOM      2  C1' OXE d   1      -1.016   2.134   1.798  0.00  0.00     0.078 C 
ATOM      3  C1  OXE d   1      -0.470   1.360   0.624  0.00  0.00    -0.078 A 
ATOM      4  C2  OXE d   1       0.375   0.311   0.897  0.00  0.00    -0.078 A 
ATOM      5  C3  OXE d   1       0.863  -0.469  -0.147  0.00  0.00     0.003 A 
ATOM      6  C4  OXE d   1       0.626  -0.103  -1.478  0.00  0.00    -0.002 A 
ATOM      7  C5  OXE d   1      -0.200   0.986  -1.778  0.00  0.00    -0.002 A 
ATOM      8  C6  OXE d   1      -0.789   1.701  -0.741  0.00  0.00     0.003 A 
ENDROOT
TORSDOF 0
ENDMDL
