MODEL 1
REMARK minimizedAffinity -2.30826616
REMARK minimizedRMSD -1
REMARK  0 active torsions:
REMARK  status: ('A' for Active; 'I' for Inactive)
ROOT
ATOM      1  C2' OXE d   1      -0.365   1.253   2.072  0.00  0.00     0.078 C 
ATOM      2  C1' OXE d   1       0.170   1.009  -0.673  0.00  0.00     0.078 C 
ATOM      3  C1  OXE d   1      -0.095  -0.255   0.107  0.00  0.00    -0.078 A 
ATOM      4  C2  OXE d   1      -0.309  -0.130   1.459  0.00  0.00    -0.078 A 
ATOM      5  C3  OXE d   1      -0.613  -1.258   2.216  0.00  0.00     0.003 A 
ATOM      6  C4  OXE d   1      -0.550  -2.534   1.643  0.00  0.00    -0.002 A 
ATOM      7  C5  OXE d   1      -0.294  -2.687   0.276  0.00  0.00    -0.002 A 
ATOM      8  C6  OXE d   1      -0.107  -1.557  -0.512  0.00  0.00     0.003 A 
ENDROOT
TORSDOF 0
ENDMDL
