MODEL 1
REMARK minimizedAffinity 4.04995012
REMARK minimizedRMSD -1
REMARK  0 active torsions:
REMARK  status: ('A' for Active; 'I' for Inactive)
ROOT
ATOM      1  C2' OXE d   1       6.000  -2.376  -1.519  0.00  0.00     0.078 C 
ATOM      2  C1' OXE d   1       3.879  -3.591  -0.138  0.00  0.00     0.078 C 
ATOM      3  C1  OXE d   1       4.054  -3.929  -1.598  0.00  0.00    -0.078 A 
ATOM      4  C2  OXE d   1       5.066  -3.294  -2.277  0.00  0.00    -0.078 A 
ATOM      5  C3  OXE d   1       5.305  -3.610  -3.611  0.00  0.00     0.003 A 
ATOM      6  C4  OXE d   1       4.430  -4.453  -4.308  0.00  0.00    -0.002 A 
ATOM      7  C5  OXE d   1       3.370  -5.080  -3.645  0.00  0.00    -0.002 A 
ATOM      8  C6  OXE d   1       3.194  -4.862  -2.283  0.00  0.00     0.003 A 
ENDROOT
TORSDOF 0
ENDMDL
