MODEL 1
REMARK minimizedAffinity -3.16015244
REMARK minimizedRMSD -1
REMARK  0 active torsions:
REMARK  status: ('A' for Active; 'I' for Inactive)
ROOT
ATOM      1  C   UNL d   1      -0.470  -1.107   0.648  0.00  0.00     0.020 A 
ATOM      2  C1  UNL d   1      -1.437  -0.106   0.568  0.00  0.00     0.020 A 
ATOM      3  C2  UNL d   1      -1.050   1.230   0.439  0.00  0.00     0.034 A 
ATOM      4  C3  UNL d   1       0.308   1.568   0.389  0.00  0.00     0.017 A 
ATOM      5  C4  UNL d   1       1.277   0.562   0.469  0.00  0.00     0.017 A 
ATOM      6  C5  UNL d   1       0.884  -0.774   0.599  0.00  0.00     0.034 A 
ATOM      7 Cl   UNL d   1       2.971   0.901   0.415  0.00  0.00    -0.070 Cl
ATOM      8 Cl1  UNL d   1       0.714   3.239   0.228  0.00  0.00    -0.070 Cl
ENDROOT
TORSDOF 0
ENDMDL
