MODEL 1
REMARK minimizedAffinity -1.61984718
REMARK minimizedRMSD -1
REMARK  0 active torsions:
REMARK  status: ('A' for Active; 'I' for Inactive)
ROOT
ATOM      1  C   UNL d   1       0.446  -0.932   0.139  0.00  0.00     0.020 A 
ATOM      2  C1  UNL d   1       1.522  -0.261  -0.440  0.00  0.00     0.020 A 
ATOM      3  C2  UNL d   1       1.498   1.131  -0.553  0.00  0.00     0.034 A 
ATOM      4  C3  UNL d   1       0.396   1.856  -0.086  0.00  0.00     0.017 A 
ATOM      5  C4  UNL d   1      -0.684   1.181   0.495  0.00  0.00     0.017 A 
ATOM      6  C5  UNL d   1      -0.655  -0.213   0.605  0.00  0.00     0.034 A 
ATOM      7 Cl   UNL d   1      -2.079   2.007   1.094  0.00  0.00    -0.070 Cl
ATOM      8 Cl1  UNL d   1       0.433   3.575  -0.257  0.00  0.00    -0.070 Cl
ENDROOT
TORSDOF 0
ENDMDL
