MODEL 1
REMARK minimizedAffinity -3.77190328
REMARK minimizedRMSD -1
REMARK  0 active torsions:
REMARK  status: ('A' for Active; 'I' for Inactive)
ROOT
ATOM      1  C   UNL d   1       0.074   3.129   0.324  0.00  0.00     0.020 A 
ATOM      2  C1  UNL d   1       0.877   2.583  -0.677  0.00  0.00     0.020 A 
ATOM      3  C2  UNL d   1       0.930   1.199  -0.852  0.00  0.00     0.034 A 
ATOM      4  C3  UNL d   1       0.179   0.356  -0.025  0.00  0.00     0.017 A 
ATOM      5  C4  UNL d   1      -0.627   0.904   0.979  0.00  0.00     0.017 A 
ATOM      6  C5  UNL d   1      -0.677   2.291   1.149  0.00  0.00     0.034 A 
ATOM      7 Cl   UNL d   1      -1.583  -0.072   2.037  0.00  0.00    -0.070 Cl
ATOM      8 Cl1  UNL d   1       0.292  -1.347  -0.298  0.00  0.00    -0.070 Cl
ENDROOT
TORSDOF 0
ENDMDL
