MODEL 1
REMARK minimizedAffinity 0.653131306
REMARK minimizedRMSD -1
REMARK  0 active torsions:
REMARK  status: ('A' for Active; 'I' for Inactive)
ROOT
ATOM      1  C   UNL d   1      -1.314  -0.762  -0.190  0.00  0.00     0.020 A 
ATOM      2  C1  UNL d   1      -0.098  -1.430  -0.045  0.00  0.00     0.020 A 
ATOM      3  C2  UNL d   1       1.027  -0.740   0.413  0.00  0.00     0.034 A 
ATOM      4  C3  UNL d   1       0.938   0.621   0.727  0.00  0.00     0.017 A 
ATOM      5  C4  UNL d   1      -0.282   1.290   0.582  0.00  0.00     0.017 A 
ATOM      6  C5  UNL d   1      -1.406   0.594   0.123  0.00  0.00     0.034 A 
ATOM      7 Cl   UNL d   1      -0.469   2.968   0.950  0.00  0.00    -0.070 Cl
ATOM      8 Cl1  UNL d   1       2.369   1.410   1.288  0.00  0.00    -0.070 Cl
ENDROOT
TORSDOF 0
ENDMDL
