MODEL 1
REMARK minimizedAffinity -2.86241269
REMARK minimizedRMSD -1
REMARK  0 active torsions:
REMARK  status: ('A' for Active; 'I' for Inactive)
ROOT
ATOM      1  C   UNL d   1       0.674   2.509  -0.789  0.00  0.00     0.020 A 
ATOM      2  C1  UNL d   1      -0.146   3.149   0.139  0.00  0.00     0.020 A 
ATOM      3  C2  UNL d   1      -0.967   2.396   0.982  0.00  0.00     0.034 A 
ATOM      4  C3  UNL d   1      -0.970   0.999   0.898  0.00  0.00     0.017 A 
ATOM      5  C4  UNL d   1      -0.146   0.358  -0.034  0.00  0.00     0.017 A 
ATOM      6  C5  UNL d   1       0.674   1.116  -0.875  0.00  0.00     0.034 A 
ATOM      7 Cl   UNL d   1      -0.095  -1.362  -0.197  0.00  0.00    -0.070 Cl
ATOM      8 Cl1  UNL d   1      -2.010   0.132   1.971  0.00  0.00    -0.070 Cl
ENDROOT
TORSDOF 0
ENDMDL
