MODEL 1
REMARK minimizedAffinity -2.74571466
REMARK minimizedRMSD -1
REMARK  0 active torsions:
REMARK  status: ('A' for Active; 'I' for Inactive)
ROOT
ATOM      1  C   UNL d   1      -0.610  -1.002   0.367  0.00  0.00     0.020 A 
ATOM      2  C1  UNL d   1      -1.619  -0.045   0.471  0.00  0.00     0.020 A 
ATOM      3  C2  UNL d   1      -1.335   1.299   0.222  0.00  0.00     0.034 A 
ATOM      4  C3  UNL d   1      -0.039   1.691  -0.132  0.00  0.00     0.017 A 
ATOM      5  C4  UNL d   1       0.973   0.729  -0.237  0.00  0.00     0.017 A 
ATOM      6  C5  UNL d   1       0.683  -0.615   0.013  0.00  0.00     0.034 A 
ATOM      7 Cl   UNL d   1       2.596   1.136  -0.670  0.00  0.00    -0.070 Cl
ATOM      8 Cl1  UNL d   1       0.241   3.370  -0.426  0.00  0.00    -0.070 Cl
ENDROOT
TORSDOF 0
ENDMDL
