MODEL 1
REMARK minimizedAffinity 3.33402824
REMARK minimizedRMSD -1
REMARK  0 active torsions:
REMARK  status: ('A' for Active; 'I' for Inactive)
ROOT
ATOM      1  C   UNL d   1       1.189   2.545  -0.017  0.00  0.00     0.020 A 
ATOM      2  C1  UNL d   1       0.491   3.289  -0.968  0.00  0.00     0.020 A 
ATOM      3  C2  UNL d   1      -0.903   3.225  -1.018  0.00  0.00     0.034 A 
ATOM      4  C3  UNL d   1      -1.604   2.417  -0.116  0.00  0.00     0.017 A 
ATOM      5  C4  UNL d   1      -0.903   1.672   0.839  0.00  0.00     0.017 A 
ATOM      6  C5  UNL d   1       0.493   1.739   0.885  0.00  0.00     0.034 A 
ATOM      7 Cl   UNL d   1      -1.698   0.652   1.986  0.00  0.00    -0.070 Cl
ATOM      8 Cl1  UNL d   1      -3.327   2.387  -0.235  0.00  0.00    -0.070 Cl
ENDROOT
TORSDOF 0
ENDMDL
