MODEL 1
REMARK minimizedAffinity -5.12079811
REMARK minimizedRMSD -1
REMARK  0 active torsions:
REMARK  status: ('A' for Active; 'I' for Inactive)
ROOT
ATOM      1  C   UNL d   1      -0.468   2.787   0.107  0.00  0.00     0.020 A 
ATOM      2  C1  UNL d   1       0.809   3.344   0.156  0.00  0.00     0.020 A 
ATOM      3  C2  UNL d   1       1.923   2.521   0.341  0.00  0.00     0.034 A 
ATOM      4  C3  UNL d   1       1.761   1.138   0.478  0.00  0.00     0.017 A 
ATOM      5  C4  UNL d   1       0.478   0.580   0.429  0.00  0.00     0.017 A 
ATOM      6  C5  UNL d   1      -0.633   1.408   0.243  0.00  0.00     0.034 A 
ATOM      7 Cl   UNL d   1       0.199  -1.118   0.589  0.00  0.00    -0.070 Cl
ATOM      8 Cl1  UNL d   1       3.182   0.181   0.703  0.00  0.00    -0.070 Cl
ENDROOT
TORSDOF 0
ENDMDL
