MODEL 1
REMARK minimizedAffinity 0.811697304
REMARK minimizedRMSD -1
REMARK  0 active torsions:
REMARK  status: ('A' for Active; 'I' for Inactive)
ROOT
ATOM      1  C   UNL d   1       1.662   2.615  -0.130  0.00  0.00     0.020 A 
ATOM      2  C1  UNL d   1       0.968   3.563  -0.882  0.00  0.00     0.020 A 
ATOM      3  C2  UNL d   1      -0.427   3.526  -0.935  0.00  0.00     0.034 A 
ATOM      4  C3  UNL d   1      -1.133   2.541  -0.235  0.00  0.00     0.017 A 
ATOM      5  C4  UNL d   1      -0.435   1.591   0.520  0.00  0.00     0.017 A 
ATOM      6  C5  UNL d   1       0.962   1.632   0.569  0.00  0.00     0.034 A 
ATOM      7 Cl   UNL d   1      -1.236   0.345   1.410  0.00  0.00    -0.070 Cl
ATOM      8 Cl1  UNL d   1      -2.857   2.556  -0.345  0.00  0.00    -0.070 Cl
ENDROOT
TORSDOF 0
ENDMDL
