MODEL 1
REMARK minimizedAffinity -3.69425273
REMARK minimizedRMSD -1
REMARK  0 active torsions:
REMARK  status: ('A' for Active; 'I' for Inactive)
ROOT
ATOM      1  C   UNL d   1       1.311  -1.217   0.156  0.00  0.00     0.020 A 
ATOM      2  C1  UNL d   1       2.296  -0.257  -0.072  0.00  0.00     0.020 A 
ATOM      3  C2  UNL d   1       1.950   1.093  -0.149  0.00  0.00     0.034 A 
ATOM      4  C3  UNL d   1       0.616   1.488   0.003  0.00  0.00     0.017 A 
ATOM      5  C4  UNL d   1      -0.372   0.524   0.232  0.00  0.00     0.017 A 
ATOM      6  C5  UNL d   1      -0.020  -0.827   0.308  0.00  0.00     0.034 A 
ATOM      7 Cl   UNL d   1      -2.040   0.934   0.429  0.00  0.00    -0.070 Cl
ATOM      8 Cl1  UNL d   1       0.260   3.176  -0.103  0.00  0.00    -0.070 Cl
ENDROOT
TORSDOF 0
ENDMDL
