MODEL 1
REMARK minimizedAffinity -4.9672699
REMARK minimizedRMSD -1
REMARK  0 active torsions:
REMARK  status: ('A' for Active; 'I' for Inactive)
ROOT
ATOM      1  C   UNL d   1      -0.499   0.743  -0.981  0.00  0.00     0.020 A 
ATOM      2  C1  UNL d   1      -0.663   0.609   0.397  0.00  0.00     0.020 A 
ATOM      3  C2  UNL d   1      -0.829  -0.657   0.961  0.00  0.00     0.034 A 
ATOM      4  C3  UNL d   1      -0.831  -1.795   0.146  0.00  0.00     0.017 A 
ATOM      5  C4  UNL d   1      -0.666  -1.660  -1.237  0.00  0.00     0.017 A 
ATOM      6  C5  UNL d   1      -0.501  -0.389  -1.796  0.00  0.00     0.034 A 
ATOM      7 Cl   UNL d   1      -0.658  -3.018  -2.307  0.00  0.00    -0.070 Cl
ATOM      8 Cl1  UNL d   1      -1.041  -3.331   0.910  0.00  0.00    -0.070 Cl
ENDROOT
TORSDOF 0
ENDMDL
