MODEL 1
REMARK minimizedAffinity -4.0379777
REMARK minimizedRMSD -1
REMARK  0 active torsions:
REMARK  status: ('A' for Active; 'I' for Inactive)
ROOT
ATOM      1  C   UNL d   1      -0.215   3.079  -0.021  0.00  0.00     0.020 A 
ATOM      2  C1  UNL d   1       1.149   3.370  -0.028  0.00  0.00     0.020 A 
ATOM      3  C2  UNL d   1       2.082   2.345   0.147  0.00  0.00     0.034 A 
ATOM      4  C3  UNL d   1       1.652   1.026   0.329  0.00  0.00     0.017 A 
ATOM      5  C4  UNL d   1       0.283   0.735   0.335  0.00  0.00     0.017 A 
ATOM      6  C5  UNL d   1      -0.646   1.765   0.159  0.00  0.00     0.034 A 
ATOM      7 Cl   UNL d   1      -0.323  -0.869   0.553  0.00  0.00    -0.070 Cl
ATOM      8 Cl1  UNL d   1       2.861  -0.191   0.538  0.00  0.00    -0.070 Cl
ENDROOT
TORSDOF 0
ENDMDL
