MODEL 1
REMARK minimizedAffinity -1.93033051
REMARK minimizedRMSD -1
REMARK  0 active torsions:
REMARK  status: ('A' for Active; 'I' for Inactive)
ROOT
ATOM      1  C   UNL d   1      -0.727  -0.754   0.491  0.00  0.00     0.020 A 
ATOM      2  C1  UNL d   1       0.462  -1.477   0.575  0.00  0.00     0.020 A 
ATOM      3  C2  UNL d   1       1.689  -0.811   0.534  0.00  0.00     0.034 A 
ATOM      4  C3  UNL d   1       1.729   0.583   0.408  0.00  0.00     0.017 A 
ATOM      5  C4  UNL d   1       0.535   1.307   0.324  0.00  0.00     0.017 A 
ATOM      6  C5  UNL d   1      -0.691   0.635   0.366  0.00  0.00     0.034 A 
ATOM      7 Cl   UNL d   1       0.504   3.029   0.168  0.00  0.00    -0.070 Cl
ATOM      8 Cl1  UNL d   1       3.281   1.341   0.365  0.00  0.00    -0.070 Cl
ENDROOT
TORSDOF 0
ENDMDL
