MODEL 1
REMARK minimizedAffinity 3.5120585
REMARK minimizedRMSD -1
REMARK  2 active torsions:
REMARK  status: ('A' for Active; 'I' for Inactive)
REMARK    1  A    between atoms: C1_2  and  C2_3 
REMARK    2  A    between atoms: C2_3  and  C3_4 
ROOT
ATOM      1  C3  UNL d   1      -0.938  -0.485  -0.323  0.00  0.00    -0.075 A 
ATOM      2  C4  UNL d   1      -2.299  -0.233  -0.552  0.00  0.00     0.002 A 
ATOM      3  C5  UNL d   1      -3.118   0.225   0.480  0.00  0.00     0.002 A 
ATOM      4  C6  UNL d   1      -2.592   0.427   1.754  0.00  0.00    -0.004 A 
ATOM      5  C7  UNL d   1      -1.246   0.164   1.997  0.00  0.00     0.002 A 
ATOM      6  C8  UNL d   1      -0.422  -0.290   0.966  0.00  0.00     0.002 A 
ENDROOT
BRANCH   1   7
ATOM      7  C2  UNL d   1      -0.040  -0.953  -1.442  0.00  0.00     0.056 C 
BRANCH   7   8
ATOM      8  C1  UNL d   1      -0.023  -0.023  -2.659  0.00  0.00     0.007 C 
ATOM      9  C   UNL d   1       1.342   0.599  -2.921  0.00  0.00     0.009 C 
ENDBRANCH   7   8
ENDBRANCH   1   7
TORSDOF 2
ENDMDL
