MODEL 1
REMARK minimizedAffinity -3.31474233
REMARK minimizedRMSD -1
REMARK  2 active torsions:
REMARK  status: ('A' for Active; 'I' for Inactive)
REMARK    1  A    between atoms: C1_2  and  C2_3 
REMARK    2  A    between atoms: C2_3  and  C3_4 
ROOT
ATOM      1  C3  UNL d   1      -0.266  -0.593   3.444  0.00  0.00    -0.075 A 
ATOM      2  C4  UNL d   1      -1.525  -0.128   3.037  0.00  0.00     0.002 A 
ATOM      3  C5  UNL d   1      -1.854  -0.067   1.682  0.00  0.00     0.002 A 
ATOM      4  C6  UNL d   1      -0.926  -0.459   0.719  0.00  0.00    -0.004 A 
ATOM      5  C7  UNL d   1       0.334  -0.906   1.112  0.00  0.00     0.002 A 
ATOM      6  C8  UNL d   1       0.663  -0.972   2.467  0.00  0.00     0.002 A 
ENDROOT
BRANCH   1   7
ATOM      7  C2  UNL d   1       0.084  -0.689   4.910  0.00  0.00     0.056 C 
BRANCH   7   8
ATOM      8  C1  UNL d   1       0.368  -2.116   5.391  0.00  0.00     0.007 C 
ATOM      9  C   UNL d   1       1.758  -2.283   5.989  0.00  0.00     0.009 C 
ENDBRANCH   7   8
ENDBRANCH   1   7
TORSDOF 2
ENDMDL
