MODEL 1
REMARK minimizedAffinity 2.22779036
REMARK minimizedRMSD -1
REMARK  2 active torsions:
REMARK  status: ('A' for Active; 'I' for Inactive)
REMARK    1  A    between atoms: C1_2  and  C2_3 
REMARK    2  A    between atoms: C2_3  and  C3_4 
ROOT
ATOM      1  C3  UNL d   1       0.527  -0.082  -0.322  0.00  0.00    -0.075 A 
ATOM      2  C4  UNL d   1       0.805  -1.088   0.615  0.00  0.00     0.002 A 
ATOM      3  C5  UNL d   1       2.123  -1.418   0.930  0.00  0.00     0.002 A 
ATOM      4  C6  UNL d   1       3.179  -0.755   0.307  0.00  0.00    -0.004 A 
ATOM      5  C7  UNL d   1       2.914   0.234  -0.638  0.00  0.00     0.002 A 
ATOM      6  C8  UNL d   1       1.596   0.570  -0.952  0.00  0.00     0.002 A 
ENDROOT
BRANCH   1   7
ATOM      7  C2  UNL d   1      -0.897   0.301  -0.646  0.00  0.00     0.056 C 
BRANCH   7   8
ATOM      8  C1  UNL d   1      -1.935  -0.745  -0.225  0.00  0.00     0.007 C 
ATOM      9  C   UNL d   1      -3.291  -0.547  -0.888  0.00  0.00     0.009 C 
ENDBRANCH   7   8
ENDBRANCH   1   7
TORSDOF 2
ENDMDL
