MODEL 1
REMARK minimizedAffinity 10.3364735
REMARK minimizedRMSD -1
REMARK  0 active torsions:
REMARK  status: ('A' for Active; 'I' for Inactive)
ROOT
ATOM      1  O1  BZF d   1      -2.964   3.380   2.513  0.00  0.00    -0.204 OA
ATOM      2  C2  BZF d   1      -4.299   3.482   2.854  0.00  0.00     0.174 A 
ATOM      3  C3  BZF d   1      -4.895   2.273   2.823  0.00  0.00    -0.012 A 
ATOM      4  C3A BZF d   1      -3.847   1.344   2.527  0.00  0.00    -0.107 A 
ATOM      5  C4  BZF d   1      -3.809  -0.013   2.380  0.00  0.00     0.055 A 
ATOM      6  C5  BZF d   1      -2.641  -0.606   2.020  0.00  0.00    -0.016 A 
ATOM      7  C6  BZF d   1      -1.494   0.128   1.794  0.00  0.00     0.022 A 
ATOM      8  C7  BZF d   1      -1.481   1.476   1.933  0.00  0.00     0.029 A 
ATOM      9  C7A BZF d   1      -2.652   2.074   2.329  0.00  0.00     0.058 A 
ENDROOT
TORSDOF 0
ENDMDL
