MODEL 1
REMARK minimizedAffinity 14.0020027
REMARK minimizedRMSD -1
REMARK  0 active torsions:
REMARK  status: ('A' for Active; 'I' for Inactive)
ROOT
ATOM      1  O1  BZF d   1       1.583   2.674  -2.886  0.00  0.00    -0.204 OA
ATOM      2  C2  BZF d   1       0.602   2.773  -1.919  0.00  0.00     0.174 A 
ATOM      3  C3  BZF d   1       0.005   1.580  -1.720  0.00  0.00    -0.012 A 
ATOM      4  C3A BZF d   1       0.715   0.660  -2.553  0.00  0.00    -0.107 A 
ATOM      5  C4  BZF d   1       0.601  -0.682  -2.780  0.00  0.00     0.055 A 
ATOM      6  C5  BZF d   1       1.403  -1.265  -3.710  0.00  0.00    -0.016 A 
ATOM      7  C6  BZF d   1       2.324  -0.537  -4.434  0.00  0.00     0.022 A 
ATOM      8  C7  BZF d   1       2.477   0.796  -4.240  0.00  0.00     0.029 A 
ATOM      9  C7A BZF d   1       1.691   1.382  -3.278  0.00  0.00     0.058 A 
ENDROOT
TORSDOF 0
ENDMDL
