MODEL 1
REMARK minimizedAffinity 14.3470192
REMARK minimizedRMSD -1
REMARK  0 active torsions:
REMARK  status: ('A' for Active; 'I' for Inactive)
ROOT
ATOM      1  O1  BZF d   1       0.353  -3.438  -5.244  0.00  0.00    -0.204 OA
ATOM      2  C2  BZF d   1      -0.839  -3.455  -5.942  0.00  0.00     0.174 A 
ATOM      3  C3  BZF d   1      -1.378  -2.220  -5.999  0.00  0.00    -0.012 A 
ATOM      4  C3A BZF d   1      -0.419  -1.362  -5.373  0.00  0.00    -0.107 A 
ATOM      5  C4  BZF d   1      -0.375  -0.018  -5.137  0.00  0.00     0.055 A 
ATOM      6  C5  BZF d   1       0.670   0.496  -4.437  0.00  0.00    -0.016 A 
ATOM      7  C6  BZF d   1       1.684  -0.305  -3.954  0.00  0.00     0.022 A 
ATOM      8  C7  BZF d   1       1.687  -1.644  -4.167  0.00  0.00     0.029 A 
ATOM      9  C7A BZF d   1       0.649  -2.161  -4.903  0.00  0.00     0.058 A 
ENDROOT
TORSDOF 0
ENDMDL
