MODEL 1
REMARK minimizedAffinity 6.59606218
REMARK minimizedRMSD -1
REMARK  0 active torsions:
REMARK  status: ('A' for Active; 'I' for Inactive)
ROOT
ATOM      1  O1  BZF d   1      -2.719   2.999   2.519  0.00  0.00    -0.204 OA
ATOM      2  C2  BZF d   1      -4.094   3.056   2.646  0.00  0.00     0.174 A 
ATOM      3  C3  BZF d   1      -4.650   1.861   2.362  0.00  0.00    -0.012 A 
ATOM      4  C3A BZF d   1      -3.548   0.979   2.126  0.00  0.00    -0.107 A 
ATOM      5  C4  BZF d   1      -3.456  -0.347   1.813  0.00  0.00     0.055 A 
ATOM      6  C5  BZF d   1      -2.232  -0.887   1.578  0.00  0.00    -0.016 A 
ATOM      7  C6  BZF d   1      -1.080  -0.131   1.641  0.00  0.00     0.022 A 
ATOM      8  C7  BZF d   1      -1.120   1.188   1.952  0.00  0.00     0.029 A 
ATOM      9  C7A BZF d   1      -2.353   1.729   2.223  0.00  0.00     0.058 A 
ENDROOT
TORSDOF 0
ENDMDL
