MODEL 1
REMARK minimizedAffinity 8.99104214
REMARK minimizedRMSD -1
REMARK  0 active torsions:
REMARK  status: ('A' for Active; 'I' for Inactive)
ROOT
ATOM      1  O1  BZF d   1       4.620   2.986  -5.999  0.00  0.00    -0.204 OA
ATOM      2  C2  BZF d   1       5.822   3.120  -5.331  0.00  0.00     0.174 A 
ATOM      3  C3  BZF d   1       5.768   4.140  -4.451  0.00  0.00    -0.012 A 
ATOM      4  C3A BZF d   1       4.422   4.620  -4.512  0.00  0.00    -0.107 A 
ATOM      5  C4  BZF d   1       3.748   5.612  -3.859  0.00  0.00     0.055 A 
ATOM      6  C5  BZF d   1       2.459   5.872  -4.202  0.00  0.00    -0.016 A 
ATOM      7  C6  BZF d   1       1.815   5.163  -5.196  0.00  0.00     0.022 A 
ATOM      8  C7  BZF d   1       2.441   4.166  -5.868  0.00  0.00     0.029 A 
ATOM      9  C7A BZF d   1       3.733   3.879  -5.500  0.00  0.00     0.058 A 
ENDROOT
TORSDOF 0
ENDMDL
