MODEL 1
REMARK minimizedAffinity 14.3998995
REMARK minimizedRMSD -1
REMARK  0 active torsions:
REMARK  status: ('A' for Active; 'I' for Inactive)
ROOT
ATOM      1  O1  BZF d   1      -0.766   2.026   3.366  0.00  0.00    -0.204 OA
ATOM      2  C2  BZF d   1      -0.125   0.901   2.885  0.00  0.00     0.174 A 
ATOM      3  C3  BZF d   1      -0.976   0.133   2.174  0.00  0.00    -0.012 A 
ATOM      4  C3A BZF d   1      -2.203   0.868   2.134  0.00  0.00    -0.107 A 
ATOM      5  C4  BZF d   1      -3.420   0.633   1.561  0.00  0.00     0.055 A 
ATOM      6  C5  BZF d   1      -4.431   1.516   1.772  0.00  0.00    -0.016 A 
ATOM      7  C6  BZF d   1      -4.262   2.640   2.554  0.00  0.00     0.022 A 
ATOM      8  C7  BZF d   1      -3.071   2.918   3.139  0.00  0.00     0.029 A 
ATOM      9  C7A BZF d   1      -2.038   2.045   2.901  0.00  0.00     0.058 A 
ENDROOT
TORSDOF 0
ENDMDL
