MODEL 1
REMARK minimizedAffinity 7.28251839
REMARK minimizedRMSD -1
REMARK  0 active torsions:
REMARK  status: ('A' for Active; 'I' for Inactive)
ROOT
ATOM      1  O1  BZF d   1      -0.695  -1.370   4.285  0.00  0.00    -0.204 OA
ATOM      2  C2  BZF d   1      -1.854  -1.816   4.891  0.00  0.00     0.174 A 
ATOM      3  C3  BZF d   1      -2.933  -1.191   4.379  0.00  0.00    -0.012 A 
ATOM      4  C3A BZF d   1      -2.426  -0.365   3.326  0.00  0.00    -0.107 A 
ATOM      5  C4  BZF d   1      -3.013   0.485   2.434  0.00  0.00     0.055 A 
ATOM      6  C5  BZF d   1      -2.227   1.196   1.583  0.00  0.00    -0.016 A 
ATOM      7  C6  BZF d   1      -0.852   1.084   1.600  0.00  0.00     0.022 A 
ATOM      8  C7  BZF d   1      -0.224   0.249   2.463  0.00  0.00     0.029 A 
ATOM      9  C7A BZF d   1      -1.018  -0.495   3.302  0.00  0.00     0.058 A 
ENDROOT
TORSDOF 0
ENDMDL
