MODEL 1
REMARK minimizedAffinity 7.21693182
REMARK minimizedRMSD -1
REMARK  0 active torsions:
REMARK  status: ('A' for Active; 'I' for Inactive)
ROOT
ATOM      1  O1  BZF d   1       4.108   1.729  -6.000  0.00  0.00    -0.204 OA
ATOM      2  C2  BZF d   1       3.390   0.583  -5.717  0.00  0.00     0.174 A 
ATOM      3  C3  BZF d   1       2.563   0.782  -4.671  0.00  0.00    -0.012 A 
ATOM      4  C3A BZF d   1       2.709   2.165  -4.334  0.00  0.00    -0.107 A 
ATOM      5  C4  BZF d   1       2.135   2.967  -3.389  0.00  0.00     0.055 A 
ATOM      6  C5  BZF d   1       2.550   4.256  -3.276  0.00  0.00    -0.016 A 
ATOM      7  C6  BZF d   1       3.538   4.774  -4.087  0.00  0.00     0.022 A 
ATOM      8  C7  BZF d   1       4.133   4.019  -5.043  0.00  0.00     0.029 A 
ATOM      9  C7A BZF d   1       3.693   2.725  -5.181  0.00  0.00     0.058 A 
ENDROOT
TORSDOF 0
ENDMDL
