MODEL 1
REMARK minimizedAffinity 5.75116301
REMARK minimizedRMSD -1
REMARK  0 active torsions:
REMARK  status: ('A' for Active; 'I' for Inactive)
ROOT
ATOM      1  O1  BZF d   1      -5.800  -4.328  -4.738  0.00  0.00    -0.204 OA
ATOM      2  C2  BZF d   1      -5.406  -3.874  -5.982  0.00  0.00     0.174 A 
ATOM      3  C3  BZF d   1      -5.095  -2.562  -5.936  0.00  0.00    -0.012 A 
ATOM      4  C3A BZF d   1      -5.219  -2.194  -4.559  0.00  0.00    -0.107 A 
ATOM      5  C4  BZF d   1      -5.026  -1.027  -3.878  0.00  0.00     0.055 A 
ATOM      6  C5  BZF d   1      -5.305  -0.983  -2.548  0.00  0.00    -0.016 A 
ATOM      7  C6  BZF d   1      -5.782  -2.086  -1.870  0.00  0.00     0.022 A 
ATOM      8  C7  BZF d   1      -5.985  -3.268  -2.502  0.00  0.00     0.029 A 
ATOM      9  C7A BZF d   1      -5.673  -3.324  -3.838  0.00  0.00     0.058 A 
ENDROOT
TORSDOF 0
ENDMDL
