MODEL 1
REMARK minimizedAffinity 15.1580162
REMARK minimizedRMSD -1
REMARK  0 active torsions:
REMARK  status: ('A' for Active; 'I' for Inactive)
ROOT
ATOM      1  O1  BZF d   1      -3.929  -2.532   3.781  0.00  0.00    -0.204 OA
ATOM      2  C2  BZF d   1      -3.477  -2.275   5.061  0.00  0.00     0.174 A 
ATOM      3  C3  BZF d   1      -3.946  -3.196   5.928  0.00  0.00    -0.012 A 
ATOM      4  C3A BZF d   1      -4.666  -4.137   5.124  0.00  0.00    -0.107 A 
ATOM      5  C4  BZF d   1      -5.347  -5.286   5.407  0.00  0.00     0.055 A 
ATOM      6  C5  BZF d   1      -6.000  -5.930   4.405  0.00  0.00    -0.016 A 
ATOM      7  C6  BZF d   1      -5.997  -5.452   3.111  0.00  0.00     0.022 A 
ATOM      8  C7  BZF d   1      -5.331  -4.319   2.781  0.00  0.00     0.029 A 
ATOM      9  C7A BZF d   1      -4.643  -3.683   3.785  0.00  0.00     0.058 A 
ENDROOT
TORSDOF 0
ENDMDL
