MODEL 1
REMARK minimizedAffinity 10.3709011
REMARK minimizedRMSD -1
REMARK  0 active torsions:
REMARK  status: ('A' for Active; 'I' for Inactive)
ROOT
ATOM      1  O1  BZF d   1      -2.432   2.601   2.135  0.00  0.00    -0.204 OA
ATOM      2  C2  BZF d   1      -1.539   1.550   2.211  0.00  0.00     0.174 A 
ATOM      3  C3  BZF d   1      -2.188   0.368   2.184  0.00  0.00    -0.012 A 
ATOM      4  C3A BZF d   1      -3.567   0.700   1.993  0.00  0.00    -0.107 A 
ATOM      5  C4  BZF d   1      -4.703  -0.046   1.869  0.00  0.00     0.055 A 
ATOM      6  C5  BZF d   1      -5.901   0.587   1.767  0.00  0.00    -0.016 A 
ATOM      7  C6  BZF d   1      -5.999   1.963   1.790  0.00  0.00     0.022 A 
ATOM      8  C7  BZF d   1      -4.899   2.746   1.906  0.00  0.00     0.029 A 
ATOM      9  C7A BZF d   1      -3.684   2.109   1.977  0.00  0.00     0.058 A 
ENDROOT
TORSDOF 0
ENDMDL
