MODEL 1
REMARK minimizedAffinity 9.30454636
REMARK minimizedRMSD -1
REMARK  0 active torsions:
REMARK  status: ('A' for Active; 'I' for Inactive)
ROOT
ATOM      1  O1  BZF d   1      -3.332   2.125   0.640  0.00  0.00    -0.204 OA
ATOM      2  C2  BZF d   1      -2.860   0.924   0.146  0.00  0.00     0.174 A 
ATOM      3  C3  BZF d   1      -1.586   0.714   0.536  0.00  0.00    -0.012 A 
ATOM      4  C3A BZF d   1      -1.271   1.811   1.399  0.00  0.00    -0.107 A 
ATOM      5  C4  BZF d   1      -0.158   2.156   2.111  0.00  0.00     0.055 A 
ATOM      6  C5  BZF d   1      -0.150   3.329   2.797  0.00  0.00    -0.016 A 
ATOM      7  C6  BZF d   1      -1.234   4.183   2.788  0.00  0.00     0.022 A 
ATOM      8  C7  BZF d   1      -2.362   3.882   2.100  0.00  0.00     0.029 A 
ATOM      9  C7A BZF d   1      -2.386   2.681   1.433  0.00  0.00     0.058 A 
ENDROOT
TORSDOF 0
ENDMDL
