MODEL 1
REMARK minimizedAffinity 12.6602535
REMARK minimizedRMSD -1
REMARK  0 active torsions:
REMARK  status: ('A' for Active; 'I' for Inactive)
ROOT
ATOM      1  O1  BZF d   1       4.070   3.378  -4.112  0.00  0.00    -0.204 OA
ATOM      2  C2  BZF d   1       4.650   3.425  -5.365  0.00  0.00     0.174 A 
ATOM      3  C3  BZF d   1       4.515   2.242  -6.000  0.00  0.00    -0.012 A 
ATOM      4  C3A BZF d   1       3.725   1.433  -5.123  0.00  0.00    -0.107 A 
ATOM      5  C4  BZF d   1       3.241   0.159  -5.204  0.00  0.00     0.055 A 
ATOM      6  C5  BZF d   1       2.565  -0.359  -4.144  0.00  0.00    -0.016 A 
ATOM      7  C6  BZF d   1       2.361   0.366  -2.989  0.00  0.00     0.022 A 
ATOM      8  C7  BZF d   1       2.819   1.635  -2.864  0.00  0.00     0.029 A 
ATOM      9  C7A BZF d   1       3.473   2.173  -3.945  0.00  0.00     0.058 A 
ENDROOT
TORSDOF 0
ENDMDL
