MODEL 1
REMARK minimizedAffinity 13.340353
REMARK minimizedRMSD -1
REMARK  0 active torsions:
REMARK  status: ('A' for Active; 'I' for Inactive)
ROOT
ATOM      1  O1  BZF d   1      -4.088  -1.008   0.924  0.00  0.00    -0.204 OA
ATOM      2  C2  BZF d   1      -5.355  -0.712   0.460  0.00  0.00     0.174 A 
ATOM      3  C3  BZF d   1      -5.870  -1.753  -0.224  0.00  0.00    -0.012 A 
ATOM      4  C3A BZF d   1      -4.899  -2.798  -0.107  0.00  0.00    -0.107 A 
ATOM      5  C4  BZF d   1      -4.845  -4.084  -0.562  0.00  0.00     0.055 A 
ATOM      6  C5  BZF d   1      -3.723  -4.817  -0.337  0.00  0.00    -0.016 A 
ATOM      7  C6  BZF d   1      -2.636  -4.294   0.333  0.00  0.00     0.022 A 
ATOM      8  C7  BZF d   1      -2.645  -3.025   0.807  0.00  0.00     0.029 A 
ATOM      9  C7A BZF d   1      -3.791  -2.292   0.611  0.00  0.00     0.058 A 
ENDROOT
TORSDOF 0
ENDMDL
