MODEL 1
REMARK minimizedAffinity 10.2484398
REMARK minimizedRMSD -1
REMARK  0 active torsions:
REMARK  status: ('A' for Active; 'I' for Inactive)
ROOT
ATOM      1  O1  BZF d   1      -3.782  -2.329   0.086  0.00  0.00    -0.204 OA
ATOM      2  C2  BZF d   1      -2.775  -3.248   0.307  0.00  0.00     0.174 A 
ATOM      3  C3  BZF d   1      -1.667  -2.640   0.779  0.00  0.00    -0.012 A 
ATOM      4  C3A BZF d   1      -2.034  -1.267   0.946  0.00  0.00    -0.107 A 
ATOM      5  C4  BZF d   1      -1.366  -0.165   1.398  0.00  0.00     0.055 A 
ATOM      6  C5  BZF d   1      -1.987   1.043   1.366  0.00  0.00    -0.016 A 
ATOM      7  C6  BZF d   1      -3.272   1.186   0.884  0.00  0.00     0.022 A 
ATOM      8  C7  BZF d   1      -3.977   0.121   0.431  0.00  0.00     0.029 A 
ATOM      9  C7A BZF d   1      -3.364  -1.106   0.492  0.00  0.00     0.058 A 
ENDROOT
TORSDOF 0
ENDMDL
