MODEL 1
REMARK minimizedAffinity 11.3843403
REMARK minimizedRMSD -1
REMARK  0 active torsions:
REMARK  status: ('A' for Active; 'I' for Inactive)
ROOT
ATOM      1  O1  BZF d   1       0.075   3.646   3.430  0.00  0.00    -0.204 OA
ATOM      2  C2  BZF d   1       1.173   2.851   3.697  0.00  0.00     0.174 A 
ATOM      3  C3  BZF d   1       1.030   1.634   3.135  0.00  0.00    -0.012 A 
ATOM      4  C3A BZF d   1      -0.195   1.701   2.399  0.00  0.00    -0.107 A 
ATOM      5  C4  BZF d   1      -0.869   0.808   1.615  0.00  0.00     0.055 A 
ATOM      6  C5  BZF d   1      -2.076   1.162   1.100  0.00  0.00    -0.016 A 
ATOM      7  C6  BZF d   1      -2.640   2.396   1.352  0.00  0.00     0.022 A 
ATOM      8  C7  BZF d   1      -2.006   3.316   2.119  0.00  0.00     0.029 A 
ATOM      9  C7A BZF d   1      -0.772   2.974   2.614  0.00  0.00     0.058 A 
ENDROOT
TORSDOF 0
ENDMDL
