MODEL 1
REMARK minimizedAffinity 17.0252018
REMARK minimizedRMSD -1
REMARK  0 active torsions:
REMARK  status: ('A' for Active; 'I' for Inactive)
ROOT
ATOM      1  O1  BZF d   1      -6.000  -2.094   0.379  0.00  0.00    -0.204 OA
ATOM      2  C2  BZF d   1      -5.815  -0.770   0.727  0.00  0.00     0.174 A 
ATOM      3  C3  BZF d   1      -4.516  -0.521   0.991  0.00  0.00    -0.012 A 
ATOM      4  C3A BZF d   1      -3.833  -1.746   0.707  0.00  0.00    -0.107 A 
ATOM      5  C4  BZF d   1      -2.522  -2.125   0.762  0.00  0.00     0.055 A 
ATOM      6  C5  BZF d   1      -2.196  -3.416   0.490  0.00  0.00    -0.016 A 
ATOM      7  C6  BZF d   1      -3.154  -4.354   0.166  0.00  0.00     0.022 A 
ATOM      8  C7  BZF d   1      -4.466  -4.025   0.094  0.00  0.00     0.029 A 
ATOM      9  C7A BZF d   1      -4.796  -2.713   0.336  0.00  0.00     0.058 A 
ENDROOT
TORSDOF 0
ENDMDL
