MODEL 1
REMARK minimizedAffinity -4.36485004
REMARK minimizedRMSD -1
REMARK  0 active torsions:
REMARK  status: ('A' for Active; 'I' for Inactive)
ROOT
ATOM      1  O1  BZF d   1      -0.967   2.221  -1.450  0.00  0.00    -0.204 OA
ATOM      2  C2  BZF d   1      -2.226   1.665  -1.341  0.00  0.00     0.174 A 
ATOM      3  C3  BZF d   1      -2.927   1.842  -2.480  0.00  0.00    -0.012 A 
ATOM      4  C3A BZF d   1      -2.018   2.473  -3.387  0.00  0.00    -0.107 A 
ATOM      5  C4  BZF d   1      -2.123   2.889  -4.683  0.00  0.00     0.055 A 
ATOM      6  C5  BZF d   1      -1.074   3.535  -5.257  0.00  0.00    -0.016 A 
ATOM      7  C6  BZF d   1       0.092   3.785  -4.563  0.00  0.00     0.022 A 
ATOM      8  C7  BZF d   1       0.245   3.386  -3.276  0.00  0.00     0.029 A 
ATOM      9  C7A BZF d   1      -0.802   2.705  -2.705  0.00  0.00     0.058 A 
ENDROOT
TORSDOF 0
ENDMDL
