MODEL 1
REMARK minimizedAffinity -3.60977864
REMARK minimizedRMSD -1
REMARK  0 active torsions:
REMARK  status: ('A' for Active; 'I' for Inactive)
ROOT
ATOM      1  O1  BZF d   1      -0.371   3.644  -5.212  0.00  0.00    -0.204 OA
ATOM      2  C2  BZF d   1       0.598   4.499  -4.723  0.00  0.00     0.174 A 
ATOM      3  C3  BZF d   1       0.700   4.389  -3.383  0.00  0.00    -0.012 A 
ATOM      4  C3A BZF d   1      -0.201   3.338  -3.022  0.00  0.00    -0.107 A 
ATOM      5  C4  BZF d   1      -0.533   2.753  -1.833  0.00  0.00     0.055 A 
ATOM      6  C5  BZF d   1      -1.503   1.802  -1.813  0.00  0.00    -0.016 A 
ATOM      7  C6  BZF d   1      -2.164   1.415  -2.960  0.00  0.00     0.022 A 
ATOM      8  C7  BZF d   1      -1.866   1.963  -4.163  0.00  0.00     0.029 A 
ATOM      9  C7A BZF d   1      -0.863   2.901  -4.192  0.00  0.00     0.058 A 
ENDROOT
TORSDOF 0
ENDMDL
