MODEL 1
REMARK minimizedAffinity -4.38292456
REMARK minimizedRMSD -1
REMARK  0 active torsions:
REMARK  status: ('A' for Active; 'I' for Inactive)
ROOT
ATOM      1  O1  BZF d   1      -1.026  -0.858   2.448  0.00  0.00    -0.204 OA
ATOM      2  C2  BZF d   1      -0.491  -1.917   3.155  0.00  0.00     0.174 A 
ATOM      3  C3  BZF d   1       0.712  -2.267   2.656  0.00  0.00    -0.012 A 
ATOM      4  C3A BZF d   1       0.985  -1.311   1.627  0.00  0.00    -0.107 A 
ATOM      5  C4  BZF d   1       2.036  -1.122   0.776  0.00  0.00     0.055 A 
ATOM      6  C5  BZF d   1       1.959  -0.140  -0.160  0.00  0.00    -0.016 A 
ATOM      7  C6  BZF d   1       0.847   0.667  -0.277  0.00  0.00     0.022 A 
ATOM      8  C7  BZF d   1      -0.218   0.521   0.548  0.00  0.00     0.029 A 
ATOM      9  C7A BZF d   1      -0.131  -0.449   1.517  0.00  0.00     0.058 A 
ENDROOT
TORSDOF 0
ENDMDL
