MODEL 1
REMARK minimizedAffinity -5.37875938
REMARK minimizedRMSD -1
REMARK  0 active torsions:
REMARK  status: ('A' for Active; 'I' for Inactive)
ROOT
ATOM      1  O1  BZF d   1      -1.124   0.562   1.848  0.00  0.00    -0.204 OA
ATOM      2  C2  BZF d   1      -1.663  -0.111   2.928  0.00  0.00     0.174 A 
ATOM      3  C3  BZF d   1      -0.965  -1.236   3.187  0.00  0.00    -0.012 A 
ATOM      4  C3A BZF d   1       0.130  -1.220   2.267  0.00  0.00    -0.107 A 
ATOM      5  C4  BZF d   1       1.182  -2.062   2.044  0.00  0.00     0.055 A 
ATOM      6  C5  BZF d   1       2.035  -1.797   1.020  0.00  0.00    -0.016 A 
ATOM      7  C6  BZF d   1       1.864  -0.704   0.197  0.00  0.00     0.022 A 
ATOM      8  C7  BZF d   1       0.839   0.163   0.382  0.00  0.00     0.029 A 
ATOM      9  C7A BZF d   1      -0.006  -0.084   1.436  0.00  0.00     0.058 A 
ENDROOT
TORSDOF 0
ENDMDL
