MODEL 1
REMARK minimizedAffinity -3.52314401
REMARK minimizedRMSD -1
REMARK  0 active torsions:
REMARK  status: ('A' for Active; 'I' for Inactive)
ROOT
ATOM      1  O1  BZF d   1       1.507  -2.878   1.042  0.00  0.00    -0.204 OA
ATOM      2  C2  BZF d   1       0.424  -3.052   1.882  0.00  0.00     0.174 A 
ATOM      3  C3  BZF d   1      -0.418  -2.001   1.801  0.00  0.00    -0.012 A 
ATOM      4  C3A BZF d   1       0.130  -1.158   0.783  0.00  0.00    -0.107 A 
ATOM      5  C4  BZF d   1      -0.264   0.030   0.235  0.00  0.00     0.055 A 
ATOM      6  C5  BZF d   1       0.533   0.627  -0.690  0.00  0.00    -0.016 A 
ATOM      7  C6  BZF d   1       1.731   0.068  -1.085  0.00  0.00     0.022 A 
ATOM      8  C7  BZF d   1       2.161  -1.111  -0.574  0.00  0.00     0.029 A 
ATOM      9  C7A BZF d   1       1.342  -1.733   0.336  0.00  0.00     0.058 A 
ENDROOT
TORSDOF 0
ENDMDL
