MODEL 1
REMARK minimizedAffinity -5.14659309
REMARK minimizedRMSD -1
REMARK  0 active torsions:
REMARK  status: ('A' for Active; 'I' for Inactive)
ROOT
ATOM      1  O1  BZF d   1      -1.186  -1.005   2.029  0.00  0.00    -0.204 OA
ATOM      2  C2  BZF d   1      -0.967  -1.972   2.992  0.00  0.00     0.174 A 
ATOM      3  C3  BZF d   1       0.206  -2.603   2.777  0.00  0.00    -0.012 A 
ATOM      4  C3A BZF d   1       0.797  -1.930   1.661  0.00  0.00    -0.107 A 
ATOM      5  C4  BZF d   1       1.973  -2.086   0.986  0.00  0.00     0.055 A 
ATOM      6  C5  BZF d   1       2.217  -1.313  -0.105  0.00  0.00    -0.016 A 
ATOM      7  C6  BZF d   1       1.305  -0.379  -0.550  0.00  0.00     0.022 A 
ATOM      8  C7  BZF d   1       0.127  -0.184   0.090  0.00  0.00     0.029 A 
ATOM      9  C7A BZF d   1      -0.108  -0.940   1.212  0.00  0.00     0.058 A 
ENDROOT
TORSDOF 0
ENDMDL
