MODEL 1
REMARK minimizedAffinity -6.70669603
REMARK minimizedRMSD -1
REMARK  0 active torsions:
REMARK  status: ('A' for Active; 'I' for Inactive)
ROOT
ATOM      1  O1  BZF d   1      -0.572   0.826   0.363  0.00  0.00    -0.204 OA
ATOM      2  C2  BZF d   1       0.294   1.201  -0.646  0.00  0.00     0.174 A 
ATOM      3  C3  BZF d   1       1.337   0.349  -0.722  0.00  0.00    -0.012 A 
ATOM      4  C3A BZF d   1       1.061  -0.671   0.243  0.00  0.00    -0.107 A 
ATOM      5  C4  BZF d   1       1.719  -1.804   0.626  0.00  0.00     0.055 A 
ATOM      6  C5  BZF d   1       1.218  -2.545   1.649  0.00  0.00    -0.016 A 
ATOM      7  C6  BZF d   1       0.066  -2.180   2.314  0.00  0.00     0.022 A 
ATOM      8  C7  BZF d   1      -0.624  -1.067   1.967  0.00  0.00     0.029 A 
ATOM      9  C7A BZF d   1      -0.139  -0.334   0.911  0.00  0.00     0.058 A 
ENDROOT
TORSDOF 0
ENDMDL
