MODEL 1
REMARK minimizedAffinity -3.20358157
REMARK minimizedRMSD -1
REMARK  0 active torsions:
REMARK  status: ('A' for Active; 'I' for Inactive)
ROOT
ATOM      1  O1  BZF d   1      -1.594   0.518   1.358  0.00  0.00    -0.204 OA
ATOM      2  C2  BZF d   1      -0.809   0.916   0.294  0.00  0.00     0.174 A 
ATOM      3  C3  BZF d   1       0.228   0.072   0.123  0.00  0.00    -0.012 A 
ATOM      4  C3A BZF d   1       0.030  -0.968   1.085  0.00  0.00    -0.107 A 
ATOM      5  C4  BZF d   1       0.721  -2.105   1.395  0.00  0.00     0.055 A 
ATOM      6  C5  BZF d   1       0.302  -2.868   2.438  0.00  0.00    -0.016 A 
ATOM      7  C6  BZF d   1      -0.797  -2.522   3.196  0.00  0.00     0.022 A 
ATOM      8  C7  BZF d   1      -1.517  -1.407   2.924  0.00  0.00     0.029 A 
ATOM      9  C7A BZF d   1      -1.116  -0.651   1.850  0.00  0.00     0.058 A 
ENDROOT
TORSDOF 0
ENDMDL
