MODEL 1
REMARK minimizedAffinity -3.96084356
REMARK minimizedRMSD -1
REMARK  0 active torsions:
REMARK  status: ('A' for Active; 'I' for Inactive)
ROOT
ATOM      1  O1  BZF d   1      -0.731   0.378   0.217  0.00  0.00    -0.204 OA
ATOM      2  C2  BZF d   1       0.076   0.873  -0.790  0.00  0.00     0.174 A 
ATOM      3  C3  BZF d   1       1.251   0.213  -0.829  0.00  0.00    -0.012 A 
ATOM      4  C3A BZF d   1       1.138  -0.816   0.159  0.00  0.00    -0.107 A 
ATOM      5  C4  BZF d   1       1.975  -1.809   0.580  0.00  0.00     0.055 A 
ATOM      6  C5  BZF d   1       1.592  -2.601   1.616  0.00  0.00    -0.016 A 
ATOM      7  C6  BZF d   1       0.382  -2.425   2.255  0.00  0.00     0.022 A 
ATOM      8  C7  BZF d   1      -0.484  -1.457   1.869  0.00  0.00     0.029 A 
ATOM      9  C7A BZF d   1      -0.114  -0.676   0.802  0.00  0.00     0.058 A 
ENDROOT
TORSDOF 0
ENDMDL
