MODEL 1
REMARK minimizedAffinity -4.77048779
REMARK minimizedRMSD -1
REMARK  0 active torsions:
REMARK  status: ('A' for Active; 'I' for Inactive)
ROOT
ATOM      1  O1  BZF d   1      -0.837   0.672   0.712  0.00  0.00    -0.204 OA
ATOM      2  C2  BZF d   1       0.024   1.273  -0.186  0.00  0.00     0.174 A 
ATOM      3  C3  BZF d   1       1.209   0.630  -0.217  0.00  0.00    -0.012 A 
ATOM      4  C3A BZF d   1       1.049  -0.496   0.652  0.00  0.00    -0.107 A 
ATOM      5  C4  BZF d   1       1.873  -1.520   1.022  0.00  0.00     0.055 A 
ATOM      6  C5  BZF d   1       1.437  -2.417   1.946  0.00  0.00    -0.016 A 
ATOM      7  C6  BZF d   1       0.188  -2.317   2.522  0.00  0.00     0.022 A 
ATOM      8  C7  BZF d   1      -0.667  -1.321   2.182  0.00  0.00     0.029 A 
ATOM      9  C7A BZF d   1      -0.242  -0.432   1.225  0.00  0.00     0.058 A 
ENDROOT
TORSDOF 0
ENDMDL
