MODEL 1
REMARK minimizedAffinity -5.70626545
REMARK minimizedRMSD -1
REMARK  0 active torsions:
REMARK  status: ('A' for Active; 'I' for Inactive)
ROOT
ATOM      1  O1  BZF d   1       1.984  -1.929   0.245  0.00  0.00    -0.204 OA
ATOM      2  C2  BZF d   1       1.555  -2.901   1.129  0.00  0.00     0.174 A 
ATOM      3  C3  BZF d   1       0.427  -2.510   1.758  0.00  0.00    -0.012 A 
ATOM      4  C3A BZF d   1       0.082  -1.254   1.167  0.00  0.00    -0.107 A 
ATOM      5  C4  BZF d   1      -0.946  -0.376   1.359  0.00  0.00     0.055 A 
ATOM      6  C5  BZF d   1      -0.951   0.796   0.672  0.00  0.00    -0.016 A 
ATOM      7  C6  BZF d   1       0.056   1.125  -0.210  0.00  0.00     0.022 A 
ATOM      8  C7  BZF d   1       1.095   0.285  -0.439  0.00  0.00     0.029 A 
ATOM      9  C7A BZF d   1       1.086  -0.915   0.230  0.00  0.00     0.058 A 
ENDROOT
TORSDOF 0
ENDMDL
