MODEL 1
REMARK minimizedAffinity -6.66803598
REMARK minimizedRMSD -1
REMARK  0 active torsions:
REMARK  status: ('A' for Active; 'I' for Inactive)
ROOT
ATOM      1  O1  BZF d   1      -0.945   0.267   0.947  0.00  0.00    -0.204 OA
ATOM      2  C2  BZF d   1      -0.283   0.727  -0.175  0.00  0.00     0.174 A 
ATOM      3  C3  BZF d   1       0.799  -0.034  -0.437  0.00  0.00    -0.012 A 
ATOM      4  C3A BZF d   1       0.762  -1.087   0.531  0.00  0.00    -0.107 A 
ATOM      5  C4  BZF d   1       1.561  -2.168   0.773  0.00  0.00     0.055 A 
ATOM      6  C5  BZF d   1       1.290  -2.963   1.842  0.00  0.00    -0.016 A 
ATOM      7  C6  BZF d   1       0.233  -2.704   2.690  0.00  0.00     0.022 A 
ATOM      8  C7  BZF d   1      -0.590  -1.647   2.487  0.00  0.00     0.029 A 
ATOM      9  C7A BZF d   1      -0.339  -0.861   1.389  0.00  0.00     0.058 A 
ENDROOT
TORSDOF 0
ENDMDL
