MODEL 1
REMARK minimizedAffinity -2.22658825
REMARK minimizedRMSD -1
REMARK  0 active torsions:
REMARK  status: ('A' for Active; 'I' for Inactive)
ROOT
ATOM      1  O1  BZF d   1      -2.351   0.649   1.842  0.00  0.00    -0.204 OA
ATOM      2  C2  BZF d   1      -2.572  -0.537   2.514  0.00  0.00     0.174 A 
ATOM      3  C3  BZF d   1      -1.705  -1.487   2.107  0.00  0.00    -0.012 A 
ATOM      4  C3A BZF d   1      -0.832  -0.828   1.184  0.00  0.00    -0.107 A 
ATOM      5  C4  BZF d   1       0.245  -1.240   0.453  0.00  0.00     0.055 A 
ATOM      6  C5  BZF d   1       0.831  -0.368  -0.409  0.00  0.00    -0.016 A 
ATOM      7  C6  BZF d   1       0.364   0.920  -0.569  0.00  0.00     0.022 A 
ATOM      8  C7  BZF d   1      -0.699   1.376   0.138  0.00  0.00     0.029 A 
ATOM      9  C7A BZF d   1      -1.273   0.507   1.034  0.00  0.00     0.058 A 
ENDROOT
TORSDOF 0
ENDMDL
