MODEL 1
REMARK minimizedAffinity -5.56787205
REMARK minimizedRMSD -1
REMARK  0 active torsions:
REMARK  status: ('A' for Active; 'I' for Inactive)
ROOT
ATOM      1  O1  BZF d   1       1.468   1.074  -0.112  0.00  0.00    -0.204 OA
ATOM      2  C2  BZF d   1       0.191   1.577  -0.270  0.00  0.00     0.174 A 
ATOM      3  C3  BZF d   1      -0.731   0.610  -0.086  0.00  0.00    -0.012 A 
ATOM      4  C3A BZF d   1       0.013  -0.551   0.296  0.00  0.00    -0.107 A 
ATOM      5  C4  BZF d   1      -0.343  -1.826   0.630  0.00  0.00     0.055 A 
ATOM      6  C5  BZF d   1       0.631  -2.740   0.882  0.00  0.00    -0.016 A 
ATOM      7  C6  BZF d   1       1.969  -2.414   0.805  0.00  0.00     0.022 A 
ATOM      8  C7  BZF d   1       2.372  -1.160   0.484  0.00  0.00     0.029 A 
ATOM      9  C7A BZF d   1       1.389  -0.226   0.260  0.00  0.00     0.058 A 
ENDROOT
TORSDOF 0
ENDMDL
