MODEL 1
REMARK minimizedAffinity -5.94327688
REMARK minimizedRMSD -1
REMARK  0 active torsions:
REMARK  status: ('A' for Active; 'I' for Inactive)
ROOT
ATOM      1  O1  BZF d   1      -0.994   0.031   0.541  0.00  0.00    -0.204 OA
ATOM      2  C2  BZF d   1      -0.187   0.631  -0.406  0.00  0.00     0.174 A 
ATOM      3  C3  BZF d   1       1.024   0.038  -0.448  0.00  0.00    -0.012 A 
ATOM      4  C3A BZF d   1       0.939  -1.057   0.470  0.00  0.00    -0.107 A 
ATOM      5  C4  BZF d   1       1.817  -2.029   0.856  0.00  0.00     0.055 A 
ATOM      6  C5  BZF d   1       1.448  -2.904   1.827  0.00  0.00    -0.016 A 
ATOM      7  C6  BZF d   1       0.212  -2.834   2.436  0.00  0.00     0.022 A 
ATOM      8  C7  BZF d   1      -0.695  -1.891   2.084  0.00  0.00     0.029 A 
ATOM      9  C7A BZF d   1      -0.337  -1.025   1.079  0.00  0.00     0.058 A 
ENDROOT
TORSDOF 0
ENDMDL
