MODEL 1
REMARK minimizedAffinity -3.3452177
REMARK minimizedRMSD -1
REMARK  0 active torsions:
REMARK  status: ('A' for Active; 'I' for Inactive)
ROOT
ATOM      1  O1  BZF d   1       0.204  -2.229   0.873  0.00  0.00    -0.204 OA
ATOM      2  C2  BZF d   1       1.503  -2.692   0.799  0.00  0.00     0.174 A 
ATOM      3  C3  BZF d   1       2.303  -1.781   0.207  0.00  0.00    -0.012 A 
ATOM      4  C3A BZF d   1       1.468  -0.643  -0.026  0.00  0.00    -0.107 A 
ATOM      5  C4  BZF d   1       1.691   0.589  -0.572  0.00  0.00     0.055 A 
ATOM      6  C5  BZF d   1       0.646   1.445  -0.721  0.00  0.00    -0.016 A 
ATOM      7  C6  BZF d   1      -0.634   1.101  -0.339  0.00  0.00     0.022 A 
ATOM      8  C7  BZF d   1      -0.903  -0.108   0.213  0.00  0.00     0.029 A 
ATOM      9  C7A BZF d   1       0.156  -0.962   0.394  0.00  0.00     0.058 A 
ENDROOT
TORSDOF 0
ENDMDL
