MODEL 1
REMARK minimizedAffinity -5.10829306
REMARK minimizedRMSD -1
REMARK  0 active torsions:
REMARK  status: ('A' for Active; 'I' for Inactive)
ROOT
ATOM      1  O1  BZF d   1      -1.045   0.382   0.324  0.00  0.00    -0.204 OA
ATOM      2  C2  BZF d   1      -0.489   1.373  -0.461  0.00  0.00     0.174 A 
ATOM      3  C3  BZF d   1       0.780   1.062  -0.796  0.00  0.00    -0.012 A 
ATOM      4  C3A BZF d   1       1.001  -0.245  -0.259  0.00  0.00    -0.107 A 
ATOM      5  C4  BZF d   1       2.067  -1.099  -0.276  0.00  0.00     0.055 A 
ATOM      6  C5  BZF d   1       1.985  -2.271   0.407  0.00  0.00    -0.016 A 
ATOM      7  C6  BZF d   1       0.856  -2.619   1.120  0.00  0.00     0.022 A 
ATOM      8  C7  BZF d   1      -0.228  -1.807   1.162  0.00  0.00     0.029 A 
ATOM      9  C7A BZF d   1      -0.160  -0.636   0.446  0.00  0.00     0.058 A 
ENDROOT
TORSDOF 0
ENDMDL
