MODEL 1
REMARK minimizedAffinity -4.67683411
REMARK minimizedRMSD -1
REMARK  1 active torsions:
REMARK  status: ('A' for Active; 'I' for Inactive)
REMARK    1  A    between atoms: N_2  and  C1_3 
ROOT
ATOM      1  C1  UNL d   1       0.768  -0.145   0.257  0.00  0.00     0.143 A 
ATOM      2  C2  UNL d   1       0.066   0.706   1.116  0.00  0.00    -0.057 A 
ATOM      3  C3  UNL d   1       0.695   1.794   1.734  0.00  0.00     0.033 A 
ATOM      4  C4  UNL d   1       2.049   2.032   1.525  0.00  0.00    -0.042 A 
ATOM      5  C5  UNL d   1       2.773   1.184   0.695  0.00  0.00     0.033 A 
ATOM      6  C6  UNL d   1       2.138   0.104   0.075  0.00  0.00    -0.057 A 
ENDROOT
BRANCH   1   7
ATOM      7  N   UNL d   1       0.223  -1.300  -0.310  0.00  0.00    -0.732 N 
ATOM      8  C   UNL d   1      -1.003  -1.238  -1.076  0.00  0.00     0.284 C 
ATOM      9  H3  UNL d   1       0.934  -1.908  -0.711  0.00  0.00     0.395 HD
ENDBRANCH   1   7
TORSDOF 1
ENDMDL
