MODEL 1
REMARK minimizedAffinity -4.26185036
REMARK minimizedRMSD -1
REMARK  1 active torsions:
REMARK  status: ('A' for Active; 'I' for Inactive)
REMARK    1  A    between atoms: N_2  and  C1_3 
ROOT
ATOM      1  C1  UNL d   1       1.562   1.196   0.530  0.00  0.00     0.143 A 
ATOM      2  C2  UNL d   1       0.995   0.165  -0.227  0.00  0.00    -0.057 A 
ATOM      3  C3  UNL d   1      -0.284  -0.327   0.058  0.00  0.00     0.033 A 
ATOM      4  C4  UNL d   1      -1.011   0.185   1.128  0.00  0.00    -0.042 A 
ATOM      5  C5  UNL d   1      -0.457   1.193   1.910  0.00  0.00     0.033 A 
ATOM      6  C6  UNL d   1       0.818   1.685   1.616  0.00  0.00    -0.057 A 
ENDROOT
BRANCH   1   7
ATOM      7  N   UNL d   1       2.868   1.660   0.358  0.00  0.00    -0.732 N 
ATOM      8  C   UNL d   1       3.988   0.745   0.408  0.00  0.00     0.284 C 
ATOM      9  H3  UNL d   1       2.937   2.363  -0.374  0.00  0.00     0.395 HD
ENDBRANCH   1   7
TORSDOF 1
ENDMDL
