MODEL 1
REMARK minimizedAffinity -3.0153904
REMARK minimizedRMSD -1
REMARK  1 active torsions:
REMARK  status: ('A' for Active; 'I' for Inactive)
REMARK    1  A    between atoms: N_2  and  C1_3 
ROOT
ATOM      1  C1  UNL d   1      -0.093   0.123  -0.226  0.00  0.00     0.143 A 
ATOM      2  C2  UNL d   1       1.296   0.147  -0.061  0.00  0.00    -0.057 A 
ATOM      3  C3  UNL d   1       1.897   0.932   0.930  0.00  0.00     0.033 A 
ATOM      4  C4  UNL d   1       1.117   1.732   1.759  0.00  0.00    -0.042 A 
ATOM      5  C5  UNL d   1      -0.264   1.743   1.598  0.00  0.00     0.033 A 
ATOM      6  C6  UNL d   1      -0.858   0.952   0.610  0.00  0.00    -0.057 A 
ENDROOT
BRANCH   1   7
ATOM      7  N   UNL d   1      -0.743  -0.561  -1.256  0.00  0.00    -0.732 N 
ATOM      8  C   UNL d   1      -0.707  -2.006  -1.319  0.00  0.00     0.284 C 
ATOM      9  H3  UNL d   1      -1.650  -0.157  -1.479  0.00  0.00     0.395 HD
ENDBRANCH   1   7
TORSDOF 1
ENDMDL
