MODEL 1
REMARK minimizedAffinity -4.81011915
REMARK minimizedRMSD -1
REMARK  1 active torsions:
REMARK  status: ('A' for Active; 'I' for Inactive)
REMARK    1  A    between atoms: N_2  and  C1_3 
ROOT
ATOM      1  C1  UNL d   1       0.605   0.589   0.085  0.00  0.00     0.143 A 
ATOM      2  C2  UNL d   1       0.604   1.695   0.941  0.00  0.00    -0.057 A 
ATOM      3  C3  UNL d   1       1.798   2.316   1.327  0.00  0.00     0.033 A 
ATOM      4  C4  UNL d   1       3.021   1.822   0.884  0.00  0.00    -0.042 A 
ATOM      5  C5  UNL d   1       3.047   0.708   0.052  0.00  0.00     0.033 A 
ATOM      6  C6  UNL d   1       1.851   0.097  -0.335  0.00  0.00    -0.057 A 
ENDROOT
BRANCH   1   7
ATOM      7  N   UNL d   1      -0.542  -0.132  -0.256  0.00  0.00    -0.732 N 
ATOM      8  C   UNL d   1      -0.508  -1.576  -0.335  0.00  0.00     0.284 C 
ATOM      9  H3  UNL d   1      -1.380   0.241   0.185  0.00  0.00     0.395 HD
ENDBRANCH   1   7
TORSDOF 1
ENDMDL
