MODEL 1
REMARK minimizedAffinity -4.25831842
REMARK minimizedRMSD -1
REMARK  1 active torsions:
REMARK  status: ('A' for Active; 'I' for Inactive)
REMARK    1  A    between atoms: N_2  and  C1_3 
ROOT
ATOM      1  C1  UNL d   1       0.650   0.960   0.409  0.00  0.00     0.143 A 
ATOM      2  C2  UNL d   1       0.485   1.526   1.678  0.00  0.00    -0.057 A 
ATOM      3  C3  UNL d   1       1.490   2.308   2.260  0.00  0.00     0.033 A 
ATOM      4  C4  UNL d   1       2.693   2.513   1.594  0.00  0.00    -0.042 A 
ATOM      5  C5  UNL d   1       2.889   1.940   0.343  0.00  0.00     0.033 A 
ATOM      6  C6  UNL d   1       1.879   1.166  -0.237  0.00  0.00    -0.057 A 
ENDROOT
BRANCH   1   7
ATOM      7  N   UNL d   1      -0.273   0.093  -0.182  0.00  0.00    -0.732 N 
ATOM      8  C   UNL d   1      -0.101  -1.341  -0.088  0.00  0.00     0.284 C 
ATOM      9  H3  UNL d   1      -1.233   0.405  -0.059  0.00  0.00     0.395 HD
ENDBRANCH   1   7
TORSDOF 1
ENDMDL
