MODEL 1
REMARK minimizedAffinity -3.66460085
REMARK minimizedRMSD -1
REMARK  1 active torsions:
REMARK  status: ('A' for Active; 'I' for Inactive)
REMARK    1  A    between atoms: N_2  and  C1_3 
ROOT
ATOM      1  C1  UNL d   1       0.838  -0.050  -0.009  0.00  0.00     0.143 A 
ATOM      2  C2  UNL d   1       2.010   0.613  -0.391  0.00  0.00    -0.057 A 
ATOM      3  C3  UNL d   1       2.465   1.740   0.304  0.00  0.00     0.033 A 
ATOM      4  C4  UNL d   1       1.739   2.243   1.378  0.00  0.00    -0.042 A 
ATOM      5  C5  UNL d   1       0.558   1.616   1.759  0.00  0.00     0.033 A 
ATOM      6  C6  UNL d   1       0.112   0.487   1.065  0.00  0.00    -0.057 A 
ENDROOT
BRANCH   1   7
ATOM      7  N   UNL d   1       0.281  -1.116  -0.720  0.00  0.00    -0.732 N 
ATOM      8  C   UNL d   1      -1.079  -1.045  -1.208  0.00  0.00     0.284 C 
ATOM      9  H3  UNL d   1       0.938  -1.530  -1.377  0.00  0.00     0.395 HD
ENDBRANCH   1   7
TORSDOF 1
ENDMDL
