MODEL 1
REMARK minimizedAffinity -4.72089815
REMARK minimizedRMSD -1
REMARK  1 active torsions:
REMARK  status: ('A' for Active; 'I' for Inactive)
REMARK    1  A    between atoms: N_2  and  C1_3 
ROOT
ATOM      1  C1  UNL d   1       0.742   0.047   0.017  0.00  0.00     0.143 A 
ATOM      2  C2  UNL d   1       0.021   1.044   0.684  0.00  0.00    -0.057 A 
ATOM      3  C3  UNL d   1       0.666   2.147   1.256  0.00  0.00     0.033 A 
ATOM      4  C4  UNL d   1       2.051   2.259   1.196  0.00  0.00    -0.042 A 
ATOM      5  C5  UNL d   1       2.790   1.268   0.560  0.00  0.00     0.033 A 
ATOM      6  C6  UNL d   1       2.140   0.172  -0.015  0.00  0.00    -0.057 A 
ENDROOT
BRANCH   1   7
ATOM      7  N   UNL d   1       0.169  -1.123  -0.487  0.00  0.00    -0.732 N 
ATOM      8  C   UNL d   1      -1.027  -1.067  -1.299  0.00  0.00     0.284 C 
ATOM      9  H3  UNL d   1       0.866  -1.785  -0.818  0.00  0.00     0.395 HD
ENDBRANCH   1   7
TORSDOF 1
ENDMDL
