MODEL 1
REMARK minimizedAffinity -3.07383561
REMARK minimizedRMSD -1
REMARK  1 active torsions:
REMARK  status: ('A' for Active; 'I' for Inactive)
REMARK    1  A    between atoms: N_2  and  C1_3 
ROOT
ATOM      1  C1  UNL d   1       0.155   0.045  -0.067  0.00  0.00     0.143 A 
ATOM      2  C2  UNL d   1      -0.461   0.580   1.070  0.00  0.00    -0.057 A 
ATOM      3  C3  UNL d   1       0.016   1.752   1.670  0.00  0.00     0.033 A 
ATOM      4  C4  UNL d   1       1.138   2.395   1.160  0.00  0.00    -0.042 A 
ATOM      5  C5  UNL d   1       1.782   1.867   0.046  0.00  0.00     0.033 A 
ATOM      6  C6  UNL d   1       1.297   0.701  -0.553  0.00  0.00    -0.057 A 
ENDROOT
BRANCH   1   7
ATOM      7  N   UNL d   1      -0.212  -1.170  -0.651  0.00  0.00    -0.732 N 
ATOM      8  C   UNL d   1      -1.049  -1.198  -1.831  0.00  0.00     0.284 C 
ATOM      9  H3  UNL d   1       0.555  -1.839  -0.669  0.00  0.00     0.395 HD
ENDBRANCH   1   7
TORSDOF 1
ENDMDL
