MODEL 1
REMARK minimizedAffinity 2.16938257
REMARK minimizedRMSD -1
REMARK  1 active torsions:
REMARK  status: ('A' for Active; 'I' for Inactive)
REMARK    1  A    between atoms: N_2  and  C1_3 
ROOT
ATOM      1  C1  UNL d   1       0.153  -0.193   0.013  0.00  0.00     0.143 A 
ATOM      2  C2  UNL d   1       0.394  -0.320   1.385  0.00  0.00    -0.057 A 
ATOM      3  C3  UNL d   1      -0.531   0.140   2.330  0.00  0.00     0.033 A 
ATOM      4  C4  UNL d   1      -1.704   0.764   1.918  0.00  0.00    -0.042 A 
ATOM      5  C5  UNL d   1      -1.952   0.924   0.559  0.00  0.00     0.033 A 
ATOM      6  C6  UNL d   1      -1.028   0.456  -0.380  0.00  0.00    -0.057 A 
ENDROOT
BRANCH   1   7
ATOM      7  N   UNL d   1       1.078  -0.542  -0.974  0.00  0.00    -0.732 N 
ATOM      8  C   UNL d   1       2.491  -0.612  -0.669  0.00  0.00     0.284 C 
ATOM      9  H3  UNL d   1       0.744  -1.295  -1.572  0.00  0.00     0.395 HD
ENDBRANCH   1   7
TORSDOF 1
ENDMDL
