MODEL 1
REMARK minimizedAffinity -1.83635771
REMARK minimizedRMSD -1
REMARK  1 active torsions:
REMARK  status: ('A' for Active; 'I' for Inactive)
REMARK    1  A    between atoms: N_2  and  C1_3 
ROOT
ATOM      1  C1  UNL d   1       0.045  -0.129  -0.662  0.00  0.00     0.143 A 
ATOM      2  C2  UNL d   1       1.354  -0.303  -0.201  0.00  0.00    -0.057 A 
ATOM      3  C3  UNL d   1       1.748   0.160   1.060  0.00  0.00     0.033 A 
ATOM      4  C4  UNL d   1       0.843   0.835   1.873  0.00  0.00    -0.042 A 
ATOM      5  C5  UNL d   1      -0.457   1.041   1.426  0.00  0.00     0.033 A 
ATOM      6  C6  UNL d   1      -0.846   0.570   0.168  0.00  0.00    -0.057 A 
ENDROOT
BRANCH   1   7
ATOM      7  N   UNL d   1      -0.381  -0.480  -1.945  0.00  0.00    -0.732 N 
ATOM      8  C   UNL d   1      -1.792  -0.568  -2.255  0.00  0.00     0.284 C 
ATOM      9  H3  UNL d   1       0.178  -0.041  -2.674  0.00  0.00     0.395 HD
ENDBRANCH   1   7
TORSDOF 1
ENDMDL
