MODEL 1
REMARK minimizedAffinity -2.40879345
REMARK minimizedRMSD -1
REMARK  1 active torsions:
REMARK  status: ('A' for Active; 'I' for Inactive)
REMARK    1  A    between atoms: N_2  and  C1_3 
ROOT
ATOM      1  C1  UNL d   1       0.118   0.747   1.413  0.00  0.00     0.143 A 
ATOM      2  C2  UNL d   1       0.457   0.291   0.135  0.00  0.00    -0.057 A 
ATOM      3  C3  UNL d   1       0.083  -0.984  -0.304  0.00  0.00     0.033 A 
ATOM      4  C4  UNL d   1      -0.615  -1.841   0.541  0.00  0.00    -0.042 A 
ATOM      5  C5  UNL d   1      -0.941  -1.418   1.825  0.00  0.00     0.033 A 
ATOM      6  C6  UNL d   1      -0.570  -0.141   2.255  0.00  0.00    -0.057 A 
ENDROOT
BRANCH   1   7
ATOM      7  N   UNL d   1       0.546   1.967   1.943  0.00  0.00    -0.732 N 
ATOM      8  C   UNL d   1       1.951   2.310   1.961  0.00  0.00     0.284 C 
ATOM      9  H3  UNL d   1      -0.068   2.738   1.688  0.00  0.00     0.395 HD
ENDBRANCH   1   7
TORSDOF 1
ENDMDL
