MODEL 1
REMARK minimizedAffinity 2.08148718
REMARK minimizedRMSD -1
REMARK  1 active torsions:
REMARK  status: ('A' for Active; 'I' for Inactive)
REMARK    1  A    between atoms: C3_4  and  O_7 
ROOT
ATOM      1  C   UNL d   1      -0.373   1.246   1.059  0.00  0.00    -0.033 A 
ATOM      2  C1  UNL d   1       0.121   0.946   2.330  0.00  0.00     0.039 A 
ATOM      3  C2  UNL d   1       0.937   1.861   2.997  0.00  0.00    -0.080 A 
ATOM      4  C3  UNL d   1       1.251   3.071   2.384  0.00  0.00     0.150 A 
ATOM      5  C4  UNL d   1       0.759   3.378   1.120  0.00  0.00    -0.007 A 
ATOM      6  C5  UNL d   1      -0.055   2.463   0.454  0.00  0.00     0.039 A 
ENDROOT
BRANCH   4   7
ATOM      7  O   UNL d   1       2.048   3.993   2.994  0.00  0.00    -0.526 OA
ATOM      8  H5  UNL d   1       2.337   3.633   3.849  0.00  0.00     0.418 HD
ENDBRANCH   4   7
TORSDOF 1
ENDMDL
