MODEL 1
REMARK minimizedAffinity 1.83762407
REMARK minimizedRMSD -1
REMARK  1 active torsions:
REMARK  status: ('A' for Active; 'I' for Inactive)
REMARK    1  A    between atoms: C3_4  and  O_7 
ROOT
ATOM      1  C   UNL d   1      -0.271  -0.601   1.095  0.00  0.00    -0.033 A 
ATOM      2  C1  UNL d   1       0.786  -0.629   0.182  0.00  0.00     0.039 A 
ATOM      3  C2  UNL d   1       2.102  -0.725   0.638  0.00  0.00    -0.080 A 
ATOM      4  C3  UNL d   1       2.348  -0.793   2.006  0.00  0.00     0.150 A 
ATOM      5  C4  UNL d   1       1.301  -0.769   2.921  0.00  0.00    -0.007 A 
ATOM      6  C5  UNL d   1      -0.013  -0.672   2.464  0.00  0.00     0.039 A 
ENDROOT
BRANCH   4   7
ATOM      7  O   UNL d   1       3.616  -0.882   2.499  0.00  0.00    -0.526 OA
ATOM      8  H5  UNL d   1       4.238  -0.860   1.752  0.00  0.00     0.418 HD
ENDBRANCH   4   7
TORSDOF 1
ENDMDL
