MODEL 1
REMARK minimizedAffinity 1.9594388
REMARK minimizedRMSD -1
REMARK  1 active torsions:
REMARK  status: ('A' for Active; 'I' for Inactive)
REMARK    1  A    between atoms: C3_4  and  O_7 
ROOT
ATOM      1  C   UNL d   1      -6.000  -2.948   4.857  0.00  0.00    -0.033 A 
ATOM      2  C1  UNL d   1      -5.987  -3.395   3.534  0.00  0.00     0.039 A 
ATOM      3  C2  UNL d   1      -5.950  -2.476   2.484  0.00  0.00    -0.080 A 
ATOM      4  C3  UNL d   1      -5.926  -1.113   2.770  0.00  0.00     0.150 A 
ATOM      5  C4  UNL d   1      -5.935  -0.661   4.086  0.00  0.00    -0.007 A 
ATOM      6  C5  UNL d   1      -5.973  -1.581   5.132  0.00  0.00     0.039 A 
ENDROOT
BRANCH   4   7
ATOM      7  O   UNL d   1      -5.895  -0.178   1.779  0.00  0.00    -0.526 OA
ATOM      8  H5  UNL d   1      -5.921  -0.636   0.923  0.00  0.00     0.418 HD
ENDBRANCH   4   7
TORSDOF 1
ENDMDL
