MODEL 1
REMARK minimizedAffinity 1.74271631
REMARK minimizedRMSD -1
REMARK  1 active torsions:
REMARK  status: ('A' for Active; 'I' for Inactive)
REMARK    1  A    between atoms: C3_4  and  O_7 
ROOT
ATOM      1  C   UNL d   1       0.369   0.937   2.693  0.00  0.00    -0.033 A 
ATOM      2  C1  UNL d   1       0.575   2.310   2.840  0.00  0.00     0.039 A 
ATOM      3  C2  UNL d   1       0.559   3.144   1.720  0.00  0.00    -0.080 A 
ATOM      4  C3  UNL d   1       0.335   2.593   0.461  0.00  0.00     0.150 A 
ATOM      5  C4  UNL d   1       0.125   1.227   0.308  0.00  0.00    -0.007 A 
ATOM      6  C5  UNL d   1       0.143   0.395   1.427  0.00  0.00     0.039 A 
ENDROOT
BRANCH   4   7
ATOM      7  O   UNL d   1       0.314   3.367  -0.661  0.00  0.00    -0.526 OA
ATOM      8  H5  UNL d   1       0.502   4.285  -0.405  0.00  0.00     0.418 HD
ENDBRANCH   4   7
TORSDOF 1
ENDMDL
