MODEL 1
REMARK minimizedAffinity 4.59069204
REMARK minimizedRMSD -1
REMARK  1 active torsions:
REMARK  status: ('A' for Active; 'I' for Inactive)
REMARK    1  A    between atoms: C3_4  and  O_7 
ROOT
ATOM      1  C   UNL d   1       2.078   4.605   2.217  0.00  0.00    -0.033 A 
ATOM      2  C1  UNL d   1       1.034   4.104   1.436  0.00  0.00     0.039 A 
ATOM      3  C2  UNL d   1       0.388   2.923   1.806  0.00  0.00    -0.080 A 
ATOM      4  C3  UNL d   1       0.794   2.254   2.957  0.00  0.00     0.150 A 
ATOM      5  C4  UNL d   1       1.830   2.749   3.742  0.00  0.00    -0.007 A 
ATOM      6  C5  UNL d   1       2.475   3.928   3.371  0.00  0.00     0.039 A 
ENDROOT
BRANCH   4   7
ATOM      7  O   UNL d   1       0.196   1.095   3.356  0.00  0.00    -0.526 OA
ATOM      8  H5  UNL d   1      -0.482   0.858   2.702  0.00  0.00     0.418 HD
ENDBRANCH   4   7
TORSDOF 1
ENDMDL
