MODEL 1
REMARK minimizedAffinity 4.88404179
REMARK minimizedRMSD -1
REMARK  1 active torsions:
REMARK  status: ('A' for Active; 'I' for Inactive)
REMARK    1  A    between atoms: C3_4  and  O_7 
ROOT
ATOM      1  C   UNL d   1       0.958  -0.534   2.022  0.00  0.00    -0.033 A 
ATOM      2  C1  UNL d   1       0.546   0.789   1.849  0.00  0.00     0.039 A 
ATOM      3  C2  UNL d   1       0.119   1.231   0.596  0.00  0.00    -0.080 A 
ATOM      4  C3  UNL d   1       0.107   0.341  -0.475  0.00  0.00     0.150 A 
ATOM      5  C4  UNL d   1       0.512  -0.979  -0.309  0.00  0.00    -0.007 A 
ATOM      6  C5  UNL d   1       0.940  -1.418   0.943  0.00  0.00     0.039 A 
ENDROOT
BRANCH   4   7
ATOM      7  O   UNL d   1      -0.298   0.728  -1.718  0.00  0.00    -0.526 OA
ATOM      8  H5  UNL d   1      -0.521   1.673  -1.689  0.00  0.00     0.418 HD
ENDBRANCH   4   7
TORSDOF 1
ENDMDL
