MODEL 1
REMARK minimizedAffinity -2.42284155
REMARK minimizedRMSD -1
REMARK  1 active torsions:
REMARK  status: ('A' for Active; 'I' for Inactive)
REMARK    1  A    between atoms: C3_4  and  O_7 
ROOT
ATOM      1  C   UNL d   1       0.274   0.804   1.954  0.00  0.00    -0.033 A 
ATOM      2  C1  UNL d   1       0.253   0.390   0.621  0.00  0.00     0.039 A 
ATOM      3  C2  UNL d   1       0.280   1.336  -0.406  0.00  0.00    -0.080 A 
ATOM      4  C3  UNL d   1       0.330   2.690  -0.087  0.00  0.00     0.150 A 
ATOM      5  C4  UNL d   1       0.356   3.109   1.239  0.00  0.00    -0.007 A 
ATOM      6  C5  UNL d   1       0.328   2.164   2.264  0.00  0.00     0.039 A 
ENDROOT
BRANCH   4   7
ATOM      7  O   UNL d   1       0.354   3.650  -1.054  0.00  0.00    -0.526 OA
ATOM      8  H5  UNL d   1       0.302   3.214  -1.921  0.00  0.00     0.418 HD
ENDBRANCH   4   7
TORSDOF 1
ENDMDL
