MODEL 1
REMARK minimizedAffinity -2.82498908
REMARK minimizedRMSD -1
REMARK  0 active torsions:
REMARK  status: ('A' for Active; 'I' for Inactive)
ROOT
ATOM      1  C   UNL d   1      -1.433   0.971   0.002  0.00  0.00     0.078 C 
ATOM      2  C1  UNL d   1      -0.486  -0.192   0.017  0.00  0.00    -0.077 A 
ATOM      3  C2  UNL d   1      -0.739  -1.318   0.810  0.00  0.00    -0.001 A 
ATOM      4  C3  UNL d   1       0.157  -2.388   0.821  0.00  0.00     0.003 A 
ATOM      5  C4  UNL d   1       1.312  -2.343   0.043  0.00  0.00    -0.005 A 
ATOM      6  C5  UNL d   1       1.573  -1.225  -0.747  0.00  0.00     0.003 A 
ATOM      7  C6  UNL d   1       0.679  -0.154  -0.760  0.00  0.00    -0.001 A 
ENDROOT
TORSDOF 0
ENDMDL
