MODEL 1
REMARK minimizedAffinity -5.00495481
REMARK minimizedRMSD -1
REMARK  0 active torsions:
REMARK  status: ('A' for Active; 'I' for Inactive)
ROOT
ATOM      1  C   UNL d   1      -0.422   1.005  -0.348  0.00  0.00     0.078 C 
ATOM      2  C1  UNL d   1       0.830   0.249  -0.014  0.00  0.00    -0.077 A 
ATOM      3  C2  UNL d   1       1.969   0.913   0.457  0.00  0.00    -0.001 A 
ATOM      4  C3  UNL d   1       3.130   0.198   0.755  0.00  0.00     0.003 A 
ATOM      5  C4  UNL d   1       3.164  -1.184   0.583  0.00  0.00    -0.005 A 
ATOM      6  C5  UNL d   1       2.036  -1.853   0.113  0.00  0.00     0.003 A 
ATOM      7  C6  UNL d   1       0.874  -1.140  -0.185  0.00  0.00    -0.001 A 
ENDROOT
TORSDOF 0
ENDMDL
