MODEL 1
REMARK minimizedAffinity -5.84704494
REMARK minimizedRMSD -1
REMARK  0 active torsions:
REMARK  status: ('A' for Active; 'I' for Inactive)
ROOT
ATOM      1  C   UNL d   1      -0.796   0.412  -0.479  0.00  0.00     0.078 C 
ATOM      2  C1  UNL d   1       0.643   0.355  -0.059  0.00  0.00    -0.077 A 
ATOM      3  C2  UNL d   1       1.459   1.491  -0.126  0.00  0.00    -0.001 A 
ATOM      4  C3  UNL d   1       2.799   1.421   0.258  0.00  0.00     0.003 A 
ATOM      5  C4  UNL d   1       3.335   0.217   0.712  0.00  0.00    -0.005 A 
ATOM      6  C5  UNL d   1       2.531  -0.919   0.780  0.00  0.00     0.003 A 
ATOM      7  C6  UNL d   1       1.191  -0.851   0.396  0.00  0.00    -0.001 A 
ENDROOT
TORSDOF 0
ENDMDL
