MODEL 1
REMARK minimizedAffinity -5.48843575
REMARK minimizedRMSD -1
REMARK  0 active torsions:
REMARK  status: ('A' for Active; 'I' for Inactive)
ROOT
ATOM      1  C   UNL d   1      -0.161   0.463  -0.419  0.00  0.00     0.078 C 
ATOM      2  C1  UNL d   1       1.256   0.287   0.040  0.00  0.00    -0.077 A 
ATOM      3  C2  UNL d   1       2.187   1.327  -0.080  0.00  0.00    -0.001 A 
ATOM      4  C3  UNL d   1       3.505   1.146   0.342  0.00  0.00     0.003 A 
ATOM      5  C4  UNL d   1       3.905  -0.073   0.885  0.00  0.00    -0.005 A 
ATOM      6  C5  UNL d   1       2.987  -1.114   1.006  0.00  0.00     0.003 A 
ATOM      7  C6  UNL d   1       1.668  -0.935   0.584  0.00  0.00    -0.001 A 
ENDROOT
TORSDOF 0
ENDMDL
