MODEL 1
REMARK minimizedAffinity 4.60867739
REMARK minimizedRMSD -1
REMARK  0 active torsions:
REMARK  status: ('A' for Active; 'I' for Inactive)
ROOT
ATOM      1  C   UNL d   1       0.008   0.884   0.366  0.00  0.00     0.078 C 
ATOM      2  C1  UNL d   1       0.150  -0.589   0.122  0.00  0.00    -0.077 A 
ATOM      3  C2  UNL d   1       1.407  -1.165  -0.098  0.00  0.00    -0.001 A 
ATOM      4  C3  UNL d   1       1.523  -2.536  -0.333  0.00  0.00     0.003 A 
ATOM      5  C4  UNL d   1       0.386  -3.342  -0.352  0.00  0.00    -0.005 A 
ATOM      6  C5  UNL d   1      -0.869  -2.777  -0.136  0.00  0.00     0.003 A 
ATOM      7  C6  UNL d   1      -0.987  -1.406   0.099  0.00  0.00    -0.001 A 
ENDROOT
TORSDOF 0
ENDMDL
