MODEL 1
REMARK minimizedAffinity 9.48595333
REMARK minimizedRMSD -1
REMARK  0 active torsions:
REMARK  status: ('A' for Active; 'I' for Inactive)
ROOT
ATOM      1  C2' OXE d   1       5.557   2.045  -2.955  0.00  0.00     0.078 C 
ATOM      2  C1' OXE d   1       5.644   2.564  -0.198  0.00  0.00     0.078 C 
ATOM      3  C1  OXE d   1       4.552   1.657  -0.709  0.00  0.00    -0.078 A 
ATOM      4  C2  OXE d   1       4.489   1.446  -2.065  0.00  0.00    -0.078 A 
ATOM      5  C3  OXE d   1       3.536   0.575  -2.584  0.00  0.00     0.003 A 
ATOM      6  C4  OXE d   1       2.546   0.033  -1.755  0.00  0.00    -0.002 A 
ATOM      7  C5  OXE d   1       2.568   0.267  -0.376  0.00  0.00    -0.002 A 
ATOM      8  C6  OXE d   1       3.587   1.041   0.168  0.00  0.00     0.003 A 
ENDROOT
TORSDOF 0
ENDMDL
