MODEL 1
REMARK minimizedAffinity 2.91045523
REMARK minimizedRMSD -1
REMARK  0 active torsions:
REMARK  status: ('A' for Active; 'I' for Inactive)
ROOT
ATOM      1  C2' OXE d   1       0.875   5.275   1.631  0.00  0.00     0.078 C 
ATOM      2  C1' OXE d   1       0.743   4.628   4.360  0.00  0.00     0.078 C 
ATOM      3  C1  OXE d   1       2.100   4.922   3.771  0.00  0.00    -0.078 A 
ATOM      4  C2  OXE d   1       2.161   5.191   2.425  0.00  0.00    -0.078 A 
ATOM      5  C3  OXE d   1       3.381   5.523   1.843  0.00  0.00     0.003 A 
ATOM      6  C4  OXE d   1       4.567   5.434   2.582  0.00  0.00    -0.002 A 
ATOM      7  C5  OXE d   1       4.532   5.122   3.945  0.00  0.00    -0.002 A 
ATOM      8  C6  OXE d   1       3.305   4.905   4.563  0.00  0.00     0.003 A 
ENDROOT
TORSDOF 0
ENDMDL
