MODEL 1
REMARK minimizedAffinity -0.417639017
REMARK minimizedRMSD -1
REMARK  0 active torsions:
REMARK  status: ('A' for Active; 'I' for Inactive)
ROOT
ATOM      1  C2' OXE d   1      -1.940  -5.354  -3.861  0.00  0.00     0.078 C 
ATOM      2  C1' OXE d   1      -0.590  -3.343  -2.441  0.00  0.00     0.078 C 
ATOM      3  C1  OXE d   1      -1.638  -2.917  -3.439  0.00  0.00    -0.078 A 
ATOM      4  C2  OXE d   1      -2.260  -3.906  -4.163  0.00  0.00    -0.078 A 
ATOM      5  C3  OXE d   1      -3.273  -3.571  -5.057  0.00  0.00     0.003 A 
ATOM      6  C4  OXE d   1      -3.557  -2.229  -5.338  0.00  0.00    -0.002 A 
ATOM      7  C5  OXE d   1      -2.906  -1.205  -4.640  0.00  0.00    -0.002 A 
ATOM      8  C6  OXE d   1      -1.977  -1.533  -3.659  0.00  0.00     0.003 A 
ENDROOT
TORSDOF 0
ENDMDL
