MODEL 1
REMARK minimizedAffinity 12.0082607
REMARK minimizedRMSD -1
REMARK  0 active torsions:
REMARK  status: ('A' for Active; 'I' for Inactive)
ROOT
ATOM      1  C2' OXE d   1       2.001   0.797   5.127  0.00  0.00     0.078 C 
ATOM      2  C1' OXE d   1       2.648  -0.097   2.546  0.00  0.00     0.078 C 
ATOM      3  C1  OXE d   1       3.599  -0.436   3.666  0.00  0.00    -0.078 A 
ATOM      4  C2  OXE d   1       3.298   0.046   4.918  0.00  0.00    -0.078 A 
ATOM      5  C3  OXE d   1       4.113  -0.283   5.997  0.00  0.00     0.003 A 
ATOM      6  C4  OXE d   1       5.316  -0.970   5.794  0.00  0.00    -0.002 A 
ATOM      7  C5  OXE d   1       5.661  -1.435   4.520  0.00  0.00    -0.002 A 
ATOM      8  C6  OXE d   1       4.795  -1.214   3.456  0.00  0.00     0.003 A 
ENDROOT
TORSDOF 0
ENDMDL
