MODEL 1
REMARK minimizedAffinity 9.15276527
REMARK minimizedRMSD -1
REMARK  0 active torsions:
REMARK  status: ('A' for Active; 'I' for Inactive)
ROOT
ATOM      1  C2' OXE d   1       3.195   1.536   0.981  0.00  0.00     0.078 C 
ATOM      2  C1' OXE d   1       3.487  -0.415   2.978  0.00  0.00     0.078 C 
ATOM      3  C1  OXE d   1       2.736   0.845   3.330  0.00  0.00    -0.078 A 
ATOM      4  C2  OXE d   1       2.638   1.814   2.361  0.00  0.00    -0.078 A 
ATOM      5  C3  OXE d   1       1.909   2.972   2.615  0.00  0.00     0.003 A 
ATOM      6  C4  OXE d   1       1.406   3.226   3.897  0.00  0.00    -0.002 A 
ATOM      7  C5  OXE d   1       1.529   2.269   4.910  0.00  0.00    -0.002 A 
ATOM      8  C6  OXE d   1       2.152   1.058   4.631  0.00  0.00     0.003 A 
ENDROOT
TORSDOF 0
ENDMDL
