MODEL 1
REMARK minimizedAffinity 8.26686287
REMARK minimizedRMSD -1
REMARK  0 active torsions:
REMARK  status: ('A' for Active; 'I' for Inactive)
ROOT
ATOM      1  C2' OXE d   1       3.720   0.450   1.678  0.00  0.00     0.078 C 
ATOM      2  C1' OXE d   1       2.438  -0.006  -0.777  0.00  0.00     0.078 C 
ATOM      3  C1  OXE d   1       3.696   0.826  -0.785  0.00  0.00    -0.078 A 
ATOM      4  C2  OXE d   1       4.291   1.083   0.427  0.00  0.00    -0.078 A 
ATOM      5  C3  OXE d   1       5.484   1.799   0.471  0.00  0.00     0.003 A 
ATOM      6  C4  OXE d   1       6.000   2.389  -0.690  0.00  0.00    -0.002 A 
ATOM      7  C5  OXE d   1       5.387   2.173  -1.928  0.00  0.00    -0.002 A 
ATOM      8  C6  OXE d   1       4.261   1.360  -1.999  0.00  0.00     0.003 A 
ENDROOT
TORSDOF 0
ENDMDL
