MODEL 1
REMARK minimizedAffinity 2.17178059
REMARK minimizedRMSD -1
REMARK  0 active torsions:
REMARK  status: ('A' for Active; 'I' for Inactive)
ROOT
ATOM      1  C   UNL d   1      -5.674  -3.359   5.061  0.00  0.00     0.078 C 
ATOM      2  C1  UNL d   1      -5.263  -2.196   4.209  0.00  0.00    -0.077 A 
ATOM      3  C2  UNL d   1      -4.138  -2.273   3.378  0.00  0.00    -0.001 A 
ATOM      4  C3  UNL d   1      -3.761  -1.179   2.598  0.00  0.00     0.003 A 
ATOM      5  C4  UNL d   1      -4.502  -0.000   2.641  0.00  0.00    -0.005 A 
ATOM      6  C5  UNL d   1      -5.621   0.087   3.466  0.00  0.00     0.003 A 
ATOM      7  C6  UNL d   1      -6.000  -1.006   4.247  0.00  0.00    -0.001 A 
ENDROOT
TORSDOF 0
ENDMDL
