MODEL 1
REMARK minimizedAffinity 1.99487126
REMARK minimizedRMSD -1
REMARK  0 active torsions:
REMARK  status: ('A' for Active; 'I' for Inactive)
ROOT
ATOM      1  C   UNL d   1      -1.826  -1.513  -5.999  0.00  0.00     0.078 C 
ATOM      2  C1  UNL d   1      -1.863  -3.012  -5.996  0.00  0.00    -0.077 A 
ATOM      3  C2  UNL d   1      -3.080  -3.704  -5.998  0.00  0.00    -0.001 A 
ATOM      4  C3  UNL d   1      -3.099  -5.100  -5.985  0.00  0.00     0.003 A 
ATOM      5  C4  UNL d   1      -1.903  -5.815  -5.968  0.00  0.00    -0.005 A 
ATOM      6  C5  UNL d   1      -0.687  -5.136  -5.963  0.00  0.00     0.003 A 
ATOM      7  C6  UNL d   1      -0.666  -3.740  -5.976  0.00  0.00    -0.001 A 
ENDROOT
TORSDOF 0
ENDMDL
