MODEL 1
REMARK minimizedAffinity -1.61207175
REMARK minimizedRMSD -1
REMARK  0 active torsions:
REMARK  status: ('A' for Active; 'I' for Inactive)
ROOT
ATOM      1  C   UNL d   1      -1.327  -3.218  -5.989  0.00  0.00     0.078 C 
ATOM      2  C1  UNL d   1      -2.650  -3.923  -6.000  0.00  0.00    -0.077 A 
ATOM      3  C2  UNL d   1      -3.851  -3.203  -5.999  0.00  0.00    -0.001 A 
ATOM      4  C3  UNL d   1      -5.076  -3.873  -5.999  0.00  0.00     0.003 A 
ATOM      5  C4  UNL d   1      -5.111  -5.266  -5.999  0.00  0.00    -0.005 A 
ATOM      6  C5  UNL d   1      -3.921  -5.991  -5.998  0.00  0.00     0.003 A 
ATOM      7  C6  UNL d   1      -2.696  -5.323  -5.998  0.00  0.00    -0.001 A 
ENDROOT
TORSDOF 0
ENDMDL
