MODEL 1
REMARK minimizedAffinity -2.81077409
REMARK minimizedRMSD -1
REMARK  0 active torsions:
REMARK  status: ('A' for Active; 'I' for Inactive)
ROOT
ATOM      1  C   UNL d   1      -0.651  -3.592  -5.726  0.00  0.00     0.078 C 
ATOM      2  C1  UNL d   1      -2.050  -4.132  -5.736  0.00  0.00    -0.077 A 
ATOM      3  C2  UNL d   1      -3.143  -3.298  -6.000  0.00  0.00    -0.001 A 
ATOM      4  C3  UNL d   1      -4.441  -3.812  -5.997  0.00  0.00     0.003 A 
ATOM      5  C4  UNL d   1      -4.658  -5.162  -5.729  0.00  0.00    -0.005 A 
ATOM      6  C5  UNL d   1      -3.576  -6.000  -5.464  0.00  0.00     0.003 A 
ATOM      7  C6  UNL d   1      -2.278  -5.487  -5.466  0.00  0.00    -0.001 A 
ENDROOT
TORSDOF 0
ENDMDL
