MODEL 1
REMARK minimizedAffinity 5.88480854
REMARK minimizedRMSD -1
REMARK  0 active torsions:
REMARK  status: ('A' for Active; 'I' for Inactive)
ROOT
ATOM      1  C   UNL d   1      -2.453   6.000   0.630  0.00  0.00     0.078 C 
ATOM      2  C1  UNL d   1      -1.487   5.239  -0.228  0.00  0.00    -0.077 A 
ATOM      3  C2  UNL d   1      -1.187   5.664  -1.528  0.00  0.00    -0.001 A 
ATOM      4  C3  UNL d   1      -0.294   4.940  -2.319  0.00  0.00     0.003 A 
ATOM      5  C4  UNL d   1       0.306   3.785  -1.820  0.00  0.00    -0.005 A 
ATOM      6  C5  UNL d   1       0.012   3.353  -0.529  0.00  0.00     0.003 A 
ATOM      7  C6  UNL d   1      -0.881   4.076   0.264  0.00  0.00    -0.001 A 
ENDROOT
TORSDOF 0
ENDMDL
