MODEL 1
REMARK minimizedAffinity -2.89670444
REMARK minimizedRMSD -1
REMARK  0 active torsions:
REMARK  status: ('A' for Active; 'I' for Inactive)
ROOT
ATOM      1  C   UNL d   1      -6.000  -5.240  -5.982  0.00  0.00     0.078 C 
ATOM      2  C1  UNL d   1      -4.535  -4.918  -5.981  0.00  0.00    -0.077 A 
ATOM      3  C2  UNL d   1      -4.088  -3.591  -5.987  0.00  0.00    -0.001 A 
ATOM      4  C3  UNL d   1      -2.722  -3.306  -5.996  0.00  0.00     0.003 A 
ATOM      5  C4  UNL d   1      -1.791  -4.343  -6.000  0.00  0.00    -0.005 A 
ATOM      6  C5  UNL d   1      -2.226  -5.667  -5.996  0.00  0.00     0.003 A 
ATOM      7  C6  UNL d   1      -3.592  -5.953  -5.987  0.00  0.00    -0.001 A 
ENDROOT
TORSDOF 0
ENDMDL
