MODEL 1
REMARK minimizedAffinity 1.42013717
REMARK minimizedRMSD -1
REMARK  0 active torsions:
REMARK  status: ('A' for Active; 'I' for Inactive)
ROOT
ATOM      1  C   UNL d   1       0.003   2.587   0.453  0.00  0.00     0.078 C 
ATOM      2  C1  UNL d   1      -0.291   3.726  -0.477  0.00  0.00    -0.077 A 
ATOM      3  C2  UNL d   1      -0.763   4.951   0.011  0.00  0.00    -0.001 A 
ATOM      4  C3  UNL d   1      -1.042   5.999  -0.867  0.00  0.00     0.003 A 
ATOM      5  C4  UNL d   1      -0.853   5.834  -2.238  0.00  0.00    -0.005 A 
ATOM      6  C5  UNL d   1      -0.386   4.618  -2.732  0.00  0.00     0.003 A 
ATOM      7  C6  UNL d   1      -0.107   3.568  -1.856  0.00  0.00    -0.001 A 
ENDROOT
TORSDOF 0
ENDMDL
