MODEL 1
REMARK minimizedAffinity -1.15572655
REMARK minimizedRMSD -1
REMARK  0 active torsions:
REMARK  status: ('A' for Active; 'I' for Inactive)
ROOT
ATOM      1  C   UNL d   1      -1.430   1.455   1.517  0.00  0.00     0.078 C 
ATOM      2  C1  UNL d   1      -0.811   2.246   0.403  0.00  0.00    -0.077 A 
ATOM      3  C2  UNL d   1      -0.089   1.614  -0.616  0.00  0.00    -0.001 A 
ATOM      4  C3  UNL d   1       0.490   2.364  -1.641  0.00  0.00     0.003 A 
ATOM      5  C4  UNL d   1       0.353   3.751  -1.656  0.00  0.00    -0.005 A 
ATOM      6  C5  UNL d   1      -0.363   4.389  -0.645  0.00  0.00     0.003 A 
ATOM      7  C6  UNL d   1      -0.942   3.641   0.380  0.00  0.00    -0.001 A 
ENDROOT
TORSDOF 0
ENDMDL
