MODEL 1
REMARK minimizedAffinity -1.78836191
REMARK minimizedRMSD -1
REMARK  0 active torsions:
REMARK  status: ('A' for Active; 'I' for Inactive)
ROOT
ATOM      1  C   UNL d   1      -1.761   0.755   1.868  0.00  0.00     0.078 C 
ATOM      2  C1  UNL d   1      -1.128   1.794   0.993  0.00  0.00    -0.077 A 
ATOM      3  C2  UNL d   1      -0.150   1.447   0.053  0.00  0.00    -0.001 A 
ATOM      4  C3  UNL d   1       0.438   2.426  -0.749  0.00  0.00     0.003 A 
ATOM      5  C4  UNL d   1       0.056   3.760  -0.618  0.00  0.00    -0.005 A 
ATOM      6  C5  UNL d   1      -0.915   4.116   0.316  0.00  0.00     0.003 A 
ATOM      7  C6  UNL d   1      -1.504   3.137   1.119  0.00  0.00    -0.001 A 
ENDROOT
TORSDOF 0
ENDMDL
