MODEL 1
REMARK minimizedAffinity 2.28015184
REMARK minimizedRMSD -1
REMARK  0 active torsions:
REMARK  status: ('A' for Active; 'I' for Inactive)
ROOT
ATOM      1  C   UNL d   1      -1.467   1.804   1.252  0.00  0.00     0.078 C 
ATOM      2  C1  UNL d   1      -0.502   1.047   0.389  0.00  0.00    -0.077 A 
ATOM      3  C2  UNL d   1      -0.637   1.034  -1.004  0.00  0.00    -0.001 A 
ATOM      4  C3  UNL d   1       0.264   0.318  -1.794  0.00  0.00     0.003 A 
ATOM      5  C4  UNL d   1       1.305  -0.393  -1.199  0.00  0.00    -0.005 A 
ATOM      6  C5  UNL d   1       1.445  -0.388   0.187  0.00  0.00     0.003 A 
ATOM      7  C6  UNL d   1       0.546   0.328   0.978  0.00  0.00    -0.001 A 
ENDROOT
TORSDOF 0
ENDMDL
