MODEL 1
REMARK minimizedAffinity 1.37894964
REMARK minimizedRMSD -1
REMARK  0 active torsions:
REMARK  status: ('A' for Active; 'I' for Inactive)
ROOT
ATOM      1  C   UNL d   1      -1.983   1.476   2.274  0.00  0.00     0.078 C 
ATOM      2  C1  UNL d   1      -0.791   1.427   1.366  0.00  0.00    -0.077 A 
ATOM      3  C2  UNL d   1      -0.829   2.009   0.093  0.00  0.00    -0.001 A 
ATOM      4  C3  UNL d   1       0.284   1.947  -0.746  0.00  0.00     0.003 A 
ATOM      5  C4  UNL d   1       1.445   1.303  -0.321  0.00  0.00    -0.005 A 
ATOM      6  C5  UNL d   1       1.492   0.719   0.943  0.00  0.00     0.003 A 
ATOM      7  C6  UNL d   1       0.379   0.779   1.783  0.00  0.00    -0.001 A 
ENDROOT
TORSDOF 0
ENDMDL
