MODEL 1
REMARK minimizedAffinity 1.38023448
REMARK minimizedRMSD -1
REMARK  0 active torsions:
REMARK  status: ('A' for Active; 'I' for Inactive)
ROOT
ATOM      1  C   UNL d   1      -1.003   3.672   0.281  0.00  0.00     0.078 C 
ATOM      2  C1  UNL d   1      -1.096   2.361   1.003  0.00  0.00    -0.077 A 
ATOM      3  C2  UNL d   1      -2.339   1.781   1.287  0.00  0.00    -0.001 A 
ATOM      4  C3  UNL d   1      -2.411   0.565   1.968  0.00  0.00     0.003 A 
ATOM      5  C4  UNL d   1      -1.244  -0.081   2.372  0.00  0.00    -0.005 A 
ATOM      6  C5  UNL d   1      -0.004   0.489   2.096  0.00  0.00     0.003 A 
ATOM      7  C6  UNL d   1       0.071   1.705   1.415  0.00  0.00    -0.001 A 
ENDROOT
TORSDOF 0
ENDMDL
