MODEL 1
REMARK minimizedAffinity -1.02384734
REMARK minimizedRMSD -1
REMARK  0 active torsions:
REMARK  status: ('A' for Active; 'I' for Inactive)
ROOT
ATOM      1  C   UNL d   1      -1.708  -0.051   2.590  0.00  0.00     0.078 C 
ATOM      2  C1  UNL d   1      -1.759   1.176   1.729  0.00  0.00    -0.077 A 
ATOM      3  C2  UNL d   1      -0.640   1.589   0.996  0.00  0.00    -0.001 A 
ATOM      4  C3  UNL d   1      -0.699   2.739   0.206  0.00  0.00     0.003 A 
ATOM      5  C4  UNL d   1      -1.874   3.484   0.142  0.00  0.00    -0.005 A 
ATOM      6  C5  UNL d   1      -2.992   3.082   0.870  0.00  0.00     0.003 A 
ATOM      7  C6  UNL d   1      -2.935   1.933   1.660  0.00  0.00    -0.001 A 
ENDROOT
TORSDOF 0
ENDMDL
