MODEL 1
REMARK minimizedAffinity -3.23917031
REMARK minimizedRMSD -1
REMARK  0 active torsions:
REMARK  status: ('A' for Active; 'I' for Inactive)
ROOT
ATOM      1  C   UNL d   1      -1.863   0.569   2.104  0.00  0.00     0.078 C 
ATOM      2  C1  UNL d   1      -1.477   1.674   1.167  0.00  0.00    -0.077 A 
ATOM      3  C2  UNL d   1      -2.326   2.767   0.953  0.00  0.00    -0.001 A 
ATOM      4  C3  UNL d   1      -1.958   3.784   0.070  0.00  0.00     0.003 A 
ATOM      5  C4  UNL d   1      -0.742   3.717  -0.607  0.00  0.00    -0.005 A 
ATOM      6  C5  UNL d   1       0.108   2.633  -0.401  0.00  0.00     0.003 A 
ATOM      7  C6  UNL d   1      -0.258   1.615   0.481  0.00  0.00    -0.001 A 
ENDROOT
TORSDOF 0
ENDMDL
