MODEL 1
REMARK minimizedAffinity 3.71213961
REMARK minimizedRMSD -1
REMARK  0 active torsions:
REMARK  status: ('A' for Active; 'I' for Inactive)
ROOT
ATOM      1  C   UNL d   1      -2.146   1.121   1.814  0.00  0.00     0.078 C 
ATOM      2  C1  UNL d   1      -1.412   2.049   0.892  0.00  0.00    -0.077 A 
ATOM      3  C2  UNL d   1      -1.331   3.420   1.164  0.00  0.00    -0.001 A 
ATOM      4  C3  UNL d   1      -0.653   4.274   0.293  0.00  0.00     0.003 A 
ATOM      5  C4  UNL d   1      -0.051   3.766  -0.857  0.00  0.00    -0.005 A 
ATOM      6  C5  UNL d   1      -0.128   2.403  -1.137  0.00  0.00     0.003 A 
ATOM      7  C6  UNL d   1      -0.806   1.548  -0.267  0.00  0.00    -0.001 A 
ENDROOT
TORSDOF 0
ENDMDL
