MODEL 1
REMARK minimizedAffinity 0.485162437
REMARK minimizedRMSD -1
REMARK  0 active torsions:
REMARK  status: ('A' for Active; 'I' for Inactive)
ROOT
ATOM      1  C   UNL d   1      -1.306   0.839   2.133  0.00  0.00     0.078 C 
ATOM      2  C1  UNL d   1      -0.700   1.512   0.938  0.00  0.00    -0.077 A 
ATOM      3  C2  UNL d   1      -0.814   2.895   0.753  0.00  0.00    -0.001 A 
ATOM      4  C3  UNL d   1      -0.253   3.507  -0.369  0.00  0.00     0.003 A 
ATOM      5  C4  UNL d   1       0.425   2.743  -1.316  0.00  0.00    -0.005 A 
ATOM      6  C5  UNL d   1       0.543   1.365  -1.142  0.00  0.00     0.003 A 
ATOM      7  C6  UNL d   1      -0.018   0.752  -0.021  0.00  0.00    -0.001 A 
ENDROOT
TORSDOF 0
ENDMDL
