MODEL 1
REMARK minimizedAffinity 1.22281194
REMARK minimizedRMSD -1
REMARK  0 active torsions:
REMARK  status: ('A' for Active; 'I' for Inactive)
ROOT
ATOM      1  C   UNL d   1      -1.756   1.250   1.892  0.00  0.00     0.078 C 
ATOM      2  C1  UNL d   1      -1.171   2.040   0.759  0.00  0.00    -0.077 A 
ATOM      3  C2  UNL d   1      -0.508   1.402  -0.297  0.00  0.00    -0.001 A 
ATOM      4  C3  UNL d   1       0.040   2.150  -1.341  0.00  0.00     0.003 A 
ATOM      5  C4  UNL d   1      -0.068   3.540  -1.338  0.00  0.00    -0.005 A 
ATOM      6  C5  UNL d   1      -0.725   4.183  -0.290  0.00  0.00     0.003 A 
ATOM      7  C6  UNL d   1      -1.273   3.436   0.754  0.00  0.00    -0.001 A 
ENDROOT
TORSDOF 0
ENDMDL
