MODEL 1
REMARK minimizedAffinity 3.4767158
REMARK minimizedRMSD -1
REMARK  0 active torsions:
REMARK  status: ('A' for Active; 'I' for Inactive)
ROOT
ATOM      1  C   UNL d   1      -0.203  -4.615   5.999  0.00  0.00     0.078 C 
ATOM      2  C1  UNL d   1      -1.305  -3.784   5.413  0.00  0.00    -0.077 A 
ATOM      3  C2  UNL d   1      -2.576  -3.755   5.999  0.00  0.00    -0.001 A 
ATOM      4  C3  UNL d   1      -3.595  -2.985   5.436  0.00  0.00     0.003 A 
ATOM      5  C4  UNL d   1      -3.354  -2.239   4.284  0.00  0.00    -0.005 A 
ATOM      6  C5  UNL d   1      -2.093  -2.263   3.693  0.00  0.00     0.003 A 
ATOM      7  C6  UNL d   1      -1.072  -3.033   4.254  0.00  0.00    -0.001 A 
ENDROOT
TORSDOF 0
ENDMDL
