MODEL 1
REMARK minimizedAffinity 2.03286123
REMARK minimizedRMSD -1
REMARK  0 active torsions:
REMARK  status: ('A' for Active; 'I' for Inactive)
ROOT
ATOM      1  C   UNL d   1       0.227  -4.876   6.000  0.00  0.00     0.078 C 
ATOM      2  C1  UNL d   1      -0.824  -4.011   5.371  0.00  0.00    -0.077 A 
ATOM      3  C2  UNL d   1      -2.057  -3.801   6.000  0.00  0.00    -0.001 A 
ATOM      4  C3  UNL d   1      -3.030  -3.001   5.398  0.00  0.00     0.003 A 
ATOM      5  C4  UNL d   1      -2.779  -2.405   4.164  0.00  0.00    -0.005 A 
ATOM      6  C5  UNL d   1      -1.556  -2.609   3.529  0.00  0.00     0.003 A 
ATOM      7  C6  UNL d   1      -0.582  -3.409   4.129  0.00  0.00    -0.001 A 
ENDROOT
TORSDOF 0
ENDMDL
