MODEL 1
REMARK minimizedAffinity 9.27019215
REMARK minimizedRMSD -1
REMARK  0 active torsions:
REMARK  status: ('A' for Active; 'I' for Inactive)
ROOT
ATOM      1  C   UNL d   1       1.937   0.013   1.024  0.00  0.00     0.078 C 
ATOM      2  C1  UNL d   1       0.888   0.862   1.678  0.00  0.00    -0.077 A 
ATOM      3  C2  UNL d   1       1.172   2.172   2.085  0.00  0.00    -0.001 A 
ATOM      4  C3  UNL d   1       0.189   2.947   2.702  0.00  0.00     0.003 A 
ATOM      5  C4  UNL d   1      -1.084   2.422   2.919  0.00  0.00    -0.005 A 
ATOM      6  C5  UNL d   1      -1.374   1.119   2.519  0.00  0.00     0.003 A 
ATOM      7  C6  UNL d   1      -0.392   0.342   1.902  0.00  0.00    -0.001 A 
ENDROOT
TORSDOF 0
ENDMDL
