MODEL 1
REMARK minimizedAffinity -5.08419895
REMARK minimizedRMSD -1
REMARK  0 active torsions:
REMARK  status: ('A' for Active; 'I' for Inactive)
ROOT
ATOM      1  C   UNL d   1      -0.198   0.306   0.566  0.00  0.00     0.078 C 
ATOM      2  C1  UNL d   1       1.275   0.047   0.679  0.00  0.00    -0.077 A 
ATOM      3  C2  UNL d   1       2.149   1.041   1.135  0.00  0.00    -0.001 A 
ATOM      4  C3  UNL d   1       3.519   0.789   1.226  0.00  0.00     0.003 A 
ATOM      5  C4  UNL d   1       4.027  -0.456   0.862  0.00  0.00    -0.005 A 
ATOM      6  C5  UNL d   1       3.165  -1.451   0.406  0.00  0.00     0.003 A 
ATOM      7  C6  UNL d   1       1.795  -1.201   0.314  0.00  0.00    -0.001 A 
ENDROOT
TORSDOF 0
ENDMDL
