MODEL 1
REMARK minimizedAffinity -5.8918314
REMARK minimizedRMSD -1
REMARK  0 active torsions:
REMARK  status: ('A' for Active; 'I' for Inactive)
ROOT
ATOM      1  C   UNL d   1      -0.761   0.571   0.168  0.00  0.00     0.078 C 
ATOM      2  C1  UNL d   1       0.635   0.029   0.253  0.00  0.00    -0.077 A 
ATOM      3  C2  UNL d   1       0.920  -1.290  -0.122  0.00  0.00    -0.001 A 
ATOM      4  C3  UNL d   1       2.221  -1.785  -0.029  0.00  0.00     0.003 A 
ATOM      5  C4  UNL d   1       3.248  -0.968   0.440  0.00  0.00    -0.005 A 
ATOM      6  C5  UNL d   1       2.974   0.345   0.817  0.00  0.00     0.003 A 
ATOM      7  C6  UNL d   1       1.673   0.842   0.724  0.00  0.00    -0.001 A 
ENDROOT
TORSDOF 0
ENDMDL
