MODEL 1
REMARK minimizedAffinity -1.81399572
REMARK minimizedRMSD -1
REMARK  0 active torsions:
REMARK  status: ('A' for Active; 'I' for Inactive)
ROOT
ATOM      1  C   UNL d   1       2.335  -1.872  -0.351  0.00  0.00     0.078 C 
ATOM      2  C1  UNL d   1       1.038  -1.120  -0.398  0.00  0.00    -0.077 A 
ATOM      3  C2  UNL d   1       0.018  -1.494  -1.280  0.00  0.00    -0.001 A 
ATOM      4  C3  UNL d   1      -1.180  -0.779  -1.319  0.00  0.00     0.003 A 
ATOM      5  C4  UNL d   1      -1.368   0.317  -0.479  0.00  0.00    -0.005 A 
ATOM      6  C5  UNL d   1      -0.358   0.699   0.401  0.00  0.00     0.003 A 
ATOM      7  C6  UNL d   1       0.841  -0.016   0.441  0.00  0.00    -0.001 A 
ENDROOT
TORSDOF 0
ENDMDL
