MODEL 1
REMARK minimizedAffinity -4.00997114
REMARK minimizedRMSD -1
REMARK  0 active torsions:
REMARK  status: ('A' for Active; 'I' for Inactive)
ROOT
ATOM      1  C   UNL d   1       2.471   0.676   1.258  0.00  0.00     0.078 C 
ATOM      2  C1  UNL d   1       1.094   0.787   0.674  0.00  0.00    -0.077 A 
ATOM      3  C2  UNL d   1       0.202  -0.292   0.719  0.00  0.00    -0.001 A 
ATOM      4  C3  UNL d   1      -1.073  -0.177   0.163  0.00  0.00     0.003 A 
ATOM      5  C4  UNL d   1      -1.468   1.014  -0.442  0.00  0.00    -0.005 A 
ATOM      6  C5  UNL d   1      -0.586   2.092  -0.494  0.00  0.00     0.003 A 
ATOM      7  C6  UNL d   1       0.689   1.979   0.061  0.00  0.00    -0.001 A 
ENDROOT
TORSDOF 0
ENDMDL
