MODEL 1
REMARK minimizedAffinity -4.91155481
REMARK minimizedRMSD -1
REMARK  0 active torsions:
REMARK  status: ('A' for Active; 'I' for Inactive)
ROOT
ATOM      1  C   UNL d   1      -1.372   0.382   0.169  0.00  0.00     0.078 C 
ATOM      2  C1  UNL d   1       0.080   0.011   0.213  0.00  0.00    -0.077 A 
ATOM      3  C2  UNL d   1       0.514  -1.256  -0.196  0.00  0.00    -0.001 A 
ATOM      4  C3  UNL d   1       1.868  -1.590  -0.141  0.00  0.00     0.003 A 
ATOM      5  C4  UNL d   1       2.799  -0.664   0.325  0.00  0.00    -0.005 A 
ATOM      6  C5  UNL d   1       2.377   0.598   0.736  0.00  0.00     0.003 A 
ATOM      7  C6  UNL d   1       1.023   0.935   0.681  0.00  0.00    -0.001 A 
ENDROOT
TORSDOF 0
ENDMDL
