MODEL 1
REMARK minimizedAffinity -5.57051134
REMARK minimizedRMSD -1
REMARK  0 active torsions:
REMARK  status: ('A' for Active; 'I' for Inactive)
ROOT
ATOM      1  C   UNL d   1      -1.328   0.427   0.027  0.00  0.00     0.078 C 
ATOM      2  C1  UNL d   1       0.105   0.011   0.178  0.00  0.00    -0.077 A 
ATOM      3  C2  UNL d   1       0.474  -1.339   0.122  0.00  0.00    -0.001 A 
ATOM      4  C3  UNL d   1       1.810  -1.712   0.274  0.00  0.00     0.003 A 
ATOM      5  C4  UNL d   1       2.788  -0.742   0.483  0.00  0.00    -0.005 A 
ATOM      6  C5  UNL d   1       2.431   0.603   0.542  0.00  0.00     0.003 A 
ATOM      7  C6  UNL d   1       1.095   0.978   0.391  0.00  0.00    -0.001 A 
ENDROOT
TORSDOF 0
ENDMDL
