MODEL 1
REMARK minimizedAffinity -5.61099386
REMARK minimizedRMSD -1
REMARK  0 active torsions:
REMARK  status: ('A' for Active; 'I' for Inactive)
ROOT
ATOM      1  C   UNL d   1      -0.525   0.392  -0.726  0.00  0.00     0.078 C 
ATOM      2  C1  UNL d   1       0.882   0.088  -0.306  0.00  0.00    -0.077 A 
ATOM      3  C2  UNL d   1       1.797   1.116  -0.050  0.00  0.00    -0.001 A 
ATOM      4  C3  UNL d   1       3.107   0.818   0.331  0.00  0.00     0.003 A 
ATOM      5  C4  UNL d   1       3.513  -0.509   0.458  0.00  0.00    -0.005 A 
ATOM      6  C5  UNL d   1       2.611  -1.539   0.203  0.00  0.00     0.003 A 
ATOM      7  C6  UNL d   1       1.301  -1.243  -0.178  0.00  0.00    -0.001 A 
ENDROOT
TORSDOF 0
ENDMDL
