MODEL 1
REMARK minimizedAffinity -0.0245361291
REMARK minimizedRMSD -1
REMARK  0 active torsions:
REMARK  status: ('A' for Active; 'I' for Inactive)
ROOT
ATOM      1  C   UNL d   1       1.874  -2.253  -0.395  0.00  0.00     0.078 C 
ATOM      2  C1  UNL d   1       2.473  -0.880  -0.462  0.00  0.00    -0.077 A 
ATOM      3  C2  UNL d   1       3.771  -0.682  -0.947  0.00  0.00    -0.001 A 
ATOM      4  C3  UNL d   1       4.319   0.601  -0.994  0.00  0.00     0.003 A 
ATOM      5  C4  UNL d   1       3.576   1.696  -0.557  0.00  0.00    -0.005 A 
ATOM      6  C5  UNL d   1       2.284   1.509  -0.070  0.00  0.00     0.003 A 
ATOM      7  C6  UNL d   1       1.735   0.226  -0.022  0.00  0.00    -0.001 A 
ENDROOT
TORSDOF 0
ENDMDL
