MODEL 1
REMARK minimizedAffinity 16.8180389
REMARK minimizedRMSD -1
REMARK  0 active torsions:
REMARK  status: ('A' for Active; 'I' for Inactive)
ROOT
ATOM      1  C   UNL d   1      -5.999   1.072   2.137  0.00  0.00     0.020 A 
ATOM      2  C1  UNL d   1      -5.906  -0.319   2.136  0.00  0.00     0.020 A 
ATOM      3  C2  UNL d   1      -5.737  -1.008   3.340  0.00  0.00     0.034 A 
ATOM      4  C3  UNL d   1      -5.662  -0.306   4.548  0.00  0.00     0.017 A 
ATOM      5  C4  UNL d   1      -5.755   1.090   4.547  0.00  0.00     0.017 A 
ATOM      6  C5  UNL d   1      -5.924   1.775   3.340  0.00  0.00     0.034 A 
ATOM      7 Cl   UNL d   1      -5.670   2.026   5.998  0.00  0.00    -0.070 Cl
ATOM      8 Cl1  UNL d   1      -5.453  -1.222   5.998  0.00  0.00    -0.070 Cl
ENDROOT
TORSDOF 0
ENDMDL
