MODEL 1
REMARK minimizedAffinity 3.9623847
REMARK minimizedRMSD -1
REMARK  0 active torsions:
REMARK  status: ('A' for Active; 'I' for Inactive)
ROOT
ATOM      1  C   UNL d   1       1.998  -1.405  -4.534  0.00  0.00     0.020 A 
ATOM      2  C1  UNL d   1       2.003  -2.251  -5.643  0.00  0.00     0.020 A 
ATOM      3  C2  UNL d   1       3.164  -2.950  -5.982  0.00  0.00     0.034 A 
ATOM      4  C3  UNL d   1       4.324  -2.804  -5.213  0.00  0.00     0.017 A 
ATOM      5  C4  UNL d   1       4.317  -1.955  -4.101  0.00  0.00     0.017 A 
ATOM      6  C5  UNL d   1       3.153  -1.258  -3.765  0.00  0.00     0.034 A 
ATOM      7 Cl   UNL d   1       5.710  -1.723  -3.103  0.00  0.00    -0.070 Cl
ATOM      8 Cl1  UNL d   1       5.722  -3.699  -5.691  0.00  0.00    -0.070 Cl
ENDROOT
TORSDOF 0
ENDMDL
