MODEL 1
REMARK minimizedAffinity 8.35070229
REMARK minimizedRMSD -1
REMARK  0 active torsions:
REMARK  status: ('A' for Active; 'I' for Inactive)
ROOT
ATOM      1  C   UNL d   1      -1.563  -1.654   2.361  0.00  0.00     0.020 A 
ATOM      2  C1  UNL d   1      -0.318  -1.905   2.936  0.00  0.00     0.020 A 
ATOM      3  C2  UNL d   1       0.229  -3.188   2.884  0.00  0.00     0.034 A 
ATOM      4  C3  UNL d   1      -0.469  -4.226   2.255  0.00  0.00     0.017 A 
ATOM      5  C4  UNL d   1      -1.719  -3.973   1.679  0.00  0.00     0.017 A 
ATOM      6  C5  UNL d   1      -2.262  -2.686   1.734  0.00  0.00     0.034 A 
ATOM      7 Cl   UNL d   1      -2.640  -5.203   0.886  0.00  0.00    -0.070 Cl
ATOM      8 Cl1  UNL d   1       0.268  -5.789   2.228  0.00  0.00    -0.070 Cl
ENDROOT
TORSDOF 0
ENDMDL
