MODEL 1
REMARK minimizedAffinity 0.752289534
REMARK minimizedRMSD -1
REMARK  0 active torsions:
REMARK  status: ('A' for Active; 'I' for Inactive)
ROOT
ATOM      1  C   UNL d   1      -5.831  -5.964   1.695  0.00  0.00     0.020 A 
ATOM      2  C1  UNL d   1      -5.274  -5.971   2.973  0.00  0.00     0.020 A 
ATOM      3  C2  UNL d   1      -3.887  -5.981   3.130  0.00  0.00     0.034 A 
ATOM      4  C3  UNL d   1      -3.051  -5.985   2.007  0.00  0.00     0.017 A 
ATOM      5  C4  UNL d   1      -3.611  -5.978   0.724  0.00  0.00     0.017 A 
ATOM      6  C5  UNL d   1      -5.001  -5.968   0.573  0.00  0.00     0.034 A 
ATOM      7 Cl   UNL d   1      -2.645  -5.982  -0.709  0.00  0.00    -0.070 Cl
ATOM      8 Cl1  UNL d   1      -1.345  -5.998   2.275  0.00  0.00    -0.070 Cl
ENDROOT
TORSDOF 0
ENDMDL
