MODEL 1
REMARK minimizedAffinity 10.9248753
REMARK minimizedRMSD -1
REMARK  0 active torsions:
REMARK  status: ('A' for Active; 'I' for Inactive)
ROOT
ATOM      1  C   UNL d   1      -1.659  -5.994   3.855  0.00  0.00     0.020 A 
ATOM      2  C1  UNL d   1      -0.320  -5.981   3.465  0.00  0.00     0.020 A 
ATOM      3  C2  UNL d   1       0.013  -5.974   2.109  0.00  0.00     0.034 A 
ATOM      4  C3  UNL d   1      -0.995  -5.979   1.137  0.00  0.00     0.017 A 
ATOM      5  C4  UNL d   1      -2.338  -5.991   1.529  0.00  0.00     0.017 A 
ATOM      6  C5  UNL d   1      -2.666  -5.999   2.889  0.00  0.00     0.034 A 
ATOM      7 Cl   UNL d   1      -3.637  -5.998   0.388  0.00  0.00    -0.070 Cl
ATOM      8 Cl1  UNL d   1      -0.511  -5.968  -0.522  0.00  0.00    -0.070 Cl
ENDROOT
TORSDOF 0
ENDMDL
