MODEL 1
REMARK minimizedAffinity 1.60005438
REMARK minimizedRMSD -1
REMARK  0 active torsions:
REMARK  status: ('A' for Active; 'I' for Inactive)
ROOT
ATOM      1  C   UNL d   1      -0.955   0.672  -1.644  0.00  0.00     0.020 A 
ATOM      2  C1  UNL d   1      -0.417  -0.121  -0.631  0.00  0.00     0.020 A 
ATOM      3  C2  UNL d   1      -0.728  -1.481  -0.571  0.00  0.00     0.034 A 
ATOM      4  C3  UNL d   1      -1.578  -2.052  -1.525  0.00  0.00     0.017 A 
ATOM      5  C4  UNL d   1      -2.117  -1.255  -2.541  0.00  0.00     0.017 A 
ATOM      6  C5  UNL d   1      -1.803   0.106  -2.597  0.00  0.00     0.034 A 
ATOM      7 Cl   UNL d   1      -3.174  -1.888  -3.753  0.00  0.00    -0.070 Cl
ATOM      8 Cl1  UNL d   1      -1.919  -3.740  -1.389  0.00  0.00    -0.070 Cl
ENDROOT
TORSDOF 0
ENDMDL
