MODEL 1
REMARK minimizedAffinity 7.12315083
REMARK minimizedRMSD -1
REMARK  0 active torsions:
REMARK  status: ('A' for Active; 'I' for Inactive)
ROOT
ATOM      1  C   UNL d   1      -2.118  -6.000   0.280  0.00  0.00     0.020 A 
ATOM      2  C1  UNL d   1      -1.322  -5.674  -0.818  0.00  0.00     0.020 A 
ATOM      3  C2  UNL d   1      -1.031  -4.337  -1.097  0.00  0.00     0.034 A 
ATOM      4  C3  UNL d   1      -1.535  -3.321  -0.278  0.00  0.00     0.017 A 
ATOM      5  C4  UNL d   1      -2.334  -3.649   0.824  0.00  0.00     0.017 A 
ATOM      6  C5  UNL d   1      -2.623  -4.989   1.099  0.00  0.00     0.034 A 
ATOM      7 Cl   UNL d   1      -2.993  -2.450   1.881  0.00  0.00    -0.070 Cl
ATOM      8 Cl1  UNL d   1      -1.134  -1.690  -0.682  0.00  0.00    -0.070 Cl
ENDROOT
TORSDOF 0
ENDMDL
