MODEL 1
REMARK minimizedAffinity 10.3243313
REMARK minimizedRMSD -1
REMARK  0 active torsions:
REMARK  status: ('A' for Active; 'I' for Inactive)
ROOT
ATOM      1  C   UNL d   1      -5.174   1.632   4.170  0.00  0.00     0.020 A 
ATOM      2  C1  UNL d   1      -5.506   1.395   5.503  0.00  0.00     0.020 A 
ATOM      3  C2  UNL d   1      -5.532   0.088   5.995  0.00  0.00     0.034 A 
ATOM      4  C3  UNL d   1      -5.225  -0.987   5.152  0.00  0.00     0.017 A 
ATOM      5  C4  UNL d   1      -4.893  -0.748   3.814  0.00  0.00     0.017 A 
ATOM      6  C5  UNL d   1      -4.868   0.562   3.327  0.00  0.00     0.034 A 
ATOM      7 Cl   UNL d   1      -4.503  -2.023   2.714  0.00  0.00    -0.070 Cl
ATOM      8 Cl1  UNL d   1      -5.277  -2.577   5.828  0.00  0.00    -0.070 Cl
ENDROOT
TORSDOF 0
ENDMDL
