MODEL 1
REMARK minimizedAffinity 17.8814049
REMARK minimizedRMSD -1
REMARK  0 active torsions:
REMARK  status: ('A' for Active; 'I' for Inactive)
ROOT
ATOM      1  C   UNL d   1       4.476  -1.682   0.802  0.00  0.00     0.020 A 
ATOM      2  C1  UNL d   1       3.271  -2.078   0.223  0.00  0.00     0.020 A 
ATOM      3  C2  UNL d   1       2.613  -3.218   0.691  0.00  0.00     0.034 A 
ATOM      4  C3  UNL d   1       3.160  -3.965   1.741  0.00  0.00     0.017 A 
ATOM      5  C4  UNL d   1       4.370  -3.566   2.321  0.00  0.00     0.017 A 
ATOM      6  C5  UNL d   1       5.024  -2.424   1.849  0.00  0.00     0.034 A 
ATOM      7 Cl   UNL d   1       5.106  -4.437   3.620  0.00  0.00    -0.070 Cl
ATOM      8 Cl1  UNL d   1       2.293  -5.363   2.269  0.00  0.00    -0.070 Cl
ENDROOT
TORSDOF 0
ENDMDL
