MODEL 1
REMARK minimizedAffinity 2.44483495
REMARK minimizedRMSD -1
REMARK  0 active torsions:
REMARK  status: ('A' for Active; 'I' for Inactive)
ROOT
ATOM      1  C   UNL d   1       0.049  -0.145   1.772  0.00  0.00     0.020 A 
ATOM      2  C1  UNL d   1       0.255   0.991   0.989  0.00  0.00     0.020 A 
ATOM      3  C2  UNL d   1      -0.288   1.061  -0.295  0.00  0.00     0.034 A 
ATOM      4  C3  UNL d   1      -1.040  -0.006  -0.801  0.00  0.00     0.017 A 
ATOM      5  C4  UNL d   1      -1.246  -1.145  -0.014  0.00  0.00     0.017 A 
ATOM      6  C5  UNL d   1      -0.700  -1.210   1.271  0.00  0.00     0.034 A 
ATOM      7 Cl   UNL d   1      -2.162  -2.502  -0.569  0.00  0.00    -0.070 Cl
ATOM      8 Cl1  UNL d   1      -1.682   0.149  -2.398  0.00  0.00    -0.070 Cl
ENDROOT
TORSDOF 0
ENDMDL
