MODEL 1
REMARK minimizedAffinity 6.21164274
REMARK minimizedRMSD -1
REMARK  0 active torsions:
REMARK  status: ('A' for Active; 'I' for Inactive)
ROOT
ATOM      1  C   UNL d   1      -2.343  -2.298  -0.943  0.00  0.00     0.020 A 
ATOM      2  C1  UNL d   1      -2.079  -2.748  -2.236  0.00  0.00     0.020 A 
ATOM      3  C2  UNL d   1      -1.001  -2.223  -2.952  0.00  0.00     0.034 A 
ATOM      4  C3  UNL d   1      -0.183  -1.245  -2.375  0.00  0.00     0.017 A 
ATOM      5  C4  UNL d   1      -0.449  -0.793  -1.077  0.00  0.00     0.017 A 
ATOM      6  C5  UNL d   1      -1.530  -1.323  -0.365  0.00  0.00     0.034 A 
ATOM      7 Cl   UNL d   1       0.516   0.411  -0.298  0.00  0.00    -0.070 Cl
ATOM      8 Cl1  UNL d   1       1.133  -0.640  -3.317  0.00  0.00    -0.070 Cl
ENDROOT
TORSDOF 0
ENDMDL
