MODEL 1
REMARK minimizedAffinity 3.62667084
REMARK minimizedRMSD -1
REMARK  0 active torsions:
REMARK  status: ('A' for Active; 'I' for Inactive)
ROOT
ATOM      1  C   UNL d   1      -2.006  -3.117  -0.389  0.00  0.00     0.020 A 
ATOM      2  C1  UNL d   1      -2.765  -3.212  -1.555  0.00  0.00     0.020 A 
ATOM      3  C2  UNL d   1      -2.832  -2.129  -2.434  0.00  0.00     0.034 A 
ATOM      4  C3  UNL d   1      -2.140  -0.946  -2.148  0.00  0.00     0.017 A 
ATOM      5  C4  UNL d   1      -1.379  -0.852  -0.977  0.00  0.00     0.017 A 
ATOM      6  C5  UNL d   1      -1.315  -1.940  -0.101  0.00  0.00     0.034 A 
ATOM      7 Cl   UNL d   1      -0.498   0.574  -0.557  0.00  0.00    -0.070 Cl
ATOM      8 Cl1  UNL d   1      -2.269   0.353  -3.280  0.00  0.00    -0.070 Cl
ENDROOT
TORSDOF 0
ENDMDL
