MODEL 1
REMARK minimizedAffinity 4.72870064
REMARK minimizedRMSD -1
REMARK  0 active torsions:
REMARK  status: ('A' for Active; 'I' for Inactive)
ROOT
ATOM      1  C   UNL d   1       6.000  -2.106   5.552  0.00  0.00     0.020 A 
ATOM      2  C1  UNL d   1       5.602  -3.409   5.255  0.00  0.00     0.020 A 
ATOM      3  C2  UNL d   1       5.028  -3.699   4.016  0.00  0.00     0.034 A 
ATOM      4  C3  UNL d   1       4.850  -2.685   3.068  0.00  0.00     0.017 A 
ATOM      5  C4  UNL d   1       5.250  -1.377   3.366  0.00  0.00     0.017 A 
ATOM      6  C5  UNL d   1       5.824  -1.092   4.609  0.00  0.00     0.034 A 
ATOM      7 Cl   UNL d   1       5.062  -0.073   2.247  0.00  0.00    -0.070 Cl
ATOM      8 Cl1  UNL d   1       4.135  -3.116   1.555  0.00  0.00    -0.070 Cl
ENDROOT
TORSDOF 0
ENDMDL
