MODEL 1
REMARK minimizedAffinity 10.3550653
REMARK minimizedRMSD -1
REMARK  0 active torsions:
REMARK  status: ('A' for Active; 'I' for Inactive)
ROOT
ATOM      1  C   UNL d   1       3.978   0.420  -5.671  0.00  0.00     0.020 A 
ATOM      2  C1  UNL d   1       3.331   1.615  -5.359  0.00  0.00     0.020 A 
ATOM      3  C2  UNL d   1       3.081   1.945  -4.025  0.00  0.00     0.034 A 
ATOM      4  C3  UNL d   1       3.479   1.080  -2.999  0.00  0.00     0.017 A 
ATOM      5  C4  UNL d   1       4.129  -0.118  -3.314  0.00  0.00     0.017 A 
ATOM      6  C5  UNL d   1       4.377  -0.444  -4.651  0.00  0.00     0.034 A 
ATOM      7 Cl   UNL d   1       4.650  -1.236  -2.103  0.00  0.00    -0.070 Cl
ATOM      8 Cl1  UNL d   1       3.138   1.553  -1.372  0.00  0.00    -0.070 Cl
ENDROOT
TORSDOF 0
ENDMDL
