MODEL 1
REMARK minimizedAffinity 12.7232876
REMARK minimizedRMSD -1
REMARK  0 active torsions:
REMARK  status: ('A' for Active; 'I' for Inactive)
ROOT
ATOM      1  C   UNL d   1      -3.026  -2.152  -4.051  0.00  0.00     0.020 A 
ATOM      2  C1  UNL d   1      -3.242  -1.202  -3.053  0.00  0.00     0.020 A 
ATOM      3  C2  UNL d   1      -3.075  -1.550  -1.711  0.00  0.00     0.034 A 
ATOM      4  C3  UNL d   1      -2.691  -2.850  -1.363  0.00  0.00     0.017 A 
ATOM      5  C4  UNL d   1      -2.474  -3.802  -2.365  0.00  0.00     0.017 A 
ATOM      6  C5  UNL d   1      -2.643  -3.449  -3.708  0.00  0.00     0.034 A 
ATOM      7 Cl   UNL d   1      -1.998  -5.426  -2.013  0.00  0.00    -0.070 Cl
ATOM      8 Cl1  UNL d   1      -2.503  -3.209   0.317  0.00  0.00    -0.070 Cl
ENDROOT
TORSDOF 0
ENDMDL
