MODEL 1
REMARK minimizedAffinity 12.8594999
REMARK minimizedRMSD -1
REMARK  0 active torsions:
REMARK  status: ('A' for Active; 'I' for Inactive)
ROOT
ATOM      1  C   UNL d   1       1.115  -5.915   5.965  0.00  0.00     0.020 A 
ATOM      2  C1  UNL d   1       2.186  -5.279   5.338  0.00  0.00     0.020 A 
ATOM      3  C2  UNL d   1       2.024  -4.728   4.065  0.00  0.00     0.034 A 
ATOM      4  C3  UNL d   1       0.787  -4.811   3.415  0.00  0.00     0.017 A 
ATOM      5  C4  UNL d   1      -0.288  -5.450   4.045  0.00  0.00     0.017 A 
ATOM      6  C5  UNL d   1      -0.119  -6.000   5.319  0.00  0.00     0.034 A 
ATOM      7 Cl   UNL d   1      -1.844  -5.592   3.306  0.00  0.00    -0.070 Cl
ATOM      8 Cl1  UNL d   1       0.657  -4.107   1.843  0.00  0.00    -0.070 Cl
ENDROOT
TORSDOF 0
ENDMDL
