MODEL 1
REMARK minimizedAffinity 4.89293575
REMARK minimizedRMSD -1
REMARK  0 active torsions:
REMARK  status: ('A' for Active; 'I' for Inactive)
ROOT
ATOM      1  C   UNL d   1       0.143  -0.115  -0.477  0.00  0.00     0.020 A 
ATOM      2  C1  UNL d   1      -0.433   0.690  -1.459  0.00  0.00     0.020 A 
ATOM      3  C2  UNL d   1      -1.553   0.241  -2.161  0.00  0.00     0.034 A 
ATOM      4  C3  UNL d   1      -2.102  -1.016  -1.882  0.00  0.00     0.017 A 
ATOM      5  C4  UNL d   1      -1.523  -1.823  -0.896  0.00  0.00     0.017 A 
ATOM      6  C5  UNL d   1      -0.401  -1.369  -0.196  0.00  0.00     0.034 A 
ATOM      7 Cl   UNL d   1      -2.144  -3.386  -0.496  0.00  0.00    -0.070 Cl
ATOM      8 Cl1  UNL d   1      -3.488  -1.507  -2.789  0.00  0.00    -0.070 Cl
ENDROOT
TORSDOF 0
ENDMDL
