MODEL 1
REMARK minimizedAffinity 11.9452381
REMARK minimizedRMSD -1
REMARK  0 active torsions:
REMARK  status: ('A' for Active; 'I' for Inactive)
ROOT
ATOM      1  C   UNL d   1      -2.100  -3.235   0.964  0.00  0.00     0.020 A 
ATOM      2  C1  UNL d   1      -1.745  -2.579   2.142  0.00  0.00     0.020 A 
ATOM      3  C2  UNL d   1      -2.709  -1.872   2.865  0.00  0.00     0.034 A 
ATOM      4  C3  UNL d   1      -4.032  -1.821   2.410  0.00  0.00     0.017 A 
ATOM      5  C4  UNL d   1      -4.387  -2.480   1.228  0.00  0.00     0.017 A 
ATOM      6  C5  UNL d   1      -3.418  -3.186   0.508  0.00  0.00     0.034 A 
ATOM      7 Cl   UNL d   1      -5.998  -2.461   0.604  0.00  0.00    -0.070 Cl
ATOM      8 Cl1  UNL d   1      -5.172  -0.929   3.355  0.00  0.00    -0.070 Cl
ENDROOT
TORSDOF 0
ENDMDL
