MODEL 1
REMARK minimizedAffinity -0.456767946
REMARK minimizedRMSD -1
REMARK  0 active torsions:
REMARK  status: ('A' for Active; 'I' for Inactive)
ROOT
ATOM      1  C   UNL d   1      -3.930   1.071  -2.660  0.00  0.00     0.078 C 
ATOM      2  C1  UNL d   1      -3.042   0.288  -1.740  0.00  0.00    -0.077 A 
ATOM      3  C2  UNL d   1      -2.645   0.810  -0.503  0.00  0.00    -0.001 A 
ATOM      4  C3  UNL d   1      -1.810   0.073   0.339  0.00  0.00     0.003 A 
ATOM      5  C4  UNL d   1      -1.364  -1.189  -0.048  0.00  0.00    -0.005 A 
ATOM      6  C5  UNL d   1      -1.753  -1.716  -1.278  0.00  0.00     0.003 A 
ATOM      7  C6  UNL d   1      -2.587  -0.981  -2.121  0.00  0.00    -0.001 A 
ENDROOT
TORSDOF 0
ENDMDL
