MODEL 1
REMARK minimizedAffinity -0.500954807
REMARK minimizedRMSD -1
REMARK  0 active torsions:
REMARK  status: ('A' for Active; 'I' for Inactive)
ROOT
ATOM      1  C   UNL d   1       1.931  -1.934   3.777  0.00  0.00     0.078 C 
ATOM      2  C1  UNL d   1       3.351  -2.083   4.234  0.00  0.00    -0.077 A 
ATOM      3  C2  UNL d   1       4.418  -1.885   3.349  0.00  0.00    -0.001 A 
ATOM      4  C3  UNL d   1       5.735  -2.036   3.786  0.00  0.00     0.003 A 
ATOM      5  C4  UNL d   1       5.998  -2.387   5.109  0.00  0.00    -0.005 A 
ATOM      6  C5  UNL d   1       4.942  -2.589   5.996  0.00  0.00     0.003 A 
ATOM      7  C6  UNL d   1       3.625  -2.438   5.561  0.00  0.00    -0.001 A 
ENDROOT
TORSDOF 0
ENDMDL
