MODEL 1
REMARK minimizedAffinity 7.94611692
REMARK minimizedRMSD -1
REMARK  0 active torsions:
REMARK  status: ('A' for Active; 'I' for Inactive)
ROOT
ATOM      1  C   UNL d   1       5.900  -2.332   6.000  0.00  0.00     0.078 C 
ATOM      2  C1  UNL d   1       4.653  -2.153   5.186  0.00  0.00    -0.077 A 
ATOM      3  C2  UNL d   1       4.693  -2.190   3.787  0.00  0.00    -0.001 A 
ATOM      4  C3  UNL d   1       3.526  -2.011   3.042  0.00  0.00     0.003 A 
ATOM      5  C4  UNL d   1       2.311  -1.794   3.688  0.00  0.00    -0.005 A 
ATOM      6  C5  UNL d   1       2.261  -1.753   5.080  0.00  0.00     0.003 A 
ATOM      7  C6  UNL d   1       3.427  -1.931   5.826  0.00  0.00    -0.001 A 
ENDROOT
TORSDOF 0
ENDMDL
