MODEL 1
REMARK minimizedAffinity -0.0355716869
REMARK minimizedRMSD -1
REMARK  0 active torsions:
REMARK  status: ('A' for Active; 'I' for Inactive)
ROOT
ATOM      1  C   UNL d   1       2.265  -1.075   3.592  0.00  0.00     0.078 C 
ATOM      2  C1  UNL d   1       3.561  -1.547   4.181  0.00  0.00    -0.077 A 
ATOM      3  C2  UNL d   1       3.607  -2.115   5.460  0.00  0.00    -0.001 A 
ATOM      4  C3  UNL d   1       4.822  -2.541   6.000  0.00  0.00     0.003 A 
ATOM      5  C4  UNL d   1       5.999  -2.402   5.268  0.00  0.00    -0.005 A 
ATOM      6  C5  UNL d   1       5.964  -1.836   3.995  0.00  0.00     0.003 A 
ATOM      7  C6  UNL d   1       4.750  -1.410   3.454  0.00  0.00    -0.001 A 
ENDROOT
TORSDOF 0
ENDMDL
