MODEL 1
REMARK minimizedAffinity -1.70435977
REMARK minimizedRMSD -1
REMARK  0 active torsions:
REMARK  status: ('A' for Active; 'I' for Inactive)
ROOT
ATOM      1  C   UNL d   1       5.200   5.821  -5.975  0.00  0.00     0.078 C 
ATOM      2  C1  UNL d   1       4.947   5.836  -4.497  0.00  0.00    -0.077 A 
ATOM      3  C2  UNL d   1       5.999   5.997  -3.587  0.00  0.00    -0.001 A 
ATOM      4  C3  UNL d   1       5.750   5.999  -2.213  0.00  0.00     0.003 A 
ATOM      5  C4  UNL d   1       4.450   5.839  -1.738  0.00  0.00    -0.005 A 
ATOM      6  C5  UNL d   1       3.397   5.676  -2.636  0.00  0.00     0.003 A 
ATOM      7  C6  UNL d   1       3.644   5.674  -4.009  0.00  0.00    -0.001 A 
ENDROOT
TORSDOF 0
ENDMDL
