MODEL 1
REMARK minimizedAffinity 2.47242045
REMARK minimizedRMSD -1
REMARK  0 active torsions:
REMARK  status: ('A' for Active; 'I' for Inactive)
ROOT
ATOM      1  C   UNL d   1       2.842  -4.300   4.568  0.00  0.00     0.078 C 
ATOM      2  C1  UNL d   1       2.752  -2.909   4.015  0.00  0.00    -0.077 A 
ATOM      3  C2  UNL d   1       3.905  -2.146   3.794  0.00  0.00    -0.001 A 
ATOM      4  C3  UNL d   1       3.807  -0.848   3.288  0.00  0.00     0.003 A 
ATOM      5  C4  UNL d   1       2.557  -0.302   3.001  0.00  0.00    -0.005 A 
ATOM      6  C5  UNL d   1       1.404  -1.054   3.220  0.00  0.00     0.003 A 
ATOM      7  C6  UNL d   1       1.501  -2.351   3.726  0.00  0.00    -0.001 A 
ENDROOT
TORSDOF 0
ENDMDL
