MODEL 1
REMARK minimizedAffinity 0.333427012
REMARK minimizedRMSD -1
REMARK  0 active torsions:
REMARK  status: ('A' for Active; 'I' for Inactive)
ROOT
ATOM      1  C   UNL d   1       2.241  -0.590   2.077  0.00  0.00     0.078 C 
ATOM      2  C1  UNL d   1       2.106  -1.846   2.885  0.00  0.00    -0.077 A 
ATOM      3  C2  UNL d   1       2.593  -3.068   2.405  0.00  0.00    -0.001 A 
ATOM      4  C3  UNL d   1       2.452  -4.231   3.163  0.00  0.00     0.003 A 
ATOM      5  C4  UNL d   1       1.823  -4.183   4.406  0.00  0.00    -0.005 A 
ATOM      6  C5  UNL d   1       1.334  -2.972   4.891  0.00  0.00     0.003 A 
ATOM      7  C6  UNL d   1       1.474  -1.808   4.134  0.00  0.00    -0.001 A 
ENDROOT
TORSDOF 0
ENDMDL
