MODEL 1
REMARK minimizedAffinity 2.49396467
REMARK minimizedRMSD -1
REMARK  0 active torsions:
REMARK  status: ('A' for Active; 'I' for Inactive)
ROOT
ATOM      1  C   UNL d   1       2.082  -0.980   4.558  0.00  0.00     0.078 C 
ATOM      2  C1  UNL d   1       2.012  -2.393   5.055  0.00  0.00    -0.077 A 
ATOM      3  C2  UNL d   1       0.809  -2.933   5.527  0.00  0.00    -0.001 A 
ATOM      4  C3  UNL d   1       0.762  -4.247   5.996  0.00  0.00     0.003 A 
ATOM      5  C4  UNL d   1       1.914  -5.031   5.999  0.00  0.00    -0.005 A 
ATOM      6  C5  UNL d   1       3.115  -4.501   5.534  0.00  0.00     0.003 A 
ATOM      7  C6  UNL d   1       3.165  -3.188   5.064  0.00  0.00    -0.001 A 
ENDROOT
TORSDOF 0
ENDMDL
