MODEL 1
REMARK minimizedAffinity 0.309811741
REMARK minimizedRMSD -1
REMARK  0 active torsions:
REMARK  status: ('A' for Active; 'I' for Inactive)
ROOT
ATOM      1  C   UNL d   1       1.091  -4.267   5.244  0.00  0.00     0.078 C 
ATOM      2  C1  UNL d   1       1.639  -3.319   4.220  0.00  0.00    -0.077 A 
ATOM      3  C2  UNL d   1       1.477  -1.935   4.357  0.00  0.00    -0.001 A 
ATOM      4  C3  UNL d   1       1.984  -1.066   3.391  0.00  0.00     0.003 A 
ATOM      5  C4  UNL d   1       2.656  -1.570   2.279  0.00  0.00    -0.005 A 
ATOM      6  C5  UNL d   1       2.820  -2.946   2.132  0.00  0.00     0.003 A 
ATOM      7  C6  UNL d   1       2.314  -3.817   3.098  0.00  0.00    -0.001 A 
ENDROOT
TORSDOF 0
ENDMDL
