MODEL 1
REMARK minimizedAffinity -2.75022173
REMARK minimizedRMSD -1
REMARK  2 active torsions:
REMARK  status: ('A' for Active; 'I' for Inactive)
REMARK    1  A    between atoms: C2'_3  and  C1'_4 
REMARK    2  A    between atoms: C1'_4  and  C1_5 
ROOT
ATOM      1  C1  I4B d   1      -1.081   0.695   0.566  0.00  0.00    -0.075 A 
ATOM      2  C2  I4B d   1      -0.999   1.866  -0.146  0.00  0.00     0.003 A 
ATOM      3  C3  I4B d   1       0.100   2.101  -1.007  0.00  0.00     0.002 A 
ATOM      4  C4  I4B d   1       1.113   1.167  -1.087  0.00  0.00    -0.004 A 
ATOM      5  C5  I4B d   1       1.017  -0.029  -0.383  0.00  0.00     0.002 A 
ATOM      6  C6  I4B d   1      -0.093  -0.273   0.439  0.00  0.00     0.003 A 
ENDROOT
BRANCH   1   7
ATOM      7  C1' I4B d   1      -2.239   0.493   1.491  0.00  0.00     0.060 C 
BRANCH   7   8
ATOM      8  C2' I4B d   1      -1.797   0.891   2.885  0.00  0.00    -0.013 C 
ATOM      9  C4' I4B d   1      -2.121   2.334   3.169  0.00  0.00     0.013 C 
ATOM     10  C3' I4B d   1      -2.477  -0.020   3.863  0.00  0.00     0.013 C 
ENDBRANCH   7   8
ENDBRANCH   1   7
TORSDOF 2
ENDMDL
