MODEL 1
REMARK minimizedAffinity -4.21413088
REMARK minimizedRMSD -1
REMARK  2 active torsions:
REMARK  status: ('A' for Active; 'I' for Inactive)
REMARK    1  A    between atoms: C2'_3  and  C1'_4 
REMARK    2  A    between atoms: C1'_4  and  C1_5 
ROOT
ATOM      1  C1  I4B d   1       0.894  -0.400  -0.663  0.00  0.00    -0.075 A 
ATOM      2  C2  I4B d   1       1.513   0.742  -1.106  0.00  0.00     0.003 A 
ATOM      3  C3  I4B d   1       0.835   1.985  -1.056  0.00  0.00     0.002 A 
ATOM      4  C4  I4B d   1      -0.468   2.031  -0.604  0.00  0.00    -0.004 A 
ATOM      5  C5  I4B d   1      -1.085   0.875  -0.134  0.00  0.00     0.002 A 
ATOM      6  C6  I4B d   1      -0.396  -0.346  -0.151  0.00  0.00     0.003 A 
ENDROOT
BRANCH   1   7
ATOM      7  C1' I4B d   1       1.627  -1.700  -0.761  0.00  0.00     0.060 C 
BRANCH   7   8
ATOM      8  C2' I4B d   1       2.254  -1.780  -2.138  0.00  0.00    -0.013 C 
ATOM      9  C4' I4B d   1       3.702  -1.367  -2.103  0.00  0.00     0.013 C 
ATOM     10  C3' I4B d   1       2.104  -3.187  -2.635  0.00  0.00     0.013 C 
ENDBRANCH   7   8
ENDBRANCH   1   7
TORSDOF 2
ENDMDL
