MODEL 1
REMARK minimizedAffinity -6.37590122
REMARK minimizedRMSD -1
REMARK  2 active torsions:
REMARK  status: ('A' for Active; 'I' for Inactive)
REMARK    1  A    between atoms: C2'_3  and  C1'_4 
REMARK    2  A    between atoms: C1'_4  and  C1_5 
ROOT
ATOM      1  C1  I4B d   1       0.646  -0.154  -0.343  0.00  0.00    -0.075 A 
ATOM      2  C2  I4B d   1       1.738  -0.926  -0.654  0.00  0.00     0.003 A 
ATOM      3  C3  I4B d   1       2.542  -0.605  -1.774  0.00  0.00     0.002 A 
ATOM      4  C4  I4B d   1       2.192   0.458  -2.580  0.00  0.00    -0.004 A 
ATOM      5  C5  I4B d   1       1.098   1.254  -2.251  0.00  0.00     0.002 A 
ATOM      6  C6  I4B d   1       0.327   0.953  -1.118  0.00  0.00     0.003 A 
ENDROOT
BRANCH   1   7
ATOM      7  C1' I4B d   1      -0.200  -0.540   0.828  0.00  0.00     0.060 C 
BRANCH   7   8
ATOM      8  C2' I4B d   1      -0.829   0.720   1.386  0.00  0.00    -0.013 C 
ATOM      9  C4' I4B d   1      -2.324   0.577   1.505  0.00  0.00     0.013 C 
ATOM     10  C3' I4B d   1      -0.204   0.998   2.720  0.00  0.00     0.013 C 
ENDBRANCH   7   8
ENDBRANCH   1   7
TORSDOF 2
ENDMDL
