MODEL 1
REMARK minimizedAffinity -4.39054966
REMARK minimizedRMSD -1
REMARK  2 active torsions:
REMARK  status: ('A' for Active; 'I' for Inactive)
REMARK    1  A    between atoms: C2'_3  and  C1'_4 
REMARK    2  A    between atoms: C1'_4  and  C1_5 
ROOT
ATOM      1  C1  I4B d   1      -0.483  -0.257   1.390  0.00  0.00    -0.075 A 
ATOM      2  C2  I4B d   1      -0.877   0.169   2.634  0.00  0.00     0.003 A 
ATOM      3  C3  I4B d   1      -1.880   1.160   2.764  0.00  0.00     0.002 A 
ATOM      4  C4  I4B d   1      -2.423   1.730   1.631  0.00  0.00    -0.004 A 
ATOM      5  C5  I4B d   1      -2.039   1.281   0.370  0.00  0.00     0.002 A 
ATOM      6  C6  I4B d   1      -1.072   0.272   0.249  0.00  0.00     0.003 A 
ENDROOT
BRANCH   1   7
ATOM      7  C1' I4B d   1       0.602  -1.282   1.288  0.00  0.00     0.060 C 
BRANCH   7   8
ATOM      8  C2' I4B d   1       0.280  -2.188   0.118  0.00  0.00    -0.013 C 
ATOM      9  C4' I4B d   1       1.444  -2.286  -0.832  0.00  0.00     0.013 C 
ATOM     10  C3' I4B d   1      -0.088  -3.536   0.664  0.00  0.00     0.013 C 
ENDBRANCH   7   8
ENDBRANCH   1   7
TORSDOF 2
ENDMDL
