MODEL 1
REMARK minimizedAffinity -1.15100241
REMARK minimizedRMSD -1
REMARK  2 active torsions:
REMARK  status: ('A' for Active; 'I' for Inactive)
REMARK    1  A    between atoms: C2'_3  and  C1'_4 
REMARK    2  A    between atoms: C1'_4  and  C1_5 
ROOT
ATOM      1  C1  I4B d   1      -0.944   0.474   1.670  0.00  0.00    -0.075 A 
ATOM      2  C2  I4B d   1      -0.580   1.487   2.522  0.00  0.00     0.003 A 
ATOM      3  C3  I4B d   1      -1.318   1.722   3.707  0.00  0.00     0.002 A 
ATOM      4  C4  I4B d   1      -2.435   0.956   3.975  0.00  0.00    -0.004 A 
ATOM      5  C5  I4B d   1      -2.789  -0.085   3.122  0.00  0.00     0.002 A 
ATOM      6  C6  I4B d   1      -2.032  -0.336   1.969  0.00  0.00     0.003 A 
ENDROOT
BRANCH   1   7
ATOM      7  C1' I4B d   1      -0.162   0.276   0.410  0.00  0.00     0.060 C 
BRANCH   7   8
ATOM      8  C2' I4B d   1       0.317   1.634  -0.060  0.00  0.00    -0.013 C 
ATOM      9  C4' I4B d   1       1.435   1.501  -1.061  0.00  0.00     0.013 C 
ATOM     10  C3' I4B d   1      -0.855   2.360  -0.650  0.00  0.00     0.013 C 
ENDBRANCH   7   8
ENDBRANCH   1   7
TORSDOF 2
ENDMDL
