MODEL 1
REMARK minimizedAffinity -4.99140739
REMARK minimizedRMSD -1
REMARK  2 active torsions:
REMARK  status: ('A' for Active; 'I' for Inactive)
REMARK    1  A    between atoms: C2'_3  and  C1'_4 
REMARK    2  A    between atoms: C1'_4  and  C1_5 
ROOT
ATOM      1  C1  I4B d   1      -0.154   0.169   0.024  0.00  0.00    -0.075 A 
ATOM      2  C2  I4B d   1      -0.006  -1.195   0.057  0.00  0.00     0.003 A 
ATOM      3  C3  I4B d   1       1.159  -1.799  -0.475  0.00  0.00     0.002 A 
ATOM      4  C4  I4B d   1       2.121  -1.011  -1.073  0.00  0.00    -0.004 A 
ATOM      5  C5  I4B d   1       1.980   0.374  -1.085  0.00  0.00     0.002 A 
ATOM      6  C6  I4B d   1       0.842   0.969  -0.522  0.00  0.00     0.003 A 
ENDROOT
BRANCH   1   7
ATOM      7  C1' I4B d   1      -1.411   0.772   0.566  0.00  0.00     0.060 C 
BRANCH   7   8
ATOM      8  C2' I4B d   1      -1.467   0.478   2.051  0.00  0.00    -0.013 C 
ATOM      9  C4' I4B d   1      -1.348   1.742   2.862  0.00  0.00     0.013 C 
ATOM     10  C3' I4B d   1      -2.759  -0.228   2.336  0.00  0.00     0.013 C 
ENDBRANCH   7   8
ENDBRANCH   1   7
TORSDOF 2
ENDMDL
