MODEL 1
REMARK minimizedAffinity -1.53086758
REMARK minimizedRMSD -1
REMARK  2 active torsions:
REMARK  status: ('A' for Active; 'I' for Inactive)
REMARK    1  A    between atoms: C2'_3  and  C1'_4 
REMARK    2  A    between atoms: C1'_4  and  C1_5 
ROOT
ATOM      1  C1  I4B d   1       0.703  -0.453  -0.336  0.00  0.00    -0.075 A 
ATOM      2  C2  I4B d   1       0.261  -1.721  -0.052  0.00  0.00     0.003 A 
ATOM      3  C3  I4B d   1       0.667  -2.814  -0.856  0.00  0.00     0.002 A 
ATOM      4  C4  I4B d   1       1.468  -2.588  -1.956  0.00  0.00    -0.004 A 
ATOM      5  C5  I4B d   1       1.934  -1.305  -2.229  0.00  0.00     0.002 A 
ATOM      6  C6  I4B d   1       1.560  -0.232  -1.407  0.00  0.00     0.003 A 
ENDROOT
BRANCH   1   7
ATOM      7  C1' I4B d   1       0.229   0.683   0.514  0.00  0.00     0.060 C 
BRANCH   7   8
ATOM      8  C2' I4B d   1      -1.286   0.685   0.488  0.00  0.00    -0.013 C 
ATOM      9  C4' I4B d   1      -1.854   1.103   1.818  0.00  0.00     0.013 C 
ATOM     10  C3' I4B d   1      -1.728   1.612  -0.605  0.00  0.00     0.013 C 
ENDBRANCH   7   8
ENDBRANCH   1   7
TORSDOF 2
ENDMDL
