MODEL 1
REMARK minimizedAffinity -3.7879355
REMARK minimizedRMSD -1
REMARK  2 active torsions:
REMARK  status: ('A' for Active; 'I' for Inactive)
REMARK    1  A    between atoms: C2'_3  and  C1'_4 
REMARK    2  A    between atoms: C1'_4  and  C1_5 
ROOT
ATOM      1  C1  I4B d   1       0.115  -0.040  -0.173  0.00  0.00    -0.075 A 
ATOM      2  C2  I4B d   1       1.174   0.630  -0.734  0.00  0.00     0.003 A 
ATOM      3  C3  I4B d   1       2.321  -0.082  -1.163  0.00  0.00     0.002 A 
ATOM      4  C4  I4B d   1       2.386  -1.447  -0.967  0.00  0.00    -0.004 A 
ATOM      5  C5  I4B d   1       1.302  -2.126  -0.418  0.00  0.00     0.002 A 
ATOM      6  C6  I4B d   1       0.154  -1.420  -0.030  0.00  0.00     0.003 A 
ENDROOT
BRANCH   1   7
ATOM      7  C1' I4B d   1      -1.066   0.747   0.298  0.00  0.00     0.060 C 
BRANCH   7   8
ATOM      8  C2' I4B d   1      -1.480   0.204   1.651  0.00  0.00    -0.013 C 
ATOM      9  C4' I4B d   1      -1.497   1.290   2.693  0.00  0.00     0.013 C 
ATOM     10  C3' I4B d   1      -2.832  -0.426   1.503  0.00  0.00     0.013 C 
ENDBRANCH   7   8
ENDBRANCH   1   7
TORSDOF 2
ENDMDL
