MODEL 1
REMARK minimizedAffinity -0.880608737
REMARK minimizedRMSD -1
REMARK  2 active torsions:
REMARK  status: ('A' for Active; 'I' for Inactive)
REMARK    1  A    between atoms: C2'_3  and  C1'_4 
REMARK    2  A    between atoms: C1'_4  and  C1_5 
ROOT
ATOM      1  C1  I4B d   1      -0.477   1.148   1.304  0.00  0.00    -0.075 A 
ATOM      2  C2  I4B d   1       0.557   1.796   0.677  0.00  0.00     0.003 A 
ATOM      3  C3  I4B d   1       1.434   1.082  -0.176  0.00  0.00     0.002 A 
ATOM      4  C4  I4B d   1       1.270  -0.279  -0.332  0.00  0.00    -0.004 A 
ATOM      5  C5  I4B d   1       0.207  -0.930   0.286  0.00  0.00     0.002 A 
ATOM      6  C6  I4B d   1      -0.680  -0.211   1.100  0.00  0.00     0.003 A 
ENDROOT
BRANCH   1   7
ATOM      7  C1' I4B d   1      -1.364   1.926   2.224  0.00  0.00     0.060 C 
BRANCH   7   8
ATOM      8  C2' I4B d   1      -2.305   0.951   2.901  0.00  0.00    -0.013 C 
ATOM      9  C4' I4B d   1      -1.690   0.378   4.150  0.00  0.00     0.013 C 
ATOM     10  C3' I4B d   1      -3.580   1.677   3.210  0.00  0.00     0.013 C 
ENDBRANCH   7   8
ENDBRANCH   1   7
TORSDOF 2
ENDMDL
