MODEL 1
REMARK minimizedAffinity -3.37955093
REMARK minimizedRMSD -1
REMARK  2 active torsions:
REMARK  status: ('A' for Active; 'I' for Inactive)
REMARK    1  A    between atoms: C2'_3  and  C1'_4 
REMARK    2  A    between atoms: C1'_4  and  C1_5 
ROOT
ATOM      1  C1  I4B d   1      -0.555  -0.093  -0.009  0.00  0.00    -0.075 A 
ATOM      2  C2  I4B d   1      -0.720  -1.428   0.265  0.00  0.00     0.003 A 
ATOM      3  C3  I4B d   1       0.198  -2.379  -0.242  0.00  0.00     0.002 A 
ATOM      4  C4  I4B d   1       1.232  -1.959  -1.054  0.00  0.00    -0.004 A 
ATOM      5  C5  I4B d   1       1.412  -0.603  -1.311  0.00  0.00     0.002 A 
ATOM      6  C6  I4B d   1       0.520   0.337  -0.775  0.00  0.00     0.003 A 
ENDROOT
BRANCH   1   7
ATOM      7  C1' I4B d   1      -1.563   0.880   0.515  0.00  0.00     0.060 C 
BRANCH   7   8
ATOM      8  C2' I4B d   1      -1.819   0.549   1.971  0.00  0.00    -0.013 C 
ATOM      9  C4' I4B d   1      -1.571   1.743   2.854  0.00  0.00     0.013 C 
ATOM     10  C3' I4B d   1      -3.234   0.069   2.094  0.00  0.00     0.013 C 
ENDBRANCH   7   8
ENDBRANCH   1   7
TORSDOF 2
ENDMDL
