MODEL 1
REMARK minimizedAffinity -5.09049845
REMARK minimizedRMSD -1
REMARK  2 active torsions:
REMARK  status: ('A' for Active; 'I' for Inactive)
REMARK    1  A    between atoms: C2'_3  and  C1'_4 
REMARK    2  A    between atoms: C1'_4  and  C1_5 
ROOT
ATOM      1  C1  I4B d   1      -0.672   0.355   1.125  0.00  0.00    -0.075 A 
ATOM      2  C2  I4B d   1       0.005   0.848   2.213  0.00  0.00     0.003 A 
ATOM      3  C3  I4B d   1      -0.689   1.141   3.412  0.00  0.00     0.002 A 
ATOM      4  C4  I4B d   1      -2.059   0.977   3.462  0.00  0.00    -0.004 A 
ATOM      5  C5  I4B d   1      -2.740   0.456   2.365  0.00  0.00     0.002 A 
ATOM      6  C6  I4B d   1      -2.041   0.132   1.194  0.00  0.00     0.003 A 
ENDROOT
BRANCH   1   7
ATOM      7  C1' I4B d   1       0.088   0.087  -0.135  0.00  0.00     0.060 C 
BRANCH   7   8
ATOM      8  C2' I4B d   1       0.799  -1.242   0.022  0.00  0.00    -0.013 C 
ATOM      9  C4' I4B d   1      -0.138  -2.394  -0.225  0.00  0.00     0.013 C 
ATOM     10  C3' I4B d   1       1.952  -1.266  -0.936  0.00  0.00     0.013 C 
ENDBRANCH   7   8
ENDBRANCH   1   7
TORSDOF 2
ENDMDL
