MODEL 1
REMARK minimizedAffinity -1.6987164
REMARK minimizedRMSD -1
REMARK  0 active torsions:
REMARK  status: ('A' for Active; 'I' for Inactive)
ROOT
ATOM      1  C1  BNZ d   1       2.381  -1.596   2.924  0.00  0.00     0.000 A 
ATOM      2  C2  BNZ d   1       3.303  -2.595   2.760  0.00  0.00     0.000 A 
ATOM      3  C3  BNZ d   1       3.094  -3.836   3.293  0.00  0.00     0.000 A 
ATOM      4  C4  BNZ d   1       1.983  -4.065   4.023  0.00  0.00     0.000 A 
ATOM      5  C5  BNZ d   1       1.048  -3.066   4.205  0.00  0.00     0.000 A 
ATOM      6  C6  BNZ d   1       1.244  -1.829   3.635  0.00  0.00     0.000 A 
ENDROOT
TORSDOF 0
ENDMDL
