MODEL 1
REMARK minimizedAffinity 2.07117963
REMARK minimizedRMSD -1
REMARK  0 active torsions:
REMARK  status: ('A' for Active; 'I' for Inactive)
ROOT
ATOM      1  C1  BNZ d   1       1.263  -3.591   2.497  0.00  0.00     0.000 A 
ATOM      2  C2  BNZ d   1       1.695  -2.306   2.691  0.00  0.00     0.000 A 
ATOM      3  C3  BNZ d   1       2.363  -1.958   3.832  0.00  0.00     0.000 A 
ATOM      4  C4  BNZ d   1       2.562  -2.883   4.793  0.00  0.00     0.000 A 
ATOM      5  C5  BNZ d   1       2.124  -4.181   4.615  0.00  0.00     0.000 A 
ATOM      6  C6  BNZ d   1       1.487  -4.537   3.449  0.00  0.00     0.000 A 
ENDROOT
TORSDOF 0
ENDMDL
