MODEL 1
REMARK minimizedAffinity -2.52019334
REMARK minimizedRMSD -1
REMARK  0 active torsions:
REMARK  status: ('A' for Active; 'I' for Inactive)
ROOT
ATOM      1  C1  BNZ d   1       4.626  -6.000  -3.527  0.00  0.00     0.000 A 
ATOM      2  C2  BNZ d   1       3.264  -6.000  -3.666  0.00  0.00     0.000 A 
ATOM      3  C3  BNZ d   1       2.686  -5.956  -4.904  0.00  0.00     0.000 A 
ATOM      4  C4  BNZ d   1       3.470  -5.873  -5.999  0.00  0.00     0.000 A 
ATOM      5  C5  BNZ d   1       4.845  -5.863  -5.875  0.00  0.00     0.000 A 
ATOM      6  C6  BNZ d   1       5.423  -5.946  -4.629  0.00  0.00     0.000 A 
ENDROOT
TORSDOF 0
ENDMDL
