MODEL 1
REMARK minimizedAffinity -2.11383319
REMARK minimizedRMSD -1
REMARK  0 active torsions:
REMARK  status: ('A' for Active; 'I' for Inactive)
ROOT
ATOM      1  C1  BNZ d   1       2.975  -5.964  -2.556  0.00  0.00     0.000 A 
ATOM      2  C2  BNZ d   1       4.343  -5.904  -2.569  0.00  0.00     0.000 A 
ATOM      3  C3  BNZ d   1       5.030  -5.867  -3.750  0.00  0.00     0.000 A 
ATOM      4  C4  BNZ d   1       4.352  -5.929  -4.914  0.00  0.00     0.000 A 
ATOM      5  C5  BNZ d   1       2.973  -6.000  -4.917  0.00  0.00     0.000 A 
ATOM      6  C6  BNZ d   1       2.283  -5.998  -3.727  0.00  0.00     0.000 A 
ENDROOT
TORSDOF 0
ENDMDL
