MODEL 1
REMARK minimizedAffinity -0.294080615
REMARK minimizedRMSD -1
REMARK  0 active torsions:
REMARK  status: ('A' for Active; 'I' for Inactive)
ROOT
ATOM      1  C1  BNZ d   1       2.688  -5.998  -3.690  0.00  0.00     0.000 A 
ATOM      2  C2  BNZ d   1       4.015  -5.997  -3.352  0.00  0.00     0.000 A 
ATOM      3  C3  BNZ d   1       4.983  -5.970  -4.317  0.00  0.00     0.000 A 
ATOM      4  C4  BNZ d   1       4.623  -5.985  -5.617  0.00  0.00     0.000 A 
ATOM      5  C5  BNZ d   1       3.290  -5.995  -5.974  0.00  0.00     0.000 A 
ATOM      6  C6  BNZ d   1       2.318  -5.983  -4.999  0.00  0.00     0.000 A 
ENDROOT
TORSDOF 0
ENDMDL
