MODEL 1
REMARK minimizedAffinity -1.99285305
REMARK minimizedRMSD -1
REMARK  0 active torsions:
REMARK  status: ('A' for Active; 'I' for Inactive)
ROOT
ATOM      1  C1  BNZ d   1       3.222  -5.995  -3.896  0.00  0.00     0.000 A 
ATOM      2  C2  BNZ d   1       4.589  -5.989  -3.822  0.00  0.00     0.000 A 
ATOM      3  C3  BNZ d   1       5.224  -5.999  -2.611  0.00  0.00     0.000 A 
ATOM      4  C4  BNZ d   1       4.492  -5.974  -1.478  0.00  0.00     0.000 A 
ATOM      5  C5  BNZ d   1       3.113  -5.970  -1.537  0.00  0.00     0.000 A 
ATOM      6  C6  BNZ d   1       2.477  -5.999  -2.757  0.00  0.00     0.000 A 
ENDROOT
TORSDOF 0
ENDMDL
