MODEL 1
REMARK minimizedAffinity 1.4563719
REMARK minimizedRMSD -1
REMARK  0 active torsions:
REMARK  status: ('A' for Active; 'I' for Inactive)
ROOT
ATOM      1  C1  BNZ d   1       3.467  -3.527   4.673  0.00  0.00     0.000 A 
ATOM      2  C2  BNZ d   1       3.229  -2.249   4.241  0.00  0.00     0.000 A 
ATOM      3  C3  BNZ d   1       2.145  -1.965   3.459  0.00  0.00     0.000 A 
ATOM      4  C4  BNZ d   1       1.323  -2.963   3.077  0.00  0.00     0.000 A 
ATOM      5  C5  BNZ d   1       1.554  -4.258   3.497  0.00  0.00     0.000 A 
ATOM      6  C6  BNZ d   1       2.625  -4.534   4.316  0.00  0.00     0.000 A 
ENDROOT
TORSDOF 0
ENDMDL
