MODEL 1
REMARK minimizedAffinity -5.48451662
REMARK minimizedRMSD -1
REMARK  1 active torsions:
REMARK  status: ('A' for Active; 'I' for Inactive)
REMARK    1  A    between atoms: C1_2  and  C2_3 
ROOT
ATOM      1  C2  UNL d   1       0.033  -0.628  -0.536  0.00  0.00    -0.076 A 
ATOM      2  C3  UNL d   1       0.269  -0.803  -1.910  0.00  0.00     0.004 A 
ATOM      3  C4  UNL d   1       0.117  -2.051  -2.511  0.00  0.00    -0.003 A 
ATOM      4  C5  UNL d   1      -0.274  -3.145  -1.748  0.00  0.00     0.000 A 
ATOM      5  C6  UNL d   1      -0.530  -2.987  -0.386  0.00  0.00     0.000 A 
ATOM      6  C7  UNL d   1      -0.398  -1.732   0.232  0.00  0.00    -0.073 A 
ATOM      7  C8  UNL d   1      -0.681  -1.619   1.705  0.00  0.00     0.078 C 
ENDROOT
BRANCH   1   8
ATOM      8  C1  UNL d   1       0.240   0.743   0.066  0.00  0.00     0.053 C 
ATOM      9  C   UNL d   1      -1.069   1.485   0.291  0.00  0.00     0.018 C 
ENDBRANCH   1   8
TORSDOF 1
ENDMDL
