MODEL 1
REMARK minimizedAffinity -4.89098501
REMARK minimizedRMSD -1
REMARK  1 active torsions:
REMARK  status: ('A' for Active; 'I' for Inactive)
REMARK    1  A    between atoms: C1_2  and  C2_3 
ROOT
ATOM      1  C2  UNL d   1      -0.256  -1.393  -0.133  0.00  0.00    -0.076 A 
ATOM      2  C3  UNL d   1       0.381  -1.575  -1.373  0.00  0.00     0.004 A 
ATOM      3  C4  UNL d   1       0.668  -0.489  -2.198  0.00  0.00    -0.003 A 
ATOM      4  C5  UNL d   1       0.322   0.797  -1.797  0.00  0.00     0.000 A 
ATOM      5  C6  UNL d   1      -0.294   0.997  -0.562  0.00  0.00     0.000 A 
ATOM      6  C7  UNL d   1      -0.575  -0.085   0.289  0.00  0.00    -0.073 A 
ATOM      7  C8  UNL d   1      -1.247   0.188   1.607  0.00  0.00     0.078 C 
ENDROOT
BRANCH   1   8
ATOM      8  C1  UNL d   1      -0.565  -2.612   0.707  0.00  0.00     0.053 C 
ATOM      9  C   UNL d   1      -0.095  -3.903   0.057  0.00  0.00     0.018 C 
ENDBRANCH   1   8
TORSDOF 1
ENDMDL
