MODEL 1
REMARK minimizedAffinity -2.57405353
REMARK minimizedRMSD -1
REMARK  1 active torsions:
REMARK  status: ('A' for Active; 'I' for Inactive)
REMARK    1  A    between atoms: C1_2  and  C2_3 
ROOT
ATOM      1  C2  UNL d   1      -0.193  -0.028  -0.401  0.00  0.00    -0.076 A 
ATOM      2  C3  UNL d   1      -0.683   0.097   0.911  0.00  0.00     0.004 A 
ATOM      3  C4  UNL d   1      -1.150  -1.014   1.612  0.00  0.00    -0.003 A 
ATOM      4  C5  UNL d   1      -1.133  -2.268   1.013  0.00  0.00     0.000 A 
ATOM      5  C6  UNL d   1      -0.633  -2.414  -0.281  0.00  0.00     0.000 A 
ATOM      6  C7  UNL d   1      -0.144  -1.307  -0.996  0.00  0.00    -0.073 A 
ATOM      7  C8  UNL d   1       0.378  -1.521  -2.390  0.00  0.00     0.078 C 
ENDROOT
BRANCH   1   8
ATOM      8  C1  UNL d   1       0.275   1.216  -1.121  0.00  0.00     0.053 C 
ATOM      9  C   UNL d   1       0.587   2.359  -0.167  0.00  0.00     0.018 C 
ENDBRANCH   1   8
TORSDOF 1
ENDMDL
