MODEL 1
REMARK minimizedAffinity -2.52216983
REMARK minimizedRMSD -1
REMARK  1 active torsions:
REMARK  status: ('A' for Active; 'I' for Inactive)
REMARK    1  A    between atoms: C1_2  and  C2_3 
ROOT
ATOM      1  C2  UNL d   1       0.603   2.087   0.459  0.00  0.00    -0.076 A 
ATOM      2  C3  UNL d   1       0.262   2.612   1.717  0.00  0.00     0.004 A 
ATOM      3  C4  UNL d   1       0.619   3.912   2.073  0.00  0.00    -0.003 A 
ATOM      4  C5  UNL d   1       1.323   4.707   1.176  0.00  0.00     0.000 A 
ATOM      5  C6  UNL d   1       1.655   4.208  -0.084  0.00  0.00     0.000 A 
ATOM      6  C7  UNL d   1       1.288   2.906  -0.464  0.00  0.00    -0.073 A 
ATOM      7  C8  UNL d   1       1.676   2.417  -1.832  0.00  0.00     0.078 C 
ENDROOT
BRANCH   1   8
ATOM      8  C1  UNL d   1       0.212   0.662   0.139  0.00  0.00     0.053 C 
ATOM      9  C   UNL d   1      -1.012   0.204   0.917  0.00  0.00     0.018 C 
ENDBRANCH   1   8
TORSDOF 1
ENDMDL
