MODEL 1
REMARK minimizedAffinity -2.92845273
REMARK minimizedRMSD -1
REMARK  1 active torsions:
REMARK  status: ('A' for Active; 'I' for Inactive)
REMARK    1  A    between atoms: C1_2  and  C2_3 
ROOT
ATOM      1  C2  UNL d   1      -0.119  -0.088  -0.288  0.00  0.00    -0.076 A 
ATOM      2  C3  UNL d   1       0.764  -0.896  -1.024  0.00  0.00     0.004 A 
ATOM      3  C4  UNL d   1       0.962  -2.235  -0.688  0.00  0.00    -0.003 A 
ATOM      4  C5  UNL d   1       0.279  -2.787   0.390  0.00  0.00     0.000 A 
ATOM      5  C6  UNL d   1      -0.615  -2.005   1.120  0.00  0.00     0.000 A 
ATOM      6  C7  UNL d   1      -0.838  -0.658   0.785  0.00  0.00    -0.073 A 
ATOM      7  C8  UNL d   1      -1.809   0.140   1.611  0.00  0.00     0.078 C 
ENDROOT
BRANCH   1   8
ATOM      8  C1  UNL d   1      -0.273   1.363  -0.682  0.00  0.00     0.053 C 
ATOM      9  C   UNL d   1       0.874   2.227  -0.182  0.00  0.00     0.018 C 
ENDBRANCH   1   8
TORSDOF 1
ENDMDL
