MODEL 1
REMARK minimizedAffinity -2.40738869
REMARK minimizedRMSD -1
REMARK  1 active torsions:
REMARK  status: ('A' for Active; 'I' for Inactive)
REMARK    1  A    between atoms: C1_2  and  C2_3 
ROOT
ATOM      1  C2  UNL d   1       1.166   1.730   0.694  0.00  0.00    -0.076 A 
ATOM      2  C3  UNL d   1       1.147   0.475   1.327  0.00  0.00     0.004 A 
ATOM      3  C4  UNL d   1       0.042  -0.367   1.217  0.00  0.00    -0.003 A 
ATOM      4  C5  UNL d   1      -1.062   0.032   0.472  0.00  0.00     0.000 A 
ATOM      5  C6  UNL d   1      -1.053   1.266  -0.178  0.00  0.00     0.000 A 
ATOM      6  C7  UNL d   1       0.060   2.120  -0.091  0.00  0.00    -0.073 A 
ATOM      7  C8  UNL d   1       0.013   3.442  -0.807  0.00  0.00     0.078 C 
ENDROOT
BRANCH   1   8
ATOM      8  C1  UNL d   1       2.382   2.612   0.871  0.00  0.00     0.053 C 
ATOM      9  C   UNL d   1       2.303   3.468   2.126  0.00  0.00     0.018 C 
ENDBRANCH   1   8
TORSDOF 1
ENDMDL
