MODEL 1
REMARK minimizedAffinity -4.12550449
REMARK minimizedRMSD -1
REMARK  1 active torsions:
REMARK  status: ('A' for Active; 'I' for Inactive)
REMARK    1  A    between atoms: C1_2  and  C2_3 
ROOT
ATOM      1  C2  UNL d   1      -0.097  -0.186   0.008  0.00  0.00    -0.076 A 
ATOM      2  C3  UNL d   1       0.877  -1.102  -0.426  0.00  0.00     0.004 A 
ATOM      3  C4  UNL d   1       0.911  -2.403   0.071  0.00  0.00    -0.003 A 
ATOM      4  C5  UNL d   1      -0.030  -2.811   1.011  0.00  0.00     0.000 A 
ATOM      5  C6  UNL d   1      -1.014  -1.921   1.439  0.00  0.00     0.000 A 
ATOM      6  C7  UNL d   1      -1.072  -0.611   0.936  0.00  0.00    -0.073 A 
ATOM      7  C8  UNL d   1      -2.152   0.308   1.438  0.00  0.00     0.078 C 
ENDROOT
BRANCH   1   8
ATOM      8  C1  UNL d   1      -0.068   1.220  -0.546  0.00  0.00     0.053 C 
ATOM      9  C   UNL d   1       0.991   2.086   0.118  0.00  0.00     0.018 C 
ENDBRANCH   1   8
TORSDOF 1
ENDMDL
