MODEL 1
REMARK minimizedAffinity -0.624120355
REMARK minimizedRMSD -1
REMARK  1 active torsions:
REMARK  status: ('A' for Active; 'I' for Inactive)
REMARK    1  A    between atoms: C1_2  and  C2_3 
ROOT
ATOM      1  C2  UNL d   1       0.453   2.672   0.286  0.00  0.00    -0.076 A 
ATOM      2  C3  UNL d   1      -0.457   3.372   1.096  0.00  0.00     0.004 A 
ATOM      3  C4  UNL d   1      -0.074   4.531   1.769  0.00  0.00    -0.003 A 
ATOM      4  C5  UNL d   1       1.225   5.009   1.643  0.00  0.00     0.000 A 
ATOM      5  C6  UNL d   1       2.137   4.336   0.829  0.00  0.00     0.000 A 
ATOM      6  C7  UNL d   1       1.762   3.176   0.131  0.00  0.00    -0.073 A 
ATOM      7  C8  UNL d   1       2.788   2.487  -0.728  0.00  0.00     0.078 C 
ENDROOT
BRANCH   1   8
ATOM      8  C1  UNL d   1      -0.011   1.406  -0.398  0.00  0.00     0.053 C 
ATOM      9  C   UNL d   1      -0.186   0.249   0.573  0.00  0.00     0.018 C 
ENDBRANCH   1   8
TORSDOF 1
ENDMDL
