MODEL 1
REMARK minimizedAffinity -5.76284218
REMARK minimizedRMSD -1
REMARK  1 active torsions:
REMARK  status: ('A' for Active; 'I' for Inactive)
REMARK    1  A    between atoms: C1_2  and  C2_3 
ROOT
ATOM      1  C2  UNL d   1       0.139  -0.183  -0.835  0.00  0.00    -0.076 A 
ATOM      2  C3  UNL d   1       0.677  -0.876  -1.934  0.00  0.00     0.004 A 
ATOM      3  C4  UNL d   1       0.817  -2.262  -1.909  0.00  0.00    -0.003 A 
ATOM      4  C5  UNL d   1       0.421  -2.979  -0.785  0.00  0.00     0.000 A 
ATOM      5  C6  UNL d   1      -0.130  -2.310   0.307  0.00  0.00     0.000 A 
ATOM      6  C7  UNL d   1      -0.294  -0.914   0.292  0.00  0.00    -0.073 A 
ATOM      7  C8  UNL d   1      -0.889  -0.243   1.500  0.00  0.00     0.078 C 
ENDROOT
BRANCH   1   8
ATOM      8  C1  UNL d   1       0.037   1.324  -0.908  0.00  0.00     0.053 C 
ATOM      9  C   UNL d   1       1.187   2.022  -0.199  0.00  0.00     0.018 C 
ENDBRANCH   1   8
TORSDOF 1
ENDMDL
