MODEL 1
REMARK minimizedAffinity -4.80680275
REMARK minimizedRMSD -1
REMARK  1 active torsions:
REMARK  status: ('A' for Active; 'I' for Inactive)
REMARK    1  A    between atoms: C1_2  and  C2_3 
ROOT
ATOM      1  C2  UNL d   1       0.360  -1.190  -0.567  0.00  0.00    -0.076 A 
ATOM      2  C3  UNL d   1      -0.145  -1.396   0.729  0.00  0.00     0.004 A 
ATOM      3  C4  UNL d   1      -0.490  -2.673   1.170  0.00  0.00    -0.003 A 
ATOM      4  C5  UNL d   1      -0.333  -3.764   0.323  0.00  0.00     0.000 A 
ATOM      5  C6  UNL d   1       0.184  -3.581  -0.959  0.00  0.00     0.000 A 
ATOM      6  C7  UNL d   1       0.551  -2.303  -1.414  0.00  0.00    -0.073 A 
ATOM      7  C8  UNL d   1       1.098  -2.162  -2.808  0.00  0.00     0.078 C 
ENDROOT
BRANCH   1   8
ATOM      8  C1  UNL d   1       0.691   0.220  -0.999  0.00  0.00     0.053 C 
ATOM      9  C   UNL d   1      -0.090   1.267  -0.220  0.00  0.00     0.018 C 
ENDBRANCH   1   8
TORSDOF 1
ENDMDL
