MODEL 1
REMARK minimizedAffinity -5.14847898
REMARK minimizedRMSD -1
REMARK  1 active torsions:
REMARK  status: ('A' for Active; 'I' for Inactive)
REMARK    1  A    between atoms: C1_2  and  C2_3 
ROOT
ATOM      1  C2  UNL d   1       0.181  -0.987  -0.518  0.00  0.00    -0.076 A 
ATOM      2  C3  UNL d   1       0.483  -1.145  -1.882  0.00  0.00     0.004 A 
ATOM      3  C4  UNL d   1       0.362  -2.387  -2.504  0.00  0.00    -0.003 A 
ATOM      4  C5  UNL d   1      -0.063  -3.490  -1.772  0.00  0.00     0.000 A 
ATOM      5  C6  UNL d   1      -0.384  -3.347  -0.423  0.00  0.00     0.000 A 
ATOM      6  C7  UNL d   1      -0.283  -2.099   0.216  0.00  0.00    -0.073 A 
ATOM      7  C8  UNL d   1      -0.636  -2.004   1.675  0.00  0.00     0.078 C 
ENDROOT
BRANCH   1   8
ATOM      8  C1  UNL d   1       0.357   0.378   0.109  0.00  0.00     0.053 C 
ATOM      9  C   UNL d   1      -0.453   1.453  -0.599  0.00  0.00     0.018 C 
ENDBRANCH   1   8
TORSDOF 1
ENDMDL
