MODEL 1
REMARK minimizedAffinity 9.45252609
REMARK minimizedRMSD -1
REMARK  2 active torsions:
REMARK  status: ('A' for Active; 'I' for Inactive)
REMARK    1  A    between atoms: C2'_3  and  C1'_4 
REMARK    2  A    between atoms: C1'_4  and  C1_5 
ROOT
ATOM      1  C1  I4B d   1      -5.772   0.587  -4.750  0.00  0.00    -0.075 A 
ATOM      2  C2  I4B d   1      -5.461   1.858  -5.166  0.00  0.00     0.003 A 
ATOM      3  C3  I4B d   1      -5.378   2.915  -4.227  0.00  0.00     0.002 A 
ATOM      4  C4  I4B d   1      -5.660   2.668  -2.899  0.00  0.00    -0.004 A 
ATOM      5  C5  I4B d   1      -5.952   1.375  -2.476  0.00  0.00     0.002 A 
ATOM      6  C6  I4B d   1      -5.996   0.325  -3.405  0.00  0.00     0.003 A 
ENDROOT
BRANCH   1   7
ATOM      7  C1' I4B d   1      -5.883  -0.498  -5.773  0.00  0.00     0.060 C 
BRANCH   7   8
ATOM      8  C2' I4B d   1      -5.578  -1.816  -5.090  0.00  0.00    -0.013 C 
ATOM      9  C4' I4B d   1      -5.958  -2.983  -5.963  0.00  0.00     0.013 C 
ATOM     10  C3' I4B d   1      -4.115  -1.839  -4.762  0.00  0.00     0.013 C 
ENDBRANCH   7   8
ENDBRANCH   1   7
TORSDOF 2
ENDMDL
