MODEL 1
REMARK minimizedAffinity 5.11238384
REMARK minimizedRMSD -1
REMARK  2 active torsions:
REMARK  status: ('A' for Active; 'I' for Inactive)
REMARK    1  A    between atoms: C2'_3  and  C1'_4 
REMARK    2  A    between atoms: C1'_4  and  C1_5 
ROOT
ATOM      1  C1  I4B d   1       2.019  -1.104   3.929  0.00  0.00    -0.075 A 
ATOM      2  C2  I4B d   1       1.940  -0.105   4.867  0.00  0.00     0.003 A 
ATOM      3  C3  I4B d   1       2.202   1.238   4.503  0.00  0.00     0.002 A 
ATOM      4  C4  I4B d   1       2.588   1.528   3.210  0.00  0.00    -0.004 A 
ATOM      5  C5  I4B d   1       2.646   0.517   2.255  0.00  0.00     0.002 A 
ATOM      6  C6  I4B d   1       2.348  -0.806   2.613  0.00  0.00     0.003 A 
ENDROOT
BRANCH   1   7
ATOM      7  C1' I4B d   1       1.767  -2.515   4.356  0.00  0.00     0.060 C 
BRANCH   7   8
ATOM      8  C2' I4B d   1       2.989  -3.336   3.999  0.00  0.00    -0.013 C 
ATOM      9  C4' I4B d   1       4.101  -3.119   4.992  0.00  0.00     0.013 C 
ATOM     10  C3' I4B d   1       2.581  -4.778   3.951  0.00  0.00     0.013 C 
ENDBRANCH   7   8
ENDBRANCH   1   7
TORSDOF 2
ENDMDL
