MODEL 1
REMARK minimizedAffinity 4.14507914
REMARK minimizedRMSD -1
REMARK  1 active torsions:
REMARK  status: ('A' for Active; 'I' for Inactive)
REMARK    1  A    between atoms: C3_4  and  O_7 
ROOT
ATOM      1  C   UNL d   1      -0.531  -0.846   4.090  0.00  0.00    -0.033 A 
ATOM      2  C1  UNL d   1       0.033   0.256   3.442  0.00  0.00     0.039 A 
ATOM      3  C2  UNL d   1      -0.310   0.542   2.120  0.00  0.00    -0.080 A 
ATOM      4  C3  UNL d   1      -1.218  -0.279   1.457  0.00  0.00     0.150 A 
ATOM      5  C4  UNL d   1      -1.787  -1.376   2.097  0.00  0.00    -0.007 A 
ATOM      6  C5  UNL d   1      -1.442  -1.661   3.417  0.00  0.00     0.039 A 
ENDROOT
BRANCH   4   7
ATOM      7  O   UNL d   1      -1.581  -0.043   0.164  0.00  0.00    -0.526 OA
ATOM      8  H5  UNL d   1      -1.087   0.730  -0.158  0.00  0.00     0.418 HD
ENDBRANCH   4   7
TORSDOF 1
ENDMDL
