MODEL 1
REMARK minimizedAffinity -3.98233986
REMARK minimizedRMSD -1
REMARK  1 active torsions:
REMARK  status: ('A' for Active; 'I' for Inactive)
REMARK    1  A    between atoms: C3_4  and  O_7 
ROOT
ATOM      1  C   UNL d   1      -0.197  -0.234   3.287  0.00  0.00    -0.033 A 
ATOM      2  C1  UNL d   1      -0.006  -0.259   1.904  0.00  0.00     0.039 A 
ATOM      3  C2  UNL d   1      -1.094  -0.091   1.045  0.00  0.00    -0.080 A 
ATOM      4  C3  UNL d   1      -2.364   0.102   1.579  0.00  0.00     0.150 A 
ATOM      5  C4  UNL d   1      -2.561   0.133   2.956  0.00  0.00    -0.007 A 
ATOM      6  C5  UNL d   1      -1.475  -0.036   3.813  0.00  0.00     0.039 A 
ENDROOT
BRANCH   4   7
ATOM      7  O   UNL d   1      -3.456   0.266   0.780  0.00  0.00    -0.526 OA
ATOM      8  H5  UNL d   1      -3.173   0.194  -0.147  0.00  0.00     0.418 HD
ENDBRANCH   4   7
TORSDOF 1
ENDMDL
