MODEL 1
REMARK minimizedAffinity -0.37035355
REMARK minimizedRMSD -1
REMARK  1 active torsions:
REMARK  status: ('A' for Active; 'I' for Inactive)
REMARK    1  A    between atoms: C3_4  and  O_7 
ROOT
ATOM      1  C   UNL d   1      -2.016  -0.531   2.209  0.00  0.00    -0.033 A 
ATOM      2  C1  UNL d   1      -1.460  -1.536   3.002  0.00  0.00     0.039 A 
ATOM      3  C2  UNL d   1      -0.094  -1.524   3.292  0.00  0.00    -0.080 A 
ATOM      4  C3  UNL d   1       0.703  -0.502   2.784  0.00  0.00     0.150 A 
ATOM      5  C4  UNL d   1       0.155   0.505   1.996  0.00  0.00    -0.007 A 
ATOM      6  C5  UNL d   1      -1.209   0.491   1.707  0.00  0.00     0.039 A 
ENDROOT
BRANCH   4   7
ATOM      7  O   UNL d   1       2.042  -0.450   3.036  0.00  0.00    -0.526 OA
ATOM      8  H5  UNL d   1       2.285  -1.225   3.569  0.00  0.00     0.418 HD
ENDBRANCH   4   7
TORSDOF 1
ENDMDL
