MODEL 1
REMARK minimizedAffinity 5.92852879
REMARK minimizedRMSD -1
REMARK  1 active torsions:
REMARK  status: ('A' for Active; 'I' for Inactive)
REMARK    1  A    between atoms: C3_4  and  O_7 
ROOT
ATOM      1  C   UNL d   1      -0.583   0.163   2.245  0.00  0.00    -0.033 A 
ATOM      2  C1  UNL d   1      -0.102   0.783   1.090  0.00  0.00     0.039 A 
ATOM      3  C2  UNL d   1       1.256   0.717   0.774  0.00  0.00    -0.080 A 
ATOM      4  C3  UNL d   1       2.122   0.029   1.619  0.00  0.00     0.150 A 
ATOM      5  C4  UNL d   1       1.649  -0.595   2.769  0.00  0.00    -0.007 A 
ATOM      6  C5  UNL d   1       0.293  -0.528   3.084  0.00  0.00     0.039 A 
ENDROOT
BRANCH   4   7
ATOM      7  O   UNL d   1       3.456  -0.058   1.354  0.00  0.00    -0.526 OA
ATOM      8  H5  UNL d   1       3.643   0.444   0.544  0.00  0.00     0.418 HD
ENDBRANCH   4   7
TORSDOF 1
ENDMDL
