MODEL 1
REMARK minimizedAffinity 6.95898056
REMARK minimizedRMSD -1
REMARK  1 active torsions:
REMARK  status: ('A' for Active; 'I' for Inactive)
REMARK    1  A    between atoms: C3_4  and  O_7 
ROOT
ATOM      1  C   UNL d   1      -0.157  -0.037   3.382  0.00  0.00    -0.033 A 
ATOM      2  C1  UNL d   1       0.259   0.992   2.535  0.00  0.00     0.039 A 
ATOM      3  C2  UNL d   1      -0.393   1.205   1.319  0.00  0.00    -0.080 A 
ATOM      4  C3  UNL d   1      -1.460   0.384   0.963  0.00  0.00     0.150 A 
ATOM      5  C4  UNL d   1      -1.882  -0.640   1.803  0.00  0.00    -0.007 A 
ATOM      6  C5  UNL d   1      -1.229  -0.852   3.017  0.00  0.00     0.039 A 
ENDROOT
BRANCH   4   7
ATOM      7  O   UNL d   1      -2.124   0.551  -0.216  0.00  0.00    -0.526 OA
ATOM      8  H5  UNL d   1      -1.704   1.277  -0.706  0.00  0.00     0.418 HD
ENDBRANCH   4   7
TORSDOF 1
ENDMDL
