MODEL 1
REMARK minimizedAffinity 6.31531572
REMARK minimizedRMSD -1
REMARK  1 active torsions:
REMARK  status: ('A' for Active; 'I' for Inactive)
REMARK    1  A    between atoms: C3_4  and  O_7 
ROOT
ATOM      1  C   UNL d   1      -2.095  -1.203   1.486  0.00  0.00    -0.033 A 
ATOM      2  C1  UNL d   1      -1.638  -1.755   2.684  0.00  0.00     0.039 A 
ATOM      3  C2  UNL d   1      -0.641  -1.108   3.417  0.00  0.00    -0.080 A 
ATOM      4  C3  UNL d   1      -0.111   0.089   2.942  0.00  0.00     0.150 A 
ATOM      5  C4  UNL d   1      -0.564   0.646   1.751  0.00  0.00    -0.007 A 
ATOM      6  C5  UNL d   1      -1.559  -0.002   1.020  0.00  0.00     0.039 A 
ENDROOT
BRANCH   4   7
ATOM      7  O   UNL d   1       0.867   0.754   3.620  0.00  0.00    -0.526 OA
ATOM      8  H5  UNL d   1       1.101   0.238   4.409  0.00  0.00     0.418 HD
ENDBRANCH   4   7
TORSDOF 1
ENDMDL
