MODEL 1
REMARK minimizedAffinity 10.5194235
REMARK minimizedRMSD -1
REMARK  1 active torsions:
REMARK  status: ('A' for Active; 'I' for Inactive)
REMARK    1  A    between atoms: C3_4  and  O_7 
ROOT
ATOM      1  C   UNL d   1       3.063   2.312  -6.000  0.00  0.00    -0.033 A 
ATOM      2  C1  UNL d   1       4.026   2.998  -5.257  0.00  0.00     0.039 A 
ATOM      3  C2  UNL d   1       3.666   4.125  -4.515  0.00  0.00    -0.080 A 
ATOM      4  C3  UNL d   1       2.342   4.554  -4.524  0.00  0.00     0.150 A 
ATOM      5  C4  UNL d   1       1.377   3.874  -5.259  0.00  0.00    -0.007 A 
ATOM      6  C5  UNL d   1       1.738   2.749  -6.000  0.00  0.00     0.039 A 
ENDROOT
BRANCH   4   7
ATOM      7  O   UNL d   1       1.944   5.652  -3.820  0.00  0.00    -0.526 OA
ATOM      8  H5  UNL d   1       2.723   6.037  -3.384  0.00  0.00     0.418 HD
ENDBRANCH   4   7
TORSDOF 1
ENDMDL
