MODEL 1
REMARK minimizedAffinity 1.28446603
REMARK minimizedRMSD -1
REMARK  1 active torsions:
REMARK  status: ('A' for Active; 'I' for Inactive)
REMARK    1  A    between atoms: C3_4  and  O_7 
ROOT
ATOM      1  C   UNL d   1      -1.755   0.152  -0.857  0.00  0.00    -0.033 A 
ATOM      2  C1  UNL d   1      -0.752  -0.512  -1.567  0.00  0.00     0.039 A 
ATOM      3  C2  UNL d   1      -0.741  -1.907  -1.624  0.00  0.00    -0.080 A 
ATOM      4  C3  UNL d   1      -1.737  -2.625  -0.968  0.00  0.00     0.150 A 
ATOM      5  C4  UNL d   1      -2.741  -1.970  -0.262  0.00  0.00    -0.007 A 
ATOM      6  C5  UNL d   1      -2.750  -0.577  -0.206  0.00  0.00     0.039 A 
ENDROOT
BRANCH   4   7
ATOM      7  O   UNL d   1      -1.765  -3.988  -0.991  0.00  0.00    -0.526 OA
ATOM      8  H5  UNL d   1      -0.994  -4.303  -1.492  0.00  0.00     0.418 HD
ENDBRANCH   4   7
TORSDOF 1
ENDMDL
