MODEL 1
REMARK minimizedAffinity -1.21205664
REMARK minimizedRMSD -1
REMARK  1 active torsions:
REMARK  status: ('A' for Active; 'I' for Inactive)
REMARK    1  A    between atoms: C3_4  and  O_7 
ROOT
ATOM      1  C   UNL d   1       4.458   4.366  -4.812  0.00  0.00    -0.033 A 
ATOM      2  C1  UNL d   1       4.929   3.319  -4.017  0.00  0.00     0.039 A 
ATOM      3  C2  UNL d   1       4.220   2.933  -2.878  0.00  0.00    -0.080 A 
ATOM      4  C3  UNL d   1       3.044   3.599  -2.546  0.00  0.00     0.150 A 
ATOM      5  C4  UNL d   1       2.567   4.640  -3.335  0.00  0.00    -0.007 A 
ATOM      6  C5  UNL d   1       3.276   5.025  -4.472  0.00  0.00     0.039 A 
ENDROOT
BRANCH   4   7
ATOM      7  O   UNL d   1       2.321   3.260  -1.441  0.00  0.00    -0.526 OA
ATOM      8  H5  UNL d   1       2.785   2.544  -0.976  0.00  0.00     0.418 HD
ENDBRANCH   4   7
TORSDOF 1
ENDMDL
