MODEL 1
REMARK minimizedAffinity 5.35121441
REMARK minimizedRMSD -1
REMARK  1 active torsions:
REMARK  status: ('A' for Active; 'I' for Inactive)
REMARK    1  A    between atoms: C3_4  and  O_7 
ROOT
ATOM      1  C   UNL d   1      -2.358   0.872   3.054  0.00  0.00    -0.033 A 
ATOM      2  C1  UNL d   1      -3.505   0.999   2.268  0.00  0.00     0.039 A 
ATOM      3  C2  UNL d   1      -3.469   0.650   0.916  0.00  0.00    -0.080 A 
ATOM      4  C3  UNL d   1      -2.283   0.176   0.365  0.00  0.00     0.150 A 
ATOM      5  C4  UNL d   1      -1.138   0.043   1.143  0.00  0.00    -0.007 A 
ATOM      6  C5  UNL d   1      -1.175   0.393   2.492  0.00  0.00     0.039 A 
ENDROOT
BRANCH   4   7
ATOM      7  O   UNL d   1      -2.198  -0.173  -0.950  0.00  0.00    -0.526 OA
ATOM      8  H5  UNL d   1      -3.057  -0.002  -1.370  0.00  0.00     0.418 HD
ENDBRANCH   4   7
TORSDOF 1
ENDMDL
