MODEL 1
REMARK minimizedAffinity 1.48177409
REMARK minimizedRMSD -1
REMARK  1 active torsions:
REMARK  status: ('A' for Active; 'I' for Inactive)
REMARK    1  A    between atoms: C3_4  and  O_7 
ROOT
ATOM      1  C   UNL d   1      -0.778  -1.434   4.007  0.00  0.00    -0.033 A 
ATOM      2  C1  UNL d   1      -2.005  -1.009   4.520  0.00  0.00     0.039 A 
ATOM      3  C2  UNL d   1      -2.329   0.349   4.523  0.00  0.00    -0.080 A 
ATOM      4  C3  UNL d   1      -1.420   1.270   4.011  0.00  0.00     0.150 A 
ATOM      5  C4  UNL d   1      -0.197   0.853   3.495  0.00  0.00    -0.007 A 
ATOM      6  C5  UNL d   1       0.125  -0.503   3.493  0.00  0.00     0.039 A 
ENDROOT
BRANCH   4   7
ATOM      7  O   UNL d   1      -1.690   2.606   3.997  0.00  0.00    -0.526 OA
ATOM      8  H5  UNL d   1      -2.557   2.749   4.412  0.00  0.00     0.418 HD
ENDBRANCH   4   7
TORSDOF 1
ENDMDL
