MODEL 1
REMARK minimizedAffinity 4.05222559
REMARK minimizedRMSD -1
REMARK  1 active torsions:
REMARK  status: ('A' for Active; 'I' for Inactive)
REMARK    1  A    between atoms: C3_4  and  O_7 
ROOT
ATOM      1  C   UNL d   1      -0.947   0.753   2.629  0.00  0.00    -0.033 A 
ATOM      2  C1  UNL d   1       0.379   0.514   2.996  0.00  0.00     0.039 A 
ATOM      3  C2  UNL d   1       0.783  -0.771   3.363  0.00  0.00    -0.080 A 
ATOM      4  C3  UNL d   1      -0.147  -1.807   3.358  0.00  0.00     0.150 A 
ATOM      5  C4  UNL d   1      -1.468  -1.577   2.989  0.00  0.00    -0.007 A 
ATOM      6  C5  UNL d   1      -1.870  -0.293   2.624  0.00  0.00     0.039 A 
ENDROOT
BRANCH   4   7
ATOM      7  O   UNL d   1       0.199  -3.077   3.712  0.00  0.00    -0.526 OA
ATOM      8  H5  UNL d   1       1.136  -3.080   3.970  0.00  0.00     0.418 HD
ENDBRANCH   4   7
TORSDOF 1
ENDMDL
