MODEL 1
REMARK minimizedAffinity 5.50341034
REMARK minimizedRMSD -1
REMARK  1 active torsions:
REMARK  status: ('A' for Active; 'I' for Inactive)
REMARK    1  A    between atoms: C3_4  and  O_7 
ROOT
ATOM      1  C   UNL d   1      -0.698  -0.520   4.085  0.00  0.00    -0.033 A 
ATOM      2  C1  UNL d   1      -1.796  -1.191   3.542  0.00  0.00     0.039 A 
ATOM      3  C2  UNL d   1      -2.131  -1.013   2.199  0.00  0.00    -0.080 A 
ATOM      4  C3  UNL d   1      -1.361  -0.164   1.409  0.00  0.00     0.150 A 
ATOM      5  C4  UNL d   1      -0.263   0.505   1.942  0.00  0.00    -0.007 A 
ATOM      6  C5  UNL d   1       0.069   0.327   3.284  0.00  0.00     0.039 A 
ENDROOT
BRANCH   4   7
ATOM      7  O   UNL d   1      -1.651   0.045   0.094  0.00  0.00    -0.526 OA
ATOM      8  H5  UNL d   1      -2.452  -0.459  -0.128  0.00  0.00     0.418 HD
ENDBRANCH   4   7
TORSDOF 1
ENDMDL
