MODEL 1
REMARK minimizedAffinity 7.1734128
REMARK minimizedRMSD -1
REMARK  1 active torsions:
REMARK  status: ('A' for Active; 'I' for Inactive)
REMARK    1  A    between atoms: C3_4  and  O_7 
ROOT
ATOM      1  C   UNL d   1       1.804   2.336   0.422  0.00  0.00    -0.033 A 
ATOM      2  C1  UNL d   1       2.882   2.502   1.294  0.00  0.00     0.039 A 
ATOM      3  C2  UNL d   1       2.692   2.390   2.672  0.00  0.00    -0.080 A 
ATOM      4  C3  UNL d   1       1.421   2.111   3.166  0.00  0.00     0.150 A 
ATOM      5  C4  UNL d   1       0.343   1.941   2.304  0.00  0.00    -0.007 A 
ATOM      6  C5  UNL d   1       0.534   2.054   0.928  0.00  0.00     0.039 A 
ENDROOT
BRANCH   4   7
ATOM      7  O   UNL d   1       1.185   1.997   4.504  0.00  0.00    -0.526 OA
ATOM      8  H5  UNL d   1       2.016   2.168   4.978  0.00  0.00     0.418 HD
ENDBRANCH   4   7
TORSDOF 1
ENDMDL
