MODEL 1
REMARK minimizedAffinity -0.663993537
REMARK minimizedRMSD -1
REMARK  0 active torsions:
REMARK  status: ('A' for Active; 'I' for Inactive)
ROOT
ATOM      1  N1  IND d   1      -0.606  -0.349   2.475  0.00  0.00    -0.196 N 
ATOM      2  C2  IND d   1      -1.744   0.135   3.056  0.00  0.00     0.054 A 
ATOM      3  C3  IND d   1      -2.660   0.444   2.111  0.00  0.00    -0.031 A 
ATOM      4  C4  IND d   1      -2.541   0.139  -0.443  0.00  0.00     0.051 A 
ATOM      5  C5  IND d   1      -1.689  -0.232  -1.445  0.00  0.00    -0.031 A 
ATOM      6  C6  IND d   1      -0.408  -0.673  -1.186  0.00  0.00     0.015 A 
ATOM      7  C7  IND d   1       0.068  -0.770   0.091  0.00  0.00    -0.016 A 
ATOM      8  C8  IND d   1      -0.792  -0.387   1.110  0.00  0.00    -0.047 A 
ATOM      9  C9  IND d   1      -2.079   0.101   0.851  0.00  0.00    -0.096 A 
ATOM     10  HN1 IND d   1       0.107  -0.590   2.891  0.00  0.00     0.298 HD
ENDROOT
TORSDOF 0
ENDMDL
