MODEL 1
REMARK minimizedAffinity 0.304131866
REMARK minimizedRMSD -1
REMARK  0 active torsions:
REMARK  status: ('A' for Active; 'I' for Inactive)
ROOT
ATOM      1  N1  IND d   1       1.288  -1.071   0.991  0.00  0.00    -0.196 N 
ATOM      2  C2  IND d   1       1.466  -1.046   2.346  0.00  0.00     0.054 A 
ATOM      3  C3  IND d   1       0.319  -0.685   2.964  0.00  0.00    -0.031 A 
ATOM      4  C4  IND d   1      -1.996  -0.187   1.955  0.00  0.00     0.051 A 
ATOM      5  C5  IND d   1      -2.642  -0.046   0.759  0.00  0.00    -0.031 A 
ATOM      6  C6  IND d   1      -1.999  -0.246  -0.445  0.00  0.00     0.015 A 
ATOM      7  C7  IND d   1      -0.682  -0.607  -0.498  0.00  0.00    -0.016 A 
ATOM      8  C8  IND d   1      -0.021  -0.745   0.714  0.00  0.00    -0.047 A 
ATOM      9  C9  IND d   1      -0.658  -0.502   1.938  0.00  0.00    -0.096 A 
ATOM     10  HN1 IND d   1       1.893  -1.258   0.409  0.00  0.00     0.298 HD
ENDROOT
TORSDOF 0
ENDMDL
