MODEL 1
REMARK minimizedAffinity -1.33484745
REMARK minimizedRMSD -1
REMARK  0 active torsions:
REMARK  status: ('A' for Active; 'I' for Inactive)
ROOT
ATOM      1  N1  IND d   1       1.647  -1.030   2.688  0.00  0.00    -0.196 N 
ATOM      2  C2  IND d   1       1.254  -1.075   3.996  0.00  0.00     0.054 A 
ATOM      3  C3  IND d   1      -0.006  -0.602   4.125  0.00  0.00    -0.031 A 
ATOM      4  C4  IND d   1      -1.645   0.203   2.310  0.00  0.00     0.051 A 
ATOM      5  C5  IND d   1      -1.726   0.462   0.971  0.00  0.00    -0.031 A 
ATOM      6  C6  IND d   1      -0.667   0.230   0.118  0.00  0.00     0.015 A 
ATOM      7  C7  IND d   1       0.515  -0.283   0.573  0.00  0.00    -0.016 A 
ATOM      8  C8  IND d   1       0.604  -0.540   1.933  0.00  0.00    -0.047 A 
ATOM      9  C9  IND d   1      -0.454  -0.267   2.811  0.00  0.00    -0.096 A 
ATOM     10  HN1 IND d   1       2.417  -1.267   2.387  0.00  0.00     0.298 HD
ENDROOT
TORSDOF 0
ENDMDL
