MODEL 1
REMARK minimizedAffinity -0.177308813
REMARK minimizedRMSD -1
REMARK  0 active torsions:
REMARK  status: ('A' for Active; 'I' for Inactive)
ROOT
ATOM      1  N1  IND d   1      -4.101  -2.348   1.448  0.00  0.00    -0.196 N 
ATOM      2  C2  IND d   1      -4.070  -1.900   2.739  0.00  0.00     0.054 A 
ATOM      3  C3  IND d   1      -3.263  -0.821   2.844  0.00  0.00    -0.031 A 
ATOM      4  C4  IND d   1      -1.973   0.441   1.008  0.00  0.00     0.051 A 
ATOM      5  C5  IND d   1      -1.662   0.386  -0.322  0.00  0.00    -0.031 A 
ATOM      6  C6  IND d   1      -2.161  -0.601  -1.147  0.00  0.00     0.015 A 
ATOM      7  C7  IND d   1      -3.001  -1.568  -0.673  0.00  0.00    -0.016 A 
ATOM      8  C8  IND d   1      -3.313  -1.520   0.678  0.00  0.00    -0.047 A 
ATOM      9  C9  IND d   1      -2.777  -0.545   1.529  0.00  0.00    -0.096 A 
ATOM     10  HN1 IND d   1      -4.538  -3.032   1.164  0.00  0.00     0.298 HD
ENDROOT
TORSDOF 0
ENDMDL
