MODEL 1
REMARK minimizedAffinity 6.39200687
REMARK minimizedRMSD -1
REMARK  0 active torsions:
REMARK  status: ('A' for Active; 'I' for Inactive)
ROOT
ATOM      1  N1  IND d   1       1.558  -1.312   2.883  0.00  0.00    -0.196 N 
ATOM      2  C2  IND d   1       1.200  -1.381   4.200  0.00  0.00     0.054 A 
ATOM      3  C3  IND d   1      -0.076  -0.967   4.363  0.00  0.00    -0.031 A 
ATOM      4  C4  IND d   1      -1.795  -0.229   2.594  0.00  0.00     0.051 A 
ATOM      5  C5  IND d   1      -1.921   0.032   1.259  0.00  0.00    -0.031 A 
ATOM      6  C6  IND d   1      -0.874  -0.147   0.378  0.00  0.00     0.015 A 
ATOM      7  C7  IND d   1       0.341  -0.607   0.801  0.00  0.00    -0.016 A 
ATOM      8  C8  IND d   1       0.475  -0.867   2.157  0.00  0.00    -0.047 A 
ATOM      9  C9  IND d   1      -0.571  -0.647   3.062  0.00  0.00    -0.096 A 
ATOM     10  HN1 IND d   1       2.330  -1.512   2.562  0.00  0.00     0.298 HD
ENDROOT
TORSDOF 0
ENDMDL
