MODEL 1
REMARK minimizedAffinity 3.81622553
REMARK minimizedRMSD -1
REMARK  0 active torsions:
REMARK  status: ('A' for Active; 'I' for Inactive)
ROOT
ATOM      1  N1  IND d   1      -0.441  -0.291   2.367  0.00  0.00    -0.196 N 
ATOM      2  C2  IND d   1      -1.472   0.097   3.177  0.00  0.00     0.054 A 
ATOM      3  C3  IND d   1      -2.565   0.392   2.437  0.00  0.00    -0.031 A 
ATOM      4  C4  IND d   1      -2.916   0.211  -0.107  0.00  0.00     0.051 A 
ATOM      5  C5  IND d   1      -2.251  -0.062  -1.269  0.00  0.00    -0.031 A 
ATOM      6  C6  IND d   1      -0.923  -0.436  -1.279  0.00  0.00     0.015 A 
ATOM      7  C7  IND d   1      -0.210  -0.562  -0.120  0.00  0.00    -0.016 A 
ATOM      8  C8  IND d   1      -0.879  -0.278   1.061  0.00  0.00    -0.047 A 
ATOM      9  C9  IND d   1      -2.215   0.143   1.075  0.00  0.00    -0.096 A 
ATOM     10  HN1 IND d   1       0.349  -0.506   2.630  0.00  0.00     0.298 HD
ENDROOT
TORSDOF 0
ENDMDL
