MODEL 1
REMARK minimizedAffinity 0.870859206
REMARK minimizedRMSD -1
REMARK  0 active torsions:
REMARK  status: ('A' for Active; 'I' for Inactive)
ROOT
ATOM      1  N1  IND d   1       1.041  -0.757   1.489  0.00  0.00    -0.196 N 
ATOM      2  C2  IND d   1       1.117  -0.939   2.842  0.00  0.00     0.054 A 
ATOM      3  C3  IND d   1      -0.090  -0.729   3.414  0.00  0.00    -0.031 A 
ATOM      4  C4  IND d   1      -2.349  -0.176   2.309  0.00  0.00     0.051 A 
ATOM      5  C5  IND d   1      -2.912   0.125   1.101  0.00  0.00    -0.031 A 
ATOM      6  C6  IND d   1      -2.172   0.145  -0.064  0.00  0.00     0.015 A 
ATOM      7  C7  IND d   1      -0.838  -0.148  -0.065  0.00  0.00    -0.016 A 
ATOM      8  C8  IND d   1      -0.261  -0.447   1.161  0.00  0.00    -0.047 A 
ATOM      9  C9  IND d   1      -0.997  -0.427   2.353  0.00  0.00    -0.096 A 
ATOM     10  HN1 IND d   1       1.696  -0.824   0.936  0.00  0.00     0.298 HD
ENDROOT
TORSDOF 0
ENDMDL
