MODEL 1
REMARK minimizedAffinity 13.338666
REMARK minimizedRMSD -1
REMARK  1 active torsions:
REMARK  status: ('A' for Active; 'I' for Inactive)
REMARK    1  A    between atoms: C3_4  and  O_7 
ROOT
ATOM      1  C   UNL d   1      -3.872   1.127   0.205  0.00  0.00    -0.033 A 
ATOM      2  C1  UNL d   1      -5.255   1.024   0.370  0.00  0.00     0.039 A 
ATOM      3  C2  UNL d   1      -5.987   0.121  -0.403  0.00  0.00    -0.080 A 
ATOM      4  C3  UNL d   1      -5.325  -0.673  -1.336  0.00  0.00     0.150 A 
ATOM      5  C4  UNL d   1      -3.948  -0.578  -1.503  0.00  0.00    -0.007 A 
ATOM      6  C5  UNL d   1      -3.219   0.325  -0.731  0.00  0.00     0.039 A 
ENDROOT
BRANCH   4   7
ATOM      7  O   UNL d   1      -5.998  -1.565  -2.117  0.00  0.00    -0.526 OA
ATOM      8  H5  UNL d   1      -6.946  -1.500  -1.912  0.00  0.00     0.418 HD
ENDBRANCH   4   7
TORSDOF 1
ENDMDL
