MODEL 1
REMARK minimizedAffinity -4.13862514
REMARK minimizedRMSD -1
REMARK  1 active torsions:
REMARK  status: ('A' for Active; 'I' for Inactive)
REMARK    1  A    between atoms: C3_4  and  O_7 
ROOT
ATOM      1  C   UNL d   1       3.766   0.367   1.561  0.00  0.00    -0.033 A 
ATOM      2  C1  UNL d   1       5.093   0.698   1.842  0.00  0.00     0.039 A 
ATOM      3  C2  UNL d   1       5.858  -0.125   2.671  0.00  0.00    -0.080 A 
ATOM      4  C3  UNL d   1       5.287  -1.273   3.211  0.00  0.00     0.150 A 
ATOM      5  C4  UNL d   1       3.966  -1.611   2.932  0.00  0.00    -0.007 A 
ATOM      6  C5  UNL d   1       3.203  -0.788   2.105  0.00  0.00     0.039 A 
ENDROOT
BRANCH   4   7
ATOM      7  O   UNL d   1       5.993  -2.104   4.029  0.00  0.00    -0.526 OA
ATOM      8  H5  UNL d   1       6.881  -1.729   4.156  0.00  0.00     0.418 HD
ENDBRANCH   4   7
TORSDOF 1
ENDMDL
