MODEL 1
REMARK minimizedAffinity 1.30397737
REMARK minimizedRMSD -1
REMARK  1 active torsions:
REMARK  status: ('A' for Active; 'I' for Inactive)
REMARK    1  A    between atoms: C3_4  and  O_7 
ROOT
ATOM      1  C   UNL d   1       2.885   1.277   0.247  0.00  0.00    -0.033 A 
ATOM      2  C1  UNL d   1       2.865   1.208  -1.147  0.00  0.00     0.039 A 
ATOM      3  C2  UNL d   1       3.901   1.775  -1.891  0.00  0.00    -0.080 A 
ATOM      4  C3  UNL d   1       4.951   2.406  -1.230  0.00  0.00     0.150 A 
ATOM      5  C4  UNL d   1       4.979   2.476   0.159  0.00  0.00    -0.007 A 
ATOM      6  C5  UNL d   1       3.943   1.910   0.900  0.00  0.00     0.039 A 
ENDROOT
BRANCH   4   7
ATOM      7  O   UNL d   1       5.982   2.978  -1.913  0.00  0.00    -0.526 OA
ATOM      8  H5  UNL d   1       5.814   2.878  -2.865  0.00  0.00     0.418 HD
ENDBRANCH   4   7
TORSDOF 1
ENDMDL
