MODEL 1
REMARK minimizedAffinity 4.18397903
REMARK minimizedRMSD -1
REMARK  1 active torsions:
REMARK  status: ('A' for Active; 'I' for Inactive)
REMARK    1  A    between atoms: C3_4  and  O_7 
ROOT
ATOM      1  C   UNL d   1       6.000   3.088  -2.253  0.00  0.00    -0.033 A 
ATOM      2  C1  UNL d   1       6.000   2.995  -0.860  0.00  0.00     0.039 A 
ATOM      3  C2  UNL d   1       4.955   2.341  -0.203  0.00  0.00    -0.080 A 
ATOM      4  C3  UNL d   1       3.920   1.786  -0.949  0.00  0.00     0.150 A 
ATOM      5  C4  UNL d   1       3.916   1.872  -2.337  0.00  0.00    -0.007 A 
ATOM      6  C5  UNL d   1       4.959   2.526  -2.992  0.00  0.00     0.039 A 
ENDROOT
BRANCH   4   7
ATOM      7  O   UNL d   1       2.876   1.143  -0.352  0.00  0.00    -0.526 OA
ATOM      8  H5  UNL d   1       2.999   1.186   0.611  0.00  0.00     0.418 HD
ENDBRANCH   4   7
TORSDOF 1
ENDMDL
