MODEL 1
REMARK minimizedAffinity 1.8454442
REMARK minimizedRMSD -1
REMARK  1 active torsions:
REMARK  status: ('A' for Active; 'I' for Inactive)
REMARK    1  A    between atoms: C3_4  and  O_7 
ROOT
ATOM      1  C   UNL d   1       2.158   2.716   4.180  0.00  0.00    -0.033 A 
ATOM      2  C1  UNL d   1       2.950   2.958   3.056  0.00  0.00     0.039 A 
ATOM      3  C2  UNL d   1       2.356   3.318   1.845  0.00  0.00    -0.080 A 
ATOM      4  C3  UNL d   1       0.970   3.433   1.772  0.00  0.00     0.150 A 
ATOM      5  C4  UNL d   1       0.175   3.197   2.888  0.00  0.00    -0.007 A 
ATOM      6  C5  UNL d   1       0.771   2.837   4.096  0.00  0.00     0.039 A 
ENDROOT
BRANCH   4   7
ATOM      7  O   UNL d   1       0.344   3.777   0.610  0.00  0.00    -0.526 OA
ATOM      8  H5  UNL d   1       1.017   3.882  -0.083  0.00  0.00     0.418 HD
ENDBRANCH   4   7
TORSDOF 1
ENDMDL
