MODEL 1
REMARK minimizedAffinity 3.05126929
REMARK minimizedRMSD -1
REMARK  1 active torsions:
REMARK  status: ('A' for Active; 'I' for Inactive)
REMARK    1  A    between atoms: C3_4  and  O_7 
ROOT
ATOM      1  C   UNL d   1       6.000   2.948  -2.104  0.00  0.00    -0.033 A 
ATOM      2  C1  UNL d   1       5.973   2.947  -0.708  0.00  0.00     0.039 A 
ATOM      3  C2  UNL d   1       4.949   2.284  -0.028  0.00  0.00    -0.080 A 
ATOM      4  C3  UNL d   1       3.961   1.626  -0.755  0.00  0.00     0.150 A 
ATOM      5  C4  UNL d   1       3.984   1.620  -2.146  0.00  0.00    -0.007 A 
ATOM      6  C5  UNL d   1       5.006   2.283  -2.823  0.00  0.00     0.039 A 
ENDROOT
BRANCH   4   7
ATOM      7  O   UNL d   1       2.939   0.969  -0.136  0.00  0.00    -0.526 OA
ATOM      8  H5  UNL d   1       3.037   1.083   0.824  0.00  0.00     0.418 HD
ENDBRANCH   4   7
TORSDOF 1
ENDMDL
