MODEL 1
REMARK minimizedAffinity 12.8876343
REMARK minimizedRMSD -1
REMARK  0 active torsions:
REMARK  status: ('A' for Active; 'I' for Inactive)
ROOT
ATOM      1  C2' OXE d   1       0.792   0.749  -0.001  0.00  0.00     0.078 C 
ATOM      2  C1' OXE d   1       2.445  -1.501   0.290  0.00  0.00     0.078 C 
ATOM      3  C1  OXE d   1       3.109  -0.164   0.072  0.00  0.00    -0.078 A 
ATOM      4  C2  OXE d   1       2.291   0.924  -0.116  0.00  0.00    -0.078 A 
ATOM      5  C3  OXE d   1       2.852   2.189  -0.266  0.00  0.00     0.003 A 
ATOM      6  C4  OXE d   1       4.239   2.341  -0.381  0.00  0.00    -0.002 A 
ATOM      7  C5  OXE d   1       5.088   1.240  -0.232  0.00  0.00    -0.002 A 
ATOM      8  C6  OXE d   1       4.542  -0.010   0.037  0.00  0.00     0.003 A 
ENDROOT
TORSDOF 0
ENDMDL
