MODEL 1
REMARK minimizedAffinity 12.0788116
REMARK minimizedRMSD -1
REMARK  0 active torsions:
REMARK  status: ('A' for Active; 'I' for Inactive)
ROOT
ATOM      1  C2' OXE d   1       3.197  -1.150   0.768  0.00  0.00     0.078 C 
ATOM      2  C1' OXE d   1       1.553   0.029  -1.178  0.00  0.00     0.078 C 
ATOM      3  C1  OXE d   1       2.970   0.531  -1.056  0.00  0.00    -0.078 A 
ATOM      4  C2  OXE d   1       3.753  -0.019  -0.069  0.00  0.00    -0.078 A 
ATOM      5  C3  OXE d   1       5.084   0.369   0.051  0.00  0.00     0.003 A 
ATOM      6  C4  OXE d   1       5.588   1.423  -0.721  0.00  0.00    -0.002 A 
ATOM      7  C5  OXE d   1       4.796   2.024  -1.704  0.00  0.00    -0.002 A 
ATOM      8  C6  OXE d   1       3.501   1.562  -1.913  0.00  0.00     0.003 A 
ENDROOT
TORSDOF 0
ENDMDL
