MODEL 1
REMARK minimizedAffinity 8.76515293
REMARK minimizedRMSD -1
REMARK  0 active torsions:
REMARK  status: ('A' for Active; 'I' for Inactive)
ROOT
ATOM      1  C2' OXE d   1       6.000   0.554  -0.007  0.00  0.00     0.078 C 
ATOM      2  C1' OXE d   1       4.421   2.820  -0.511  0.00  0.00     0.078 C 
ATOM      3  C1  OXE d   1       3.714   1.510  -0.264  0.00  0.00    -0.078 A 
ATOM      4  C2  OXE d   1       4.496   0.398  -0.065  0.00  0.00    -0.078 A 
ATOM      5  C3  OXE d   1       3.895  -0.825   0.222  0.00  0.00     0.003 A 
ATOM      6  C4  OXE d   1       2.503  -0.963   0.156  0.00  0.00    -0.002 A 
ATOM      7  C5  OXE d   1       1.690   0.149  -0.085  0.00  0.00    -0.002 A 
ATOM      8  C6  OXE d   1       2.276   1.398  -0.255  0.00  0.00     0.003 A 
ENDROOT
TORSDOF 0
ENDMDL
