MODEL 1
REMARK minimizedAffinity 3.96466255
REMARK minimizedRMSD -1
REMARK  0 active torsions:
REMARK  status: ('A' for Active; 'I' for Inactive)
ROOT
ATOM      1  C2' OXE d   1      -1.516  -5.998   5.056  0.00  0.00     0.078 C 
ATOM      2  C1' OXE d   1       1.127  -5.744   5.965  0.00  0.00     0.078 C 
ATOM      3  C1  OXE d   1       0.336  -4.479   5.740  0.00  0.00    -0.078 A 
ATOM      4  C2  OXE d   1      -0.941  -4.612   5.251  0.00  0.00    -0.078 A 
ATOM      5  C3  OXE d   1      -1.733  -3.480   5.077  0.00  0.00     0.003 A 
ATOM      6  C4  OXE d   1      -1.190  -2.201   5.249  0.00  0.00    -0.002 A 
ATOM      7  C5  OXE d   1       0.122  -2.043   5.709  0.00  0.00    -0.002 A 
ATOM      8  C6  OXE d   1       0.883  -3.170   5.999  0.00  0.00     0.003 A 
ENDROOT
TORSDOF 0
ENDMDL
