MODEL 1
REMARK minimizedAffinity 7.02012825
REMARK minimizedRMSD -1
REMARK  0 active torsions:
REMARK  status: ('A' for Active; 'I' for Inactive)
ROOT
ATOM      1  C2' OXE d   1       1.802  -3.755   6.000  0.00  0.00     0.078 C 
ATOM      2  C1' OXE d   1      -0.901  -3.761   5.243  0.00  0.00     0.078 C 
ATOM      3  C1  OXE d   1      -0.134  -2.470   5.101  0.00  0.00    -0.078 A 
ATOM      4  C2  OXE d   1       1.176  -2.464   5.518  0.00  0.00    -0.078 A 
ATOM      5  C3  OXE d   1       1.944  -1.315   5.358  0.00  0.00     0.003 A 
ATOM      6  C4  OXE d   1       1.355  -0.123   4.921  0.00  0.00    -0.002 A 
ATOM      7  C5  OXE d   1       0.012  -0.097   4.529  0.00  0.00    -0.002 A 
ATOM      8  C6  OXE d   1      -0.733  -1.270   4.573  0.00  0.00     0.003 A 
ENDROOT
TORSDOF 0
ENDMDL
