MODEL 1
REMARK minimizedAffinity 0.25622341
REMARK minimizedRMSD -1
REMARK  0 active torsions:
REMARK  status: ('A' for Active; 'I' for Inactive)
ROOT
ATOM      1  C2' OXE d   1      -4.533   5.470   1.076  0.00  0.00     0.078 C 
ATOM      2  C1' OXE d   1      -2.220   5.998   2.577  0.00  0.00     0.078 C 
ATOM      3  C1  OXE d   1      -3.528   5.879   3.318  0.00  0.00    -0.078 A 
ATOM      4  C2  OXE d   1      -4.662   5.666   2.571  0.00  0.00    -0.078 A 
ATOM      5  C3  OXE d   1      -5.886   5.494   3.210  0.00  0.00     0.003 A 
ATOM      6  C4  OXE d   1      -5.998   5.687   4.592  0.00  0.00    -0.002 A 
ATOM      7  C5  OXE d   1      -4.863   5.944   5.367  0.00  0.00    -0.002 A 
ATOM      8  C6  OXE d   1      -3.617   6.000   4.753  0.00  0.00     0.003 A 
ENDROOT
TORSDOF 0
ENDMDL
