MODEL 1
REMARK minimizedAffinity 0.865662038
REMARK minimizedRMSD -1
REMARK  0 active torsions:
REMARK  status: ('A' for Active; 'I' for Inactive)
ROOT
ATOM      1  C2' OXE d   1      -5.861   0.204  -4.469  0.00  0.00     0.078 C 
ATOM      2  C1' OXE d   1      -6.000   2.904  -3.715  0.00  0.00     0.078 C 
ATOM      3  C1  OXE d   1      -4.653   2.228  -3.663  0.00  0.00    -0.078 A 
ATOM      4  C2  OXE d   1      -4.602   0.894  -3.989  0.00  0.00    -0.078 A 
ATOM      5  C3  OXE d   1      -3.376   0.235  -4.011  0.00  0.00     0.003 A 
ATOM      6  C4  OXE d   1      -2.218   0.878  -3.556  0.00  0.00    -0.002 A 
ATOM      7  C5  OXE d   1      -2.255   2.225  -3.182  0.00  0.00    -0.002 A 
ATOM      8  C6  OXE d   1      -3.453   2.925  -3.270  0.00  0.00     0.003 A 
ENDROOT
TORSDOF 0
ENDMDL
