MODEL 1
REMARK minimizedAffinity -1.44548321
REMARK minimizedRMSD -1
REMARK  0 active torsions:
REMARK  status: ('A' for Active; 'I' for Inactive)
ROOT
ATOM      1  C   UNL d   1      -2.373  -0.010   0.431  0.00  0.00     0.023 A 
ATOM      2  C1  UNL d   1      -1.620  -0.712  -0.510  0.00  0.00     0.003 A 
ATOM      3  C2  UNL d   1      -0.225  -0.657  -0.472  0.00  0.00     0.048 A 
ATOM      4  C3  UNL d   1       0.410   0.101   0.511  0.00  0.00     0.023 A 
ATOM      5  C4  UNL d   1      -0.339   0.805   1.455  0.00  0.00     0.048 A 
ATOM      6  C5  UNL d   1      -1.733   0.747   1.413  0.00  0.00     0.003 A 
ATOM      7  I   UNL d   1       2.486   0.185   0.570  0.00  0.00    -0.146 I 
ENDROOT
TORSDOF 0
ENDMDL
