MODEL 1
REMARK minimizedAffinity -1.22096097
REMARK minimizedRMSD -1
REMARK  0 active torsions:
REMARK  status: ('A' for Active; 'I' for Inactive)
ROOT
ATOM      1  C   UNL d   1      -2.070  -0.036   1.197  0.00  0.00     0.023 A 
ATOM      2  C1  UNL d   1      -1.355   0.386   2.318  0.00  0.00     0.003 A 
ATOM      3  C2  UNL d   1       0.041   0.394   2.296  0.00  0.00     0.048 A 
ATOM      4  C3  UNL d   1       0.716  -0.020   1.148  0.00  0.00     0.023 A 
ATOM      5  C4  UNL d   1       0.005  -0.442   0.024  0.00  0.00     0.048 A 
ATOM      6  C5  UNL d   1      -1.391  -0.450   0.051  0.00  0.00     0.003 A 
ATOM      7  I   UNL d   1       2.794  -0.009   1.112  0.00  0.00    -0.146 I 
ENDROOT
TORSDOF 0
ENDMDL
