MODEL 1
REMARK minimizedAffinity -1.56491172
REMARK minimizedRMSD -1
REMARK  0 active torsions:
REMARK  status: ('A' for Active; 'I' for Inactive)
ROOT
ATOM      1  C   UNL d   1      -1.882   0.571   2.050  0.00  0.00     0.023 A 
ATOM      2  C1  UNL d   1      -1.650  -0.072   0.835  0.00  0.00     0.003 A 
ATOM      3  C2  UNL d   1      -0.341  -0.311   0.409  0.00  0.00     0.048 A 
ATOM      4  C3  UNL d   1       0.730   0.096   1.204  0.00  0.00     0.023 A 
ATOM      5  C4  UNL d   1       0.502   0.739   2.421  0.00  0.00     0.048 A 
ATOM      6  C5  UNL d   1      -0.808   0.976   2.843  0.00  0.00     0.003 A 
ATOM      7  I   UNL d   1       2.678  -0.258   0.572  0.00  0.00    -0.146 I 
ENDROOT
TORSDOF 0
ENDMDL
