MODEL 1
REMARK minimizedAffinity -0.913876355
REMARK minimizedRMSD -1
REMARK  0 active torsions:
REMARK  status: ('A' for Active; 'I' for Inactive)
ROOT
ATOM      1  C   UNL d   1       0.471  -0.218   2.277  0.00  0.00     0.023 A 
ATOM      2  C1  UNL d   1      -0.677   0.217   1.615  0.00  0.00     0.003 A 
ATOM      3  C2  UNL d   1      -0.664   0.385   0.229  0.00  0.00     0.048 A 
ATOM      4  C3  UNL d   1       0.500   0.115  -0.489  0.00  0.00     0.023 A 
ATOM      5  C4  UNL d   1       1.651  -0.322   0.169  0.00  0.00     0.048 A 
ATOM      6  C5  UNL d   1       1.633  -0.488   1.555  0.00  0.00     0.003 A 
ATOM      7  I   UNL d   1       0.521   0.364  -2.553  0.00  0.00    -0.146 I 
ENDROOT
TORSDOF 0
ENDMDL
