MODEL 1
REMARK minimizedAffinity -1.22955847
REMARK minimizedRMSD -1
REMARK  0 active torsions:
REMARK  status: ('A' for Active; 'I' for Inactive)
ROOT
ATOM      1  C   UNL d   1      -2.092  -2.259   4.853  0.00  0.00     0.023 A 
ATOM      2  C1  UNL d   1      -0.738  -2.383   5.163  0.00  0.00     0.003 A 
ATOM      3  C2  UNL d   1       0.187  -1.482   4.631  0.00  0.00     0.048 A 
ATOM      4  C3  UNL d   1      -0.249  -0.459   3.791  0.00  0.00     0.023 A 
ATOM      5  C4  UNL d   1      -1.604  -0.330   3.479  0.00  0.00     0.048 A 
ATOM      6  C5  UNL d   1      -2.524  -1.234   4.012  0.00  0.00     0.003 A 
ATOM      7  I   UNL d   1       1.125   0.884   2.998  0.00  0.00    -0.146 I 
ENDROOT
TORSDOF 0
ENDMDL
