MODEL 1
REMARK minimizedAffinity -5.27363491
REMARK minimizedRMSD -1
REMARK  0 active torsions:
REMARK  status: ('A' for Active; 'I' for Inactive)
ROOT
ATOM      1  C   UNL d   1       0.603   0.855   3.297  0.00  0.00     0.023 A 
ATOM      2  C1  UNL d   1       1.874   0.378   2.979  0.00  0.00     0.003 A 
ATOM      3  C2  UNL d   1       2.182   0.033   1.661  0.00  0.00     0.048 A 
ATOM      4  C3  UNL d   1       1.215   0.169   0.666  0.00  0.00     0.023 A 
ATOM      5  C4  UNL d   1      -0.059   0.647   0.980  0.00  0.00     0.048 A 
ATOM      6  C5  UNL d   1      -0.362   0.990   2.299  0.00  0.00     0.003 A 
ATOM      7  I   UNL d   1       1.671  -0.344  -1.296  0.00  0.00    -0.146 I 
ENDROOT
TORSDOF 0
ENDMDL
