MODEL 1
REMARK minimizedAffinity -3.37424898
REMARK minimizedRMSD -1
REMARK  0 active torsions:
REMARK  status: ('A' for Active; 'I' for Inactive)
ROOT
ATOM      1  C   UNL d   1      -2.911   0.408   1.118  0.00  0.00     0.023 A 
ATOM      2  C1  UNL d   1      -2.585  -0.640   0.257  0.00  0.00     0.003 A 
ATOM      3  C2  UNL d   1      -1.247  -0.937  -0.009  0.00  0.00     0.048 A 
ATOM      4  C3  UNL d   1      -0.239  -0.182   0.591  0.00  0.00     0.023 A 
ATOM      5  C4  UNL d   1      -0.561   0.867   1.454  0.00  0.00     0.048 A 
ATOM      6  C5  UNL d   1      -1.900   1.160   1.716  0.00  0.00     0.003 A 
ATOM      7  I   UNL d   1       1.754  -0.621   0.197  0.00  0.00    -0.146 I 
ENDROOT
TORSDOF 0
ENDMDL
