MODEL 1
REMARK minimizedAffinity -1.8721956
REMARK minimizedRMSD -1
REMARK  0 active torsions:
REMARK  status: ('A' for Active; 'I' for Inactive)
ROOT
ATOM      1  C   UNL d   1      -0.988  -0.041  -0.621  0.00  0.00     0.023 A 
ATOM      2  C1  UNL d   1       0.310  -0.506  -0.836  0.00  0.00     0.003 A 
ATOM      3  C2  UNL d   1       1.189  -0.649   0.240  0.00  0.00     0.048 A 
ATOM      4  C3  UNL d   1       0.763  -0.326   1.528  0.00  0.00     0.023 A 
ATOM      5  C4  UNL d   1      -0.534   0.138   1.748  0.00  0.00     0.048 A 
ATOM      6  C5  UNL d   1      -1.410   0.280   0.670  0.00  0.00     0.003 A 
ATOM      7  I   UNL d   1       2.070  -0.538   3.130  0.00  0.00    -0.146 I 
ENDROOT
TORSDOF 0
ENDMDL
