MODEL 1
REMARK minimizedAffinity 1.71085918
REMARK minimizedRMSD -1
REMARK  0 active torsions:
REMARK  status: ('A' for Active; 'I' for Inactive)
ROOT
ATOM      1  C   UNL d   1      -1.450   0.266   3.520  0.00  0.00     0.023 A 
ATOM      2  C1  UNL d   1      -1.827   0.082   2.190  0.00  0.00     0.003 A 
ATOM      3  C2  UNL d   1      -0.852  -0.053   1.199  0.00  0.00     0.048 A 
ATOM      4  C3  UNL d   1       0.498  -0.005   1.546  0.00  0.00     0.023 A 
ATOM      5  C4  UNL d   1       0.879   0.177   2.876  0.00  0.00     0.048 A 
ATOM      6  C5  UNL d   1      -0.099   0.313   3.863  0.00  0.00     0.003 A 
ATOM      7  I   UNL d   1       1.950  -0.207   0.073  0.00  0.00    -0.146 I 
ENDROOT
TORSDOF 0
ENDMDL
