MODEL 1
REMARK minimizedAffinity -4.51645327
REMARK minimizedRMSD -1
REMARK  0 active torsions:
REMARK  status: ('A' for Active; 'I' for Inactive)
ROOT
ATOM      1  C   UNL d   1      -1.192   0.425   2.455  0.00  0.00     0.023 A 
ATOM      2  C1  UNL d   1      -1.873   0.661   1.260  0.00  0.00     0.003 A 
ATOM      3  C2  UNL d   1      -1.206   0.541   0.040  0.00  0.00     0.048 A 
ATOM      4  C3  UNL d   1       0.142   0.182   0.020  0.00  0.00     0.023 A 
ATOM      5  C4  UNL d   1       0.826  -0.056   1.213  0.00  0.00     0.048 A 
ATOM      6  C5  UNL d   1       0.156   0.067   2.431  0.00  0.00     0.003 A 
ATOM      7  I   UNL d   1       1.137   0.001  -1.795  0.00  0.00    -0.146 I 
ENDROOT
TORSDOF 0
ENDMDL
