MODEL 1
REMARK minimizedAffinity -5.5098877
REMARK minimizedRMSD -1
REMARK  2 active torsions:
REMARK  status: ('A' for Active; 'I' for Inactive)
REMARK    1  A    between atoms: C1_2  and  C2_3 
REMARK    2  A    between atoms: C2_3  and  C3_4 
ROOT
ATOM      1  C3  UNL d   1       0.695   0.388   0.063  0.00  0.00    -0.075 A 
ATOM      2  C4  UNL d   1       1.821   0.803   0.788  0.00  0.00     0.002 A 
ATOM      3  C5  UNL d   1       2.810  -0.114   1.147  0.00  0.00     0.002 A 
ATOM      4  C6  UNL d   1       2.681  -1.455   0.794  0.00  0.00    -0.004 A 
ATOM      5  C7  UNL d   1       1.558  -1.882   0.088  0.00  0.00     0.002 A 
ATOM      6  C8  UNL d   1       0.569  -0.966  -0.276  0.00  0.00     0.002 A 
ENDROOT
BRANCH   1   7
ATOM      7  C2  UNL d   1      -0.365   1.381  -0.353  0.00  0.00     0.056 C 
BRANCH   7   8
ATOM      8  C1  UNL d   1      -1.689   0.738  -0.777  0.00  0.00     0.007 C 
ATOM      9  C   UNL d   1      -2.849   1.088   0.145  0.00  0.00     0.009 C 
ENDBRANCH   7   8
ENDBRANCH   1   7
TORSDOF 2
ENDMDL
