MODEL 1
REMARK minimizedAffinity -5.78786945
REMARK minimizedRMSD -1
REMARK  2 active torsions:
REMARK  status: ('A' for Active; 'I' for Inactive)
REMARK    1  A    between atoms: C1_2  and  C2_3 
REMARK    2  A    between atoms: C2_3  and  C3_4 
ROOT
ATOM      1  C3  UNL d   1      -0.244   0.036   0.202  0.00  0.00    -0.075 A 
ATOM      2  C4  UNL d   1       0.683   0.768   0.957  0.00  0.00     0.002 A 
ATOM      3  C5  UNL d   1       1.948   0.244   1.227  0.00  0.00     0.002 A 
ATOM      4  C6  UNL d   1       2.297  -1.020   0.755  0.00  0.00    -0.004 A 
ATOM      5  C7  UNL d   1       1.377  -1.763   0.018  0.00  0.00     0.002 A 
ATOM      6  C8  UNL d   1       0.113  -1.239  -0.257  0.00  0.00     0.002 A 
ENDROOT
BRANCH   1   7
ATOM      7  C2  UNL d   1      -1.604   0.609  -0.118  0.00  0.00     0.056 C 
BRANCH   7   8
ATOM      8  C1  UNL d   1      -2.265   1.340   1.056  0.00  0.00     0.007 C 
ATOM      9  C   UNL d   1      -3.718   0.940   1.271  0.00  0.00     0.009 C 
ENDBRANCH   7   8
ENDBRANCH   1   7
TORSDOF 2
ENDMDL
