MODEL 1
REMARK minimizedAffinity -4.04160213
REMARK minimizedRMSD -1
REMARK  2 active torsions:
REMARK  status: ('A' for Active; 'I' for Inactive)
REMARK    1  A    between atoms: C1_2  and  C2_3 
REMARK    2  A    between atoms: C2_3  and  C3_4 
ROOT
ATOM      1  C3  UNL d   1      -0.160  -0.299   0.183  0.00  0.00    -0.075 A 
ATOM      2  C4  UNL d   1       0.268  -1.392  -0.584  0.00  0.00     0.002 A 
ATOM      3  C5  UNL d   1       1.530  -1.951  -0.380  0.00  0.00     0.002 A 
ATOM      4  C6  UNL d   1       2.382  -1.419   0.586  0.00  0.00    -0.004 A 
ATOM      5  C7  UNL d   1       1.974  -0.323   1.342  0.00  0.00     0.002 A 
ATOM      6  C8  UNL d   1       0.710   0.235   1.143  0.00  0.00     0.002 A 
ENDROOT
BRANCH   1   7
ATOM      7  C2  UNL d   1      -1.536   0.291  -0.013  0.00  0.00     0.056 C 
BRANCH   7   8
ATOM      8  C1  UNL d   1      -2.201   0.768   1.282  0.00  0.00     0.007 C 
ATOM      9  C   UNL d   1      -3.722   0.742   1.221  0.00  0.00     0.009 C 
ENDBRANCH   7   8
ENDBRANCH   1   7
TORSDOF 2
ENDMDL
