MODEL 1
REMARK minimizedAffinity -3.75120163
REMARK minimizedRMSD -1
REMARK  2 active torsions:
REMARK  status: ('A' for Active; 'I' for Inactive)
REMARK    1  A    between atoms: C1_2  and  C2_3 
REMARK    2  A    between atoms: C2_3  and  C3_4 
ROOT
ATOM      1  C3  UNL d   1       0.436  -0.333  -0.009  0.00  0.00    -0.075 A 
ATOM      2  C4  UNL d   1       1.290  -0.815  -1.011  0.00  0.00     0.002 A 
ATOM      3  C5  UNL d   1       2.448  -1.517  -0.678  0.00  0.00     0.002 A 
ATOM      4  C6  UNL d   1       2.772  -1.738   0.659  0.00  0.00    -0.004 A 
ATOM      5  C7  UNL d   1       1.939  -1.250   1.664  0.00  0.00     0.002 A 
ATOM      6  C8  UNL d   1       0.777  -0.551   1.333  0.00  0.00     0.002 A 
ENDROOT
BRANCH   1   7
ATOM      7  C2  UNL d   1      -0.835   0.402  -0.364  0.00  0.00     0.056 C 
BRANCH   7   8
ATOM      8  C1  UNL d   1      -1.954   0.250   0.672  0.00  0.00     0.007 C 
ATOM      9  C   UNL d   1      -3.013   1.339   0.576  0.00  0.00     0.009 C 
ENDBRANCH   7   8
ENDBRANCH   1   7
TORSDOF 2
ENDMDL
