MODEL 1
REMARK minimizedAffinity -4.76077747
REMARK minimizedRMSD -1
REMARK  2 active torsions:
REMARK  status: ('A' for Active; 'I' for Inactive)
REMARK    1  A    between atoms: C1_2  and  C2_3 
REMARK    2  A    between atoms: C2_3  and  C3_4 
ROOT
ATOM      1  C3  UNL d   1       1.175   0.419  -0.116  0.00  0.00    -0.075 A 
ATOM      2  C4  UNL d   1       1.180  -0.983  -0.066  0.00  0.00     0.002 A 
ATOM      3  C5  UNL d   1       2.383  -1.684   0.023  0.00  0.00     0.002 A 
ATOM      4  C6  UNL d   1       3.593  -0.996   0.052  0.00  0.00    -0.004 A 
ATOM      5  C7  UNL d   1       3.601   0.396  -0.014  0.00  0.00     0.002 A 
ATOM      6  C8  UNL d   1       2.399   1.101  -0.098  0.00  0.00     0.002 A 
ENDROOT
BRANCH   1   7
ATOM      7  C2  UNL d   1      -0.125   1.185  -0.182  0.00  0.00     0.056 C 
BRANCH   7   8
ATOM      8  C1  UNL d   1      -1.364   0.298  -0.341  0.00  0.00     0.007 C 
ATOM      9  C   UNL d   1      -2.508   0.693   0.584  0.00  0.00     0.009 C 
ENDBRANCH   7   8
ENDBRANCH   1   7
TORSDOF 2
ENDMDL
