MODEL 1
REMARK minimizedAffinity -5.39553881
REMARK minimizedRMSD -1
REMARK  2 active torsions:
REMARK  status: ('A' for Active; 'I' for Inactive)
REMARK    1  A    between atoms: C1_2  and  C2_3 
REMARK    2  A    between atoms: C2_3  and  C3_4 
ROOT
ATOM      1  C3  UNL d   1       1.122  -0.002   0.600  0.00  0.00    -0.075 A 
ATOM      2  C4  UNL d   1      -0.063  -0.443  -0.007  0.00  0.00     0.002 A 
ATOM      3  C5  UNL d   1      -0.909   0.461  -0.650  0.00  0.00     0.002 A 
ATOM      4  C6  UNL d   1      -0.587   1.816  -0.685  0.00  0.00    -0.004 A 
ATOM      5  C7  UNL d   1       0.579   2.268  -0.070  0.00  0.00     0.002 A 
ATOM      6  C8  UNL d   1       1.429   1.364   0.570  0.00  0.00     0.002 A 
ENDROOT
BRANCH   1   7
ATOM      7  C2  UNL d   1       2.056  -0.980   1.272  0.00  0.00     0.056 C 
BRANCH   7   8
ATOM      8  C1  UNL d   1       3.405  -1.141   0.564  0.00  0.00     0.007 C 
ATOM      9  C   UNL d   1       3.274  -1.331  -0.942  0.00  0.00     0.009 C 
ENDBRANCH   7   8
ENDBRANCH   1   7
TORSDOF 2
ENDMDL
