MODEL 1
REMARK minimizedAffinity -3.99815106
REMARK minimizedRMSD -1
REMARK  2 active torsions:
REMARK  status: ('A' for Active; 'I' for Inactive)
REMARK    1  A    between atoms: C1_2  and  C2_3 
REMARK    2  A    between atoms: C2_3  and  C3_4 
ROOT
ATOM      1  C3  UNL d   1      -0.223  -0.083  -0.136  0.00  0.00    -0.075 A 
ATOM      2  C4  UNL d   1       0.050  -1.424  -0.443  0.00  0.00     0.002 A 
ATOM      3  C5  UNL d   1       1.304  -1.972  -0.170  0.00  0.00     0.002 A 
ATOM      4  C6  UNL d   1       2.301  -1.185   0.402  0.00  0.00    -0.004 A 
ATOM      5  C7  UNL d   1       2.046   0.153   0.695  0.00  0.00     0.002 A 
ATOM      6  C8  UNL d   1       0.791   0.702   0.427  0.00  0.00     0.002 A 
ENDROOT
BRANCH   1   7
ATOM      7  C2  UNL d   1      -1.588   0.507  -0.401  0.00  0.00     0.056 C 
BRANCH   7   8
ATOM      8  C1  UNL d   1      -2.277   1.070   0.846  0.00  0.00     0.007 C 
ATOM      9  C   UNL d   1      -3.677   0.512   1.061  0.00  0.00     0.009 C 
ENDBRANCH   7   8
ENDBRANCH   1   7
TORSDOF 2
ENDMDL
