MODEL 1
REMARK minimizedAffinity 8.44445705
REMARK minimizedRMSD -1
REMARK  0 active torsions:
REMARK  status: ('A' for Active; 'I' for Inactive)
ROOT
ATOM      1  C   UNL d   1       2.269  -2.565  -3.445  0.00  0.00     0.077 C 
ATOM      2  C1  UNL d   1       1.640  -1.696  -2.397  0.00  0.00    -0.074 A 
ATOM      3  C2  UNL d   1       2.390  -1.213  -1.319  0.00  0.00    -0.005 A 
ATOM      4  C3  UNL d   1       1.794  -0.398  -0.357  0.00  0.00     0.006 A 
ATOM      5  C4  UNL d   1       0.445  -0.059  -0.462  0.00  0.00    -0.005 A 
ATOM      6  C5  UNL d   1      -0.321  -0.531  -1.532  0.00  0.00    -0.074 A 
ATOM      7  C6  UNL d   1      -1.770  -0.168  -1.665  0.00  0.00     0.077 C 
ATOM      8  C7  UNL d   1       0.287  -1.344  -2.499  0.00  0.00    -0.001 A 
ENDROOT
TORSDOF 0
ENDMDL
