MODEL 1
REMARK minimizedAffinity 9.06815624
REMARK minimizedRMSD -1
REMARK  0 active torsions:
REMARK  status: ('A' for Active; 'I' for Inactive)
ROOT
ATOM      1  C   UNL d   1      -5.997   1.923   5.961  0.00  0.00     0.077 C 
ATOM      2  C1  UNL d   1      -5.994   3.251   5.265  0.00  0.00    -0.074 A 
ATOM      3  C2  UNL d   1      -5.986   4.445   5.993  0.00  0.00    -0.005 A 
ATOM      4  C3  UNL d   1      -5.974   5.672   5.331  0.00  0.00     0.006 A 
ATOM      5  C4  UNL d   1      -5.971   5.719   3.937  0.00  0.00    -0.005 A 
ATOM      6  C5  UNL d   1      -5.979   4.536   3.191  0.00  0.00    -0.074 A 
ATOM      7  C6  UNL d   1      -5.966   4.568   1.692  0.00  0.00     0.077 C 
ATOM      8  C7  UNL d   1      -5.983   3.306   3.864  0.00  0.00    -0.001 A 
ENDROOT
TORSDOF 0
ENDMDL
