MODEL 1
REMARK minimizedAffinity 8.87915897
REMARK minimizedRMSD -1
REMARK  0 active torsions:
REMARK  status: ('A' for Active; 'I' for Inactive)
ROOT
ATOM      1  C   UNL d   1       1.971  -2.841   1.648  0.00  0.00     0.077 C 
ATOM      2  C1  UNL d   1       1.301  -2.827   0.306  0.00  0.00    -0.074 A 
ATOM      3  C2  UNL d   1       1.790  -2.030  -0.734  0.00  0.00    -0.005 A 
ATOM      4  C3  UNL d   1       1.162  -2.035  -1.979  0.00  0.00     0.006 A 
ATOM      5  C4  UNL d   1       0.040  -2.835  -2.197  0.00  0.00    -0.005 A 
ATOM      6  C5  UNL d   1      -0.464  -3.639  -1.169  0.00  0.00    -0.074 A 
ATOM      7  C6  UNL d   1      -1.663  -4.512  -1.389  0.00  0.00     0.077 C 
ATOM      8  C7  UNL d   1       0.177  -3.634   0.077  0.00  0.00    -0.001 A 
ENDROOT
TORSDOF 0
ENDMDL
