MODEL 1
REMARK minimizedAffinity 2.36773705
REMARK minimizedRMSD -1
REMARK  0 active torsions:
REMARK  status: ('A' for Active; 'I' for Inactive)
ROOT
ATOM      1  C   UNL d   1      -2.405   4.833   3.607  0.00  0.00     0.077 C 
ATOM      2  C1  UNL d   1      -3.654   4.810   4.438  0.00  0.00    -0.074 A 
ATOM      3  C2  UNL d   1      -4.285   5.998   4.821  0.00  0.00    -0.005 A 
ATOM      4  C3  UNL d   1      -5.451   5.960   5.585  0.00  0.00     0.006 A 
ATOM      5  C4  UNL d   1      -5.997   4.737   5.974  0.00  0.00    -0.005 A 
ATOM      6  C5  UNL d   1      -5.381   3.538   5.599  0.00  0.00    -0.074 A 
ATOM      7  C6  UNL d   1      -5.960   2.214   6.000  0.00  0.00     0.077 C 
ATOM      8  C7  UNL d   1      -4.213   3.584   4.825  0.00  0.00    -0.001 A 
ENDROOT
TORSDOF 0
ENDMDL
