MODEL 1
REMARK minimizedAffinity 18.0092926
REMARK minimizedRMSD -1
REMARK  0 active torsions:
REMARK  status: ('A' for Active; 'I' for Inactive)
ROOT
ATOM      1  C   UNL d   1       4.515  -4.037  -3.622  0.00  0.00     0.077 C 
ATOM      2  C1  UNL d   1       3.555  -3.168  -2.865  0.00  0.00    -0.074 A 
ATOM      3  C2  UNL d   1       2.738  -2.249  -3.532  0.00  0.00    -0.005 A 
ATOM      4  C3  UNL d   1       1.843  -1.455  -2.816  0.00  0.00     0.006 A 
ATOM      5  C4  UNL d   1       1.755  -1.571  -1.428  0.00  0.00    -0.005 A 
ATOM      6  C5  UNL d   1       2.563  -2.485  -0.745  0.00  0.00    -0.074 A 
ATOM      7  C6  UNL d   1       2.474  -2.629   0.746  0.00  0.00     0.077 C 
ATOM      8  C7  UNL d   1       3.455  -3.285  -1.472  0.00  0.00    -0.001 A 
ENDROOT
TORSDOF 0
ENDMDL
