MODEL 1
REMARK minimizedAffinity 4.05729961
REMARK minimizedRMSD -1
REMARK  0 active torsions:
REMARK  status: ('A' for Active; 'I' for Inactive)
ROOT
ATOM      1  C   UNL d   1      -5.966   4.979   1.806  0.00  0.00     0.077 C 
ATOM      2  C1  UNL d   1      -5.639   4.879   3.266  0.00  0.00    -0.074 A 
ATOM      3  C2  UNL d   1      -5.210   5.999   3.985  0.00  0.00    -0.005 A 
ATOM      4  C3  UNL d   1      -4.919   5.893   5.345  0.00  0.00     0.006 A 
ATOM      5  C4  UNL d   1      -5.055   4.668   5.999  0.00  0.00    -0.005 A 
ATOM      6  C5  UNL d   1      -5.484   3.537   5.297  0.00  0.00    -0.074 A 
ATOM      7  C6  UNL d   1      -5.645   2.215   5.987  0.00  0.00     0.077 C 
ATOM      8  C7  UNL d   1      -5.781   3.654   3.932  0.00  0.00    -0.001 A 
ENDROOT
TORSDOF 0
ENDMDL
