MODEL 1
REMARK minimizedAffinity 10.6880903
REMARK minimizedRMSD -1
REMARK  0 active torsions:
REMARK  status: ('A' for Active; 'I' for Inactive)
ROOT
ATOM      1  C   UNL d   1      -5.100   3.702   1.689  0.00  0.00     0.077 C 
ATOM      2  C1  UNL d   1      -5.142   3.810   3.185  0.00  0.00    -0.074 A 
ATOM      3  C2  UNL d   1      -5.919   2.932   3.948  0.00  0.00    -0.005 A 
ATOM      4  C3  UNL d   1      -5.941   3.039   5.338  0.00  0.00     0.006 A 
ATOM      5  C4  UNL d   1      -5.187   4.023   5.979  0.00  0.00    -0.005 A 
ATOM      6  C5  UNL d   1      -4.404   4.909   5.233  0.00  0.00    -0.074 A 
ATOM      7  C6  UNL d   1      -3.580   5.966   5.906  0.00  0.00     0.077 C 
ATOM      8  C7  UNL d   1      -4.382   4.791   3.836  0.00  0.00    -0.001 A 
ENDROOT
TORSDOF 0
ENDMDL
