MODEL 1
REMARK minimizedAffinity 11.7985182
REMARK minimizedRMSD -1
REMARK  0 active torsions:
REMARK  status: ('A' for Active; 'I' for Inactive)
ROOT
ATOM      1  C   UNL d   1       3.299  -0.592   2.725  0.00  0.00     0.077 C 
ATOM      2  C1  UNL d   1       2.809  -0.155   1.377  0.00  0.00    -0.074 A 
ATOM      3  C2  UNL d   1       2.338   1.146   1.169  0.00  0.00    -0.005 A 
ATOM      4  C3  UNL d   1       1.895   1.540  -0.093  0.00  0.00     0.006 A 
ATOM      5  C4  UNL d   1       1.917   0.640  -1.159  0.00  0.00    -0.005 A 
ATOM      6  C5  UNL d   1       2.385  -0.664  -0.971  0.00  0.00    -0.074 A 
ATOM      7  C6  UNL d   1       2.426  -1.641  -2.108  0.00  0.00     0.077 C 
ATOM      8  C7  UNL d   1       2.836  -1.051   0.299  0.00  0.00    -0.001 A 
ENDROOT
TORSDOF 0
ENDMDL
