MODEL 1
REMARK minimizedAffinity -3.75931931
REMARK minimizedRMSD -1
REMARK  1 active torsions:
REMARK  status: ('A' for Active; 'I' for Inactive)
REMARK    1  A    between atoms: C1_2  and  C2_3 
ROOT
ATOM      1  C2  UNL d   1       1.785   0.149   1.388  0.00  0.00    -0.077 A 
ATOM      2  C3  UNL d   1       1.178  -1.047   1.796  0.00  0.00     0.002 A 
ATOM      3  C4  UNL d   1      -0.042  -1.444   1.245  0.00  0.00     0.002 A 
ATOM      4  C5  UNL d   1      -0.663  -0.652   0.281  0.00  0.00    -0.004 A 
ATOM      5  C6  UNL d   1      -0.068   0.540  -0.130  0.00  0.00     0.002 A 
ATOM      6  C7  UNL d   1       1.151   0.939   0.421  0.00  0.00     0.002 A 
ENDROOT
BRANCH   1   7
ATOM      7  C1  UNL d   1       3.125   0.554   1.945  0.00  0.00     0.055 C 
ATOM      8  C   UNL d   1       2.980   1.633   3.008  0.00  0.00     0.019 C 
ENDBRANCH   1   7
TORSDOF 1
ENDMDL
