MODEL 1
REMARK minimizedAffinity -2.66559482
REMARK minimizedRMSD -1
REMARK  1 active torsions:
REMARK  status: ('A' for Active; 'I' for Inactive)
REMARK    1  A    between atoms: C1_2  and  C2_3 
ROOT
ATOM      1  C2  UNL d   1      -1.049   1.651   0.515  0.00  0.00    -0.077 A 
ATOM      2  C3  UNL d   1      -1.185   0.267   0.335  0.00  0.00     0.002 A 
ATOM      3  C4  UNL d   1      -0.061  -0.561   0.351  0.00  0.00     0.002 A 
ATOM      4  C5  UNL d   1       1.206  -0.016   0.552  0.00  0.00    -0.004 A 
ATOM      5  C6  UNL d   1       1.352   1.359   0.730  0.00  0.00     0.002 A 
ATOM      6  C7  UNL d   1       0.230   2.188   0.713  0.00  0.00     0.002 A 
ENDROOT
BRANCH   1   7
ATOM      7  C1  UNL d   1      -2.264   2.540   0.547  0.00  0.00     0.055 C 
ATOM      8  C   UNL d   1      -2.308   3.372   1.820  0.00  0.00     0.019 C 
ENDBRANCH   1   7
TORSDOF 1
ENDMDL
