MODEL 1
REMARK minimizedAffinity -1.40417504
REMARK minimizedRMSD -1
REMARK  1 active torsions:
REMARK  status: ('A' for Active; 'I' for Inactive)
REMARK    1  A    between atoms: C1_2  and  C2_3 
ROOT
ATOM      1  C2  UNL d   1      -0.843   0.456   0.038  0.00  0.00    -0.077 A 
ATOM      2  C3  UNL d   1      -1.280  -0.670   0.750  0.00  0.00     0.002 A 
ATOM      3  C4  UNL d   1      -0.410  -1.735   0.990  0.00  0.00     0.002 A 
ATOM      4  C5  UNL d   1       0.902  -1.684   0.526  0.00  0.00    -0.004 A 
ATOM      5  C6  UNL d   1       1.346  -0.570  -0.186  0.00  0.00     0.002 A 
ATOM      6  C7  UNL d   1       0.478   0.496  -0.428  0.00  0.00     0.002 A 
ENDROOT
BRANCH   1   7
ATOM      7  C1  UNL d   1      -1.765   1.627  -0.180  0.00  0.00     0.055 C 
ATOM      8  C   UNL d   1      -1.565   2.694   0.887  0.00  0.00     0.019 C 
ENDBRANCH   1   7
TORSDOF 1
ENDMDL
