MODEL 1
REMARK minimizedAffinity -2.75961876
REMARK minimizedRMSD -1
REMARK  1 active torsions:
REMARK  status: ('A' for Active; 'I' for Inactive)
REMARK    1  A    between atoms: C1_2  and  C2_3 
ROOT
ATOM      1  C2  UNL d   1      -1.015  -0.359  -0.960  0.00  0.00    -0.077 A 
ATOM      2  C3  UNL d   1       0.293   0.083  -1.201  0.00  0.00     0.002 A 
ATOM      3  C4  UNL d   1       1.359  -0.425  -0.455  0.00  0.00     0.002 A 
ATOM      4  C5  UNL d   1       1.127  -1.380   0.532  0.00  0.00    -0.004 A 
ATOM      5  C6  UNL d   1      -0.171  -1.825   0.780  0.00  0.00     0.002 A 
ATOM      6  C7  UNL d   1      -1.237  -1.317   0.037  0.00  0.00     0.002 A 
ENDROOT
BRANCH   1   7
ATOM      7  C1  UNL d   1      -2.160   0.152  -1.797  0.00  0.00     0.055 C 
ATOM      8  C   UNL d   1      -3.087  -0.979  -2.215  0.00  0.00     0.019 C 
ENDBRANCH   1   7
TORSDOF 1
ENDMDL
