MODEL 1
REMARK minimizedAffinity 2.57951832
REMARK minimizedRMSD -1
REMARK  0 active torsions:
REMARK  status: ('A' for Active; 'I' for Inactive)
ROOT
ATOM      1  C1  BNZ d   1      -1.614  -2.251  -2.678  0.00  0.00     0.000 A 
ATOM      2  C2  BNZ d   1      -1.115  -1.952  -1.438  0.00  0.00     0.000 A 
ATOM      3  C3  BNZ d   1      -1.740  -2.397  -0.307  0.00  0.00     0.000 A 
ATOM      4  C4  BNZ d   1      -2.883  -3.103  -0.415  0.00  0.00     0.000 A 
ATOM      5  C5  BNZ d   1      -3.404  -3.404  -1.658  0.00  0.00     0.000 A 
ATOM      6  C6  BNZ d   1      -2.751  -2.989  -2.795  0.00  0.00     0.000 A 
ENDROOT
TORSDOF 0
ENDMDL
