MODEL 1
REMARK minimizedAffinity 0.796137869
REMARK minimizedRMSD -1
REMARK  0 active torsions:
REMARK  status: ('A' for Active; 'I' for Inactive)
ROOT
ATOM      1  C1  BNZ d   1       1.945   1.482   1.702  0.00  0.00     0.000 A 
ATOM      2  C2  BNZ d   1       2.404   1.458   0.412  0.00  0.00     0.000 A 
ATOM      3  C3  BNZ d   1       3.448   0.651   0.056  0.00  0.00     0.000 A 
ATOM      4  C4  BNZ d   1       4.057  -0.099   0.996  0.00  0.00     0.000 A 
ATOM      5  C5  BNZ d   1       3.612  -0.079   2.303  0.00  0.00     0.000 A 
ATOM      6  C6  BNZ d   1       2.536   0.705   2.650  0.00  0.00     0.000 A 
ENDROOT
TORSDOF 0
ENDMDL
