MODEL 1
REMARK minimizedAffinity 1.60300922
REMARK minimizedRMSD -1
REMARK  0 active torsions:
REMARK  status: ('A' for Active; 'I' for Inactive)
ROOT
ATOM      1  C1  BNZ d   1      -3.031  -3.385  -1.645  0.00  0.00     0.000 A 
ATOM      2  C2  BNZ d   1      -1.929  -2.578  -1.556  0.00  0.00     0.000 A 
ATOM      3  C3  BNZ d   1      -1.225  -2.228  -2.675  0.00  0.00     0.000 A 
ATOM      4  C4  BNZ d   1      -1.600  -2.718  -3.874  0.00  0.00     0.000 A 
ATOM      5  C5  BNZ d   1      -2.703  -3.541  -3.979  0.00  0.00     0.000 A 
ATOM      6  C6  BNZ d   1      -3.432  -3.859  -2.856  0.00  0.00     0.000 A 
ENDROOT
TORSDOF 0
ENDMDL
