MODEL 1
REMARK minimizedAffinity 1.71054816
REMARK minimizedRMSD -1
REMARK  0 active torsions:
REMARK  status: ('A' for Active; 'I' for Inactive)
ROOT
ATOM      1  C1  BNZ d   1      -1.935  -3.262   0.291  0.00  0.00     0.000 A 
ATOM      2  C2  BNZ d   1      -1.608  -2.407  -0.728  0.00  0.00     0.000 A 
ATOM      3  C3  BNZ d   1      -2.345  -2.376  -1.879  0.00  0.00     0.000 A 
ATOM      4  C4  BNZ d   1      -3.381  -3.227  -2.026  0.00  0.00     0.000 A 
ATOM      5  C5  BNZ d   1      -3.717  -4.101  -1.012  0.00  0.00     0.000 A 
ATOM      6  C6  BNZ d   1      -2.997  -4.102   0.161  0.00  0.00     0.000 A 
ENDROOT
TORSDOF 0
ENDMDL
