MODEL 1
REMARK minimizedAffinity -1.81717694
REMARK minimizedRMSD -1
REMARK  0 active torsions:
REMARK  status: ('A' for Active; 'I' for Inactive)
ROOT
ATOM      1  C1  BNZ d   1       2.324   1.774  -0.076  0.00  0.00     0.000 A 
ATOM      2  C2  BNZ d   1       2.378   0.992   1.046  0.00  0.00     0.000 A 
ATOM      3  C3  BNZ d   1       3.205  -0.096   1.102  0.00  0.00     0.000 A 
ATOM      4  C4  BNZ d   1       3.945  -0.422   0.023  0.00  0.00     0.000 A 
ATOM      5  C5  BNZ d   1       3.894   0.352  -1.119  0.00  0.00     0.000 A 
ATOM      6  C6  BNZ d   1       3.091   1.468  -1.158  0.00  0.00     0.000 A 
ENDROOT
TORSDOF 0
ENDMDL
