MODEL 1
REMARK minimizedAffinity 1.74092555
REMARK minimizedRMSD -1
REMARK  0 active torsions:
REMARK  status: ('A' for Active; 'I' for Inactive)
ROOT
ATOM      1  C1  BNZ d   1       1.943   1.103   0.263  0.00  0.00     0.000 A 
ATOM      2  C2  BNZ d   1       2.721   0.875   1.367  0.00  0.00     0.000 A 
ATOM      3  C3  BNZ d   1       3.941   0.271   1.250  0.00  0.00     0.000 A 
ATOM      4  C4  BNZ d   1       4.364  -0.140   0.038  0.00  0.00     0.000 A 
ATOM      5  C5  BNZ d   1       3.587   0.073  -1.083  0.00  0.00     0.000 A 
ATOM      6  C6  BNZ d   1       2.376   0.717  -0.967  0.00  0.00     0.000 A 
ENDROOT
TORSDOF 0
ENDMDL
