MODEL 1
REMARK minimizedAffinity -3.07124138
REMARK minimizedRMSD -1
REMARK  0 active torsions:
REMARK  status: ('A' for Active; 'I' for Inactive)
ROOT
ATOM      1  C1  BNZ d   1       5.984   3.766   3.118  0.00  0.00     0.000 A 
ATOM      2  C2  BNZ d   1       5.999   4.942   3.820  0.00  0.00     0.000 A 
ATOM      3  C3  BNZ d   1       5.172   5.974   3.475  0.00  0.00     0.000 A 
ATOM      4  C4  BNZ d   1       4.360   5.843   2.406  0.00  0.00     0.000 A 
ATOM      5  C5  BNZ d   1       4.339   4.668   1.683  0.00  0.00     0.000 A 
ATOM      6  C6  BNZ d   1       5.145   3.617   2.057  0.00  0.00     0.000 A 
ENDROOT
TORSDOF 0
ENDMDL
