MODEL 1
REMARK minimizedAffinity -2.12734079
REMARK minimizedRMSD -1
REMARK  0 active torsions:
REMARK  status: ('A' for Active; 'I' for Inactive)
ROOT
ATOM      1  C1  BNZ d   1       4.148   0.033   1.127  0.00  0.00     0.000 A 
ATOM      2  C2  BNZ d   1       5.457   0.227   1.478  0.00  0.00     0.000 A 
ATOM      3  C3  BNZ d   1       5.999   1.482   1.494  0.00  0.00     0.000 A 
ATOM      4  C4  BNZ d   1       5.244   2.535   1.120  0.00  0.00     0.000 A 
ATOM      5  C5  BNZ d   1       3.925   2.354   0.754  0.00  0.00     0.000 A 
ATOM      6  C6  BNZ d   1       3.371   1.094   0.777  0.00  0.00     0.000 A 
ENDROOT
TORSDOF 0
ENDMDL
