MODEL 1
REMARK minimizedAffinity -1.93212736
REMARK minimizedRMSD -1
REMARK  0 active torsions:
REMARK  status: ('A' for Active; 'I' for Inactive)
ROOT
ATOM      1  C1  BNZ d   1      -2.819  -2.730  -1.672  0.00  0.00     0.000 A 
ATOM      2  C2  BNZ d   1      -1.792  -3.008  -0.810  0.00  0.00     0.000 A 
ATOM      3  C3  BNZ d   1      -0.550  -3.329  -1.282  0.00  0.00     0.000 A 
ATOM      4  C4  BNZ d   1      -0.347  -3.411  -2.613  0.00  0.00     0.000 A 
ATOM      5  C5  BNZ d   1      -1.376  -3.143  -3.495  0.00  0.00     0.000 A 
ATOM      6  C6  BNZ d   1      -2.614  -2.782  -3.016  0.00  0.00     0.000 A 
ENDROOT
TORSDOF 0
ENDMDL
