MODEL 1
REMARK minimizedAffinity -4.84828043
REMARK minimizedRMSD -1
REMARK  0 active torsions:
REMARK  status: ('A' for Active; 'I' for Inactive)
ROOT
ATOM      1  C1  BNZ d   1       6.000   0.381   1.490  0.00  0.00     0.000 A 
ATOM      2  C2  BNZ d   1       4.866  -0.373   1.345  0.00  0.00     0.000 A 
ATOM      3  C3  BNZ d   1       3.727   0.169   0.819  0.00  0.00     0.000 A 
ATOM      4  C4  BNZ d   1       3.712   1.473   0.476  0.00  0.00     0.000 A 
ATOM      5  C5  BNZ d   1       4.844   2.249   0.625  0.00  0.00     0.000 A 
ATOM      6  C6  BNZ d   1       6.000   1.690   1.119  0.00  0.00     0.000 A 
ENDROOT
TORSDOF 0
ENDMDL
