MODEL 1
REMARK minimizedAffinity 1.19903541
REMARK minimizedRMSD -1
REMARK  0 active torsions:
REMARK  status: ('A' for Active; 'I' for Inactive)
ROOT
ATOM      1  C1  BNZ d   1      -2.567  -2.534  -1.948  0.00  0.00     0.000 A 
ATOM      2  C2  BNZ d   1      -2.344  -2.576  -0.597  0.00  0.00     0.000 A 
ATOM      3  C3  BNZ d   1      -1.134  -2.974  -0.099  0.00  0.00     0.000 A 
ATOM      4  C4  BNZ d   1      -0.164  -3.368  -0.950  0.00  0.00     0.000 A 
ATOM      5  C5  BNZ d   1      -0.377  -3.340  -2.314  0.00  0.00     0.000 A 
ATOM      6  C6  BNZ d   1      -1.583  -2.902  -2.812  0.00  0.00     0.000 A 
ENDROOT
TORSDOF 0
ENDMDL
