MODEL 1
REMARK minimizedAffinity 5.95022774
REMARK minimizedRMSD -1
REMARK  0 active torsions:
REMARK  status: ('A' for Active; 'I' for Inactive)
ROOT
ATOM      1  C1  BNZ d   1       4.612   0.034  -0.332  0.00  0.00     0.000 A 
ATOM      2  C2  BNZ d   1       3.964   0.133   0.870  0.00  0.00     0.000 A 
ATOM      3  C3  BNZ d   1       2.811   0.860   0.985  0.00  0.00     0.000 A 
ATOM      4  C4  BNZ d   1       2.332   1.518  -0.090  0.00  0.00     0.000 A 
ATOM      5  C5  BNZ d   1       2.980   1.435  -1.306  0.00  0.00     0.000 A 
ATOM      6  C6  BNZ d   1       4.117   0.671  -1.428  0.00  0.00     0.000 A 
ENDROOT
TORSDOF 0
ENDMDL
