MODEL 1
REMARK minimizedAffinity 0.950751245
REMARK minimizedRMSD -1
REMARK  0 active torsions:
REMARK  status: ('A' for Active; 'I' for Inactive)
ROOT
ATOM      1  C1  BNZ d   1      -2.656  -2.962  -3.165  0.00  0.00     0.000 A 
ATOM      2  C2  BNZ d   1      -2.687  -2.482  -1.882  0.00  0.00     0.000 A 
ATOM      3  C3  BNZ d   1      -1.595  -2.593  -1.067  0.00  0.00     0.000 A 
ATOM      4  C4  BNZ d   1      -0.489  -3.218  -1.521  0.00  0.00     0.000 A 
ATOM      5  C5  BNZ d   1      -0.446  -3.715  -2.808  0.00  0.00     0.000 A 
ATOM      6  C6  BNZ d   1      -1.533  -3.568  -3.639  0.00  0.00     0.000 A 
ENDROOT
TORSDOF 0
ENDMDL
