MODEL 1
REMARK minimizedAffinity -2.43888569
REMARK minimizedRMSD -1
REMARK  0 active torsions:
REMARK  status: ('A' for Active; 'I' for Inactive)
ROOT
ATOM      1  C1  BNZ d   1      -2.738  -3.111  -1.929  0.00  0.00     0.000 A 
ATOM      2  C2  BNZ d   1      -1.578  -3.285  -2.636  0.00  0.00     0.000 A 
ATOM      3  C3  BNZ d   1      -0.363  -3.226  -2.013  0.00  0.00     0.000 A 
ATOM      4  C4  BNZ d   1      -0.307  -2.953  -0.693  0.00  0.00     0.000 A 
ATOM      5  C5  BNZ d   1      -1.467  -2.765   0.032  0.00  0.00     0.000 A 
ATOM      6  C6  BNZ d   1      -2.690  -2.864  -0.592  0.00  0.00     0.000 A 
ENDROOT
TORSDOF 0
ENDMDL
