MODEL 1
REMARK minimizedAffinity 6.52457905
REMARK minimizedRMSD -1
REMARK  0 active torsions:
REMARK  status: ('A' for Active; 'I' for Inactive)
ROOT
ATOM      1  C1  BNZ d   1       2.863   0.026   0.714  0.00  0.00     0.000 A 
ATOM      2  C2  BNZ d   1       1.965   1.026   0.455  0.00  0.00     0.000 A 
ATOM      3  C3  BNZ d   1       2.332   2.339   0.551  0.00  0.00     0.000 A 
ATOM      4  C4  BNZ d   1       3.583   2.650   0.944  0.00  0.00     0.000 A 
ATOM      5  C5  BNZ d   1       4.499   1.654   1.218  0.00  0.00     0.000 A 
ATOM      6  C6  BNZ d   1       4.137   0.333   1.082  0.00  0.00     0.000 A 
ENDROOT
TORSDOF 0
ENDMDL
