MODEL 1
REMARK minimizedAffinity 4.20628834
REMARK minimizedRMSD -1
REMARK  0 active torsions:
REMARK  status: ('A' for Active; 'I' for Inactive)
ROOT
ATOM      1  C1  BNZ d   1      -2.605  -2.419  -1.286  0.00  0.00     0.000 A 
ATOM      2  C2  BNZ d   1      -2.779  -2.895  -2.558  0.00  0.00     0.000 A 
ATOM      3  C3  BNZ d   1      -1.885  -3.773  -3.105  0.00  0.00     0.000 A 
ATOM      4  C4  BNZ d   1      -0.798  -4.141  -2.396  0.00  0.00     0.000 A 
ATOM      5  C5  BNZ d   1      -0.604  -3.662  -1.115  0.00  0.00     0.000 A 
ATOM      6  C6  BNZ d   1      -1.526  -2.810  -0.553  0.00  0.00     0.000 A 
ENDROOT
TORSDOF 0
ENDMDL
