MODEL 1
REMARK minimizedAffinity 1.6584537
REMARK minimizedRMSD -1
REMARK  1 active torsions:
REMARK  status: ('A' for Active; 'I' for Inactive)
REMARK    1  A    between atoms: C1_2  and  C2_3 
ROOT
ATOM      1  C2  UNL d   1      -4.191  -0.938   2.742  0.00  0.00    -0.081 A 
ATOM      2  C3  UNL d   1      -3.416  -1.577   1.767  0.00  0.00     0.006 A 
ATOM      3  C4  UNL d   1      -2.089  -1.197   1.555  0.00  0.00     0.002 A 
ATOM      4  C5  UNL d   1      -1.512  -0.178   2.320  0.00  0.00    -0.080 A 
ATOM      5  C6  UNL d   1      -0.079   0.219   2.124  0.00  0.00     0.076 C 
ATOM      6  C7  UNL d   1      -2.291   0.472   3.283  0.00  0.00     0.002 A 
ATOM      7  C8  UNL d   1      -3.618   0.093   3.495  0.00  0.00     0.006 A 
ENDROOT
BRANCH   1   8
ATOM      8  C1  UNL d   1      -5.603  -1.389   3.017  0.00  0.00     0.054 C 
ATOM      9  C   UNL d   1      -5.661  -2.884   3.297  0.00  0.00     0.018 C 
ENDBRANCH   1   8
TORSDOF 1
ENDMDL
