MODEL 1
REMARK minimizedAffinity 4.85135269
REMARK minimizedRMSD -1
REMARK  1 active torsions:
REMARK  status: ('A' for Active; 'I' for Inactive)
REMARK    1  A    between atoms: C1_2  and  C2_3 
ROOT
ATOM      1  C2  UNL d   1       3.280   1.875  -0.141  0.00  0.00    -0.081 A 
ATOM      2  C3  UNL d   1       3.887   2.301  -1.329  0.00  0.00     0.006 A 
ATOM      3  C4  UNL d   1       3.109   2.700  -2.418  0.00  0.00     0.002 A 
ATOM      4  C5  UNL d   1       1.712   2.686  -2.335  0.00  0.00    -0.080 A 
ATOM      5  C6  UNL d   1       0.866   3.141  -3.487  0.00  0.00     0.076 C 
ATOM      6  C7  UNL d   1       1.106   2.244  -1.155  0.00  0.00     0.002 A 
ATOM      7  C8  UNL d   1       1.884   1.845  -0.066  0.00  0.00     0.006 A 
ENDROOT
BRANCH   1   8
ATOM      8  C1  UNL d   1       4.117   1.506   1.058  0.00  0.00     0.054 C 
ATOM      9  C   UNL d   1       4.911   2.700   1.567  0.00  0.00     0.018 C 
ENDBRANCH   1   8
TORSDOF 1
ENDMDL
