MODEL 1
REMARK minimizedAffinity 14.4688911
REMARK minimizedRMSD -1
REMARK  1 active torsions:
REMARK  status: ('A' for Active; 'I' for Inactive)
REMARK    1  A    between atoms: C1_2  and  C2_3 
ROOT
ATOM      1  C2  UNL d   1       3.188   2.787  -2.912  0.00  0.00    -0.081 A 
ATOM      2  C3  UNL d   1       3.272   2.633  -4.301  0.00  0.00     0.006 A 
ATOM      3  C4  UNL d   1       4.172   3.399  -5.045  0.00  0.00     0.002 A 
ATOM      4  C5  UNL d   1       5.008   4.326  -4.413  0.00  0.00    -0.080 A 
ATOM      5  C6  UNL d   1       6.000   5.133  -5.196  0.00  0.00     0.076 C 
ATOM      6  C7  UNL d   1       4.912   4.492  -3.027  0.00  0.00     0.002 A 
ATOM      7  C8  UNL d   1       4.012   3.726  -2.282  0.00  0.00     0.006 A 
ENDROOT
BRANCH   1   8
ATOM      8  C1  UNL d   1       2.265   1.916  -2.098  0.00  0.00     0.054 C 
ATOM      9  C   UNL d   1       2.909   1.504  -0.782  0.00  0.00     0.018 C 
ENDBRANCH   1   8
TORSDOF 1
ENDMDL
