MODEL 1
REMARK minimizedAffinity 21.2769146
REMARK minimizedRMSD -1
REMARK  1 active torsions:
REMARK  status: ('A' for Active; 'I' for Inactive)
REMARK    1  A    between atoms: C1_2  and  C2_3 
ROOT
ATOM      1  C2  UNL d   1      -0.073  -1.973   1.882  0.00  0.00    -0.081 A 
ATOM      2  C3  UNL d   1      -0.289  -0.721   2.469  0.00  0.00     0.006 A 
ATOM      3  C4  UNL d   1      -1.486  -0.035   2.254  0.00  0.00     0.002 A 
ATOM      4  C5  UNL d   1      -2.491  -0.593   1.456  0.00  0.00    -0.080 A 
ATOM      5  C6  UNL d   1      -3.793   0.119   1.242  0.00  0.00     0.076 C 
ATOM      6  C7  UNL d   1      -2.268  -1.837   0.855  0.00  0.00     0.002 A 
ATOM      7  C8  UNL d   1      -1.070  -2.523   1.069  0.00  0.00     0.006 A 
ENDROOT
BRANCH   1   8
ATOM      8  C1  UNL d   1       1.192  -2.744   2.164  0.00  0.00     0.054 C 
ATOM      9  C   UNL d   1       1.955  -2.145   3.336  0.00  0.00     0.018 C 
ENDBRANCH   1   8
TORSDOF 1
ENDMDL
