MODEL 1
REMARK minimizedAffinity 12.980052
REMARK minimizedRMSD -1
REMARK  1 active torsions:
REMARK  status: ('A' for Active; 'I' for Inactive)
REMARK    1  A    between atoms: C1_2  and  C2_3 
ROOT
ATOM      1  C2  UNL d   1      -4.725  -4.072   2.312  0.00  0.00    -0.081 A 
ATOM      2  C3  UNL d   1      -3.598  -4.199   1.491  0.00  0.00     0.006 A 
ATOM      3  C4  UNL d   1      -2.714  -3.129   1.332  0.00  0.00     0.002 A 
ATOM      4  C5  UNL d   1      -2.938  -1.918   1.996  0.00  0.00    -0.080 A 
ATOM      5  C6  UNL d   1      -1.982  -0.772   1.857  0.00  0.00     0.076 C 
ATOM      6  C7  UNL d   1      -4.074  -1.786   2.802  0.00  0.00     0.002 A 
ATOM      7  C8  UNL d   1      -4.958  -2.855   2.962  0.00  0.00     0.006 A 
ENDROOT
BRANCH   1   8
ATOM      8  C1  UNL d   1      -5.645  -5.245   2.537  0.00  0.00     0.054 C 
ATOM      9  C   UNL d   1      -5.278  -6.000   3.808  0.00  0.00     0.018 C 
ENDBRANCH   1   8
TORSDOF 1
ENDMDL
