MODEL 1
REMARK minimizedAffinity 9.78278828
REMARK minimizedRMSD -1
REMARK  1 active torsions:
REMARK  status: ('A' for Active; 'I' for Inactive)
REMARK    1  A    between atoms: C1_2  and  C2_3 
ROOT
ATOM      1  C2  UNL d   1      -4.866  -0.954   3.623  0.00  0.00    -0.081 A 
ATOM      2  C3  UNL d   1      -5.203   0.237   2.969  0.00  0.00     0.006 A 
ATOM      3  C4  UNL d   1      -5.305   1.433   3.683  0.00  0.00     0.002 A 
ATOM      4  C5  UNL d   1      -5.063   1.460   5.061  0.00  0.00    -0.080 A 
ATOM      5  C6  UNL d   1      -5.139   2.743   5.834  0.00  0.00     0.076 C 
ATOM      6  C7  UNL d   1      -4.743   0.267   5.718  0.00  0.00     0.002 A 
ATOM      7  C8  UNL d   1      -4.642  -0.929   5.004  0.00  0.00     0.006 A 
ENDROOT
BRANCH   1   8
ATOM      8  C1  UNL d   1      -4.692  -2.233   2.845  0.00  0.00     0.054 C 
ATOM      9  C   UNL d   1      -3.487  -2.158   1.919  0.00  0.00     0.018 C 
ENDBRANCH   1   8
TORSDOF 1
ENDMDL
