MODEL 1
REMARK minimizedAffinity 13.318799
REMARK minimizedRMSD -1
REMARK  1 active torsions:
REMARK  status: ('A' for Active; 'I' for Inactive)
REMARK    1  A    between atoms: C1_2  and  C2_3 
ROOT
ATOM      1  C2  UNL d   1       3.376   1.744  -0.116  0.00  0.00    -0.081 A 
ATOM      2  C3  UNL d   1       3.140   1.651   1.261  0.00  0.00     0.006 A 
ATOM      3  C4  UNL d   1       3.994   2.280   2.170  0.00  0.00     0.002 A 
ATOM      4  C5  UNL d   1       5.093   3.019   1.717  0.00  0.00    -0.080 A 
ATOM      5  C6  UNL d   1       6.000   3.725   2.681  0.00  0.00     0.076 C 
ATOM      6  C7  UNL d   1       5.338   3.097   0.342  0.00  0.00     0.002 A 
ATOM      7  C8  UNL d   1       4.485   2.468  -0.567  0.00  0.00     0.006 A 
ENDROOT
BRANCH   1   8
ATOM      8  C1  UNL d   1       2.421   1.120  -1.101  0.00  0.00     0.054 C 
ATOM      9  C   UNL d   1       2.114   2.069  -2.251  0.00  0.00     0.018 C 
ENDBRANCH   1   8
TORSDOF 1
ENDMDL
