MODEL 1
REMARK minimizedAffinity 13.2391424
REMARK minimizedRMSD -1
REMARK  1 active torsions:
REMARK  status: ('A' for Active; 'I' for Inactive)
REMARK    1  A    between atoms: C1_2  and  C2_3 
ROOT
ATOM      1  C2  UNL d   1      -3.603  -0.092   1.537  0.00  0.00    -0.081 A 
ATOM      2  C3  UNL d   1      -2.878   0.620   2.501  0.00  0.00     0.006 A 
ATOM      3  C4  UNL d   1      -1.546   0.295   2.768  0.00  0.00     0.002 A 
ATOM      4  C5  UNL d   1      -0.914  -0.740   2.072  0.00  0.00    -0.080 A 
ATOM      5  C6  UNL d   1       0.524  -1.079   2.328  0.00  0.00     0.076 C 
ATOM      6  C7  UNL d   1      -1.643  -1.463   1.121  0.00  0.00     0.002 A 
ATOM      7  C8  UNL d   1      -2.975  -1.139   0.854  0.00  0.00     0.006 A 
ENDROOT
BRANCH   1   8
ATOM      8  C1  UNL d   1      -5.019   0.298   1.200  0.00  0.00     0.054 C 
ATOM      9  C   UNL d   1      -5.079   1.113  -0.084  0.00  0.00     0.018 C 
ENDBRANCH   1   8
TORSDOF 1
ENDMDL
