MODEL 1
REMARK minimizedAffinity 11.52285
REMARK minimizedRMSD -1
REMARK  1 active torsions:
REMARK  status: ('A' for Active; 'I' for Inactive)
REMARK    1  A    between atoms: C1_2  and  C2_3 
ROOT
ATOM      1  C2  UNL d   1      -1.589  -5.168  -4.502  0.00  0.00    -0.081 A 
ATOM      2  C3  UNL d   1      -1.077  -4.487  -3.391  0.00  0.00     0.006 A 
ATOM      3  C4  UNL d   1       0.283  -4.560  -3.081  0.00  0.00     0.002 A 
ATOM      4  C5  UNL d   1       1.155  -5.306  -3.881  0.00  0.00    -0.080 A 
ATOM      5  C6  UNL d   1       2.622  -5.367  -3.577  0.00  0.00     0.076 C 
ATOM      6  C7  UNL d   1       0.640  -6.000  -4.982  0.00  0.00     0.002 A 
ATOM      7  C8  UNL d   1      -0.720  -5.928  -5.292  0.00  0.00     0.006 A 
ENDROOT
BRANCH   1   8
ATOM      8  C1  UNL d   1      -3.044  -5.039  -4.876  0.00  0.00     0.054 C 
ATOM      9  C   UNL d   1      -3.413  -5.998  -5.999  0.00  0.00     0.018 C 
ENDBRANCH   1   8
TORSDOF 1
ENDMDL
