MODEL 1
REMARK minimizedAffinity 9.19698238
REMARK minimizedRMSD -1
REMARK  1 active torsions:
REMARK  status: ('A' for Active; 'I' for Inactive)
REMARK    1  A    between atoms: C1_2  and  C2_3 
ROOT
ATOM      1  C2  UNL d   1       0.631  -5.617  -3.992  0.00  0.00    -0.081 A 
ATOM      2  C3  UNL d   1      -0.531  -5.370  -3.250  0.00  0.00     0.006 A 
ATOM      3  C4  UNL d   1      -1.787  -5.435  -3.859  0.00  0.00     0.002 A 
ATOM      4  C5  UNL d   1      -1.902  -5.756  -5.216  0.00  0.00    -0.080 A 
ATOM      5  C6  UNL d   1      -3.246  -5.860  -5.874  0.00  0.00     0.076 C 
ATOM      6  C7  UNL d   1      -0.740  -5.986  -5.960  0.00  0.00     0.002 A 
ATOM      7  C8  UNL d   1       0.515  -5.921  -5.353  0.00  0.00     0.006 A 
ENDROOT
BRANCH   1   8
ATOM      8  C1  UNL d   1       1.982  -5.611  -3.324  0.00  0.00     0.054 C 
ATOM      9  C   UNL d   1       3.090  -5.948  -4.312  0.00  0.00     0.018 C 
ENDBRANCH   1   8
TORSDOF 1
ENDMDL
