MODEL 1
REMARK minimizedAffinity 2.68919921
REMARK minimizedRMSD -1
REMARK  1 active torsions:
REMARK  status: ('A' for Active; 'I' for Inactive)
REMARK    1  A    between atoms: C1_2  and  C2_3 
ROOT
ATOM      1  C2  UNL d   1       0.212  -0.229   3.978  0.00  0.00    -0.081 A 
ATOM      2  C3  UNL d   1      -0.252  -0.224   5.299  0.00  0.00     0.006 A 
ATOM      3  C4  UNL d   1      -1.377   0.527   5.651  0.00  0.00     0.002 A 
ATOM      4  C5  UNL d   1      -2.059   1.277   4.688  0.00  0.00    -0.080 A 
ATOM      5  C6  UNL d   1      -3.285   2.063   5.047  0.00  0.00     0.076 C 
ATOM      6  C7  UNL d   1      -1.585   1.286   3.372  0.00  0.00     0.002 A 
ATOM      7  C8  UNL d   1      -0.461   0.536   3.019  0.00  0.00     0.006 A 
ENDROOT
BRANCH   1   8
ATOM      8  C1  UNL d   1       1.386  -1.088   3.581  0.00  0.00     0.054 C 
ATOM      9  C   UNL d   1       0.987  -2.553   3.471  0.00  0.00     0.018 C 
ENDBRANCH   1   8
TORSDOF 1
ENDMDL
