MODEL 1
REMARK minimizedAffinity 7.86604071
REMARK minimizedRMSD -1
REMARK  1 active torsions:
REMARK  status: ('A' for Active; 'I' for Inactive)
REMARK    1  A    between atoms: C1_2  and  C2_3 
ROOT
ATOM      1  C2  UNL d   1       3.884   1.954  -0.483  0.00  0.00    -0.081 A 
ATOM      2  C3  UNL d   1       3.543   1.947   0.875  0.00  0.00     0.006 A 
ATOM      3  C4  UNL d   1       4.233   2.755   1.783  0.00  0.00     0.002 A 
ATOM      4  C5  UNL d   1       5.269   3.587   1.347  0.00  0.00    -0.080 A 
ATOM      5  C6  UNL d   1       5.998   4.482   2.306  0.00  0.00     0.076 C 
ATOM      6  C7  UNL d   1       5.622   3.581  -0.007  0.00  0.00     0.002 A 
ATOM      7  C8  UNL d   1       4.933   2.773  -0.915  0.00  0.00     0.006 A 
ENDROOT
BRANCH   1   8
ATOM      8  C1  UNL d   1       3.100   1.133  -1.474  0.00  0.00     0.054 C 
ATOM      9  C   UNL d   1       1.871   1.885  -1.966  0.00  0.00     0.018 C 
ENDBRANCH   1   8
TORSDOF 1
ENDMDL
