MODEL 1
REMARK minimizedAffinity 14.5809231
REMARK minimizedRMSD -1
REMARK  1 active torsions:
REMARK  status: ('A' for Active; 'I' for Inactive)
REMARK    1  A    between atoms: C1_2  and  C2_3 
ROOT
ATOM      1  C2  UNL d   1      -5.834  -0.942  -2.819  0.00  0.00    -0.081 A 
ATOM      2  C3  UNL d   1      -5.997  -1.393  -1.503  0.00  0.00     0.006 A 
ATOM      3  C4  UNL d   1      -5.959  -0.491  -0.436  0.00  0.00     0.002 A 
ATOM      4  C5  UNL d   1      -5.765   0.875  -0.668  0.00  0.00    -0.080 A 
ATOM      5  C6  UNL d   1      -5.752   1.856   0.466  0.00  0.00     0.076 C 
ATOM      6  C7  UNL d   1      -5.585   1.322  -1.981  0.00  0.00     0.002 A 
ATOM      7  C8  UNL d   1      -5.623   0.422  -3.048  0.00  0.00     0.006 A 
ENDROOT
BRANCH   1   8
ATOM      8  C1  UNL d   1      -5.940  -1.903  -3.976  0.00  0.00     0.054 C 
ATOM      9  C   UNL d   1      -5.935  -1.166  -5.308  0.00  0.00     0.018 C 
ENDBRANCH   1   8
TORSDOF 1
ENDMDL
