MODEL 1
REMARK minimizedAffinity 21.4791107
REMARK minimizedRMSD -1
REMARK  1 active torsions:
REMARK  status: ('A' for Active; 'I' for Inactive)
REMARK    1  A    between atoms: C1_2  and  C2_3 
ROOT
ATOM      1  C2  UNL d   1      -0.049   4.403  -3.525  0.00  0.00    -0.081 A 
ATOM      2  C3  UNL d   1       0.770   4.786  -2.456  0.00  0.00     0.006 A 
ATOM      3  C4  UNL d   1       1.651   3.870  -1.876  0.00  0.00     0.002 A 
ATOM      4  C5  UNL d   1       1.733   2.560  -2.359  0.00  0.00    -0.080 A 
ATOM      5  C6  UNL d   1       2.695   1.575  -1.765  0.00  0.00     0.076 C 
ATOM      6  C7  UNL d   1       0.901   2.172  -3.416  0.00  0.00     0.002 A 
ATOM      7  C8  UNL d   1       0.020   3.088  -3.996  0.00  0.00     0.006 A 
ENDROOT
BRANCH   1   8
ATOM      8  C1  UNL d   1      -0.953   5.407  -4.194  0.00  0.00     0.054 C 
ATOM      9  C   UNL d   1      -1.766   4.762  -5.309  0.00  0.00     0.018 C 
ENDBRANCH   1   8
TORSDOF 1
ENDMDL
