MODEL 1
REMARK minimizedAffinity -5.23510742
REMARK minimizedRMSD -1
REMARK  0 active torsions:
REMARK  status: ('A' for Active; 'I' for Inactive)
ROOT
ATOM      1  C   UNL d   1      -1.396   0.147  -0.019  0.00  0.00     0.020 A 
ATOM      2  C1  UNL d   1      -0.277  -0.492  -0.551  0.00  0.00     0.020 A 
ATOM      3  C2  UNL d   1       0.898  -0.581   0.200  0.00  0.00     0.034 A 
ATOM      4  C3  UNL d   1       0.955  -0.032   1.486  0.00  0.00     0.017 A 
ATOM      5  C4  UNL d   1      -0.170   0.609   2.018  0.00  0.00     0.017 A 
ATOM      6  C5  UNL d   1      -1.343   0.696   1.263  0.00  0.00     0.034 A 
ATOM      7 Cl   UNL d   1      -0.175   1.311   3.598  0.00  0.00    -0.070 Cl
ATOM      8 Cl1  UNL d   1       2.440  -0.180   2.357  0.00  0.00    -0.070 Cl
ENDROOT
TORSDOF 0
ENDMDL
