MODEL 1
REMARK minimizedAffinity -2.68290448
REMARK minimizedRMSD -1
REMARK  0 active torsions:
REMARK  status: ('A' for Active; 'I' for Inactive)
ROOT
ATOM      1  C   UNL d   1       0.380  -0.783  -1.609  0.00  0.00     0.020 A 
ATOM      2  C1  UNL d   1      -0.933  -0.321  -1.546  0.00  0.00     0.020 A 
ATOM      3  C2  UNL d   1      -1.486   0.047  -0.317  0.00  0.00     0.034 A 
ATOM      4  C3  UNL d   1      -0.724  -0.046   0.853  0.00  0.00     0.017 A 
ATOM      5  C4  UNL d   1       0.595  -0.510   0.789  0.00  0.00     0.017 A 
ATOM      6  C5  UNL d   1       1.143  -0.877  -0.444  0.00  0.00     0.034 A 
ATOM      7 Cl   UNL d   1       1.597  -0.652   2.190  0.00  0.00    -0.070 Cl
ATOM      8 Cl1  UNL d   1      -1.470   0.427   2.338  0.00  0.00    -0.070 Cl
ENDROOT
TORSDOF 0
ENDMDL
