MODEL 1
REMARK minimizedAffinity -5.00342274
REMARK minimizedRMSD -1
REMARK  0 active torsions:
REMARK  status: ('A' for Active; 'I' for Inactive)
ROOT
ATOM      1  C   UNL d   1      -0.587   0.741   2.933  0.00  0.00     0.020 A 
ATOM      2  C1  UNL d   1       0.749   0.635   2.549  0.00  0.00     0.020 A 
ATOM      3  C2  UNL d   1       1.073   0.271   1.240  0.00  0.00     0.034 A 
ATOM      4  C3  UNL d   1       0.059   0.011   0.311  0.00  0.00     0.017 A 
ATOM      5  C4  UNL d   1      -1.282   0.117   0.698  0.00  0.00     0.017 A 
ATOM      6  C5  UNL d   1      -1.600   0.482   2.009  0.00  0.00     0.034 A 
ATOM      7 Cl   UNL d   1      -2.588  -0.188  -0.393  0.00  0.00    -0.070 Cl
ATOM      8 Cl1  UNL d   1       0.531  -0.434  -1.290  0.00  0.00    -0.070 Cl
ENDROOT
TORSDOF 0
ENDMDL
