MODEL 1
REMARK minimizedAffinity -3.6559093
REMARK minimizedRMSD -1
REMARK  0 active torsions:
REMARK  status: ('A' for Active; 'I' for Inactive)
ROOT
ATOM      1  C   UNL d   1       0.803  -1.143  -0.685  0.00  0.00     0.020 A 
ATOM      2  C1  UNL d   1      -0.496  -0.639  -0.729  0.00  0.00     0.020 A 
ATOM      3  C2  UNL d   1      -1.098  -0.157   0.435  0.00  0.00     0.034 A 
ATOM      4  C3  UNL d   1      -0.401  -0.178   1.649  0.00  0.00     0.017 A 
ATOM      5  C4  UNL d   1       0.903  -0.684   1.692  0.00  0.00     0.017 A 
ATOM      6  C5  UNL d   1       1.501  -1.166   0.523  0.00  0.00     0.034 A 
ATOM      7 Cl   UNL d   1       1.827  -0.743   3.152  0.00  0.00    -0.070 Cl
ATOM      8 Cl1  UNL d   1      -1.206   0.435   3.049  0.00  0.00    -0.070 Cl
ENDROOT
TORSDOF 0
ENDMDL
