MODEL 1
REMARK minimizedAffinity -3.4305861
REMARK minimizedRMSD -1
REMARK  0 active torsions:
REMARK  status: ('A' for Active; 'I' for Inactive)
ROOT
ATOM      1  C   UNL d   1       0.616  -0.579  -1.211  0.00  0.00     0.020 A 
ATOM      2  C1  UNL d   1      -0.727  -0.230  -1.075  0.00  0.00     0.020 A 
ATOM      3  C2  UNL d   1      -1.274  -0.039   0.196  0.00  0.00     0.034 A 
ATOM      4  C3  UNL d   1      -0.477  -0.196   1.336  0.00  0.00     0.017 A 
ATOM      5  C4  UNL d   1       0.871  -0.547   1.198  0.00  0.00     0.017 A 
ATOM      6  C5  UNL d   1       1.413  -0.737  -0.076  0.00  0.00     0.034 A 
ATOM      7 Cl   UNL d   1       1.916  -0.759   2.558  0.00  0.00    -0.070 Cl
ATOM      8 Cl1  UNL d   1      -1.219   0.056   2.876  0.00  0.00    -0.070 Cl
ENDROOT
TORSDOF 0
ENDMDL
