MODEL 1
REMARK minimizedAffinity -3.94922924
REMARK minimizedRMSD -1
REMARK  0 active torsions:
REMARK  status: ('A' for Active; 'I' for Inactive)
ROOT
ATOM      1  C   UNL d   1       1.156  -0.273   3.684  0.00  0.00     0.020 A 
ATOM      2  C1  UNL d   1       2.063  -0.905   2.834  0.00  0.00     0.020 A 
ATOM      3  C2  UNL d   1       1.746  -1.089   1.487  0.00  0.00     0.034 A 
ATOM      4  C3  UNL d   1       0.519  -0.641   0.985  0.00  0.00     0.017 A 
ATOM      5  C4  UNL d   1      -0.391  -0.007   1.839  0.00  0.00     0.017 A 
ATOM      6  C5  UNL d   1      -0.068   0.175   3.187  0.00  0.00     0.034 A 
ATOM      7 Cl   UNL d   1      -1.925   0.573   1.292  0.00  0.00    -0.070 Cl
ATOM      8 Cl1  UNL d   1       0.193  -0.901  -0.692  0.00  0.00    -0.070 Cl
ENDROOT
TORSDOF 0
ENDMDL
