MODEL 1
REMARK minimizedAffinity -1.68334007
REMARK minimizedRMSD -1
REMARK  0 active torsions:
REMARK  status: ('A' for Active; 'I' for Inactive)
ROOT
ATOM      1  C   UNL d   1      -1.552   0.389   2.126  0.00  0.00     0.020 A 
ATOM      2  C1  UNL d   1      -1.953   0.053   0.834  0.00  0.00     0.020 A 
ATOM      3  C2  UNL d   1      -1.093  -0.664  -0.000  0.00  0.00     0.034 A 
ATOM      4  C3  UNL d   1       0.174  -1.047   0.457  0.00  0.00     0.017 A 
ATOM      5  C4  UNL d   1       0.576  -0.709   1.754  0.00  0.00     0.017 A 
ATOM      6  C5  UNL d   1      -0.290   0.008   2.585  0.00  0.00     0.034 A 
ATOM      7 Cl   UNL d   1       2.123  -1.147   2.389  0.00  0.00    -0.070 Cl
ATOM      8 Cl1  UNL d   1       1.186  -1.931  -0.629  0.00  0.00    -0.070 Cl
ENDROOT
TORSDOF 0
ENDMDL
