MODEL 1
REMARK minimizedAffinity -4.53867817
REMARK minimizedRMSD -1
REMARK  0 active torsions:
REMARK  status: ('A' for Active; 'I' for Inactive)
ROOT
ATOM      1  C   UNL d   1      -1.109  -0.423  -0.282  0.00  0.00     0.020 A 
ATOM      2  C1  UNL d   1       0.153  -0.922  -0.603  0.00  0.00     0.020 A 
ATOM      3  C2  UNL d   1       1.226  -0.722   0.268  0.00  0.00     0.034 A 
ATOM      4  C3  UNL d   1       1.039  -0.021   1.465  0.00  0.00     0.017 A 
ATOM      5  C4  UNL d   1      -0.228   0.480   1.787  0.00  0.00     0.017 A 
ATOM      6  C5  UNL d   1      -1.299   0.276   0.911  0.00  0.00     0.034 A 
ATOM      7 Cl   UNL d   1      -0.536   1.354   3.246  0.00  0.00    -0.070 Cl
ATOM      8 Cl1  UNL d   1       2.410   0.190   2.496  0.00  0.00    -0.070 Cl
ENDROOT
TORSDOF 0
ENDMDL
