MODEL 1
REMARK minimizedAffinity 1.88122571
REMARK minimizedRMSD -1
REMARK  0 active torsions:
REMARK  status: ('A' for Active; 'I' for Inactive)
ROOT
ATOM      1  C   UNL d   1      -0.540   0.890   2.948  0.00  0.00     0.020 A 
ATOM      2  C1  UNL d   1       0.551   1.441   2.276  0.00  0.00     0.020 A 
ATOM      3  C2  UNL d   1       0.822   1.066   0.959  0.00  0.00     0.034 A 
ATOM      4  C3  UNL d   1       0.002   0.137   0.308  0.00  0.00     0.017 A 
ATOM      5  C4  UNL d   1      -1.093  -0.416   0.983  0.00  0.00     0.017 A 
ATOM      6  C5  UNL d   1      -1.360  -0.037   2.303  0.00  0.00     0.034 A 
ATOM      7 Cl   UNL d   1      -2.150  -1.568   0.247  0.00  0.00    -0.070 Cl
ATOM      8 Cl1  UNL d   1       0.396  -0.281  -1.321  0.00  0.00    -0.070 Cl
ENDROOT
TORSDOF 0
ENDMDL
