MODEL 1
REMARK minimizedAffinity -0.994739413
REMARK minimizedRMSD -1
REMARK  0 active torsions:
REMARK  status: ('A' for Active; 'I' for Inactive)
ROOT
ATOM      1  C   UNL d   1      -0.647  -0.406   0.377  0.00  0.00     0.020 A 
ATOM      2  C1  UNL d   1       0.429   0.350   0.840  0.00  0.00     0.020 A 
ATOM      3  C2  UNL d   1       1.439   0.739  -0.042  0.00  0.00     0.034 A 
ATOM      4  C3  UNL d   1       1.375   0.373  -1.392  0.00  0.00     0.017 A 
ATOM      5  C4  UNL d   1       0.294  -0.385  -1.855  0.00  0.00     0.017 A 
ATOM      6  C5  UNL d   1      -0.715  -0.772  -0.968  0.00  0.00     0.034 A 
ATOM      7 Cl   UNL d   1       0.146  -0.874  -3.506  0.00  0.00    -0.070 Cl
ATOM      8 Cl1  UNL d   1       2.660   0.889  -2.426  0.00  0.00    -0.070 Cl
ENDROOT
TORSDOF 0
ENDMDL
