MODEL 1
REMARK minimizedAffinity -5.3143115
REMARK minimizedRMSD -1
REMARK  0 active torsions:
REMARK  status: ('A' for Active; 'I' for Inactive)
ROOT
ATOM      1  C   UNL d   1      -0.665   1.419   2.993  0.00  0.00     0.020 A 
ATOM      2  C1  UNL d   1       0.559   1.033   3.539  0.00  0.00     0.020 A 
ATOM      3  C2  UNL d   1       1.385   0.146   2.845  0.00  0.00     0.034 A 
ATOM      4  C3  UNL d   1       0.988  -0.357   1.601  0.00  0.00     0.017 A 
ATOM      5  C4  UNL d   1      -0.240   0.031   1.053  0.00  0.00     0.017 A 
ATOM      6  C5  UNL d   1      -1.063   0.919   1.752  0.00  0.00     0.034 A 
ATOM      7 Cl   UNL d   1      -0.796  -0.548  -0.477  0.00  0.00    -0.070 Cl
ATOM      8 Cl1  UNL d   1       2.060  -1.450   0.798  0.00  0.00    -0.070 Cl
ENDROOT
TORSDOF 0
ENDMDL
