MODEL 1
REMARK minimizedAffinity -3.88162088
REMARK minimizedRMSD -1
REMARK  0 active torsions:
REMARK  status: ('A' for Active; 'I' for Inactive)
ROOT
ATOM      1  C   UNL d   1       0.033  -0.014  -0.171  0.00  0.00     0.020 A 
ATOM      2  C1  UNL d   1      -1.137  -0.187   0.569  0.00  0.00     0.020 A 
ATOM      3  C2  UNL d   1      -1.146   0.095   1.937  0.00  0.00     0.034 A 
ATOM      4  C3  UNL d   1       0.016   0.553   2.569  0.00  0.00     0.017 A 
ATOM      5  C4  UNL d   1       1.189   0.727   1.825  0.00  0.00     0.017 A 
ATOM      6  C5  UNL d   1       1.193   0.442   0.456  0.00  0.00     0.034 A 
ATOM      7 Cl   UNL d   1       2.662   1.287   2.535  0.00  0.00    -0.070 Cl
ATOM      8 Cl1  UNL d   1      -0.067   0.883   4.263  0.00  0.00    -0.070 Cl
ENDROOT
TORSDOF 0
ENDMDL
