MODEL 1
REMARK minimizedAffinity 0.711648881
REMARK minimizedRMSD -1
REMARK  0 active torsions:
REMARK  status: ('A' for Active; 'I' for Inactive)
ROOT
ATOM      1  C1  DEN d   1      -0.541   0.023  -2.107  0.00  0.00     0.130 A 
ATOM      2  C2  DEN d   1      -1.657   0.411  -1.248  0.00  0.00    -0.031 A 
ATOM      3  C3  DEN d   1      -1.167   0.453   0.144  0.00  0.00     0.027 A 
ATOM      4  C4  DEN d   1       1.198  -0.037   1.048  0.00  0.00     0.027 A 
ATOM      5  C5  DEN d   1       2.476  -0.416   0.701  0.00  0.00    -0.003 A 
ATOM      6  C6  DEN d   1       2.827  -0.706  -0.591  0.00  0.00     0.001 A 
ATOM      7  C7  DEN d   1       1.899  -0.578  -1.591  0.00  0.00     0.017 A 
ATOM      8  C8  DEN d   1       0.607  -0.203  -1.248  0.00  0.00    -0.094 A 
ATOM      9  C9  DEN d   1       0.275   0.097   0.063  0.00  0.00    -0.072 A 
ENDROOT
TORSDOF 0
ENDMDL
