MODEL 1
REMARK minimizedAffinity 0.0300754569
REMARK minimizedRMSD -1
REMARK  0 active torsions:
REMARK  status: ('A' for Active; 'I' for Inactive)
ROOT
ATOM      1  C1  DEN d   1       1.342  -0.222   2.103  0.00  0.00     0.130 A 
ATOM      2  C2  DEN d   1       2.523  -1.076   2.010  0.00  0.00    -0.031 A 
ATOM      3  C3  DEN d   1       2.699  -1.459   0.595  0.00  0.00     0.027 A 
ATOM      4  C4  DEN d   1       1.268  -0.811  -1.451  0.00  0.00     0.027 A 
ATOM      5  C5  DEN d   1       0.156  -0.113  -1.868  0.00  0.00    -0.003 A 
ATOM      6  C6  DEN d   1      -0.651   0.565  -0.992  0.00  0.00     0.001 A 
ATOM      7  C7  DEN d   1      -0.332   0.596   0.340  0.00  0.00     0.017 A 
ATOM      8  C8  DEN d   1       0.783  -0.112   0.768  0.00  0.00    -0.094 A 
ATOM      9  C9  DEN d   1       1.593  -0.781  -0.134  0.00  0.00    -0.072 A 
ENDROOT
TORSDOF 0
ENDMDL
