MODEL 1
REMARK minimizedAffinity -3.73696995
REMARK minimizedRMSD -1
REMARK  0 active torsions:
REMARK  status: ('A' for Active; 'I' for Inactive)
ROOT
ATOM      1  C1  DEN d   1       1.726  -1.125   0.772  0.00  0.00     0.130 A 
ATOM      2  C2  DEN d   1       1.400  -1.347   2.179  0.00  0.00    -0.031 A 
ATOM      3  C3  DEN d   1       0.069  -0.761   2.436  0.00  0.00     0.027 A 
ATOM      4  C4  DEN d   1      -1.512   0.457   0.802  0.00  0.00     0.027 A 
ATOM      5  C5  DEN d   1      -1.664   0.897  -0.494  0.00  0.00    -0.003 A 
ATOM      6  C6  DEN d   1      -0.691   0.725  -1.443  0.00  0.00     0.001 A 
ATOM      7  C7  DEN d   1       0.461   0.057  -1.121  0.00  0.00     0.017 A 
ATOM      8  C8  DEN d   1       0.625  -0.383   0.186  0.00  0.00    -0.094 A 
ATOM      9  C9  DEN d   1      -0.376  -0.211   1.127  0.00  0.00    -0.072 A 
ENDROOT
TORSDOF 0
ENDMDL
