MODEL 1
REMARK minimizedAffinity -4.00099039
REMARK minimizedRMSD -1
REMARK  0 active torsions:
REMARK  status: ('A' for Active; 'I' for Inactive)
ROOT
ATOM      1  C1  DEN d   1      -1.314   0.308   0.116  0.00  0.00     0.130 A 
ATOM      2  C2  DEN d   1      -1.178   0.458  -1.330  0.00  0.00    -0.031 A 
ATOM      3  C3  DEN d   1       0.202   0.086  -1.700  0.00  0.00     0.027 A 
ATOM      4  C4  DEN d   1       2.130  -0.709  -0.183  0.00  0.00     0.027 A 
ATOM      5  C5  DEN d   1       2.497  -0.982   1.117  0.00  0.00    -0.003 A 
ATOM      6  C6  DEN d   1       1.637  -0.813   2.169  0.00  0.00     0.001 A 
ATOM      7  C7  DEN d   1       0.351  -0.401   1.935  0.00  0.00     0.017 A 
ATOM      8  C8  DEN d   1      -0.024  -0.117   0.629  0.00  0.00    -0.094 A 
ATOM      9  C9  DEN d   1       0.857  -0.306  -0.423  0.00  0.00    -0.072 A 
ENDROOT
TORSDOF 0
ENDMDL
