MODEL 1
REMARK minimizedAffinity -2.71603489
REMARK minimizedRMSD -1
REMARK  0 active torsions:
REMARK  status: ('A' for Active; 'I' for Inactive)
ROOT
ATOM      1  C1  DEN d   1      -1.006   0.868  -0.940  0.00  0.00     0.130 A 
ATOM      2  C2  DEN d   1      -0.949   0.468  -2.344  0.00  0.00    -0.031 A 
ATOM      3  C3  DEN d   1       0.243  -0.384  -2.527  0.00  0.00     0.027 A 
ATOM      4  C4  DEN d   1       1.994  -1.123  -0.783  0.00  0.00     0.027 A 
ATOM      5  C5  DEN d   1       2.373  -1.026   0.538  0.00  0.00    -0.003 A 
ATOM      6  C6  DEN d   1       1.677  -0.270   1.443  0.00  0.00     0.001 A 
ATOM      7  C7  DEN d   1       0.539   0.384   1.050  0.00  0.00     0.017 A 
ATOM      8  C8  DEN d   1       0.155   0.297  -0.281  0.00  0.00    -0.094 A 
ATOM      9  C9  DEN d   1       0.864  -0.483  -1.179  0.00  0.00    -0.072 A 
ENDROOT
TORSDOF 0
ENDMDL
