MODEL 1
REMARK minimizedAffinity -1.22770596
REMARK minimizedRMSD -1
REMARK  0 active torsions:
REMARK  status: ('A' for Active; 'I' for Inactive)
ROOT
ATOM      1  C1  DEN d   1      -0.149  -2.512   3.207  0.00  0.00     0.130 A 
ATOM      2  C2  DEN d   1      -1.506  -3.039   3.090  0.00  0.00    -0.031 A 
ATOM      3  C3  DEN d   1      -2.233  -2.212   2.105  0.00  0.00     0.027 A 
ATOM      4  C4  DEN d   1      -1.392  -0.182   0.755  0.00  0.00     0.027 A 
ATOM      5  C5  DEN d   1      -0.314   0.644   0.524  0.00  0.00    -0.003 A 
ATOM      6  C6  DEN d   1       0.874   0.498   1.191  0.00  0.00     0.001 A 
ATOM      7  C7  DEN d   1       1.027  -0.525   2.088  0.00  0.00     0.017 A 
ATOM      8  C8  DEN d   1      -0.058  -1.358   2.332  0.00  0.00    -0.094 A 
ATOM      9  C9  DEN d   1      -1.246  -1.201   1.639  0.00  0.00    -0.072 A 
ENDROOT
TORSDOF 0
ENDMDL
