MODEL 1
REMARK minimizedAffinity -2.56091642
REMARK minimizedRMSD -1
REMARK  0 active torsions:
REMARK  status: ('A' for Active; 'I' for Inactive)
ROOT
ATOM      1  C1  DEN d   1       1.596  -1.246   2.085  0.00  0.00     0.130 A 
ATOM      2  C2  DEN d   1       0.694  -1.825   3.076  0.00  0.00    -0.031 A 
ATOM      3  C3  DEN d   1      -0.690  -1.658   2.588  0.00  0.00     0.027 A 
ATOM      4  C4  DEN d   1      -1.518  -0.569   0.402  0.00  0.00     0.027 A 
ATOM      5  C5  DEN d   1      -1.125   0.074  -0.751  0.00  0.00    -0.003 A 
ATOM      6  C6  DEN d   1       0.189   0.351  -1.021  0.00  0.00     0.001 A 
ATOM      7  C7  DEN d   1       1.162  -0.058  -0.148  0.00  0.00     0.017 A 
ATOM      8  C8  DEN d   1       0.773  -0.701   1.020  0.00  0.00    -0.094 A 
ATOM      9  C9  DEN d   1      -0.560  -0.982   1.270  0.00  0.00    -0.072 A 
ENDROOT
TORSDOF 0
ENDMDL
