MODEL 1
REMARK minimizedAffinity -5.1295743
REMARK minimizedRMSD -1
REMARK  0 active torsions:
REMARK  status: ('A' for Active; 'I' for Inactive)
ROOT
ATOM      1  C   UNL d   1      -0.915   2.816  -2.114  0.00  0.00     0.077 C 
ATOM      2  C1  UNL d   1      -0.852   2.454  -0.660  0.00  0.00    -0.074 A 
ATOM      3  C2  UNL d   1      -1.221   3.374   0.327  0.00  0.00    -0.005 A 
ATOM      4  C3  UNL d   1      -1.167   3.020   1.675  0.00  0.00     0.006 A 
ATOM      5  C4  UNL d   1      -0.744   1.745   2.049  0.00  0.00    -0.005 A 
ATOM      6  C5  UNL d   1      -0.371   0.811   1.077  0.00  0.00    -0.074 A 
ATOM      7  C6  UNL d   1       0.077  -0.568   1.462  0.00  0.00     0.077 C 
ATOM      8  C7  UNL d   1      -0.435   1.172  -0.276  0.00  0.00    -0.001 A 
ENDROOT
TORSDOF 0
ENDMDL
