MODEL 1
REMARK minimizedAffinity -4.50282049
REMARK minimizedRMSD -1
REMARK  0 active torsions:
REMARK  status: ('A' for Active; 'I' for Inactive)
ROOT
ATOM      1  C   UNL d   1      -1.432   3.264   1.737  0.00  0.00     0.077 C 
ATOM      2  C1  UNL d   1      -0.700   2.065   1.212  0.00  0.00    -0.074 A 
ATOM      3  C2  UNL d   1      -0.946   1.579  -0.076  0.00  0.00    -0.005 A 
ATOM      4  C3  UNL d   1      -0.251   0.469  -0.554  0.00  0.00     0.006 A 
ATOM      5  C4  UNL d   1       0.697  -0.166   0.250  0.00  0.00    -0.005 A 
ATOM      6  C5  UNL d   1       0.958   0.306   1.540  0.00  0.00    -0.074 A 
ATOM      7  C6  UNL d   1       1.981  -0.358   2.413  0.00  0.00     0.077 C 
ATOM      8  C7  UNL d   1       0.260   1.427   2.010  0.00  0.00    -0.001 A 
ENDROOT
TORSDOF 0
ENDMDL
