MODEL 1
REMARK minimizedAffinity -3.81284833
REMARK minimizedRMSD -1
REMARK  0 active torsions:
REMARK  status: ('A' for Active; 'I' for Inactive)
ROOT
ATOM      1  C   UNL d   1      -1.892   2.411   1.657  0.00  0.00     0.077 C 
ATOM      2  C1  UNL d   1      -0.925   1.499   0.960  0.00  0.00    -0.074 A 
ATOM      3  C2  UNL d   1      -1.063   1.212  -0.401  0.00  0.00    -0.005 A 
ATOM      4  C3  UNL d   1      -0.151   0.370  -1.038  0.00  0.00     0.006 A 
ATOM      5  C4  UNL d   1       0.906  -0.192  -0.320  0.00  0.00    -0.005 A 
ATOM      6  C5  UNL d   1       1.060   0.085   1.042  0.00  0.00    -0.074 A 
ATOM      7  C6  UNL d   1       2.195  -0.503   1.826  0.00  0.00     0.077 C 
ATOM      8  C7  UNL d   1       0.143   0.937   1.673  0.00  0.00    -0.001 A 
ENDROOT
TORSDOF 0
ENDMDL
