MODEL 1
REMARK minimizedAffinity -6.05803442
REMARK minimizedRMSD -1
REMARK  0 active torsions:
REMARK  status: ('A' for Active; 'I' for Inactive)
ROOT
ATOM      1  C   UNL d   1       0.633  -1.006  -0.792  0.00  0.00     0.077 C 
ATOM      2  C1  UNL d   1       0.107   0.193  -0.061  0.00  0.00    -0.074 A 
ATOM      3  C2  UNL d   1       0.134   0.252   1.336  0.00  0.00    -0.005 A 
ATOM      4  C3  UNL d   1      -0.350   1.378   2.001  0.00  0.00     0.006 A 
ATOM      5  C4  UNL d   1      -0.865   2.455   1.278  0.00  0.00    -0.005 A 
ATOM      6  C5  UNL d   1      -0.898   2.414  -0.120  0.00  0.00    -0.074 A 
ATOM      7  C6  UNL d   1      -1.439   3.567  -0.913  0.00  0.00     0.077 C 
ATOM      8  C7  UNL d   1      -0.404   1.282  -0.781  0.00  0.00    -0.001 A 
ENDROOT
TORSDOF 0
ENDMDL
