MODEL 1
REMARK minimizedAffinity -6.3043499
REMARK minimizedRMSD -1
REMARK  0 active torsions:
REMARK  status: ('A' for Active; 'I' for Inactive)
ROOT
ATOM      1  C   UNL d   1       0.705  -0.968   0.024  0.00  0.00     0.077 C 
ATOM      2  C1  UNL d   1       0.100   0.400  -0.083  0.00  0.00    -0.074 A 
ATOM      3  C2  UNL d   1      -0.228   0.946  -1.328  0.00  0.00    -0.005 A 
ATOM      4  C3  UNL d   1      -0.799   2.216  -1.411  0.00  0.00     0.006 A 
ATOM      5  C4  UNL d   1      -1.048   2.952  -0.252  0.00  0.00    -0.005 A 
ATOM      6  C5  UNL d   1      -0.727   2.422   1.002  0.00  0.00    -0.074 A 
ATOM      7  C6  UNL d   1      -0.997   3.195   2.259  0.00  0.00     0.077 C 
ATOM      8  C7  UNL d   1      -0.160   1.142   1.078  0.00  0.00    -0.001 A 
ENDROOT
TORSDOF 0
ENDMDL
