MODEL 1
REMARK minimizedAffinity -4.26367807
REMARK minimizedRMSD -1
REMARK  0 active torsions:
REMARK  status: ('A' for Active; 'I' for Inactive)
ROOT
ATOM      1  C   UNL d   1      -0.798   3.403   0.408  0.00  0.00     0.077 C 
ATOM      2  C1  UNL d   1      -0.398   1.993   0.728  0.00  0.00    -0.074 A 
ATOM      3  C2  UNL d   1       0.019   1.639   2.015  0.00  0.00    -0.005 A 
ATOM      4  C3  UNL d   1       0.380   0.322   2.300  0.00  0.00     0.006 A 
ATOM      5  C4  UNL d   1       0.328  -0.652   1.303  0.00  0.00    -0.005 A 
ATOM      6  C5  UNL d   1      -0.087  -0.317   0.010  0.00  0.00    -0.074 A 
ATOM      7  C6  UNL d   1      -0.158  -1.354  -1.071  0.00  0.00     0.077 C 
ATOM      8  C7  UNL d   1      -0.455   1.007  -0.267  0.00  0.00    -0.001 A 
ENDROOT
TORSDOF 0
ENDMDL
