MODEL 1
REMARK minimizedAffinity -5.39158106
REMARK minimizedRMSD -1
REMARK  0 active torsions:
REMARK  status: ('A' for Active; 'I' for Inactive)
ROOT
ATOM      1  C   UNL d   1       0.410  -1.278  -0.803  0.00  0.00     0.077 C 
ATOM      2  C1  UNL d   1       0.064  -0.001  -0.096  0.00  0.00    -0.074 A 
ATOM      3  C2  UNL d   1       0.271   0.137   1.280  0.00  0.00    -0.005 A 
ATOM      4  C3  UNL d   1      -0.046   1.334   1.922  0.00  0.00     0.006 A 
ATOM      5  C4  UNL d   1      -0.573   2.403   1.196  0.00  0.00    -0.005 A 
ATOM      6  C5  UNL d   1      -0.786   2.284  -0.181  0.00  0.00    -0.074 A 
ATOM      7  C6  UNL d   1      -1.342   3.426  -0.978  0.00  0.00     0.077 C 
ATOM      8  C7  UNL d   1      -0.458   1.080  -0.820  0.00  0.00    -0.001 A 
ENDROOT
TORSDOF 0
ENDMDL
