MODEL 1
REMARK minimizedAffinity -5.52432823
REMARK minimizedRMSD -1
REMARK  0 active torsions:
REMARK  status: ('A' for Active; 'I' for Inactive)
ROOT
ATOM      1  C   UNL d   1       0.180  -1.087  -0.732  0.00  0.00     0.077 C 
ATOM      2  C1  UNL d   1      -0.024   0.019   0.261  0.00  0.00    -0.074 A 
ATOM      3  C2  UNL d   1       0.334  -0.145   1.603  0.00  0.00    -0.005 A 
ATOM      4  C3  UNL d   1       0.147   0.896   2.512  0.00  0.00     0.006 A 
ATOM      5  C4  UNL d   1      -0.400   2.108   2.090  0.00  0.00    -0.005 A 
ATOM      6  C5  UNL d   1      -0.763   2.291   0.752  0.00  0.00    -0.074 A 
ATOM      7  C6  UNL d   1      -1.342   3.591   0.280  0.00  0.00     0.077 C 
ATOM      8  C7  UNL d   1      -0.565   1.243  -0.157  0.00  0.00    -0.001 A 
ENDROOT
TORSDOF 0
ENDMDL
