MODEL 1
REMARK minimizedAffinity -4.95081043
REMARK minimizedRMSD -1
REMARK  0 active torsions:
REMARK  status: ('A' for Active; 'I' for Inactive)
ROOT
ATOM      1  C   UNL d   1       0.738  -0.514   1.323  0.00  0.00     0.077 C 
ATOM      2  C1  UNL d   1       0.185   0.824   0.934  0.00  0.00    -0.074 A 
ATOM      3  C2  UNL d   1      -0.126   1.783   1.903  0.00  0.00    -0.005 A 
ATOM      4  C3  UNL d   1      -0.632   3.027   1.525  0.00  0.00     0.006 A 
ATOM      5  C4  UNL d   1      -0.830   3.325   0.176  0.00  0.00    -0.005 A 
ATOM      6  C5  UNL d   1      -0.524   2.379  -0.807  0.00  0.00    -0.074 A 
ATOM      7  C6  UNL d   1      -0.722   2.686  -2.262  0.00  0.00     0.077 C 
ATOM      8  C7  UNL d   1      -0.010   1.134  -0.420  0.00  0.00    -0.001 A 
ENDROOT
TORSDOF 0
ENDMDL
