MODEL 1
REMARK minimizedAffinity 1.83906603
REMARK minimizedRMSD -1
REMARK  0 active torsions:
REMARK  status: ('A' for Active; 'I' for Inactive)
ROOT
ATOM      1  O1  BZF d   1       1.963   1.522  -1.680  0.00  0.00    -0.204 OA
ATOM      2  C2  BZF d   1       2.255   2.292  -0.571  0.00  0.00     0.174 A 
ATOM      3  C3  BZF d   1       1.500   1.919   0.483  0.00  0.00    -0.012 A 
ATOM      4  C3A BZF d   1       0.752   0.787   0.027  0.00  0.00    -0.107 A 
ATOM      5  C4  BZF d   1      -0.162  -0.035   0.622  0.00  0.00     0.055 A 
ATOM      6  C5  BZF d   1      -0.762  -1.002  -0.121  0.00  0.00    -0.016 A 
ATOM      7  C6  BZF d   1      -0.476  -1.171  -1.460  0.00  0.00     0.022 A 
ATOM      8  C7  BZF d   1       0.427  -0.384  -2.092  0.00  0.00     0.029 A 
ATOM      9  C7A BZF d   1       1.059   0.573  -1.336  0.00  0.00     0.058 A 
ENDROOT
TORSDOF 0
ENDMDL
