MODEL 1
REMARK minimizedAffinity -2.74675059
REMARK minimizedRMSD -1
REMARK  0 active torsions:
REMARK  status: ('A' for Active; 'I' for Inactive)
ROOT
ATOM      1  O1  BZF d   1      -3.860   4.116  -5.968  0.00  0.00    -0.204 OA
ATOM      2  C2  BZF d   1      -5.202   4.443  -5.952  0.00  0.00     0.174 A 
ATOM      3  C3  BZF d   1      -5.965   3.332  -5.996  0.00  0.00    -0.012 A 
ATOM      4  C3A BZF d   1      -5.043   2.239  -5.949  0.00  0.00    -0.107 A 
ATOM      5  C4  BZF d   1      -5.194   0.882  -5.946  0.00  0.00     0.055 A 
ATOM      6  C5  BZF d   1      -4.087   0.094  -5.969  0.00  0.00    -0.016 A 
ATOM      7  C6  BZF d   1      -2.816   0.628  -6.000  0.00  0.00     0.022 A 
ATOM      8  C7  BZF d   1      -2.615   1.969  -5.999  0.00  0.00     0.029 A 
ATOM      9  C7A BZF d   1      -3.731   2.768  -5.943  0.00  0.00     0.058 A 
ENDROOT
TORSDOF 0
ENDMDL
