MODEL 1
REMARK minimizedAffinity -1.28896725
REMARK minimizedRMSD -1
REMARK  0 active torsions:
REMARK  status: ('A' for Active; 'I' for Inactive)
ROOT
ATOM      1  O1  BZF d   1      -1.125   3.660  -5.966  0.00  0.00    -0.204 OA
ATOM      2  C2  BZF d   1      -1.690   4.921  -5.954  0.00  0.00     0.174 A 
ATOM      3  C3  BZF d   1      -3.035   4.843  -5.997  0.00  0.00    -0.012 A 
ATOM      4  C3A BZF d   1      -3.333   3.445  -5.945  0.00  0.00    -0.107 A 
ATOM      5  C4  BZF d   1      -4.498   2.733  -5.938  0.00  0.00     0.055 A 
ATOM      6  C5  BZF d   1      -4.443   1.375  -5.955  0.00  0.00    -0.016 A 
ATOM      7  C6  BZF d   1      -3.241   0.698  -5.984  0.00  0.00     0.022 A 
ATOM      8  C7  BZF d   1      -2.059   1.361  -5.987  0.00  0.00     0.029 A 
ATOM      9  C7A BZF d   1      -2.112   2.732  -5.936  0.00  0.00     0.058 A 
ENDROOT
TORSDOF 0
ENDMDL
