MODEL 1
REMARK minimizedAffinity 0.665960968
REMARK minimizedRMSD -1
REMARK  0 active torsions:
REMARK  status: ('A' for Active; 'I' for Inactive)
ROOT
ATOM      1  O1  BZF d   1      -3.880   4.928  -5.937  0.00  0.00    -0.204 OA
ATOM      2  C2  BZF d   1      -5.244   5.146  -5.932  0.00  0.00     0.174 A 
ATOM      3  C3  BZF d   1      -5.915   3.978  -5.999  0.00  0.00    -0.012 A 
ATOM      4  C3A BZF d   1      -4.909   2.962  -5.955  0.00  0.00    -0.107 A 
ATOM      5  C4  BZF d   1      -4.951   1.597  -5.971  0.00  0.00     0.055 A 
ATOM      6  C5  BZF d   1      -3.784   0.901  -5.990  0.00  0.00    -0.016 A 
ATOM      7  C6  BZF d   1      -2.559   1.535  -6.000  0.00  0.00     0.022 A 
ATOM      8  C7  BZF d   1      -2.467   2.887  -5.980  0.00  0.00     0.029 A 
ATOM      9  C7A BZF d   1      -3.644   3.594  -5.927  0.00  0.00     0.058 A 
ENDROOT
TORSDOF 0
ENDMDL
