MODEL 1
REMARK minimizedAffinity 7.59757185
REMARK minimizedRMSD -1
REMARK  0 active torsions:
REMARK  status: ('A' for Active; 'I' for Inactive)
ROOT
ATOM      1  O1  BZF d   1       1.625  -0.805  -1.136  0.00  0.00    -0.204 OA
ATOM      2  C2  BZF d   1       0.605  -1.195  -0.291  0.00  0.00     0.174 A 
ATOM      3  C3  BZF d   1       0.361  -0.246   0.636  0.00  0.00    -0.012 A 
ATOM      4  C3A BZF d   1       1.224   0.843   0.294  0.00  0.00    -0.107 A 
ATOM      5  C4  BZF d   1       1.431   2.082   0.832  0.00  0.00     0.055 A 
ATOM      6  C5  BZF d   1       2.398   2.877   0.305  0.00  0.00    -0.016 A 
ATOM      7  C6  BZF d   1       3.180   2.465  -0.755  0.00  0.00     0.022 A 
ATOM      8  C7  BZF d   1       3.008   1.248  -1.325  0.00  0.00     0.029 A 
ATOM      9  C7A BZF d   1       2.009   0.454  -0.816  0.00  0.00     0.058 A 
ENDROOT
TORSDOF 0
ENDMDL
