MODEL 1
REMARK minimizedAffinity 2.08352447
REMARK minimizedRMSD -1
REMARK  0 active torsions:
REMARK  status: ('A' for Active; 'I' for Inactive)
ROOT
ATOM      1  O1  BZF d   1      -4.683   5.204  -5.958  0.00  0.00    -0.204 OA
ATOM      2  C2  BZF d   1      -5.980   4.732  -5.923  0.00  0.00     0.174 A 
ATOM      3  C3  BZF d   1      -6.000   3.383  -5.949  0.00  0.00    -0.012 A 
ATOM      4  C3A BZF d   1      -4.626   2.987  -5.909  0.00  0.00    -0.107 A 
ATOM      5  C4  BZF d   1      -3.999   1.773  -5.895  0.00  0.00     0.055 A 
ATOM      6  C5  BZF d   1      -2.641   1.731  -5.929  0.00  0.00    -0.016 A 
ATOM      7  C6  BZF d   1      -1.880   2.881  -5.983  0.00  0.00     0.022 A 
ATOM      8  C7  BZF d   1      -2.456   4.107  -5.993  0.00  0.00     0.029 A 
ATOM      9  C7A BZF d   1      -3.828   4.154  -5.926  0.00  0.00     0.058 A 
ENDROOT
TORSDOF 0
ENDMDL
