MODEL 1
REMARK minimizedAffinity -1.7116183
REMARK minimizedRMSD -1
REMARK  0 active torsions:
REMARK  status: ('A' for Active; 'I' for Inactive)
ROOT
ATOM      1  O1  BZF d   1      -5.899   2.157  -5.968  0.00  0.00    -0.204 OA
ATOM      2  C2  BZF d   1      -4.873   1.232  -5.954  0.00  0.00     0.174 A 
ATOM      3  C3  BZF d   1      -3.674   1.847  -5.999  0.00  0.00    -0.012 A 
ATOM      4  C3A BZF d   1      -3.967   3.247  -5.949  0.00  0.00    -0.107 A 
ATOM      5  C4  BZF d   1      -3.189   4.369  -5.946  0.00  0.00     0.055 A 
ATOM      6  C5  BZF d   1      -3.789   5.589  -5.966  0.00  0.00    -0.016 A 
ATOM      7  C6  BZF d   1      -5.162   5.722  -5.995  0.00  0.00     0.022 A 
ATOM      8  C7  BZF d   1      -5.975   4.638  -5.994  0.00  0.00     0.029 A 
ATOM      9  C7A BZF d   1      -5.372   3.404  -5.941  0.00  0.00     0.058 A 
ENDROOT
TORSDOF 0
ENDMDL
