MODEL 1
REMARK minimizedAffinity 6.6272049
REMARK minimizedRMSD -1
REMARK  0 active torsions:
REMARK  status: ('A' for Active; 'I' for Inactive)
ROOT
ATOM      1  O1  BZF d   1      -5.419   3.395  -5.926  0.00  0.00    -0.204 OA
ATOM      2  C2  BZF d   1      -4.700   4.575  -5.911  0.00  0.00     0.174 A 
ATOM      3  C3  BZF d   1      -3.375   4.328  -5.875  0.00  0.00    -0.012 A 
ATOM      4  C3A BZF d   1      -3.256   2.904  -5.960  0.00  0.00    -0.107 A 
ATOM      5  C4  BZF d   1      -2.189   2.052  -5.986  0.00  0.00     0.055 A 
ATOM      6  C5  BZF d   1      -2.416   0.712  -6.000  0.00  0.00    -0.016 A 
ATOM      7  C6  BZF d   1      -3.693   0.191  -5.981  0.00  0.00     0.022 A 
ATOM      8  C7  BZF d   1      -4.782   0.997  -5.960  0.00  0.00     0.029 A 
ATOM      9  C7A BZF d   1      -4.557   2.352  -5.980  0.00  0.00     0.058 A 
ENDROOT
TORSDOF 0
ENDMDL
