MODEL 1
REMARK minimizedAffinity 5.35185194
REMARK minimizedRMSD -1
REMARK  0 active torsions:
REMARK  status: ('A' for Active; 'I' for Inactive)
ROOT
ATOM      1  O1  BZF d   1      -2.192   0.301  -5.941  0.00  0.00    -0.204 OA
ATOM      2  C2  BZF d   1      -1.507   1.500  -5.935  0.00  0.00     0.174 A 
ATOM      3  C3  BZF d   1      -2.363   2.540  -5.998  0.00  0.00    -0.012 A 
ATOM      4  C3A BZF d   1      -3.668   1.957  -5.954  0.00  0.00    -0.107 A 
ATOM      5  C4  BZF d   1      -4.931   2.478  -5.967  0.00  0.00     0.055 A 
ATOM      6  C5  BZF d   1      -5.994   1.632  -5.987  0.00  0.00    -0.016 A 
ATOM      7  C6  BZF d   1      -5.832   0.262  -6.000  0.00  0.00     0.022 A 
ATOM      8  C7  BZF d   1      -4.600  -0.302  -5.982  0.00  0.00     0.029 A 
ATOM      9  C7A BZF d   1      -3.523   0.550  -5.929  0.00  0.00     0.058 A 
ENDROOT
TORSDOF 0
ENDMDL
