MODEL 1
REMARK minimizedAffinity -0.577823639
REMARK minimizedRMSD -1
REMARK  0 active torsions:
REMARK  status: ('A' for Active; 'I' for Inactive)
ROOT
ATOM      1  O1  BZF d   1      -3.056   5.069  -5.870  0.00  0.00    -0.204 OA
ATOM      2  C2  BZF d   1      -4.417   5.307  -5.894  0.00  0.00     0.174 A 
ATOM      3  C3  BZF d   1      -5.103   4.151  -6.000  0.00  0.00    -0.012 A 
ATOM      4  C3A BZF d   1      -4.113   3.120  -5.952  0.00  0.00    -0.107 A 
ATOM      5  C4  BZF d   1      -4.175   1.756  -5.995  0.00  0.00     0.055 A 
ATOM      6  C5  BZF d   1      -3.018   1.043  -6.000  0.00  0.00    -0.016 A 
ATOM      7  C6  BZF d   1      -1.785   1.659  -5.968  0.00  0.00     0.022 A 
ATOM      8  C7  BZF d   1      -1.673   3.009  -5.919  0.00  0.00     0.029 A 
ATOM      9  C7A BZF d   1      -2.840   3.732  -5.881  0.00  0.00     0.058 A 
ENDROOT
TORSDOF 0
ENDMDL
