MODEL 1
REMARK minimizedAffinity -3.41963673
REMARK minimizedRMSD -1
REMARK  0 active torsions:
REMARK  status: ('A' for Active; 'I' for Inactive)
ROOT
ATOM      1  O1  BZF d   1      -2.999   3.660  -5.912  0.00  0.00    -0.204 OA
ATOM      2  C2  BZF d   1      -4.265   4.214  -5.911  0.00  0.00     0.174 A 
ATOM      3  C3  BZF d   1      -5.207   3.252  -5.990  0.00  0.00    -0.012 A 
ATOM      4  C3A BZF d   1      -4.488   2.016  -5.951  0.00  0.00    -0.107 A 
ATOM      5  C4  BZF d   1      -4.871   0.706  -5.979  0.00  0.00     0.055 A 
ATOM      6  C5  BZF d   1      -3.916  -0.261  -6.000  0.00  0.00    -0.016 A 
ATOM      7  C6  BZF d   1      -2.571   0.046  -5.999  0.00  0.00     0.022 A 
ATOM      8  C7  BZF d   1      -2.143   1.331  -5.967  0.00  0.00     0.029 A 
ATOM      9  C7A BZF d   1      -3.105   2.310  -5.913  0.00  0.00     0.058 A 
ENDROOT
TORSDOF 0
ENDMDL
