MODEL 1
REMARK minimizedAffinity -3.61532831
REMARK minimizedRMSD -1
REMARK  0 active torsions:
REMARK  status: ('A' for Active; 'I' for Inactive)
ROOT
ATOM      1  O1  BZF d   1      -3.846   4.165  -5.920  0.00  0.00    -0.204 OA
ATOM      2  C2  BZF d   1      -5.180   4.524  -5.921  0.00  0.00     0.174 A 
ATOM      3  C3  BZF d   1      -5.969   3.432  -5.999  0.00  0.00    -0.012 A 
ATOM      4  C3A BZF d   1      -5.073   2.317  -5.957  0.00  0.00    -0.107 A 
ATOM      5  C4  BZF d   1      -5.257   0.964  -5.982  0.00  0.00     0.055 A 
ATOM      6  C5  BZF d   1      -4.169   0.150  -6.000  0.00  0.00    -0.016 A 
ATOM      7  C6  BZF d   1      -2.885   0.655  -5.999  0.00  0.00     0.022 A 
ATOM      8  C7  BZF d   1      -2.653   1.990  -5.969  0.00  0.00     0.029 A 
ATOM      9  C7A BZF d   1      -3.750   2.814  -5.918  0.00  0.00     0.058 A 
ENDROOT
TORSDOF 0
ENDMDL
