MODEL 1
REMARK minimizedAffinity 3.8932569
REMARK minimizedRMSD -1
REMARK  0 active torsions:
REMARK  status: ('A' for Active; 'I' for Inactive)
ROOT
ATOM      1  O1  BZF d   1       1.491   1.798   0.201  0.00  0.00    -0.204 OA
ATOM      2  C2  BZF d   1       0.631   2.084   1.244  0.00  0.00     0.174 A 
ATOM      3  C3  BZF d   1      -0.299   1.117   1.375  0.00  0.00    -0.012 A 
ATOM      4  C3A BZF d   1       0.053   0.121   0.410  0.00  0.00    -0.107 A 
ATOM      5  C4  BZF d   1      -0.483  -1.088   0.070  0.00  0.00     0.055 A 
ATOM      6  C5  BZF d   1       0.057  -1.781  -0.967  0.00  0.00    -0.016 A 
ATOM      7  C6  BZF d   1       1.129  -1.294  -1.686  0.00  0.00     0.022 A 
ATOM      8  C7  BZF d   1       1.697  -0.102  -1.383  0.00  0.00     0.029 A 
ATOM      9  C7A BZF d   1       1.175   0.586  -0.315  0.00  0.00     0.058 A 
ENDROOT
TORSDOF 0
ENDMDL
