MODEL 1
REMARK minimizedAffinity 7.19895983
REMARK minimizedRMSD -1
REMARK  0 active torsions:
REMARK  status: ('A' for Active; 'I' for Inactive)
ROOT
ATOM      1  O1  BZF d   1       1.804   0.823   0.060  0.00  0.00    -0.204 OA
ATOM      2  C2  BZF d   1       0.992   0.679   1.169  0.00  0.00     0.174 A 
ATOM      3  C3  BZF d   1      -0.088  -0.074   0.876  0.00  0.00    -0.012 A 
ATOM      4  C3A BZF d   1       0.105  -0.499  -0.477  0.00  0.00    -0.107 A 
ATOM      5  C4  BZF d   1      -0.620  -1.284  -1.327  0.00  0.00     0.055 A 
ATOM      6  C5  BZF d   1      -0.191  -1.443  -2.606  0.00  0.00    -0.016 A 
ATOM      7  C6  BZF d   1       0.954  -0.830  -3.070  0.00  0.00     0.022 A 
ATOM      8  C7  BZF d   1       1.710  -0.046  -2.262  0.00  0.00     0.029 A 
ATOM      9  C7A BZF d   1       1.296   0.090  -0.960  0.00  0.00     0.058 A 
ENDROOT
TORSDOF 0
ENDMDL
