MODEL 1
REMARK minimizedAffinity 0.29272911
REMARK minimizedRMSD -1
REMARK  0 active torsions:
REMARK  status: ('A' for Active; 'I' for Inactive)
ROOT
ATOM      1  O1  BZF d   1      -4.737   1.302  -6.000  0.00  0.00    -0.204 OA
ATOM      2  C2  BZF d   1      -3.794   0.293  -5.983  0.00  0.00     0.174 A 
ATOM      3  C3  BZF d   1      -2.546   0.803  -5.999  0.00  0.00    -0.012 A 
ATOM      4  C3A BZF d   1      -2.719   2.222  -5.934  0.00  0.00    -0.107 A 
ATOM      5  C4  BZF d   1      -1.848   3.274  -5.901  0.00  0.00     0.055 A 
ATOM      6  C5  BZF d   1      -2.341   4.540  -5.913  0.00  0.00    -0.016 A 
ATOM      7  C6  BZF d   1      -3.697   4.791  -5.963  0.00  0.00     0.022 A 
ATOM      8  C7  BZF d   1      -4.600   3.780  -5.991  0.00  0.00     0.029 A 
ATOM      9  C7A BZF d   1      -4.106   2.500  -5.946  0.00  0.00     0.058 A 
ENDROOT
TORSDOF 0
ENDMDL
