MODEL 1
REMARK minimizedAffinity -1.73852217
REMARK minimizedRMSD -1
REMARK  0 active torsions:
REMARK  status: ('A' for Active; 'I' for Inactive)
ROOT
ATOM      1  O1  BZF d   1      -1.783   2.353  -5.625  0.00  0.00    -0.204 OA
ATOM      2  C2  BZF d   1      -0.772   3.292  -5.564  0.00  0.00     0.174 A 
ATOM      3  C3  BZF d   1      -1.267   4.539  -5.703  0.00  0.00    -0.012 A 
ATOM      4  C3A BZF d   1      -2.687   4.374  -5.769  0.00  0.00    -0.107 A 
ATOM      5  C4  BZF d   1      -3.728   5.249  -5.892  0.00  0.00     0.055 A 
ATOM      6  C5  BZF d   1      -4.992   4.761  -6.000  0.00  0.00    -0.016 A 
ATOM      7  C6  BZF d   1      -5.249   3.405  -5.994  0.00  0.00     0.022 A 
ATOM      8  C7  BZF d   1      -4.249   2.499  -5.870  0.00  0.00     0.029 A 
ATOM      9  C7A BZF d   1      -2.974   2.991  -5.727  0.00  0.00     0.058 A 
ENDROOT
TORSDOF 0
ENDMDL
