MODEL 1
REMARK minimizedAffinity 1.19086123
REMARK minimizedRMSD -1
REMARK  0 active torsions:
REMARK  status: ('A' for Active; 'I' for Inactive)
ROOT
ATOM      1  O1  BZF d   1       2.525   1.948  -0.117  0.00  0.00    -0.204 OA
ATOM      2  C2  BZF d   1       1.789   2.323   0.991  0.00  0.00     0.174 A 
ATOM      3  C3  BZF d   1       0.613   1.664   1.030  0.00  0.00    -0.012 A 
ATOM      4  C3A BZF d   1       0.653   0.758  -0.077  0.00  0.00    -0.107 A 
ATOM      5  C4  BZF d   1      -0.219  -0.177  -0.556  0.00  0.00     0.055 A 
ATOM      6  C5  BZF d   1       0.090  -0.843  -1.700  0.00  0.00    -0.016 A 
ATOM      7  C6  BZF d   1       1.257  -0.596  -2.391  0.00  0.00     0.022 A 
ATOM      8  C7  BZF d   1       2.155   0.319  -1.952  0.00  0.00     0.029 A 
ATOM      9  C7A BZF d   1       1.862   0.970  -0.779  0.00  0.00     0.058 A 
ENDROOT
TORSDOF 0
ENDMDL
