MODEL 1
REMARK minimizedAffinity -4.10801172
REMARK minimizedRMSD -1
REMARK  3 active torsions:
REMARK  status: ('A' for Active; 'I' for Inactive)
REMARK    1  A    between atoms: C3'_2  and  C2'_3 
REMARK    2  A    between atoms: C2'_3  and  C1'_4 
REMARK    3  A    between atoms: C1'_4  and  C1_5 
ROOT
ATOM      1  C1  N4B d   1       0.008   0.529   0.473  0.00  0.00    -0.075 A 
ATOM      2  C2  N4B d   1       0.413   1.814   0.897  0.00  0.00     0.002 A 
ATOM      3  C3  N4B d   1       0.440   2.856   0.002  0.00  0.00     0.002 A 
ATOM      4  C4  N4B d   1       0.086   2.633  -1.320  0.00  0.00    -0.004 A 
ATOM      5  C5  N4B d   1      -0.329   1.395  -1.716  0.00  0.00     0.002 A 
ATOM      6  C6  N4B d   1      -0.364   0.340  -0.827  0.00  0.00     0.002 A 
ENDROOT
BRANCH   1   7
ATOM      7  C1' N4B d   1       0.044  -0.659   1.394  0.00  0.00     0.057 C 
BRANCH   7   8
ATOM      8  C2' N4B d   1      -1.372  -1.195   1.576  0.00  0.00     0.009 C 
BRANCH   8   9
ATOM      9  C3' N4B d   1      -1.432  -2.706   1.424  0.00  0.00     0.004 C 
ATOM     10  C4' N4B d   1      -2.342  -3.142   0.314  0.00  0.00     0.003 C 
ENDBRANCH   8   9
ENDBRANCH   7   8
ENDBRANCH   1   7
TORSDOF 3
ENDMDL
