MODEL 1
REMARK minimizedAffinity -5.68417692
REMARK minimizedRMSD -1
REMARK  3 active torsions:
REMARK  status: ('A' for Active; 'I' for Inactive)
REMARK    1  A    between atoms: C3'_2  and  C2'_3 
REMARK    2  A    between atoms: C2'_3  and  C1'_4 
REMARK    3  A    between atoms: C1'_4  and  C1_5 
ROOT
ATOM      1  C1  N4B d   1      -0.416  -0.088   0.203  0.00  0.00    -0.075 A 
ATOM      2  C2  N4B d   1       0.697  -0.772  -0.334  0.00  0.00     0.002 A 
ATOM      3  C3  N4B d   1       0.835  -2.123  -0.136  0.00  0.00     0.002 A 
ATOM      4  C4  N4B d   1      -0.114  -2.807   0.610  0.00  0.00    -0.004 A 
ATOM      5  C5  N4B d   1      -1.199  -2.144   1.104  0.00  0.00     0.002 A 
ATOM      6  C6  N4B d   1      -1.352  -0.786   0.909  0.00  0.00     0.002 A 
ENDROOT
BRANCH   1   7
ATOM      7  C1' N4B d   1      -0.564   1.404   0.085  0.00  0.00     0.057 C 
BRANCH   7   8
ATOM      8  C2' N4B d   1       0.809   2.027  -0.143  0.00  0.00     0.009 C 
BRANCH   8   9
ATOM      9  C3' N4B d   1       1.565   2.231   1.159  0.00  0.00     0.004 C 
ATOM     10  C4' N4B d   1       3.042   2.389   0.955  0.00  0.00     0.003 C 
ENDBRANCH   8   9
ENDBRANCH   7   8
ENDBRANCH   1   7
TORSDOF 3
ENDMDL
