MODEL 1
REMARK minimizedAffinity -4.13557339
REMARK minimizedRMSD -1
REMARK  3 active torsions:
REMARK  status: ('A' for Active; 'I' for Inactive)
REMARK    1  A    between atoms: C3'_2  and  C2'_3 
REMARK    2  A    between atoms: C2'_3  and  C1'_4 
REMARK    3  A    between atoms: C1'_4  and  C1_5 
ROOT
ATOM      1  C1  N4B d   1      -0.525  -0.790   0.944  0.00  0.00    -0.075 A 
ATOM      2  C2  N4B d   1      -1.208  -1.862   0.330  0.00  0.00     0.002 A 
ATOM      3  C3  N4B d   1      -1.093  -3.132   0.840  0.00  0.00     0.002 A 
ATOM      4  C4  N4B d   1      -0.288  -3.356   1.947  0.00  0.00    -0.004 A 
ATOM      5  C5  N4B d   1       0.349  -2.311   2.550  0.00  0.00     0.002 A 
ATOM      6  C6  N4B d   1       0.238  -1.029   2.050  0.00  0.00     0.002 A 
ENDROOT
BRANCH   1   7
ATOM      7  C1' N4B d   1      -0.552   0.601   0.372  0.00  0.00     0.057 C 
BRANCH   7   8
ATOM      8  C2' N4B d   1       0.824   1.239   0.541  0.00  0.00     0.009 C 
BRANCH   8   9
ATOM      9  C3' N4B d   1       0.737   2.623   1.160  0.00  0.00     0.004 C 
ATOM     10  C4' N4B d   1       0.702   2.587   2.659  0.00  0.00     0.003 C 
ENDBRANCH   8   9
ENDBRANCH   7   8
ENDBRANCH   1   7
TORSDOF 3
ENDMDL
