MODEL 1
REMARK minimizedAffinity -3.45057535
REMARK minimizedRMSD -1
REMARK  3 active torsions:
REMARK  status: ('A' for Active; 'I' for Inactive)
REMARK    1  A    between atoms: C3'_2  and  C2'_3 
REMARK    2  A    between atoms: C2'_3  and  C1'_4 
REMARK    3  A    between atoms: C1'_4  and  C1_5 
ROOT
ATOM      1  C1  N4B d   1       0.353   0.365  -0.149  0.00  0.00    -0.075 A 
ATOM      2  C2  N4B d   1      -0.492   0.202   0.970  0.00  0.00     0.002 A 
ATOM      3  C3  N4B d   1      -0.891  -1.056   1.351  0.00  0.00     0.002 A 
ATOM      4  C4  N4B d   1      -0.473  -2.159   0.621  0.00  0.00    -0.004 A 
ATOM      5  C5  N4B d   1       0.364  -1.994  -0.443  0.00  0.00     0.002 A 
ATOM      6  C6  N4B d   1       0.776  -0.736  -0.835  0.00  0.00     0.002 A 
ENDROOT
BRANCH   1   7
ATOM      7  C1' N4B d   1       0.745   1.726  -0.656  0.00  0.00     0.057 C 
BRANCH   7   8
ATOM      8  C2' N4B d   1       1.471   2.483   0.452  0.00  0.00     0.009 C 
BRANCH   8   9
ATOM      9  C3' N4B d   1       2.865   2.914   0.028  0.00  0.00     0.004 C 
ATOM     10  C4' N4B d   1       2.866   3.706  -1.245  0.00  0.00     0.003 C 
ENDBRANCH   8   9
ENDBRANCH   7   8
ENDBRANCH   1   7
TORSDOF 3
ENDMDL
