MODEL 1
REMARK minimizedAffinity -6.17013884
REMARK minimizedRMSD -1
REMARK  3 active torsions:
REMARK  status: ('A' for Active; 'I' for Inactive)
REMARK    1  A    between atoms: C3'_2  and  C2'_3 
REMARK    2  A    between atoms: C2'_3  and  C1'_4 
REMARK    3  A    between atoms: C1'_4  and  C1_5 
ROOT
ATOM      1  C1  N4B d   1      -0.005  -0.525  -0.019  0.00  0.00    -0.075 A 
ATOM      2  C2  N4B d   1      -1.043  -0.758   0.909  0.00  0.00     0.002 A 
ATOM      3  C3  N4B d   1      -1.248  -2.022   1.406  0.00  0.00     0.002 A 
ATOM      4  C4  N4B d   1      -0.444  -3.067   0.977  0.00  0.00    -0.004 A 
ATOM      5  C5  N4B d   1       0.573  -2.828   0.100  0.00  0.00     0.002 A 
ATOM      6  C6  N4B d   1       0.794  -1.562  -0.405  0.00  0.00     0.002 A 
ENDROOT
BRANCH   1   7
ATOM      7  C1' N4B d   1       0.204   0.822  -0.655  0.00  0.00     0.057 C 
BRANCH   7   8
ATOM      8  C2' N4B d   1       0.620   1.824   0.419  0.00  0.00     0.009 C 
BRANCH   8   9
ATOM      9  C3' N4B d   1       1.524   2.911  -0.138  0.00  0.00     0.004 C 
ATOM     10  C4' N4B d   1       2.814   3.035   0.617  0.00  0.00     0.003 C 
ENDBRANCH   8   9
ENDBRANCH   7   8
ENDBRANCH   1   7
TORSDOF 3
ENDMDL
