MODEL 1
REMARK minimizedAffinity -2.58965921
REMARK minimizedRMSD -1
REMARK  3 active torsions:
REMARK  status: ('A' for Active; 'I' for Inactive)
REMARK    1  A    between atoms: C3'_2  and  C2'_3 
REMARK    2  A    between atoms: C2'_3  and  C1'_4 
REMARK    3  A    between atoms: C1'_4  and  C1_5 
ROOT
ATOM      1  C1  N4B d   1      -0.398  -0.160  -0.052  0.00  0.00    -0.075 A 
ATOM      2  C2  N4B d   1      -0.062  -1.326  -0.774  0.00  0.00     0.002 A 
ATOM      3  C3  N4B d   1      -0.333  -2.564  -0.245  0.00  0.00     0.002 A 
ATOM      4  C4  N4B d   1      -0.920  -2.660   1.008  0.00  0.00    -0.004 A 
ATOM      5  C5  N4B d   1      -1.266  -1.529   1.688  0.00  0.00     0.002 A 
ATOM      6  C6  N4B d   1      -1.003  -0.278   1.167  0.00  0.00     0.002 A 
ENDROOT
BRANCH   1   7
ATOM      7  C1' N4B d   1      -0.044   1.214  -0.551  0.00  0.00     0.057 C 
BRANCH   7   8
ATOM      8  C2' N4B d   1       1.032   1.813   0.351  0.00  0.00     0.009 C 
BRANCH   8   9
ATOM      9  C3' N4B d   1       1.357   3.247  -0.028  0.00  0.00     0.004 C 
ATOM     10  C4' N4B d   1       2.824   3.474  -0.238  0.00  0.00     0.003 C 
ENDBRANCH   8   9
ENDBRANCH   7   8
ENDBRANCH   1   7
TORSDOF 3
ENDMDL
