MODEL 1
REMARK minimizedAffinity -5.09585238
REMARK minimizedRMSD -1
REMARK  3 active torsions:
REMARK  status: ('A' for Active; 'I' for Inactive)
REMARK    1  A    between atoms: C3'_2  and  C2'_3 
REMARK    2  A    between atoms: C2'_3  and  C1'_4 
REMARK    3  A    between atoms: C1'_4  and  C1_5 
ROOT
ATOM      1  C1  N4B d   1      -0.333  -0.524   0.395  0.00  0.00    -0.075 A 
ATOM      2  C2  N4B d   1      -1.591  -1.097   0.686  0.00  0.00     0.002 A 
ATOM      3  C3  N4B d   1      -1.701  -2.452   0.875  0.00  0.00     0.002 A 
ATOM      4  C4  N4B d   1      -0.575  -3.254   0.760  0.00  0.00    -0.004 A 
ATOM      5  C5  N4B d   1       0.641  -2.690   0.504  0.00  0.00     0.002 A 
ATOM      6  C6  N4B d   1       0.766  -1.329   0.315  0.00  0.00     0.002 A 
ENDROOT
BRANCH   1   7
ATOM      7  C1' N4B d   1      -0.178   0.942   0.096  0.00  0.00     0.057 C 
BRANCH   7   8
ATOM      8  C2' N4B d   1       1.160   1.427   0.646  0.00  0.00     0.009 C 
BRANCH   8   9
ATOM      9  C3' N4B d   1       0.995   2.192   1.948  0.00  0.00     0.004 C 
ATOM     10  C4' N4B d   1       0.544   1.320   3.081  0.00  0.00     0.003 C 
ENDBRANCH   8   9
ENDBRANCH   7   8
ENDBRANCH   1   7
TORSDOF 3
ENDMDL
