MODEL 1
REMARK minimizedAffinity -4.12762117
REMARK minimizedRMSD -1
REMARK  3 active torsions:
REMARK  status: ('A' for Active; 'I' for Inactive)
REMARK    1  A    between atoms: C3'_2  and  C2'_3 
REMARK    2  A    between atoms: C2'_3  and  C1'_4 
REMARK    3  A    between atoms: C1'_4  and  C1_5 
ROOT
ATOM      1  C1  N4B d   1      -0.208  -0.309   1.033  0.00  0.00    -0.075 A 
ATOM      2  C2  N4B d   1       0.427  -0.855  -0.103  0.00  0.00     0.002 A 
ATOM      3  C3  N4B d   1       0.044  -2.085  -0.579  0.00  0.00     0.002 A 
ATOM      4  C4  N4B d   1      -0.954  -2.793   0.074  0.00  0.00    -0.004 A 
ATOM      5  C5  N4B d   1      -1.580  -2.246   1.157  0.00  0.00     0.002 A 
ATOM      6  C6  N4B d   1      -1.208  -1.009   1.643  0.00  0.00     0.002 A 
ENDROOT
BRANCH   1   7
ATOM      7  C1' N4B d   1       0.235   0.994   1.641  0.00  0.00     0.057 C 
BRANCH   7   8
ATOM      8  C2' N4B d   1       1.058   1.770   0.617  0.00  0.00     0.009 C 
BRANCH   8   9
ATOM      9  C3' N4B d   1       1.421   3.159   1.114  0.00  0.00     0.004 C 
ATOM     10  C4' N4B d   1       2.578   3.758   0.371  0.00  0.00     0.003 C 
ENDBRANCH   8   9
ENDBRANCH   7   8
ENDBRANCH   1   7
TORSDOF 3
ENDMDL
