MODEL 1
REMARK minimizedAffinity 4.29558754
REMARK minimizedRMSD -1
REMARK  0 active torsions:
REMARK  status: ('A' for Active; 'I' for Inactive)
ROOT
ATOM      1  C2' OXE d   1       1.881  -1.493  -2.077  0.00  0.00     0.078 C 
ATOM      2  C1' OXE d   1       0.594  -3.606  -0.751  0.00  0.00     0.078 C 
ATOM      3  C1  OXE d   1       1.511  -2.722   0.057  0.00  0.00    -0.078 A 
ATOM      4  C2  OXE d   1       2.173  -1.720  -0.610  0.00  0.00    -0.078 A 
ATOM      5  C3  OXE d   1       2.988  -0.841   0.099  0.00  0.00     0.003 A 
ATOM      6  C4  OXE d   1       3.260  -1.064   1.454  0.00  0.00    -0.002 A 
ATOM      7  C5  OXE d   1       2.627  -2.104   2.144  0.00  0.00    -0.002 A 
ATOM      8  C6  OXE d   1       1.719  -2.914   1.471  0.00  0.00     0.003 A 
ENDROOT
TORSDOF 0
ENDMDL
