MODEL 1
REMARK minimizedAffinity 2.66902518
REMARK minimizedRMSD -1
REMARK  0 active torsions:
REMARK  status: ('A' for Active; 'I' for Inactive)
ROOT
ATOM      1  C2' OXE d   1       0.581   1.529   0.382  0.00  0.00     0.078 C 
ATOM      2  C1' OXE d   1       3.312   1.814   0.965  0.00  0.00     0.078 C 
ATOM      3  C1  OXE d   1       2.820   0.449   0.551  0.00  0.00    -0.078 A 
ATOM      4  C2  OXE d   1       1.474   0.308   0.313  0.00  0.00    -0.078 A 
ATOM      5  C3  OXE d   1       0.975  -0.916  -0.124  0.00  0.00     0.003 A 
ATOM      6  C4  OXE d   1       1.806  -2.042  -0.175  0.00  0.00    -0.002 A 
ATOM      7  C5  OXE d   1       3.173  -1.929   0.102  0.00  0.00    -0.002 A 
ATOM      8  C6  OXE d   1       3.702  -0.684   0.424  0.00  0.00     0.003 A 
ENDROOT
TORSDOF 0
ENDMDL
