MODEL 1
REMARK minimizedAffinity 8.79181385
REMARK minimizedRMSD -1
REMARK  0 active torsions:
REMARK  status: ('A' for Active; 'I' for Inactive)
ROOT
ATOM      1  C2' OXE d   1      -1.287   2.798   2.724  0.00  0.00     0.078 C 
ATOM      2  C1' OXE d   1      -0.001   0.574   3.855  0.00  0.00     0.078 C 
ATOM      3  C1  OXE d   1       0.527   1.100   2.544  0.00  0.00    -0.078 A 
ATOM      4  C2  OXE d   1      -0.138   2.160   1.974  0.00  0.00    -0.078 A 
ATOM      5  C3  OXE d   1       0.341   2.718   0.793  0.00  0.00     0.003 A 
ATOM      6  C4  OXE d   1       1.398   2.115   0.100  0.00  0.00    -0.002 A 
ATOM      7  C5  OXE d   1       2.063   1.011   0.643  0.00  0.00    -0.002 A 
ATOM      8  C6  OXE d   1       1.668   0.518   1.882  0.00  0.00     0.003 A 
ENDROOT
TORSDOF 0
ENDMDL
