MODEL 1
REMARK minimizedAffinity 3.85646272
REMARK minimizedRMSD -1
REMARK  0 active torsions:
REMARK  status: ('A' for Active; 'I' for Inactive)
ROOT
ATOM      1  C2' OXE d   1      -2.810   1.426  -3.131  0.00  0.00     0.078 C 
ATOM      2  C1' OXE d   1      -4.868   3.335  -3.168  0.00  0.00     0.078 C 
ATOM      3  C1  OXE d   1      -4.924   2.260  -2.111  0.00  0.00    -0.078 A 
ATOM      4  C2  OXE d   1      -3.938   1.303  -2.130  0.00  0.00    -0.078 A 
ATOM      5  C3  OXE d   1      -3.912   0.321  -1.143  0.00  0.00     0.003 A 
ATOM      6  C4  OXE d   1      -4.965   0.209  -0.227  0.00  0.00    -0.002 A 
ATOM      7  C5  OXE d   1      -6.000   1.150  -0.216  0.00  0.00    -0.002 A 
ATOM      8  C6  OXE d   1      -5.972   2.204  -1.122  0.00  0.00     0.003 A 
ENDROOT
TORSDOF 0
ENDMDL
