MODEL 1
REMARK minimizedAffinity 1.94439518
REMARK minimizedRMSD -1
REMARK  0 active torsions:
REMARK  status: ('A' for Active; 'I' for Inactive)
ROOT
ATOM      1  C2' OXE d   1      -1.817   0.274  -1.136  0.00  0.00     0.078 C 
ATOM      2  C1' OXE d   1      -0.929   1.992   0.899  0.00  0.00     0.078 C 
ATOM      3  C1  OXE d   1       0.089   1.093   0.243  0.00  0.00    -0.078 A 
ATOM      4  C2  OXE d   1      -0.363   0.222  -0.719  0.00  0.00    -0.078 A 
ATOM      5  C3  OXE d   1       0.543  -0.591  -1.394  0.00  0.00     0.003 A 
ATOM      6  C4  OXE d   1       1.884  -0.640  -0.995  0.00  0.00    -0.002 A 
ATOM      7  C5  OXE d   1       2.358   0.210   0.010  0.00  0.00    -0.002 A 
ATOM      8  C6  OXE d   1       1.484   1.111   0.608  0.00  0.00     0.003 A 
ENDROOT
TORSDOF 0
ENDMDL
