MODEL 1
REMARK minimizedAffinity 7.99326277
REMARK minimizedRMSD -1
REMARK  0 active torsions:
REMARK  status: ('A' for Active; 'I' for Inactive)
ROOT
ATOM      1  C2' OXE d   1      -0.127   1.338   0.067  0.00  0.00     0.078 C 
ATOM      2  C1' OXE d   1       2.557   2.099   0.380  0.00  0.00     0.078 C 
ATOM      3  C1  OXE d   1       2.263   0.640   0.138  0.00  0.00    -0.078 A 
ATOM      4  C2  OXE d   1       0.944   0.269   0.032  0.00  0.00    -0.078 A 
ATOM      5  C3  OXE d   1       0.620  -1.056  -0.247  0.00  0.00     0.003 A 
ATOM      6  C4  OXE d   1       1.616  -2.040  -0.268  0.00  0.00    -0.002 A 
ATOM      7  C5  OXE d   1       2.963  -1.689  -0.123  0.00  0.00    -0.002 A 
ATOM      8  C6  OXE d   1       3.306  -0.351   0.038  0.00  0.00     0.003 A 
ENDROOT
TORSDOF 0
ENDMDL
