MODEL 1
REMARK minimizedAffinity 4.43761253
REMARK minimizedRMSD -1
REMARK  0 active torsions:
REMARK  status: ('A' for Active; 'I' for Inactive)
ROOT
ATOM      1  C2' OXE d   1       5.851  -0.443   1.677  0.00  0.00     0.078 C 
ATOM      2  C1' OXE d   1       4.258   1.237   0.091  0.00  0.00     0.078 C 
ATOM      3  C1  OXE d   1       3.694  -0.107   0.479  0.00  0.00    -0.078 A 
ATOM      4  C2  OXE d   1       4.499  -0.941   1.216  0.00  0.00    -0.078 A 
ATOM      5  C3  OXE d   1       4.006  -2.170   1.647  0.00  0.00     0.003 A 
ATOM      6  C4  OXE d   1       2.758  -2.627   1.208  0.00  0.00    -0.002 A 
ATOM      7  C5  OXE d   1       1.938  -1.809   0.423  0.00  0.00    -0.002 A 
ATOM      8  C6  OXE d   1       2.373  -0.532   0.086  0.00  0.00     0.003 A 
ENDROOT
TORSDOF 0
ENDMDL
