MODEL 1
REMARK minimizedAffinity 4.66704512
REMARK minimizedRMSD -1
REMARK  0 active torsions:
REMARK  status: ('A' for Active; 'I' for Inactive)
ROOT
ATOM      1  C2' OXE d   1       5.112   0.703  -1.841  0.00  0.00     0.078 C 
ATOM      2  C1' OXE d   1       3.867  -1.666  -2.689  0.00  0.00     0.078 C 
ATOM      3  C1  OXE d   1       3.683  -1.250  -1.250  0.00  0.00    -0.078 A 
ATOM      4  C2  OXE d   1       4.334  -0.114  -0.833  0.00  0.00    -0.078 A 
ATOM      5  C3  OXE d   1       4.154   0.344   0.469  0.00  0.00     0.003 A 
ATOM      6  C4  OXE d   1       3.442  -0.423   1.399  0.00  0.00    -0.002 A 
ATOM      7  C5  OXE d   1       2.803  -1.604   1.004  0.00  0.00    -0.002 A 
ATOM      8  C6  OXE d   1       2.879  -2.008  -0.324  0.00  0.00     0.003 A 
ENDROOT
TORSDOF 0
ENDMDL
