MODEL 1
REMARK minimizedAffinity 10.1728544
REMARK minimizedRMSD -1
REMARK  0 active torsions:
REMARK  status: ('A' for Active; 'I' for Inactive)
ROOT
ATOM      1  C2' OXE d   1       0.366   2.231  -0.200  0.00  0.00     0.078 C 
ATOM      2  C1' OXE d   1       2.700   2.649   1.304  0.00  0.00     0.078 C 
ATOM      3  C1  OXE d   1       1.486   2.117   2.023  0.00  0.00    -0.078 A 
ATOM      4  C2  OXE d   1       0.335   1.960   1.289  0.00  0.00    -0.078 A 
ATOM      5  C3  OXE d   1      -0.799   1.421   1.892  0.00  0.00     0.003 A 
ATOM      6  C4  OXE d   1      -0.823   1.183   3.271  0.00  0.00    -0.002 A 
ATOM      7  C5  OXE d   1       0.327   1.374   4.045  0.00  0.00    -0.002 A 
ATOM      8  C6  OXE d   1       1.499   1.799   3.430  0.00  0.00     0.003 A 
ENDROOT
TORSDOF 0
ENDMDL
