MODEL 1
REMARK minimizedAffinity -1.14960372
REMARK minimizedRMSD -1
REMARK  0 active torsions:
REMARK  status: ('A' for Active; 'I' for Inactive)
ROOT
ATOM      1  C2' OXE d   1       2.265  -2.277  -0.821  0.00  0.00     0.078 C 
ATOM      2  C1' OXE d   1       3.715  -1.811  -3.179  0.00  0.00     0.078 C 
ATOM      3  C1  OXE d   1       3.567  -0.667  -2.206  0.00  0.00    -0.078 A 
ATOM      4  C2  OXE d   1       2.816  -0.891  -1.077  0.00  0.00    -0.078 A 
ATOM      5  C3  OXE d   1       2.694   0.113  -0.121  0.00  0.00     0.003 A 
ATOM      6  C4  OXE d   1       3.199   1.395  -0.370  0.00  0.00    -0.002 A 
ATOM      7  C5  OXE d   1       3.933   1.655  -1.532  0.00  0.00    -0.002 A 
ATOM      8  C6  OXE d   1       4.162   0.626  -2.438  0.00  0.00     0.003 A 
ENDROOT
TORSDOF 0
ENDMDL
