MODEL 1
REMARK minimizedAffinity -1.82508278
REMARK minimizedRMSD -1
REMARK  2 active torsions:
REMARK  status: ('A' for Active; 'I' for Inactive)
REMARK    1  A    between atoms: C1_2  and  C2_3 
REMARK    2  A    between atoms: C2_3  and  C3_4 
ROOT
ATOM      1  C3  UNL d   1      -1.500  -3.115  -2.638  0.00  0.00    -0.075 A 
ATOM      2  C4  UNL d   1      -0.580  -3.919  -1.950  0.00  0.00     0.002 A 
ATOM      3  C5  UNL d   1      -0.061  -3.508  -0.721  0.00  0.00     0.002 A 
ATOM      4  C6  UNL d   1      -0.446  -2.287  -0.172  0.00  0.00    -0.004 A 
ATOM      5  C7  UNL d   1      -1.347  -1.473  -0.855  0.00  0.00     0.002 A 
ATOM      6  C8  UNL d   1      -1.871  -1.883  -2.082  0.00  0.00     0.002 A 
ENDROOT
BRANCH   1   7
ATOM      7  C2  UNL d   1      -2.088  -3.567  -3.953  0.00  0.00     0.056 C 
BRANCH   7   8
ATOM      8  C1  UNL d   1      -1.842  -2.596  -5.113  0.00  0.00     0.007 C 
ATOM      9  C   UNL d   1      -0.673  -3.004  -6.000  0.00  0.00     0.009 C 
ENDBRANCH   7   8
ENDBRANCH   1   7
TORSDOF 2
ENDMDL
