MODEL 1
REMARK minimizedAffinity 11.1996326
REMARK minimizedRMSD -1
REMARK  2 active torsions:
REMARK  status: ('A' for Active; 'I' for Inactive)
REMARK    1  A    between atoms: C1_2  and  C2_3 
REMARK    2  A    between atoms: C2_3  and  C3_4 
ROOT
ATOM      1  C3  UNL d   1       2.126   4.584  -2.735  0.00  0.00    -0.075 A 
ATOM      2  C4  UNL d   1       1.105   4.174  -1.865  0.00  0.00     0.002 A 
ATOM      3  C5  UNL d   1       1.191   2.952  -1.198  0.00  0.00     0.002 A 
ATOM      4  C6  UNL d   1       2.292   2.122  -1.398  0.00  0.00    -0.004 A 
ATOM      5  C7  UNL d   1       3.304   2.511  -2.273  0.00  0.00     0.002 A 
ATOM      6  C8  UNL d   1       3.222   3.736  -2.939  0.00  0.00     0.002 A 
ENDROOT
BRANCH   1   7
ATOM      7  C2  UNL d   1       2.053   5.919  -3.437  0.00  0.00     0.056 C 
BRANCH   7   8
ATOM      8  C1  UNL d   1       2.861   5.985  -4.738  0.00  0.00     0.007 C 
ATOM      9  C   UNL d   1       1.989   5.997  -5.986  0.00  0.00     0.009 C 
ENDBRANCH   7   8
ENDBRANCH   1   7
TORSDOF 2
ENDMDL
