MODEL 1
REMARK minimizedAffinity 7.53892517
REMARK minimizedRMSD -1
REMARK  2 active torsions:
REMARK  status: ('A' for Active; 'I' for Inactive)
REMARK    1  A    between atoms: C1_2  and  C2_3 
REMARK    2  A    between atoms: C2_3  and  C3_4 
ROOT
ATOM      1  C3  UNL d   1       3.595  -0.242  -4.991  0.00  0.00    -0.075 A 
ATOM      2  C4  UNL d   1       2.715  -1.137  -5.617  0.00  0.00     0.002 A 
ATOM      3  C5  UNL d   1       2.790  -2.505  -5.355  0.00  0.00     0.002 A 
ATOM      4  C6  UNL d   1       3.750  -2.997  -4.473  0.00  0.00    -0.004 A 
ATOM      5  C7  UNL d   1       4.640  -2.119  -3.858  0.00  0.00     0.002 A 
ATOM      6  C8  UNL d   1       4.564  -0.749  -4.115  0.00  0.00     0.002 A 
ENDROOT
BRANCH   1   7
ATOM      7  C2  UNL d   1       3.500   1.243  -5.247  0.00  0.00     0.056 C 
BRANCH   7   8
ATOM      8  C1  UNL d   1       2.233   1.666  -6.000  0.00  0.00     0.007 C 
ATOM      9  C   UNL d   1       2.010   3.172  -5.999  0.00  0.00     0.009 C 
ENDBRANCH   7   8
ENDBRANCH   1   7
TORSDOF 2
ENDMDL
