MODEL 1
REMARK minimizedAffinity 5.30687714
REMARK minimizedRMSD -1
REMARK  2 active torsions:
REMARK  status: ('A' for Active; 'I' for Inactive)
REMARK    1  A    between atoms: C1_2  and  C2_3 
REMARK    2  A    between atoms: C2_3  and  C3_4 
ROOT
ATOM      1  C3  UNL d   1       2.852   3.417  -5.981  0.00  0.00    -0.075 A 
ATOM      2  C4  UNL d   1       3.601   4.602  -5.996  0.00  0.00     0.002 A 
ATOM      3  C5  UNL d   1       2.963   5.843  -6.000  0.00  0.00     0.002 A 
ATOM      4  C6  UNL d   1       1.572   5.914  -5.998  0.00  0.00    -0.004 A 
ATOM      5  C7  UNL d   1       0.818   4.743  -6.000  0.00  0.00     0.002 A 
ATOM      6  C8  UNL d   1       1.454   3.500  -5.992  0.00  0.00     0.002 A 
ENDROOT
BRANCH   1   7
ATOM      7  C2  UNL d   1       3.537   2.071  -5.947  0.00  0.00     0.056 C 
BRANCH   7   8
ATOM      8  C1  UNL d   1       2.630   0.921  -5.496  0.00  0.00     0.007 C 
ATOM      9  C   UNL d   1       3.362  -0.138  -4.684  0.00  0.00     0.009 C 
ENDBRANCH   7   8
ENDBRANCH   1   7
TORSDOF 2
ENDMDL
