MODEL 1
REMARK minimizedAffinity 3.46102595
REMARK minimizedRMSD -1
REMARK  2 active torsions:
REMARK  status: ('A' for Active; 'I' for Inactive)
REMARK    1  A    between atoms: C1_2  and  C2_3 
REMARK    2  A    between atoms: C2_3  and  C3_4 
ROOT
ATOM      1  C3  UNL d   1      -2.990  -3.007  -2.750  0.00  0.00    -0.075 A 
ATOM      2  C4  UNL d   1      -2.316  -2.067  -1.956  0.00  0.00     0.002 A 
ATOM      3  C5  UNL d   1      -2.867  -1.635  -0.749  0.00  0.00     0.002 A 
ATOM      4  C6  UNL d   1      -4.100  -2.127  -0.327  0.00  0.00    -0.004 A 
ATOM      5  C7  UNL d   1      -4.786  -3.049  -1.115  0.00  0.00     0.002 A 
ATOM      6  C8  UNL d   1      -4.235  -3.487  -2.321  0.00  0.00     0.002 A 
ENDROOT
BRANCH   1   7
ATOM      7  C2  UNL d   1      -2.385  -3.502  -4.042  0.00  0.00     0.056 C 
BRANCH   7   8
ATOM      8  C1  UNL d   1      -2.670  -2.601  -5.249  0.00  0.00     0.007 C 
ATOM      9  C   UNL d   1      -3.937  -2.988  -6.000  0.00  0.00     0.009 C 
ENDBRANCH   7   8
ENDBRANCH   1   7
TORSDOF 2
ENDMDL
