MODEL 1
REMARK minimizedAffinity 4.86337566
REMARK minimizedRMSD -1
REMARK  2 active torsions:
REMARK  status: ('A' for Active; 'I' for Inactive)
REMARK    1  A    between atoms: C1_2  and  C2_3 
REMARK    2  A    between atoms: C2_3  and  C3_4 
ROOT
ATOM      1  C3  UNL d   1      -1.792  -2.863  -2.522  0.00  0.00    -0.075 A 
ATOM      2  C4  UNL d   1      -2.239  -1.621  -2.050  0.00  0.00     0.002 A 
ATOM      3  C5  UNL d   1      -1.711  -1.076  -0.879  0.00  0.00     0.002 A 
ATOM      4  C6  UNL d   1      -0.739  -1.770  -0.161  0.00  0.00    -0.004 A 
ATOM      5  C7  UNL d   1      -0.300  -3.013  -0.612  0.00  0.00     0.002 A 
ATOM      6  C8  UNL d   1      -0.823  -3.558  -1.786  0.00  0.00     0.002 A 
ENDROOT
BRANCH   1   7
ATOM      7  C2  UNL d   1      -2.338  -3.444  -3.805  0.00  0.00     0.056 C 
BRANCH   7   8
ATOM      8  C1  UNL d   1      -1.890  -2.700  -5.067  0.00  0.00     0.007 C 
ATOM      9  C   UNL d   1      -3.042  -2.352  -6.000  0.00  0.00     0.009 C 
ENDBRANCH   7   8
ENDBRANCH   1   7
TORSDOF 2
ENDMDL
