MODEL 1
REMARK minimizedAffinity 0.229580253
REMARK minimizedRMSD -1
REMARK  2 active torsions:
REMARK  status: ('A' for Active; 'I' for Inactive)
REMARK    1  A    between atoms: C1_2  and  C2_3 
REMARK    2  A    between atoms: C2_3  and  C3_4 
ROOT
ATOM      1  C3  UNL d   1       4.246   0.140  -5.704  0.00  0.00    -0.075 A 
ATOM      2  C4  UNL d   1       3.473  -0.992  -6.000  0.00  0.00     0.002 A 
ATOM      3  C5  UNL d   1       3.945  -2.271  -5.701  0.00  0.00     0.002 A 
ATOM      4  C6  UNL d   1       5.198  -2.434  -5.114  0.00  0.00    -0.004 A 
ATOM      5  C7  UNL d   1       5.981  -1.317  -4.831  0.00  0.00     0.002 A 
ATOM      6  C8  UNL d   1       5.509  -0.037  -5.124  0.00  0.00     0.002 A 
ENDROOT
BRANCH   1   7
ATOM      7  C2  UNL d   1       3.727   1.527  -5.998  0.00  0.00     0.056 C 
BRANCH   7   8
ATOM      8  C1  UNL d   1       2.208   1.668  -5.858  0.00  0.00     0.007 C 
ATOM      9  C   UNL d   1       1.723   3.105  -6.000  0.00  0.00     0.009 C 
ENDBRANCH   7   8
ENDBRANCH   1   7
TORSDOF 2
ENDMDL
