MODEL 1
REMARK minimizedAffinity 2.02282763
REMARK minimizedRMSD -1
REMARK  2 active torsions:
REMARK  status: ('A' for Active; 'I' for Inactive)
REMARK    1  A    between atoms: C1_2  and  C2_3 
REMARK    2  A    between atoms: C2_3  and  C3_4 
ROOT
ATOM      1  C3  UNL d   1       3.011   3.447  -5.970  0.00  0.00    -0.075 A 
ATOM      2  C4  UNL d   1       1.609   3.495  -6.000  0.00  0.00     0.002 A 
ATOM      3  C5  UNL d   1       0.942   4.720  -6.000  0.00  0.00     0.002 A 
ATOM      4  C6  UNL d   1       1.665   5.910  -5.959  0.00  0.00    -0.004 A 
ATOM      5  C7  UNL d   1       3.057   5.874  -5.913  0.00  0.00     0.002 A 
ATOM      6  C8  UNL d   1       3.728   4.650  -5.917  0.00  0.00     0.002 A 
ENDROOT
BRANCH   1   7
ATOM      7  C2  UNL d   1       3.739   2.124  -5.999  0.00  0.00     0.056 C 
BRANCH   7   8
ATOM      8  C1  UNL d   1       2.815   0.902  -5.990  0.00  0.00     0.007 C 
ATOM      9  C   UNL d   1       3.554  -0.408  -5.755  0.00  0.00     0.009 C 
ENDBRANCH   7   8
ENDBRANCH   1   7
TORSDOF 2
ENDMDL
