MODEL 1
REMARK minimizedAffinity 6.34267235
REMARK minimizedRMSD -1
REMARK  2 active torsions:
REMARK  status: ('A' for Active; 'I' for Inactive)
REMARK    1  A    between atoms: C1_2  and  C2_3 
REMARK    2  A    between atoms: C2_3  and  C3_4 
ROOT
ATOM      1  C3  UNL d   1       2.231   4.315  -3.423  0.00  0.00    -0.075 A 
ATOM      2  C4  UNL d   1       1.664   3.685  -4.541  0.00  0.00     0.002 A 
ATOM      3  C5  UNL d   1       1.863   4.202  -5.821  0.00  0.00     0.002 A 
ATOM      4  C6  UNL d   1       2.621   5.357  -6.000  0.00  0.00    -0.004 A 
ATOM      5  C7  UNL d   1       3.175   6.000  -4.895  0.00  0.00     0.002 A 
ATOM      6  C8  UNL d   1       2.981   5.483  -3.613  0.00  0.00     0.002 A 
ENDROOT
BRANCH   1   7
ATOM      7  C2  UNL d   1       2.044   3.744  -2.037  0.00  0.00     0.056 C 
BRANCH   7   8
ATOM      8  C1  UNL d   1       3.353   3.369  -1.335  0.00  0.00     0.007 C 
ATOM      9  C   UNL d   1       3.156   2.409  -0.170  0.00  0.00     0.009 C 
ENDBRANCH   7   8
ENDBRANCH   1   7
TORSDOF 2
ENDMDL
