MODEL 1
REMARK minimizedAffinity 10.5094366
REMARK minimizedRMSD -1
REMARK  2 active torsions:
REMARK  status: ('A' for Active; 'I' for Inactive)
REMARK    1  A    between atoms: C1_2  and  C2_3 
REMARK    2  A    between atoms: C2_3  and  C3_4 
ROOT
ATOM      1  C3  UNL d   1       0.958   3.486   1.651  0.00  0.00    -0.075 A 
ATOM      2  C4  UNL d   1       0.551   2.458   2.513  0.00  0.00     0.002 A 
ATOM      3  C5  UNL d   1      -0.759   2.412   2.991  0.00  0.00     0.002 A 
ATOM      4  C6  UNL d   1      -1.673   3.396   2.623  0.00  0.00    -0.004 A 
ATOM      5  C7  UNL d   1      -1.275   4.432   1.780  0.00  0.00     0.002 A 
ATOM      6  C8  UNL d   1       0.034   4.478   1.296  0.00  0.00     0.002 A 
ENDROOT
BRANCH   1   7
ATOM      7  C2  UNL d   1       2.366   3.525   1.106  0.00  0.00     0.056 C 
BRANCH   7   8
ATOM      8  C1  UNL d   1       2.870   4.935   0.780  0.00  0.00     0.007 C 
ATOM      9  C   UNL d   1       3.561   5.612   1.956  0.00  0.00     0.009 C 
ENDBRANCH   7   8
ENDBRANCH   1   7
TORSDOF 2
ENDMDL
