MODEL 1
REMARK minimizedAffinity 4.07686472
REMARK minimizedRMSD -1
REMARK  2 active torsions:
REMARK  status: ('A' for Active; 'I' for Inactive)
REMARK    1  A    between atoms: C1_2  and  C2_3 
REMARK    2  A    between atoms: C2_3  and  C3_4 
ROOT
ATOM      1  C3  UNL d   1      -1.722  -3.330  -3.325  0.00  0.00    -0.075 A 
ATOM      2  C4  UNL d   1      -2.247  -4.590  -3.648  0.00  0.00     0.002 A 
ATOM      3  C5  UNL d   1      -2.480  -4.940  -4.979  0.00  0.00     0.002 A 
ATOM      4  C6  UNL d   1      -2.201  -4.034  -6.000  0.00  0.00    -0.004 A 
ATOM      5  C7  UNL d   1      -1.695  -2.774  -5.689  0.00  0.00     0.002 A 
ATOM      6  C8  UNL d   1      -1.456  -2.423  -4.359  0.00  0.00     0.002 A 
ENDROOT
BRANCH   1   7
ATOM      7  C2  UNL d   1      -1.440  -2.956  -1.890  0.00  0.00     0.056 C 
BRANCH   7   8
ATOM      8  C1  UNL d   1      -2.300  -1.802  -1.365  0.00  0.00     0.007 C 
ATOM      9  C   UNL d   1      -2.357  -1.738   0.155  0.00  0.00     0.009 C 
ENDBRANCH   7   8
ENDBRANCH   1   7
TORSDOF 2
ENDMDL
