MODEL 1
REMARK minimizedAffinity 4.74593782
REMARK minimizedRMSD -1
REMARK  2 active torsions:
REMARK  status: ('A' for Active; 'I' for Inactive)
REMARK    1  A    between atoms: C1_2  and  C2_3 
REMARK    2  A    between atoms: C2_3  and  C3_4 
ROOT
ATOM      1  C3  UNL d   1      -1.886  -2.204  -0.897  0.00  0.00    -0.075 A 
ATOM      2  C4  UNL d   1      -0.730  -2.950  -0.626  0.00  0.00     0.002 A 
ATOM      3  C5  UNL d   1      -0.459  -3.391   0.670  0.00  0.00     0.002 A 
ATOM      4  C6  UNL d   1      -1.334  -3.084   1.710  0.00  0.00    -0.004 A 
ATOM      5  C7  UNL d   1      -2.477  -2.330   1.455  0.00  0.00     0.002 A 
ATOM      6  C8  UNL d   1      -2.752  -1.891   0.158  0.00  0.00     0.002 A 
ENDROOT
BRANCH   1   7
ATOM      7  C2  UNL d   1      -2.199  -1.749  -2.303  0.00  0.00     0.056 C 
BRANCH   7   8
ATOM      8  C1  UNL d   1      -2.315  -2.892  -3.317  0.00  0.00     0.007 C 
ATOM      9  C   UNL d   1      -2.284  -2.416  -4.764  0.00  0.00     0.009 C 
ENDBRANCH   7   8
ENDBRANCH   1   7
TORSDOF 2
ENDMDL
