MODEL 1
REMARK minimizedAffinity 1.40418327
REMARK minimizedRMSD -1
REMARK  2 active torsions:
REMARK  status: ('A' for Active; 'I' for Inactive)
REMARK    1  A    between atoms: C1_2  and  C2_3 
REMARK    2  A    between atoms: C2_3  and  C3_4 
ROOT
ATOM      1  C3  UNL d   1      -1.657  -2.815  -1.587  0.00  0.00    -0.075 A 
ATOM      2  C4  UNL d   1      -2.531  -2.174  -0.698  0.00  0.00     0.002 A 
ATOM      3  C5  UNL d   1      -2.320  -2.248   0.679  0.00  0.00     0.002 A 
ATOM      4  C6  UNL d   1      -1.242  -2.971   1.184  0.00  0.00    -0.004 A 
ATOM      5  C7  UNL d   1      -0.377  -3.627   0.311  0.00  0.00     0.002 A 
ATOM      6  C8  UNL d   1      -0.583  -3.550  -1.068  0.00  0.00     0.002 A 
ENDROOT
BRANCH   1   7
ATOM      7  C2  UNL d   1      -1.862  -2.714  -3.080  0.00  0.00     0.056 C 
BRANCH   7   8
ATOM      8  C1  UNL d   1      -2.421  -3.989  -3.720  0.00  0.00     0.007 C 
ATOM      9  C   UNL d   1      -2.519  -3.906  -5.238  0.00  0.00     0.009 C 
ENDBRANCH   7   8
ENDBRANCH   1   7
TORSDOF 2
ENDMDL
