MODEL 1
REMARK minimizedAffinity 3.40341663
REMARK minimizedRMSD -1
REMARK  2 active torsions:
REMARK  status: ('A' for Active; 'I' for Inactive)
REMARK    1  A    between atoms: C1_2  and  C2_3 
REMARK    2  A    between atoms: C2_3  and  C3_4 
ROOT
ATOM      1  C3  UNL d   1       0.917   4.264  -0.027  0.00  0.00    -0.075 A 
ATOM      2  C4  UNL d   1       0.406   3.900  -1.281  0.00  0.00     0.002 A 
ATOM      3  C5  UNL d   1      -0.746   4.509  -1.781  0.00  0.00     0.002 A 
ATOM      4  C6  UNL d   1      -1.405   5.481  -1.031  0.00  0.00    -0.004 A 
ATOM      5  C7  UNL d   1      -0.916   5.838   0.224  0.00  0.00     0.002 A 
ATOM      6  C8  UNL d   1       0.239   5.233   0.724  0.00  0.00     0.002 A 
ENDROOT
BRANCH   1   7
ATOM      7  C2  UNL d   1       2.179   3.630   0.507  0.00  0.00     0.056 C 
BRANCH   7   8
ATOM      8  C1  UNL d   1       3.448   4.029  -0.255  0.00  0.00     0.007 C 
ATOM      9  C   UNL d   1       3.957   2.938  -1.187  0.00  0.00     0.009 C 
ENDBRANCH   7   8
ENDBRANCH   1   7
TORSDOF 2
ENDMDL
