MODEL 1
REMARK minimizedAffinity -3.2437923
REMARK minimizedRMSD -1
REMARK  0 active torsions:
REMARK  status: ('A' for Active; 'I' for Inactive)
ROOT
ATOM      1  C   UNL d   1      -0.234  -1.251   0.670  0.00  0.00     0.023 A 
ATOM      2  C1  UNL d   1       1.009  -0.751   0.282  0.00  0.00     0.003 A 
ATOM      3  C2  UNL d   1       2.050  -1.628  -0.028  0.00  0.00     0.048 A 
ATOM      4  C3  UNL d   1       1.841  -3.005   0.051  0.00  0.00     0.023 A 
ATOM      5  C4  UNL d   1       0.598  -3.510   0.439  0.00  0.00     0.048 A 
ATOM      6  C5  UNL d   1      -0.439  -2.628   0.749  0.00  0.00     0.003 A 
ATOM      7  I   UNL d   1       3.389  -4.313  -0.410  0.00  0.00    -0.146 I 
ENDROOT
TORSDOF 0
ENDMDL
