MODEL 1
REMARK minimizedAffinity 1.26702332
REMARK minimizedRMSD -1
REMARK  0 active torsions:
REMARK  status: ('A' for Active; 'I' for Inactive)
ROOT
ATOM      1  C   UNL d   1       1.608  -2.765  -0.468  0.00  0.00     0.023 A 
ATOM      2  C1  UNL d   1       1.571  -1.377  -0.341  0.00  0.00     0.003 A 
ATOM      3  C2  UNL d   1       0.955  -0.791   0.767  0.00  0.00     0.048 A 
ATOM      4  C3  UNL d   1       0.378  -1.601   1.745  0.00  0.00     0.023 A 
ATOM      5  C4  UNL d   1       0.413  -2.991   1.623  0.00  0.00     0.048 A 
ATOM      6  C5  UNL d   1       1.030  -3.571   0.513  0.00  0.00     0.003 A 
ATOM      7  I   UNL d   1      -0.540  -0.732   3.395  0.00  0.00    -0.146 I 
ENDROOT
TORSDOF 0
ENDMDL
