MODEL 1
REMARK minimizedAffinity -2.81561184
REMARK minimizedRMSD -1
REMARK  0 active torsions:
REMARK  status: ('A' for Active; 'I' for Inactive)
ROOT
ATOM      1  C   UNL d   1       0.481  -0.729   0.929  0.00  0.00     0.023 A 
ATOM      2  C1  UNL d   1       0.017  -2.043   0.994  0.00  0.00     0.003 A 
ATOM      3  C2  UNL d   1       0.889  -3.106   0.748  0.00  0.00     0.048 A 
ATOM      4  C3  UNL d   1       2.224  -2.847   0.440  0.00  0.00     0.023 A 
ATOM      5  C4  UNL d   1       2.693  -1.534   0.375  0.00  0.00     0.048 A 
ATOM      6  C5  UNL d   1       1.817  -0.475   0.620  0.00  0.00     0.003 A 
ATOM      7  I   UNL d   1       3.523  -4.428   0.074  0.00  0.00    -0.146 I 
ENDROOT
TORSDOF 0
ENDMDL
