MODEL 1
REMARK minimizedAffinity 1.12636709
REMARK minimizedRMSD -1
REMARK  0 active torsions:
REMARK  status: ('A' for Active; 'I' for Inactive)
ROOT
ATOM      1  C   UNL d   1       0.294  -1.441   0.655  0.00  0.00     0.023 A 
ATOM      2  C1  UNL d   1      -0.062  -2.789   0.616  0.00  0.00     0.003 A 
ATOM      3  C2  UNL d   1       0.912  -3.764   0.398  0.00  0.00     0.048 A 
ATOM      4  C3  UNL d   1       2.243  -3.385   0.220  0.00  0.00     0.023 A 
ATOM      5  C4  UNL d   1       2.604  -2.038   0.260  0.00  0.00     0.048 A 
ATOM      6  C5  UNL d   1       1.626  -1.066   0.477  0.00  0.00     0.003 A 
ATOM      7  I   UNL d   1       3.695  -4.835  -0.104  0.00  0.00    -0.146 I 
ENDROOT
TORSDOF 0
ENDMDL
