MODEL 1
REMARK minimizedAffinity -4.50454187
REMARK minimizedRMSD -1
REMARK  0 active torsions:
REMARK  status: ('A' for Active; 'I' for Inactive)
ROOT
ATOM      1  C   UNL d   1       2.217  -2.996   0.424  0.00  0.00     0.023 A 
ATOM      2  C1  UNL d   1       2.458  -1.629   0.562  0.00  0.00     0.003 A 
ATOM      3  C2  UNL d   1       1.394  -0.747   0.761  0.00  0.00     0.048 A 
ATOM      4  C3  UNL d   1       0.091  -1.239   0.822  0.00  0.00     0.023 A 
ATOM      5  C4  UNL d   1      -0.156  -2.606   0.685  0.00  0.00     0.048 A 
ATOM      6  C5  UNL d   1       0.912  -3.484   0.485  0.00  0.00     0.003 A 
ATOM      7  I   UNL d   1      -1.495   0.071   1.119  0.00  0.00    -0.146 I 
ENDROOT
TORSDOF 0
ENDMDL
