MODEL 1
REMARK minimizedAffinity -2.88677287
REMARK minimizedRMSD -1
REMARK  0 active torsions:
REMARK  status: ('A' for Active; 'I' for Inactive)
ROOT
ATOM      1  C   UNL d   1       3.450  -3.655   0.055  0.00  0.00     0.023 A 
ATOM      2  C1  UNL d   1       3.596  -2.274   0.180  0.00  0.00     0.003 A 
ATOM      3  C2  UNL d   1       2.478  -1.471   0.414  0.00  0.00     0.048 A 
ATOM      4  C3  UNL d   1       1.217  -2.056   0.523  0.00  0.00     0.023 A 
ATOM      5  C4  UNL d   1       1.066  -3.438   0.400  0.00  0.00     0.048 A 
ATOM      6  C5  UNL d   1       2.187  -4.237   0.165  0.00  0.00     0.003 A 
ATOM      7  I   UNL d   1      -0.449  -0.863   0.871  0.00  0.00    -0.146 I 
ENDROOT
TORSDOF 0
ENDMDL
