MODEL 1
REMARK minimizedAffinity -2.47018313
REMARK minimizedRMSD -1
REMARK  0 active torsions:
REMARK  status: ('A' for Active; 'I' for Inactive)
ROOT
ATOM      1  C   UNL d   1       3.284  -3.308   0.057  0.00  0.00     0.023 A 
ATOM      2  C1  UNL d   1       2.054  -3.962   0.127  0.00  0.00     0.003 A 
ATOM      3  C2  UNL d   1       0.886  -3.234   0.364  0.00  0.00     0.048 A 
ATOM      4  C3  UNL d   1       0.956  -1.851   0.528  0.00  0.00     0.023 A 
ATOM      5  C4  UNL d   1       2.184  -1.192   0.458  0.00  0.00     0.048 A 
ATOM      6  C5  UNL d   1       3.349  -1.925   0.223  0.00  0.00     0.003 A 
ATOM      7  I   UNL d   1      -0.781  -0.764   0.880  0.00  0.00    -0.146 I 
ENDROOT
TORSDOF 0
ENDMDL
