MODEL 1
REMARK minimizedAffinity 1.52102804
REMARK minimizedRMSD -1
REMARK  0 active torsions:
REMARK  status: ('A' for Active; 'I' for Inactive)
ROOT
ATOM      1  C   UNL d   1       1.280  -1.672   0.411  0.00  0.00     0.023 A 
ATOM      2  C1  UNL d   1       2.662  -1.500   0.487  0.00  0.00     0.003 A 
ATOM      3  C2  UNL d   1       3.511  -2.604   0.387  0.00  0.00     0.048 A 
ATOM      4  C3  UNL d   1       2.971  -3.877   0.208  0.00  0.00     0.023 A 
ATOM      5  C4  UNL d   1       1.589  -4.054   0.130  0.00  0.00     0.048 A 
ATOM      6  C5  UNL d   1       0.744  -2.947   0.232  0.00  0.00     0.003 A 
ATOM      7  I   UNL d   1       4.233  -5.522   0.057  0.00  0.00    -0.146 I 
ENDROOT
TORSDOF 0
ENDMDL
