MODEL 1
REMARK minimizedAffinity 2.0695622
REMARK minimizedRMSD -1
REMARK  0 active torsions:
REMARK  status: ('A' for Active; 'I' for Inactive)
ROOT
ATOM      1  C   UNL d   1       0.184  -0.983   0.783  0.00  0.00     0.023 A 
ATOM      2  C1  UNL d   1       1.566  -0.799   0.779  0.00  0.00     0.003 A 
ATOM      3  C2  UNL d   1       2.416  -1.883   0.553  0.00  0.00     0.048 A 
ATOM      4  C3  UNL d   1       1.877  -3.149   0.330  0.00  0.00     0.023 A 
ATOM      5  C4  UNL d   1       0.494  -3.339   0.332  0.00  0.00     0.048 A 
ATOM      6  C5  UNL d   1      -0.352  -2.252   0.560  0.00  0.00     0.003 A 
ATOM      7  I   UNL d   1       3.140  -4.765  -0.008  0.00  0.00    -0.146 I 
ENDROOT
TORSDOF 0
ENDMDL
