MODEL 1
REMARK minimizedAffinity 1.5528487
REMARK minimizedRMSD -1
REMARK  0 active torsions:
REMARK  status: ('A' for Active; 'I' for Inactive)
ROOT
ATOM      1  C   UNL d   1       0.550  -0.092   1.236  0.00  0.00     0.023 A 
ATOM      2  C1  UNL d   1       1.887  -0.282   0.887  0.00  0.00     0.003 A 
ATOM      3  C2  UNL d   1       2.320  -1.528   0.428  0.00  0.00     0.048 A 
ATOM      4  C3  UNL d   1       1.409  -2.579   0.318  0.00  0.00     0.023 A 
ATOM      5  C4  UNL d   1       0.070  -2.393   0.664  0.00  0.00     0.048 A 
ATOM      6  C5  UNL d   1      -0.357  -1.146   1.125  0.00  0.00     0.003 A 
ATOM      7  I   UNL d   1       2.051  -4.433  -0.367  0.00  0.00    -0.146 I 
ENDROOT
TORSDOF 0
ENDMDL
