MODEL 1
REMARK minimizedAffinity -2.78648114
REMARK minimizedRMSD -1
REMARK  0 active torsions:
REMARK  status: ('A' for Active; 'I' for Inactive)
ROOT
ATOM      1  C   UNL d   1       0.015  -0.759   0.674  0.00  0.00     0.023 A 
ATOM      2  C1  UNL d   1      -0.435  -2.056   0.428  0.00  0.00     0.003 A 
ATOM      3  C2  UNL d   1       0.481  -3.076   0.166  0.00  0.00     0.048 A 
ATOM      4  C3  UNL d   1       1.846  -2.793   0.151  0.00  0.00     0.023 A 
ATOM      5  C4  UNL d   1       2.301  -1.496   0.397  0.00  0.00     0.048 A 
ATOM      6  C5  UNL d   1       1.381  -0.479   0.658  0.00  0.00     0.003 A 
ATOM      7  I   UNL d   1       3.212  -4.310  -0.240  0.00  0.00    -0.146 I 
ENDROOT
TORSDOF 0
ENDMDL
