MODEL 1
REMARK minimizedAffinity -1.80334294
REMARK minimizedRMSD -1
REMARK  0 active torsions:
REMARK  status: ('A' for Active; 'I' for Inactive)
ROOT
ATOM      1  C   UNL d   1       1.211  -1.936   0.498  0.00  0.00     0.023 A 
ATOM      2  C1  UNL d   1       2.570  -1.639   0.401  0.00  0.00     0.003 A 
ATOM      3  C2  UNL d   1       3.502  -2.668   0.252  0.00  0.00     0.048 A 
ATOM      4  C3  UNL d   1       3.068  -3.992   0.199  0.00  0.00     0.023 A 
ATOM      5  C4  UNL d   1       1.708  -4.294   0.294  0.00  0.00     0.048 A 
ATOM      6  C5  UNL d   1       0.780  -3.262   0.445  0.00  0.00     0.003 A 
ATOM      7  I   UNL d   1       4.453  -5.525  -0.024  0.00  0.00    -0.146 I 
ENDROOT
TORSDOF 0
ENDMDL
