MODEL 1
REMARK minimizedAffinity 1.22641695
REMARK minimizedRMSD -1
REMARK  0 active torsions:
REMARK  status: ('A' for Active; 'I' for Inactive)
ROOT
ATOM      1  C   UNL d   1      -0.550  -1.753   0.778  0.00  0.00     0.023 A 
ATOM      2  C1  UNL d   1       0.697  -1.157   0.593  0.00  0.00     0.003 A 
ATOM      3  C2  UNL d   1       1.807  -1.941   0.273  0.00  0.00     0.048 A 
ATOM      4  C3  UNL d   1       1.663  -3.321   0.136  0.00  0.00     0.023 A 
ATOM      5  C4  UNL d   1       0.416  -3.922   0.319  0.00  0.00     0.048 A 
ATOM      6  C5  UNL d   1      -0.690  -3.134   0.641  0.00  0.00     0.003 A 
ATOM      7  I   UNL d   1       3.313  -4.490  -0.342  0.00  0.00    -0.146 I 
ENDROOT
TORSDOF 0
ENDMDL
