MODEL 1
REMARK minimizedAffinity -0.762223721
REMARK minimizedRMSD -1
REMARK  0 active torsions:
REMARK  status: ('A' for Active; 'I' for Inactive)
ROOT
ATOM      1  C   UNL d   1       2.981  -4.294  -0.314  0.00  0.00     0.023 A 
ATOM      2  C1  UNL d   1       1.593  -4.403  -0.232  0.00  0.00     0.003 A 
ATOM      3  C2  UNL d   1       0.822  -3.289   0.109  0.00  0.00     0.048 A 
ATOM      4  C3  UNL d   1       1.447  -2.069   0.365  0.00  0.00     0.023 A 
ATOM      5  C4  UNL d   1       2.836  -1.955   0.284  0.00  0.00     0.048 A 
ATOM      6  C5  UNL d   1       3.602  -3.071  -0.056  0.00  0.00     0.003 A 
ATOM      7  I   UNL d   1       0.303  -0.409   0.872  0.00  0.00    -0.146 I 
ENDROOT
TORSDOF 0
ENDMDL
