MODEL 1
REMARK minimizedAffinity 4.59428024
REMARK minimizedRMSD -1
REMARK  0 active torsions:
REMARK  status: ('A' for Active; 'I' for Inactive)
ROOT
ATOM      1  C   UNL d   1      -0.181  -1.236   0.886  0.00  0.00     0.023 A 
ATOM      2  C1  UNL d   1       1.172  -1.025   1.152  0.00  0.00     0.003 A 
ATOM      3  C2  UNL d   1       2.102  -2.032   0.888  0.00  0.00     0.048 A 
ATOM      4  C3  UNL d   1       1.672  -3.248   0.357  0.00  0.00     0.023 A 
ATOM      5  C4  UNL d   1       0.320  -3.463   0.089  0.00  0.00     0.048 A 
ATOM      6  C5  UNL d   1      -0.607  -2.454   0.356  0.00  0.00     0.003 A 
ATOM      7  I   UNL d   1       3.055  -4.749  -0.037  0.00  0.00    -0.146 I 
ENDROOT
TORSDOF 0
ENDMDL
