MODEL 1
REMARK minimizedAffinity -2.10695815
REMARK minimizedRMSD -1
REMARK  0 active torsions:
REMARK  status: ('A' for Active; 'I' for Inactive)
ROOT
ATOM      1  C   UNL d   1       0.002  -0.879   0.548  0.00  0.00     0.023 A 
ATOM      2  C1  UNL d   1      -0.363  -2.222   0.643  0.00  0.00     0.003 A 
ATOM      3  C2  UNL d   1       0.558  -3.222   0.325  0.00  0.00     0.048 A 
ATOM      4  C3  UNL d   1       1.844  -2.872  -0.087  0.00  0.00     0.023 A 
ATOM      5  C4  UNL d   1       2.214  -1.529  -0.183  0.00  0.00     0.048 A 
ATOM      6  C5  UNL d   1       1.289  -0.533   0.136  0.00  0.00     0.003 A 
ATOM      7  I   UNL d   1       3.216  -4.358  -0.561  0.00  0.00    -0.146 I 
ENDROOT
TORSDOF 0
ENDMDL
