MODEL 1
REMARK minimizedAffinity 3.65608191
REMARK minimizedRMSD -1
REMARK  1 active torsions:
REMARK  status: ('A' for Active; 'I' for Inactive)
REMARK    1  A    between atoms: C3_4  and  O_7 
ROOT
ATOM      1  C   UNL d   1      -1.883  -3.311   0.719  0.00  0.00    -0.033 A 
ATOM      2  C1  UNL d   1      -3.064  -3.234  -0.022  0.00  0.00     0.039 A 
ATOM      3  C2  UNL d   1      -3.044  -2.717  -1.319  0.00  0.00    -0.080 A 
ATOM      4  C3  UNL d   1      -1.838  -2.282  -1.862  0.00  0.00     0.150 A 
ATOM      5  C4  UNL d   1      -0.658  -2.358  -1.131  0.00  0.00    -0.007 A 
ATOM      6  C5  UNL d   1      -0.680  -2.874   0.164  0.00  0.00     0.039 A 
ENDROOT
BRANCH   4   7
ATOM      7  O   UNL d   1      -1.770  -1.765  -3.122  0.00  0.00    -0.526 OA
ATOM      8  H5  UNL d   1      -2.667  -1.747  -3.496  0.00  0.00     0.418 HD
ENDBRANCH   4   7
TORSDOF 1
ENDMDL
