MODEL 1
REMARK minimizedAffinity -2.73216343
REMARK minimizedRMSD -1
REMARK  1 active torsions:
REMARK  status: ('A' for Active; 'I' for Inactive)
REMARK    1  A    between atoms: C3_4  and  O_7 
ROOT
ATOM      1  C   UNL d   1       5.124   5.998   3.363  0.00  0.00    -0.033 A 
ATOM      2  C1  UNL d   1       6.000   4.972   3.720  0.00  0.00     0.039 A 
ATOM      3  C2  UNL d   1       5.945   3.743   3.059  0.00  0.00    -0.080 A 
ATOM      4  C3  UNL d   1       5.012   3.555   2.043  0.00  0.00     0.150 A 
ATOM      5  C4  UNL d   1       4.138   4.575   1.680  0.00  0.00    -0.007 A 
ATOM      6  C5  UNL d   1       4.194   5.801   2.342  0.00  0.00     0.039 A 
ENDROOT
BRANCH   4   7
ATOM      7  O   UNL d   1       4.917   2.372   1.373  0.00  0.00    -0.526 OA
ATOM      8  H5  UNL d   1       5.563   1.752   1.750  0.00  0.00     0.418 HD
ENDBRANCH   4   7
TORSDOF 1
ENDMDL
