MODEL 1
REMARK minimizedAffinity 7.60267735
REMARK minimizedRMSD -1
REMARK  1 active torsions:
REMARK  status: ('A' for Active; 'I' for Inactive)
REMARK    1  A    between atoms: C3_4  and  O_7 
ROOT
ATOM      1  C   UNL d   1       3.363   0.505   0.972  0.00  0.00    -0.033 A 
ATOM      2  C1  UNL d   1       2.545   1.432   0.323  0.00  0.00     0.039 A 
ATOM      3  C2  UNL d   1       2.767   1.739  -1.021  0.00  0.00    -0.080 A 
ATOM      4  C3  UNL d   1       3.806   1.113  -1.703  0.00  0.00     0.150 A 
ATOM      5  C4  UNL d   1       4.622   0.185  -1.063  0.00  0.00    -0.007 A 
ATOM      6  C5  UNL d   1       4.400  -0.119   0.279  0.00  0.00     0.039 A 
ENDROOT
BRANCH   4   7
ATOM      7  O   UNL d   1       4.063   1.384  -3.014  0.00  0.00    -0.526 OA
ATOM      8  H5  UNL d   1       3.438   2.064  -3.317  0.00  0.00     0.418 HD
ENDBRANCH   4   7
TORSDOF 1
ENDMDL
