MODEL 1
REMARK minimizedAffinity 3.84994102
REMARK minimizedRMSD -1
REMARK  1 active torsions:
REMARK  status: ('A' for Active; 'I' for Inactive)
REMARK    1  A    between atoms: C3_4  and  O_7 
ROOT
ATOM      1  C   UNL d   1      -5.704  -5.870  -2.248  0.00  0.00    -0.033 A 
ATOM      2  C1  UNL d   1      -6.000  -4.808  -3.104  0.00  0.00     0.039 A 
ATOM      3  C2  UNL d   1      -5.099  -3.750  -3.244  0.00  0.00    -0.080 A 
ATOM      4  C3  UNL d   1      -3.908  -3.767  -2.525  0.00  0.00     0.150 A 
ATOM      5  C4  UNL d   1      -3.604  -4.825  -1.673  0.00  0.00    -0.007 A 
ATOM      6  C5  UNL d   1      -4.505  -5.879  -1.534  0.00  0.00     0.039 A 
ENDROOT
BRANCH   4   7
ATOM      7  O   UNL d   1      -3.000  -2.755  -2.625  0.00  0.00    -0.526 OA
ATOM      8  H5  UNL d   1      -3.356  -2.081  -3.227  0.00  0.00     0.418 HD
ENDBRANCH   4   7
TORSDOF 1
ENDMDL
