MODEL 1
REMARK minimizedAffinity 7.62707758
REMARK minimizedRMSD -1
REMARK  1 active torsions:
REMARK  status: ('A' for Active; 'I' for Inactive)
REMARK    1  A    between atoms: C3_4  and  O_7 
ROOT
ATOM      1  C   UNL d   1       2.959   3.162   0.892  0.00  0.00    -0.033 A 
ATOM      2  C1  UNL d   1       1.928   2.301   0.511  0.00  0.00     0.039 A 
ATOM      3  C2  UNL d   1       2.151   0.924   0.450  0.00  0.00    -0.080 A 
ATOM      4  C3  UNL d   1       3.409   0.421   0.773  0.00  0.00     0.150 A 
ATOM      5  C4  UNL d   1       4.440   1.272   1.156  0.00  0.00    -0.007 A 
ATOM      6  C5  UNL d   1       4.215   2.647   1.216  0.00  0.00     0.039 A 
ENDROOT
BRANCH   4   7
ATOM      7  O   UNL d   1       3.676  -0.915   0.723  0.00  0.00    -0.526 OA
ATOM      8  H5  UNL d   1       2.879  -1.377   0.414  0.00  0.00     0.418 HD
ENDBRANCH   4   7
TORSDOF 1
ENDMDL
