MODEL 1
REMARK minimizedAffinity -0.420306623
REMARK minimizedRMSD -1
REMARK  1 active torsions:
REMARK  status: ('A' for Active; 'I' for Inactive)
REMARK    1  A    between atoms: C3_4  and  O_7 
ROOT
ATOM      1  C   UNL d   1       3.229  -0.253   1.276  0.00  0.00    -0.033 A 
ATOM      2  C1  UNL d   1       2.352   0.833   1.288  0.00  0.00     0.039 A 
ATOM      3  C2  UNL d   1       2.257   1.668   0.173  0.00  0.00    -0.080 A 
ATOM      4  C3  UNL d   1       3.042   1.405  -0.946  0.00  0.00     0.150 A 
ATOM      5  C4  UNL d   1       3.915   0.323  -0.966  0.00  0.00    -0.007 A 
ATOM      6  C5  UNL d   1       4.010  -0.509   0.149  0.00  0.00     0.039 A 
ENDROOT
BRANCH   4   7
ATOM      7  O   UNL d   1       2.988   2.195  -2.056  0.00  0.00    -0.526 OA
ATOM      8  H5  UNL d   1       2.363   2.920  -1.887  0.00  0.00     0.418 HD
ENDBRANCH   4   7
TORSDOF 1
ENDMDL
