MODEL 1
REMARK minimizedAffinity 1.70780694
REMARK minimizedRMSD -1
REMARK  1 active torsions:
REMARK  status: ('A' for Active; 'I' for Inactive)
REMARK    1  A    between atoms: C3_4  and  O_7 
ROOT
ATOM      1  C   UNL d   1      -1.165  -3.005  -0.050  0.00  0.00    -0.033 A 
ATOM      2  C1  UNL d   1      -2.361  -2.540  -0.600  0.00  0.00     0.039 A 
ATOM      3  C2  UNL d   1      -2.516  -2.475  -1.986  0.00  0.00    -0.080 A 
ATOM      4  C3  UNL d   1      -1.469  -2.878  -2.810  0.00  0.00     0.150 A 
ATOM      5  C4  UNL d   1      -0.275  -3.346  -2.269  0.00  0.00    -0.007 A 
ATOM      6  C5  UNL d   1      -0.123  -3.409  -0.885  0.00  0.00     0.039 A 
ENDROOT
BRANCH   4   7
ATOM      7  O   UNL d   1      -1.571  -2.828  -4.168  0.00  0.00    -0.526 OA
ATOM      8  H5  UNL d   1      -2.440  -2.458  -4.398  0.00  0.00     0.418 HD
ENDBRANCH   4   7
TORSDOF 1
ENDMDL
