MODEL 1
REMARK minimizedAffinity -1.40911889
REMARK minimizedRMSD -1
REMARK  1 active torsions:
REMARK  status: ('A' for Active; 'I' for Inactive)
REMARK    1  A    between atoms: C3_4  and  O_7 
ROOT
ATOM      1  C   UNL d   1      -0.916  -3.238  -3.176  0.00  0.00    -0.033 A 
ATOM      2  C1  UNL d   1       0.158  -3.795  -2.481  0.00  0.00     0.039 A 
ATOM      3  C2  UNL d   1       0.126  -3.872  -1.087  0.00  0.00    -0.080 A 
ATOM      4  C3  UNL d   1      -0.986  -3.390  -0.402  0.00  0.00     0.150 A 
ATOM      5  C4  UNL d   1      -2.061  -2.837  -1.088  0.00  0.00    -0.007 A 
ATOM      6  C5  UNL d   1      -2.027  -2.760  -2.480  0.00  0.00     0.039 A 
ENDROOT
BRANCH   4   7
ATOM      7  O   UNL d   1      -1.061  -3.439   0.958  0.00  0.00    -0.526 OA
ATOM      8  H5  UNL d   1      -0.234  -3.820   1.299  0.00  0.00     0.418 HD
ENDBRANCH   4   7
TORSDOF 1
ENDMDL
