MODEL 1
REMARK minimizedAffinity -3.78925848
REMARK minimizedRMSD -1
REMARK  1 active torsions:
REMARK  status: ('A' for Active; 'I' for Inactive)
REMARK    1  A    between atoms: C3_4  and  O_7 
ROOT
ATOM      1  C   UNL d   1       6.000   0.391   1.466  0.00  0.00    -0.033 A 
ATOM      2  C1  UNL d   1       5.887   1.720   1.053  0.00  0.00     0.039 A 
ATOM      3  C2  UNL d   1       4.652   2.222   0.640  0.00  0.00    -0.080 A 
ATOM      4  C3  UNL d   1       3.539   1.387   0.644  0.00  0.00     0.150 A 
ATOM      5  C4  UNL d   1       3.643   0.062   1.057  0.00  0.00    -0.007 A 
ATOM      6  C5  UNL d   1       4.877  -0.438   1.469  0.00  0.00     0.039 A 
ENDROOT
BRANCH   4   7
ATOM      7  O   UNL d   1       2.313   1.830   0.244  0.00  0.00    -0.526 OA
ATOM      8  H5  UNL d   1       2.399   2.755  -0.041  0.00  0.00     0.418 HD
ENDBRANCH   4   7
TORSDOF 1
ENDMDL
