MODEL 1
REMARK minimizedAffinity 6.23114491
REMARK minimizedRMSD -1
REMARK  1 active torsions:
REMARK  status: ('A' for Active; 'I' for Inactive)
REMARK    1  A    between atoms: C3_4  and  O_7 
ROOT
ATOM      1  C   UNL d   1      -0.205  -3.300  -0.763  0.00  0.00    -0.033 A 
ATOM      2  C1  UNL d   1      -0.553  -3.930  -1.959  0.00  0.00     0.039 A 
ATOM      3  C2  UNL d   1      -1.784  -3.660  -2.561  0.00  0.00    -0.080 A 
ATOM      4  C3  UNL d   1      -2.655  -2.757  -1.958  0.00  0.00     0.150 A 
ATOM      5  C4  UNL d   1      -2.313  -2.122  -0.768  0.00  0.00    -0.007 A 
ATOM      6  C5  UNL d   1      -1.084  -2.395  -0.168  0.00  0.00     0.039 A 
ENDROOT
BRANCH   4   7
ATOM      7  O   UNL d   1      -3.869  -2.464  -2.505  0.00  0.00    -0.526 OA
ATOM      8  H5  UNL d   1      -3.981  -2.998  -3.309  0.00  0.00     0.418 HD
ENDBRANCH   4   7
TORSDOF 1
ENDMDL
