MODEL 1
REMARK minimizedAffinity -2.34407949
REMARK minimizedRMSD -1
REMARK  1 active torsions:
REMARK  status: ('A' for Active; 'I' for Inactive)
REMARK    1  A    between atoms: C3_4  and  O_7 
ROOT
ATOM      1  C   UNL d   1      -2.629  -2.738  -0.986  0.00  0.00    -0.033 A 
ATOM      2  C1  UNL d   1      -1.650  -2.806   0.007  0.00  0.00     0.039 A 
ATOM      3  C2  UNL d   1      -0.344  -3.175  -0.321  0.00  0.00    -0.080 A 
ATOM      4  C3  UNL d   1      -0.030  -3.472  -1.644  0.00  0.00     0.150 A 
ATOM      5  C4  UNL d   1      -0.999  -3.403  -2.640  0.00  0.00    -0.007 A 
ATOM      6  C5  UNL d   1      -2.303  -3.036  -2.310  0.00  0.00     0.039 A 
ENDROOT
BRANCH   4   7
ATOM      7  O   UNL d   1       1.230  -3.841  -2.012  0.00  0.00    -0.526 OA
ATOM      8  H5  UNL d   1       1.786  -3.873  -1.215  0.00  0.00     0.418 HD
ENDBRANCH   4   7
TORSDOF 1
ENDMDL
