MODEL 1
REMARK minimizedAffinity 1.36182868
REMARK minimizedRMSD -1
REMARK  1 active torsions:
REMARK  status: ('A' for Active; 'I' for Inactive)
REMARK    1  A    between atoms: C3_4  and  O_7 
ROOT
ATOM      1  C   UNL d   1      -1.060  -2.246  -2.474  0.00  0.00    -0.033 A 
ATOM      2  C1  UNL d   1      -1.838  -2.574  -1.361  0.00  0.00     0.039 A 
ATOM      3  C2  UNL d   1      -3.019  -3.300  -1.523  0.00  0.00    -0.080 A 
ATOM      4  C3  UNL d   1      -3.410  -3.694  -2.800  0.00  0.00     0.150 A 
ATOM      5  C4  UNL d   1      -2.638  -3.375  -3.912  0.00  0.00    -0.007 A 
ATOM      6  C5  UNL d   1      -1.459  -2.648  -3.749  0.00  0.00     0.039 A 
ENDROOT
BRANCH   4   7
ATOM      7  O   UNL d   1      -4.558  -4.400  -3.007  0.00  0.00    -0.526 OA
ATOM      8  H5  UNL d   1      -5.002  -4.523  -2.152  0.00  0.00     0.418 HD
ENDBRANCH   4   7
TORSDOF 1
ENDMDL
