MODEL 1
REMARK minimizedAffinity 3.93496776
REMARK minimizedRMSD -1
REMARK  1 active torsions:
REMARK  status: ('A' for Active; 'I' for Inactive)
REMARK    1  A    between atoms: C3_4  and  O_7 
ROOT
ATOM      1  C   UNL d   1       2.331   1.161   2.065  0.00  0.00    -0.033 A 
ATOM      2  C1  UNL d   1       3.170   0.436   2.913  0.00  0.00     0.039 A 
ATOM      3  C2  UNL d   1       4.186  -0.360   2.381  0.00  0.00    -0.080 A 
ATOM      4  C3  UNL d   1       4.353  -0.422   1.000  0.00  0.00     0.150 A 
ATOM      5  C4  UNL d   1       3.523   0.301   0.149  0.00  0.00    -0.007 A 
ATOM      6  C5  UNL d   1       2.508   1.094   0.683  0.00  0.00     0.039 A 
ENDROOT
BRANCH   4   7
ATOM      7  O   UNL d   1       5.327  -1.188   0.433  0.00  0.00    -0.526 OA
ATOM      8  H5  UNL d   1       5.804  -1.653   1.141  0.00  0.00     0.418 HD
ENDBRANCH   4   7
TORSDOF 1
ENDMDL
