MODEL 1
REMARK minimizedAffinity 1.59748638
REMARK minimizedRMSD -1
REMARK  1 active torsions:
REMARK  status: ('A' for Active; 'I' for Inactive)
REMARK    1  A    between atoms: C3_4  and  O_7 
ROOT
ATOM      1  C   UNL d   1      -2.895  -4.185   0.368  0.00  0.00    -0.033 A 
ATOM      2  C1  UNL d   1      -3.729  -4.303  -0.746  0.00  0.00     0.039 A 
ATOM      3  C2  UNL d   1      -3.542  -3.471  -1.851  0.00  0.00    -0.080 A 
ATOM      4  C3  UNL d   1      -2.519  -2.527  -1.830  0.00  0.00     0.150 A 
ATOM      5  C4  UNL d   1      -1.682  -2.407  -0.725  0.00  0.00    -0.007 A 
ATOM      6  C5  UNL d   1      -1.871  -3.238   0.378  0.00  0.00     0.039 A 
ENDROOT
BRANCH   4   7
ATOM      7  O   UNL d   1      -2.300  -1.689  -2.883  0.00  0.00    -0.526 OA
ATOM      8  H5  UNL d   1      -2.972  -1.867  -3.562  0.00  0.00     0.418 HD
ENDBRANCH   4   7
TORSDOF 1
ENDMDL
