MODEL 1
REMARK minimizedAffinity -1.73012435
REMARK minimizedRMSD -1
REMARK  1 active torsions:
REMARK  status: ('A' for Active; 'I' for Inactive)
REMARK    1  A    between atoms: C3_4  and  O_7 
ROOT
ATOM      1  C   UNL d   1      -2.932  -2.881  -2.946  0.00  0.00    -0.033 A 
ATOM      2  C1  UNL d   1      -1.707  -3.012  -3.604  0.00  0.00     0.039 A 
ATOM      3  C2  UNL d   1      -0.532  -3.175  -2.868  0.00  0.00    -0.080 A 
ATOM      4  C3  UNL d   1      -0.594  -3.206  -1.478  0.00  0.00     0.150 A 
ATOM      5  C4  UNL d   1      -1.811  -3.080  -0.816  0.00  0.00    -0.007 A 
ATOM      6  C5  UNL d   1      -2.984  -2.916  -1.552  0.00  0.00     0.039 A 
ENDROOT
BRANCH   4   7
ATOM      7  O   UNL d   1       0.527  -3.358  -0.717  0.00  0.00    -0.526 OA
ATOM      8  H5  UNL d   1       1.296  -3.404  -1.309  0.00  0.00     0.418 HD
ENDBRANCH   4   7
TORSDOF 1
ENDMDL
