MODEL 1
REMARK minimizedAffinity 4.84577799
REMARK minimizedRMSD -1
REMARK  1 active torsions:
REMARK  status: ('A' for Active; 'I' for Inactive)
REMARK    1  A    between atoms: C3_4  and  O_7 
ROOT
ATOM      1  C   UNL d   1      -1.858  -3.671  -3.296  0.00  0.00    -0.033 A 
ATOM      2  C1  UNL d   1      -2.780  -2.851  -2.643  0.00  0.00     0.039 A 
ATOM      3  C2  UNL d   1      -2.589  -2.512  -1.302  0.00  0.00    -0.080 A 
ATOM      4  C3  UNL d   1      -1.473  -2.998  -0.627  0.00  0.00     0.150 A 
ATOM      5  C4  UNL d   1      -0.548  -3.813  -1.272  0.00  0.00    -0.007 A 
ATOM      6  C5  UNL d   1      -0.741  -4.151  -2.611  0.00  0.00     0.039 A 
ENDROOT
BRANCH   4   7
ATOM      7  O   UNL d   1      -1.246  -2.699   0.684  0.00  0.00    -0.526 OA
ATOM      8  H5  UNL d   1      -1.982  -2.152   1.006  0.00  0.00     0.418 HD
ENDBRANCH   4   7
TORSDOF 1
ENDMDL
