MODEL 1
REMARK minimizedAffinity -3.2332046
REMARK minimizedRMSD -1
REMARK  0 active torsions:
REMARK  status: ('A' for Active; 'I' for Inactive)
ROOT
ATOM      1  C4' PXY d   1      -1.636   0.578  -0.758  0.00  0.00     0.077 C 
ATOM      2  C1' PXY d   1       3.544  -0.798   1.408  0.00  0.00     0.077 C 
ATOM      3  C1  PXY d   1       2.184  -0.450   0.837  0.00  0.00    -0.082 A 
ATOM      4  C2  PXY d   1       1.944   0.784   0.424  0.00  0.00     0.003 A 
ATOM      5  C3  PXY d   1       0.709   1.124  -0.065  0.00  0.00     0.003 A 
ATOM      6  C4  PXY d   1      -0.274   0.179  -0.183  0.00  0.00    -0.082 A 
ATOM      7  C5  PXY d   1      -0.034  -1.085   0.227  0.00  0.00     0.003 A 
ATOM      8  C6  PXY d   1       1.213  -1.400   0.759  0.00  0.00     0.003 A 
ENDROOT
TORSDOF 0
ENDMDL
