MODEL 1
REMARK minimizedAffinity -3.9347055
REMARK minimizedRMSD -1
REMARK  0 active torsions:
REMARK  status: ('A' for Active; 'I' for Inactive)
ROOT
ATOM      1  C4' PXY d   1      -2.647   0.282  -2.309  0.00  0.00     0.077 C 
ATOM      2  C1' PXY d   1       2.008   0.065   1.111  0.00  0.00     0.077 C 
ATOM      3  C1  PXY d   1       0.781   0.116   0.224  0.00  0.00    -0.082 A 
ATOM      4  C2  PXY d   1       0.925   0.218  -1.088  0.00  0.00     0.003 A 
ATOM      5  C3  PXY d   1      -0.175   0.298  -1.903  0.00  0.00     0.003 A 
ATOM      6  C4  PXY d   1      -1.435   0.218  -1.374  0.00  0.00    -0.082 A 
ATOM      7  C5  PXY d   1      -1.591   0.103  -0.039  0.00  0.00     0.003 A 
ATOM      8  C6  PXY d   1      -0.462   0.066   0.775  0.00  0.00     0.003 A 
ENDROOT
TORSDOF 0
ENDMDL
