MODEL 1
REMARK minimizedAffinity -0.905398428
REMARK minimizedRMSD -1
REMARK  0 active torsions:
REMARK  status: ('A' for Active; 'I' for Inactive)
ROOT
ATOM      1  C4' PXY d   1      -2.314   0.552  -1.838  0.00  0.00     0.077 C 
ATOM      2  C1' PXY d   1       2.160   0.018   1.784  0.00  0.00     0.077 C 
ATOM      3  C1  PXY d   1       0.984   0.145   0.835  0.00  0.00    -0.082 A 
ATOM      4  C2  PXY d   1       0.964   1.125  -0.054  0.00  0.00     0.003 A 
ATOM      5  C3  PXY d   1      -0.107   1.274  -0.897  0.00  0.00     0.003 A 
ATOM      6  C4  PXY d   1      -1.143   0.379  -0.867  0.00  0.00    -0.082 A 
ATOM      7  C5  PXY d   1      -1.124  -0.629   0.030  0.00  0.00     0.003 A 
ATOM      8  C6  PXY d   1      -0.048  -0.739   0.906  0.00  0.00     0.003 A 
ENDROOT
TORSDOF 0
ENDMDL
