MODEL 1
REMARK minimizedAffinity -4.72579622
REMARK minimizedRMSD -1
REMARK  0 active torsions:
REMARK  status: ('A' for Active; 'I' for Inactive)
ROOT
ATOM      1  C4' PXY d   1       3.536  -0.703   1.493  0.00  0.00     0.077 C 
ATOM      2  C1' PXY d   1      -1.738   0.333  -0.634  0.00  0.00     0.077 C 
ATOM      3  C1  PXY d   1      -0.359   0.052  -0.069  0.00  0.00    -0.082 A 
ATOM      4  C2  PXY d   1       0.556   1.007  -0.070  0.00  0.00     0.003 A 
ATOM      5  C3  PXY d   1       1.817   0.760   0.408  0.00  0.00     0.003 A 
ATOM      6  C4  PXY d   1       2.129  -0.461   0.941  0.00  0.00    -0.082 A 
ATOM      7  C5  PXY d   1       1.197  -1.438   0.957  0.00  0.00     0.003 A 
ATOM      8  C6  PXY d   1      -0.065  -1.180   0.429  0.00  0.00     0.003 A 
ENDROOT
TORSDOF 0
ENDMDL
