MODEL 1
REMARK minimizedAffinity -4.14213896
REMARK minimizedRMSD -1
REMARK  0 active torsions:
REMARK  status: ('A' for Active; 'I' for Inactive)
ROOT
ATOM      1  C4' PXY d   1      -1.751   0.381  -1.379  0.00  0.00     0.077 C 
ATOM      2  C1' PXY d   1       3.370  -0.706   1.072  0.00  0.00     0.077 C 
ATOM      3  C1  PXY d   1       2.030  -0.408   0.429  0.00  0.00    -0.082 A 
ATOM      4  C2  PXY d   1       1.007  -1.220   0.642  0.00  0.00     0.003 A 
ATOM      5  C3  PXY d   1      -0.203  -0.983   0.042  0.00  0.00     0.003 A 
ATOM      6  C4  PXY d   1      -0.383   0.125  -0.742  0.00  0.00    -0.082 A 
ATOM      7  C5  PXY d   1       0.653   0.963  -0.956  0.00  0.00     0.003 A 
ATOM      8  C6  PXY d   1       1.885   0.683  -0.371  0.00  0.00     0.003 A 
ENDROOT
TORSDOF 0
ENDMDL
