MODEL 1
REMARK minimizedAffinity -1.83196938
REMARK minimizedRMSD -1
REMARK  0 active torsions:
REMARK  status: ('A' for Active; 'I' for Inactive)
ROOT
ATOM      1  C4' PXY d   1       2.318   2.473  -0.682  0.00  0.00     0.077 C 
ATOM      2  C1' PXY d   1       0.347  -2.519   1.465  0.00  0.00     0.077 C 
ATOM      3  C1  PXY d   1       0.876  -1.212   0.908  0.00  0.00    -0.082 A 
ATOM      4  C2  PXY d   1       0.026  -0.270   0.533  0.00  0.00     0.003 A 
ATOM      5  C3  PXY d   1       0.485   0.906  -0.002  0.00  0.00     0.003 A 
ATOM      6  C4  PXY d   1       1.830   1.141  -0.106  0.00  0.00    -0.082 A 
ATOM      7  C5  PXY d   1       2.704   0.189   0.285  0.00  0.00     0.003 A 
ATOM      8  C6  PXY d   1       2.216  -1.014   0.787  0.00  0.00     0.003 A 
ENDROOT
TORSDOF 0
ENDMDL
