MODEL 1
REMARK minimizedAffinity -5.04549217
REMARK minimizedRMSD -1
REMARK  0 active torsions:
REMARK  status: ('A' for Active; 'I' for Inactive)
ROOT
ATOM      1  C4' PXY d   1      -1.444   1.032  -0.242  0.00  0.00     0.077 C 
ATOM      2  C1' PXY d   1       3.812  -1.023   1.009  0.00  0.00     0.077 C 
ATOM      3  C1  PXY d   1       2.437  -0.473   0.684  0.00  0.00    -0.082 A 
ATOM      4  C2  PXY d   1       1.389  -1.280   0.699  0.00  0.00     0.003 A 
ATOM      5  C3  PXY d   1       0.144  -0.805   0.377  0.00  0.00     0.003 A 
ATOM      6  C4  PXY d   1      -0.039   0.521   0.088  0.00  0.00    -0.082 A 
ATOM      7  C5  PXY d   1       1.024   1.353   0.081  0.00  0.00     0.003 A 
ATOM      8  C6  PXY d   1       2.286   0.843   0.371  0.00  0.00     0.003 A 
ENDROOT
TORSDOF 0
ENDMDL
