MODEL 1
REMARK minimizedAffinity -2.06343031
REMARK minimizedRMSD -1
REMARK  0 active torsions:
REMARK  status: ('A' for Active; 'I' for Inactive)
ROOT
ATOM      1  C4' PXY d   1      -1.668  -0.434  -1.482  0.00  0.00     0.077 C 
ATOM      2  C1' PXY d   1       3.357  -0.015   1.345  0.00  0.00     0.077 C 
ATOM      3  C1  PXY d   1       2.040  -0.138   0.604  0.00  0.00    -0.082 A 
ATOM      4  C2  PXY d   1       1.600   0.878  -0.121  0.00  0.00     0.003 A 
ATOM      5  C3  PXY d   1       0.396   0.796  -0.772  0.00  0.00     0.003 A 
ATOM      6  C4  PXY d   1      -0.339  -0.358  -0.724  0.00  0.00    -0.082 A 
ATOM      7  C5  PXY d   1       0.108  -1.403   0.004  0.00  0.00     0.003 A 
ATOM      8  C6  PXY d   1       1.313  -1.284   0.691  0.00  0.00     0.003 A 
ENDROOT
TORSDOF 0
ENDMDL
