MODEL 1
REMARK minimizedAffinity 5.57150745
REMARK minimizedRMSD -1
REMARK  0 active torsions:
REMARK  status: ('A' for Active; 'I' for Inactive)
ROOT
ATOM      1  C4' PXY d   1      -3.723   1.232  -3.494  0.00  0.00     0.077 C 
ATOM      2  C1' PXY d   1      -5.732   4.158   1.069  0.00  0.00     0.077 C 
ATOM      3  C1  PXY d   1      -5.196   3.399  -0.130  0.00  0.00    -0.082 A 
ATOM      4  C2  PXY d   1      -5.992   2.576  -0.792  0.00  0.00     0.003 A 
ATOM      5  C3  PXY d   1      -5.515   1.859  -1.859  0.00  0.00     0.003 A 
ATOM      6  C4  PXY d   1      -4.224   2.025  -2.284  0.00  0.00    -0.082 A 
ATOM      7  C5  PXY d   1      -3.408   2.871  -1.619  0.00  0.00     0.003 A 
ATOM      8  C6  PXY d   1      -3.901   3.559  -0.514  0.00  0.00     0.003 A 
ENDROOT
TORSDOF 0
ENDMDL
