MODEL 1
REMARK minimizedAffinity -2.79816318
REMARK minimizedRMSD -1
REMARK  0 active torsions:
REMARK  status: ('A' for Active; 'I' for Inactive)
ROOT
ATOM      1  C   UNL d   1      -1.336   1.875  -3.571  0.00  0.00     0.172 C 
ATOM      2  N   UNL d   1      -2.749   2.147  -3.453  0.00  0.00    -0.070 N 
ATOM      3  C1  UNL d   1      -3.748   1.212  -3.498  0.00  0.00    -0.004 A 
ATOM      4  C2  UNL d   1      -4.949   1.870  -3.348  0.00  0.00    -0.047 A 
ATOM      5  C3  UNL d   1      -4.662   3.249  -3.209  0.00  0.00    -0.047 A 
ATOM      6  C4  UNL d   1      -3.293   3.392  -3.278  0.00  0.00    -0.004 A 
ENDROOT
TORSDOF 0
ENDMDL
