MODEL 1
REMARK minimizedAffinity 0.91130656
REMARK minimizedRMSD -1
REMARK  0 active torsions:
REMARK  status: ('A' for Active; 'I' for Inactive)
ROOT
ATOM      1  C   UNL d   1       3.388  -1.428  -3.835  0.00  0.00     0.172 C 
ATOM      2  N   UNL d   1       4.267  -2.289  -4.590  0.00  0.00    -0.070 N 
ATOM      3  C1  UNL d   1       5.201  -1.875  -5.502  0.00  0.00    -0.004 A 
ATOM      4  C2  UNL d   1       5.831  -2.995  -6.000  0.00  0.00    -0.047 A 
ATOM      5  C3  UNL d   1       5.255  -4.122  -5.366  0.00  0.00    -0.047 A 
ATOM      6  C4  UNL d   1       4.290  -3.656  -4.498  0.00  0.00    -0.004 A 
ENDROOT
TORSDOF 0
ENDMDL
