MODEL 1
REMARK minimizedAffinity 0.387483537
REMARK minimizedRMSD -1
REMARK  0 active torsions:
REMARK  status: ('A' for Active; 'I' for Inactive)
ROOT
ATOM      1  C   UNL d   1       3.786  -3.629   1.097  0.00  0.00     0.172 C 
ATOM      2  N   UNL d   1       2.738  -4.206   0.289  0.00  0.00    -0.070 N 
ATOM      3  C1  UNL d   1       1.977  -3.535  -0.631  0.00  0.00    -0.004 A 
ATOM      4  C2  UNL d   1       1.095  -4.436  -1.187  0.00  0.00    -0.047 A 
ATOM      5  C3  UNL d   1       1.333  -5.692  -0.580  0.00  0.00    -0.047 A 
ATOM      6  C4  UNL d   1       2.356  -5.521   0.330  0.00  0.00    -0.004 A 
ENDROOT
TORSDOF 0
ENDMDL
