MODEL 1
REMARK minimizedAffinity -2.1414144
REMARK minimizedRMSD -1
REMARK  0 active torsions:
REMARK  status: ('A' for Active; 'I' for Inactive)
ROOT
ATOM      1  C   UNL d   1       5.994   3.489  -4.315  0.00  0.00     0.172 C 
ATOM      2  N   UNL d   1       5.349   4.295  -3.304  0.00  0.00    -0.070 N 
ATOM      3  C1  UNL d   1       4.048   4.174  -2.897  0.00  0.00    -0.004 A 
ATOM      4  C2  UNL d   1       3.821   5.121  -1.921  0.00  0.00    -0.047 A 
ATOM      5  C3  UNL d   1       5.028   5.837  -1.737  0.00  0.00    -0.047 A 
ATOM      6  C4  UNL d   1       5.957   5.305  -2.606  0.00  0.00    -0.004 A 
ENDROOT
TORSDOF 0
ENDMDL
