MODEL 1
REMARK minimizedAffinity -3.76265645
REMARK minimizedRMSD -1
REMARK  0 active torsions:
REMARK  status: ('A' for Active; 'I' for Inactive)
ROOT
ATOM      1  C   UNL d   1       1.753   1.252   3.902  0.00  0.00     0.172 C 
ATOM      2  N   UNL d   1       2.121   0.384   2.808  0.00  0.00    -0.070 N 
ATOM      3  C1  UNL d   1       2.337  -0.965   2.898  0.00  0.00    -0.004 A 
ATOM      4  C2  UNL d   1       2.666  -1.424   1.641  0.00  0.00    -0.047 A 
ATOM      5  C3  UNL d   1       2.647  -0.312   0.765  0.00  0.00    -0.047 A 
ATOM      6  C4  UNL d   1       2.307   0.794   1.514  0.00  0.00    -0.004 A 
ENDROOT
TORSDOF 0
ENDMDL
