MODEL 1
REMARK minimizedAffinity -5.2885251
REMARK minimizedRMSD -1
REMARK  0 active torsions:
REMARK  status: ('A' for Active; 'I' for Inactive)
ROOT
ATOM      1  C1  DEN d   1      -1.662  -0.970   1.798  0.00  0.00     0.130 A 
ATOM      2  C2  DEN d   1      -0.909  -0.937   3.048  0.00  0.00    -0.031 A 
ATOM      3  C3  DEN d   1       0.451  -0.445   2.749  0.00  0.00     0.027 A 
ATOM      4  C4  DEN d   1       1.456   0.271   0.484  0.00  0.00     0.027 A 
ATOM      5  C5  DEN d   1       1.204   0.407  -0.863  0.00  0.00    -0.003 A 
ATOM      6  C6  DEN d   1      -0.000   0.063  -1.419  0.00  0.00     0.001 A 
ATOM      7  C7  DEN d   1      -1.014  -0.390  -0.616  0.00  0.00     0.017 A 
ATOM      8  C8  DEN d   1      -0.765  -0.536   0.742  0.00  0.00    -0.094 A 
ATOM      9  C9  DEN d   1       0.455  -0.172   1.287  0.00  0.00    -0.072 A 
ENDROOT
TORSDOF 0
ENDMDL
