MODEL 1
REMARK minimizedAffinity -2.13490534
REMARK minimizedRMSD -1
REMARK  0 active torsions:
REMARK  status: ('A' for Active; 'I' for Inactive)
ROOT
ATOM      1  C1  DEN d   1      -2.109   0.756   0.356  0.00  0.00     0.130 A 
ATOM      2  C2  DEN d   1      -1.727   0.929  -1.043  0.00  0.00    -0.031 A 
ATOM      3  C3  DEN d   1      -0.258   0.813  -1.133  0.00  0.00     0.027 A 
ATOM      4  C4  DEN d   1       1.454   0.381   0.748  0.00  0.00     0.027 A 
ATOM      5  C5  DEN d   1       1.607   0.179   2.102  0.00  0.00    -0.003 A 
ATOM      6  C6  DEN d   1       0.545   0.190   2.966  0.00  0.00     0.001 A 
ATOM      7  C7  DEN d   1      -0.725   0.361   2.480  0.00  0.00     0.017 A 
ATOM      8  C8  DEN d   1      -0.886   0.572   1.117  0.00  0.00    -0.094 A 
ATOM      9  C9  DEN d   1       0.199   0.546   0.258  0.00  0.00    -0.072 A 
ENDROOT
TORSDOF 0
ENDMDL
