MODEL 1
REMARK minimizedAffinity -5.30268717
REMARK minimizedRMSD -1
REMARK  0 active torsions:
REMARK  status: ('A' for Active; 'I' for Inactive)
ROOT
ATOM      1  C1  DEN d   1       1.141  -0.655   1.750  0.00  0.00     0.130 A 
ATOM      2  C2  DEN d   1       0.256  -0.627   2.911  0.00  0.00    -0.031 A 
ATOM      3  C3  DEN d   1      -1.073  -0.169   2.461  0.00  0.00     0.027 A 
ATOM      4  C4  DEN d   1      -1.846   0.490   0.089  0.00  0.00     0.027 A 
ATOM      5  C5  DEN d   1      -1.446   0.636  -1.221  0.00  0.00    -0.003 A 
ATOM      6  C6  DEN d   1      -0.159   0.398  -1.623  0.00  0.00     0.001 A 
ATOM      7  C7  DEN d   1       0.765  -0.045  -0.714  0.00  0.00     0.017 A 
ATOM      8  C8  DEN d   1       0.372  -0.188   0.610  0.00  0.00    -0.094 A 
ATOM      9  C9  DEN d   1      -0.937   0.047   0.995  0.00  0.00    -0.072 A 
ENDROOT
TORSDOF 0
ENDMDL
