MODEL 1
REMARK minimizedAffinity -0.810363948
REMARK minimizedRMSD -1
REMARK  0 active torsions:
REMARK  status: ('A' for Active; 'I' for Inactive)
ROOT
ATOM      1  C1  DEN d   1      -1.306  -0.865   2.135  0.00  0.00     0.130 A 
ATOM      2  C2  DEN d   1      -0.550  -0.501   3.330  0.00  0.00    -0.031 A 
ATOM      3  C3  DEN d   1       0.637   0.268   2.903  0.00  0.00     0.027 A 
ATOM      4  C4  DEN d   1       1.369   0.930   0.520  0.00  0.00     0.027 A 
ATOM      5  C5  DEN d   1       1.055   0.837  -0.818  0.00  0.00    -0.003 A 
ATOM      6  C6  DEN d   1      -0.042   0.148  -1.264  0.00  0.00     0.001 A 
ATOM      7  C7  DEN d   1      -0.888  -0.439  -0.361  0.00  0.00     0.017 A 
ATOM      8  C8  DEN d   1      -0.573  -0.356   0.989  0.00  0.00    -0.094 A 
ATOM      9  C9  DEN d   1       0.533   0.356   1.421  0.00  0.00    -0.072 A 
ENDROOT
TORSDOF 0
ENDMDL
