MODEL 1
REMARK minimizedAffinity -3.47226429
REMARK minimizedRMSD -1
REMARK  0 active torsions:
REMARK  status: ('A' for Active; 'I' for Inactive)
ROOT
ATOM      1  C1  DEN d   1       0.362  -1.033   1.451  0.00  0.00     0.130 A 
ATOM      2  C2  DEN d   1      -0.865  -1.009   2.242  0.00  0.00    -0.031 A 
ATOM      3  C3  DEN d   1      -1.902  -0.311   1.455  0.00  0.00     0.027 A 
ATOM      4  C4  DEN d   1      -1.727   0.723  -0.901  0.00  0.00     0.027 A 
ATOM      5  C5  DEN d   1      -0.883   0.960  -1.964  0.00  0.00    -0.003 A 
ATOM      6  C6  DEN d   1       0.433   0.582  -1.949  0.00  0.00     0.001 A 
ATOM      7  C7  DEN d   1       0.933  -0.094  -0.867  0.00  0.00     0.017 A 
ATOM      8  C8  DEN d   1       0.090  -0.330   0.211  0.00  0.00    -0.094 A 
ATOM      9  C9  DEN d   1      -1.241   0.050   0.172  0.00  0.00    -0.072 A 
ENDROOT
TORSDOF 0
ENDMDL
