MODEL 1
REMARK minimizedAffinity -1.18724155
REMARK minimizedRMSD -1
REMARK  0 active torsions:
REMARK  status: ('A' for Active; 'I' for Inactive)
ROOT
ATOM      1  C1  DEN d   1      -1.036  -1.335   2.068  0.00  0.00     0.130 A 
ATOM      2  C2  DEN d   1      -0.528  -0.751   3.306  0.00  0.00    -0.031 A 
ATOM      3  C3  DEN d   1       0.327   0.399   2.951  0.00  0.00     0.027 A 
ATOM      4  C4  DEN d   1       0.907   1.331   0.616  0.00  0.00     0.027 A 
ATOM      5  C5  DEN d   1       0.721   1.161  -0.738  0.00  0.00    -0.003 A 
ATOM      6  C6  DEN d   1      -0.030   0.135  -1.249  0.00  0.00     0.001 A 
ATOM      7  C7  DEN d   1      -0.660  -0.734  -0.398  0.00  0.00     0.017 A 
ATOM      8  C8  DEN d   1      -0.471  -0.574   0.969  0.00  0.00    -0.094 A 
ATOM      9  C9  DEN d   1       0.282   0.477   1.466  0.00  0.00    -0.072 A 
ENDROOT
TORSDOF 0
ENDMDL
