MODEL 1
REMARK minimizedAffinity -0.894626737
REMARK minimizedRMSD -1
REMARK  0 active torsions:
REMARK  status: ('A' for Active; 'I' for Inactive)
ROOT
ATOM      1  C1  DEN d   1      -0.630  -0.568  -0.924  0.00  0.00     0.130 A 
ATOM      2  C2  DEN d   1       0.490   0.213  -1.440  0.00  0.00    -0.031 A 
ATOM      3  C3  DEN d   1       1.236   0.758  -0.288  0.00  0.00     0.027 A 
ATOM      4  C4  DEN d   1       0.769   0.467   2.232  0.00  0.00     0.027 A 
ATOM      5  C5  DEN d   1      -0.078  -0.101   3.158  0.00  0.00    -0.003 A 
ATOM      6  C6  DEN d   1      -1.178  -0.830   2.792  0.00  0.00     0.001 A 
ATOM      7  C7  DEN d   1      -1.436  -1.048   1.465  0.00  0.00     0.017 A 
ATOM      8  C8  DEN d   1      -0.591  -0.473   0.524  0.00  0.00    -0.094 A 
ATOM      9  C9  DEN d   1       0.523   0.250   0.915  0.00  0.00    -0.072 A 
ENDROOT
TORSDOF 0
ENDMDL
