MODEL 1
REMARK minimizedAffinity -1.76057935
REMARK minimizedRMSD -1
REMARK  0 active torsions:
REMARK  status: ('A' for Active; 'I' for Inactive)
ROOT
ATOM      1  C1  DEN d   1       1.155  -0.412  -1.083  0.00  0.00     0.130 A 
ATOM      2  C2  DEN d   1       0.194  -1.153  -1.896  0.00  0.00    -0.031 A 
ATOM      3  C3  DEN d   1      -0.958  -1.500  -1.040  0.00  0.00     0.027 A 
ATOM      4  C4  DEN d   1      -1.349  -0.960   1.451  0.00  0.00     0.027 A 
ATOM      5  C5  DEN d   1      -0.809  -0.361   2.568  0.00  0.00    -0.003 A 
ATOM      6  C6  DEN d   1       0.427   0.228   2.556  0.00  0.00     0.001 A 
ATOM      7  C7  DEN d   1       1.147   0.271   1.391  0.00  0.00     0.017 A 
ATOM      8  C8  DEN d   1       0.613  -0.337   0.262  0.00  0.00    -0.094 A 
ATOM      9  C9  DEN d   1      -0.644  -0.917   0.292  0.00  0.00    -0.072 A 
ENDROOT
TORSDOF 0
ENDMDL
