MODEL 1
REMARK minimizedAffinity -2.80352974
REMARK minimizedRMSD -1
REMARK  0 active torsions:
REMARK  status: ('A' for Active; 'I' for Inactive)
ROOT
ATOM      1  C1  DEN d   1      -1.234   0.002  -0.668  0.00  0.00     0.130 A 
ATOM      2  C2  DEN d   1      -0.184   0.051  -1.682  0.00  0.00    -0.031 A 
ATOM      3  C3  DEN d   1       1.118  -0.086  -0.999  0.00  0.00     0.027 A 
ATOM      4  C4  DEN d   1       1.608  -0.374   1.517  0.00  0.00     0.027 A 
ATOM      5  C5  DEN d   1       1.039  -0.462   2.769  0.00  0.00    -0.003 A 
ATOM      6  C6  DEN d   1      -0.314  -0.368   2.964  0.00  0.00     0.001 A 
ATOM      7  C7  DEN d   1      -1.147  -0.226   1.886  0.00  0.00     0.017 A 
ATOM      8  C8  DEN d   1      -0.581  -0.129   0.622  0.00  0.00    -0.094 A 
ATOM      9  C9  DEN d   1       0.788  -0.239   0.444  0.00  0.00    -0.072 A 
ENDROOT
TORSDOF 0
ENDMDL
