MODEL 1
REMARK minimizedAffinity -6.44609833
REMARK minimizedRMSD -1
REMARK  0 active torsions:
REMARK  status: ('A' for Active; 'I' for Inactive)
ROOT
ATOM      1  C1  DEN d   1       1.029   0.377   0.394  0.00  0.00     0.130 A 
ATOM      2  C2  DEN d   1       0.450   0.413  -0.947  0.00  0.00    -0.031 A 
ATOM      3  C3  DEN d   1      -0.993   0.124  -0.829  0.00  0.00     0.027 A 
ATOM      4  C4  DEN d   1      -2.381  -0.369   1.288  0.00  0.00     0.027 A 
ATOM      5  C5  DEN d   1      -2.327  -0.520   2.657  0.00  0.00    -0.003 A 
ATOM      6  C6  DEN d   1      -1.154  -0.417   3.357  0.00  0.00     0.001 A 
ATOM      7  C7  DEN d   1       0.006  -0.110   2.696  0.00  0.00     0.017 A 
ATOM      8  C8  DEN d   1      -0.040   0.036   1.316  0.00  0.00    -0.094 A 
ATOM      9  C9  DEN d   1      -1.237  -0.061   0.627  0.00  0.00    -0.072 A 
ENDROOT
TORSDOF 0
ENDMDL
