MODEL 1
REMARK minimizedAffinity -3.21394587
REMARK minimizedRMSD -1
REMARK  0 active torsions:
REMARK  status: ('A' for Active; 'I' for Inactive)
ROOT
ATOM      1  C1  DEN d   1      -0.144  -0.391   2.835  0.00  0.00     0.130 A 
ATOM      2  C2  DEN d   1      -1.536  -0.833   2.861  0.00  0.00    -0.031 A 
ATOM      3  C3  DEN d   1      -2.058  -0.781   1.480  0.00  0.00     0.027 A 
ATOM      4  C4  DEN d   1      -0.851  -0.066  -0.684  0.00  0.00     0.027 A 
ATOM      5  C5  DEN d   1       0.335   0.401  -1.207  0.00  0.00    -0.003 A 
ATOM      6  C6  DEN d   1       1.425   0.667  -0.420  0.00  0.00     0.001 A 
ATOM      7  C7  DEN d   1       1.365   0.424   0.927  0.00  0.00     0.017 A 
ATOM      8  C8  DEN d   1       0.171  -0.039   1.462  0.00  0.00    -0.094 A 
ATOM      9  C9  DEN d   1      -0.916  -0.314   0.648  0.00  0.00    -0.072 A 
ENDROOT
TORSDOF 0
ENDMDL
