MODEL 1
REMARK minimizedAffinity -4.59139967
REMARK minimizedRMSD -1
REMARK  0 active torsions:
REMARK  status: ('A' for Active; 'I' for Inactive)
ROOT
ATOM      1  C1  DEN d   1      -1.776  -0.928   1.981  0.00  0.00     0.130 A 
ATOM      2  C2  DEN d   1      -0.925  -0.863   3.165  0.00  0.00    -0.031 A 
ATOM      3  C3  DEN d   1       0.361  -0.255   2.770  0.00  0.00     0.027 A 
ATOM      4  C4  DEN d   1       1.111   0.593   0.452  0.00  0.00     0.027 A 
ATOM      5  C5  DEN d   1       0.736   0.738  -0.865  0.00  0.00    -0.003 A 
ATOM      6  C6  DEN d   1      -0.479   0.311  -1.330  0.00  0.00     0.001 A 
ATOM      7  C7  DEN d   1      -1.382  -0.242  -0.460  0.00  0.00     0.017 A 
ATOM      8  C8  DEN d   1      -1.008  -0.398   0.868  0.00  0.00    -0.094 A 
ATOM      9  C9  DEN d   1       0.220   0.051   1.321  0.00  0.00    -0.072 A 
ENDROOT
TORSDOF 0
ENDMDL
