MODEL 1
REMARK minimizedAffinity -2.86099529
REMARK minimizedRMSD -1
REMARK  0 active torsions:
REMARK  status: ('A' for Active; 'I' for Inactive)
ROOT
ATOM      1  C1  DEN d   1      -2.058  -0.519   2.019  0.00  0.00     0.130 A 
ATOM      2  C2  DEN d   1      -1.389  -0.503   3.317  0.00  0.00    -0.031 A 
ATOM      3  C3  DEN d   1       0.023  -0.130   3.098  0.00  0.00     0.027 A 
ATOM      4  C4  DEN d   1       1.230   0.425   0.888  0.00  0.00     0.027 A 
ATOM      5  C5  DEN d   1       1.080   0.533  -0.477  0.00  0.00    -0.003 A 
ATOM      6  C6  DEN d   1      -0.109   0.267  -1.104  0.00  0.00     0.001 A 
ATOM      7  C7  DEN d   1      -1.206  -0.077  -0.360  0.00  0.00     0.017 A 
ATOM      8  C8  DEN d   1      -1.060  -0.195   1.016  0.00  0.00    -0.094 A 
ATOM      9  C9  DEN d   1       0.146   0.090   1.632  0.00  0.00    -0.072 A 
ENDROOT
TORSDOF 0
ENDMDL
