MODEL 1
REMARK minimizedAffinity -3.42317295
REMARK minimizedRMSD -1
REMARK  0 active torsions:
REMARK  status: ('A' for Active; 'I' for Inactive)
ROOT
ATOM      1  C   UNL d   1       0.676   0.099  -0.985  0.00  0.00     0.077 C 
ATOM      2  C1  UNL d   1      -0.546   0.968  -1.020  0.00  0.00    -0.074 A 
ATOM      3  C2  UNL d   1      -1.140   1.422   0.162  0.00  0.00    -0.005 A 
ATOM      4  C3  UNL d   1      -2.271   2.237   0.113  0.00  0.00     0.006 A 
ATOM      5  C4  UNL d   1      -2.819   2.605  -1.116  0.00  0.00    -0.005 A 
ATOM      6  C5  UNL d   1      -2.238   2.162  -2.308  0.00  0.00    -0.074 A 
ATOM      7  C6  UNL d   1      -2.808   2.557  -3.638  0.00  0.00     0.077 C 
ATOM      8  C7  UNL d   1      -1.098   1.349  -2.251  0.00  0.00    -0.001 A 
ENDROOT
TORSDOF 0
ENDMDL
