MODEL 1
REMARK minimizedAffinity -1.74488401
REMARK minimizedRMSD -1
REMARK  0 active torsions:
REMARK  status: ('A' for Active; 'I' for Inactive)
ROOT
ATOM      1  C   UNL d   1      -3.305   1.330   0.748  0.00  0.00     0.077 C 
ATOM      2  C1  UNL d   1      -1.847   1.147   0.449  0.00  0.00    -0.074 A 
ATOM      3  C2  UNL d   1      -1.394   1.016  -0.868  0.00  0.00    -0.005 A 
ATOM      4  C3  UNL d   1      -0.034   0.856  -1.131  0.00  0.00     0.006 A 
ATOM      5  C4  UNL d   1       0.886   0.824  -0.082  0.00  0.00    -0.005 A 
ATOM      6  C5  UNL d   1       0.452   0.954   1.241  0.00  0.00    -0.074 A 
ATOM      7  C6  UNL d   1       1.428   0.933   2.379  0.00  0.00     0.077 C 
ATOM      8  C7  UNL d   1      -0.916   1.122   1.497  0.00  0.00    -0.001 A 
ENDROOT
TORSDOF 0
ENDMDL
