MODEL 1
REMARK minimizedAffinity 10.6780701
REMARK minimizedRMSD -1
REMARK  0 active torsions:
REMARK  status: ('A' for Active; 'I' for Inactive)
ROOT
ATOM      1  C   UNL d   1      -0.801   1.806   2.613  0.00  0.00     0.077 C 
ATOM      2  C1  UNL d   1       0.107   0.745   2.066  0.00  0.00    -0.074 A 
ATOM      3  C2  UNL d   1      -0.266  -0.016   0.953  0.00  0.00    -0.005 A 
ATOM      4  C3  UNL d   1       0.593  -0.992   0.449  0.00  0.00     0.006 A 
ATOM      5  C4  UNL d   1       1.831  -1.218   1.052  0.00  0.00    -0.005 A 
ATOM      6  C5  UNL d   1       2.221  -0.466   2.165  0.00  0.00    -0.074 A 
ATOM      7  C6  UNL d   1       3.553  -0.689   2.818  0.00  0.00     0.077 C 
ATOM      8  C7  UNL d   1       1.355   0.518   2.661  0.00  0.00    -0.001 A 
ENDROOT
TORSDOF 0
ENDMDL
