MODEL 1
REMARK minimizedAffinity 2.3370645
REMARK minimizedRMSD -1
REMARK  0 active torsions:
REMARK  status: ('A' for Active; 'I' for Inactive)
ROOT
ATOM      1  C   UNL d   1       1.154   2.377   2.616  0.00  0.00     0.077 C 
ATOM      2  C1  UNL d   1       0.058   2.417   1.593  0.00  0.00    -0.074 A 
ATOM      3  C2  UNL d   1      -1.239   2.803   1.945  0.00  0.00    -0.005 A 
ATOM      4  C3  UNL d   1      -2.246   2.846   0.981  0.00  0.00     0.006 A 
ATOM      5  C4  UNL d   1      -1.967   2.503  -0.342  0.00  0.00    -0.005 A 
ATOM      6  C5  UNL d   1      -0.676   2.115  -0.713  0.00  0.00    -0.074 A 
ATOM      7  C6  UNL d   1      -0.356   1.754  -2.133  0.00  0.00     0.077 C 
ATOM      8  C7  UNL d   1       0.333   2.082   0.260  0.00  0.00    -0.001 A 
ENDROOT
TORSDOF 0
ENDMDL
