MODEL 1
REMARK minimizedAffinity 8.53831768
REMARK minimizedRMSD -1
REMARK  0 active torsions:
REMARK  status: ('A' for Active; 'I' for Inactive)
ROOT
ATOM      1  C   UNL d   1      -3.508  -1.039  -1.417  0.00  0.00     0.077 C 
ATOM      2  C1  UNL d   1      -2.231  -0.253  -1.439  0.00  0.00    -0.074 A 
ATOM      3  C2  UNL d   1      -2.245   1.134  -1.619  0.00  0.00    -0.005 A 
ATOM      4  C3  UNL d   1      -1.050   1.854  -1.628  0.00  0.00     0.006 A 
ATOM      5  C4  UNL d   1       0.168   1.195  -1.458  0.00  0.00    -0.005 A 
ATOM      6  C5  UNL d   1       0.201  -0.192  -1.277  0.00  0.00    -0.074 A 
ATOM      7  C6  UNL d   1       1.501  -0.914  -1.083  0.00  0.00     0.077 C 
ATOM      8  C7  UNL d   1      -1.004  -0.907  -1.262  0.00  0.00    -0.001 A 
ENDROOT
TORSDOF 0
ENDMDL
