MODEL 1
REMARK minimizedAffinity 2.52946973
REMARK minimizedRMSD -1
REMARK  0 active torsions:
REMARK  status: ('A' for Active; 'I' for Inactive)
ROOT
ATOM      1  C   UNL d   1       2.991  -1.665  -1.018  0.00  0.00     0.077 C 
ATOM      2  C1  UNL d   1       1.605  -1.270  -1.435  0.00  0.00    -0.074 A 
ATOM      3  C2  UNL d   1       0.592  -2.226  -1.557  0.00  0.00    -0.005 A 
ATOM      4  C3  UNL d   1      -0.695  -1.842  -1.937  0.00  0.00     0.006 A 
ATOM      5  C4  UNL d   1      -0.979  -0.501  -2.198  0.00  0.00    -0.005 A 
ATOM      6  C5  UNL d   1       0.022   0.468  -2.081  0.00  0.00    -0.074 A 
ATOM      7  C6  UNL d   1      -0.270   1.915  -2.349  0.00  0.00     0.077 C 
ATOM      8  C7  UNL d   1       1.310   0.076  -1.692  0.00  0.00    -0.001 A 
ENDROOT
TORSDOF 0
ENDMDL
