MODEL 1
REMARK minimizedAffinity -2.16728473
REMARK minimizedRMSD -1
REMARK  0 active torsions:
REMARK  status: ('A' for Active; 'I' for Inactive)
ROOT
ATOM      1  C   UNL d   1      -0.014   0.442  -1.855  0.00  0.00     0.077 C 
ATOM      2  C1  UNL d   1       0.195   1.322  -0.659  0.00  0.00    -0.074 A 
ATOM      3  C2  UNL d   1       0.249   0.782   0.630  0.00  0.00    -0.005 A 
ATOM      4  C3  UNL d   1       0.454   1.612   1.732  0.00  0.00     0.006 A 
ATOM      5  C4  UNL d   1       0.606   2.988   1.556  0.00  0.00    -0.005 A 
ATOM      6  C5  UNL d   1       0.556   3.546   0.275  0.00  0.00    -0.074 A 
ATOM      7  C6  UNL d   1       0.727   5.021   0.068  0.00  0.00     0.077 C 
ATOM      8  C7  UNL d   1       0.357   2.704  -0.828  0.00  0.00    -0.001 A 
ENDROOT
TORSDOF 0
ENDMDL
