MODEL 1
REMARK minimizedAffinity -4.07278109
REMARK minimizedRMSD -1
REMARK  0 active torsions:
REMARK  status: ('A' for Active; 'I' for Inactive)
ROOT
ATOM      1  C   UNL d   1       0.734   3.091   2.284  0.00  0.00     0.077 C 
ATOM      2  C1  UNL d   1       0.233   2.501   0.999  0.00  0.00    -0.074 A 
ATOM      3  C2  UNL d   1      -0.159   3.322  -0.064  0.00  0.00    -0.005 A 
ATOM      4  C3  UNL d   1      -0.614   2.759  -1.256  0.00  0.00     0.006 A 
ATOM      5  C4  UNL d   1      -0.683   1.372  -1.397  0.00  0.00    -0.005 A 
ATOM      6  C5  UNL d   1      -0.295   0.536  -0.346  0.00  0.00    -0.074 A 
ATOM      7  C6  UNL d   1      -0.353  -0.956  -0.485  0.00  0.00     0.077 C 
ATOM      8  C7  UNL d   1       0.168   1.109   0.846  0.00  0.00    -0.001 A 
ENDROOT
TORSDOF 0
ENDMDL
