MODEL 1
REMARK minimizedAffinity -5.81901026
REMARK minimizedRMSD -1
REMARK  0 active torsions:
REMARK  status: ('A' for Active; 'I' for Inactive)
ROOT
ATOM      1  C2' OXE d   1       1.098  -0.582   2.013  0.00  0.00     0.078 C 
ATOM      2  C1' OXE d   1       0.211  -0.860  -0.636  0.00  0.00     0.078 C 
ATOM      3  C1  OXE d   1      -0.191   0.385   0.113  0.00  0.00    -0.078 A 
ATOM      4  C2  OXE d   1       0.208   0.491   1.424  0.00  0.00    -0.078 A 
ATOM      5  C3  OXE d   1      -0.090   1.645   2.144  0.00  0.00     0.003 A 
ATOM      6  C4  OXE d   1      -0.922   2.628   1.595  0.00  0.00    -0.002 A 
ATOM      7  C5  OXE d   1      -1.372   2.521   0.275  0.00  0.00    -0.002 A 
ATOM      8  C6  OXE d   1      -0.982   1.429  -0.492  0.00  0.00     0.003 A 
ENDROOT
TORSDOF 0
ENDMDL
