MODEL 1
REMARK minimizedAffinity -4.41093445
REMARK minimizedRMSD -1
REMARK  0 active torsions:
REMARK  status: ('A' for Active; 'I' for Inactive)
ROOT
ATOM      1  C2' OXE d   1       0.061   0.226  -1.345  0.00  0.00     0.078 C 
ATOM      2  C1' OXE d   1       0.138   0.642   1.430  0.00  0.00     0.078 C 
ATOM      3  C1  OXE d   1      -0.252   1.807   0.555  0.00  0.00    -0.078 A 
ATOM      4  C2  OXE d   1      -0.241   1.607  -0.805  0.00  0.00    -0.078 A 
ATOM      5  C3  OXE d   1      -0.645   2.632  -1.655  0.00  0.00     0.003 A 
ATOM      6  C4  OXE d   1      -0.914   3.910  -1.148  0.00  0.00    -0.002 A 
ATOM      7  C5  OXE d   1      -0.891   4.145   0.230  0.00  0.00    -0.002 A 
ATOM      8  C6  OXE d   1      -0.605   3.096   1.097  0.00  0.00     0.003 A 
ENDROOT
TORSDOF 0
ENDMDL
