MODEL 1
REMARK minimizedAffinity -5.52595472
REMARK minimizedRMSD -1
REMARK  0 active torsions:
REMARK  status: ('A' for Active; 'I' for Inactive)
ROOT
ATOM      1  C2' OXE d   1       1.185  -0.218   1.381  0.00  0.00     0.078 C 
ATOM      2  C1' OXE d   1       0.143  -0.071  -1.221  0.00  0.00     0.078 C 
ATOM      3  C1  OXE d   1      -0.163   1.063  -0.276  0.00  0.00    -0.078 A 
ATOM      4  C2  OXE d   1       0.312   0.961   1.009  0.00  0.00    -0.078 A 
ATOM      5  C3  OXE d   1       0.106   2.005   1.906  0.00  0.00     0.003 A 
ATOM      6  C4  OXE d   1      -0.711   3.087   1.558  0.00  0.00    -0.002 A 
ATOM      7  C5  OXE d   1      -1.238   3.192   0.266  0.00  0.00    -0.002 A 
ATOM      8  C6  OXE d   1      -0.939   2.212  -0.674  0.00  0.00     0.003 A 
ENDROOT
TORSDOF 0
ENDMDL
