MODEL 1
REMARK minimizedAffinity -0.928588629
REMARK minimizedRMSD -1
REMARK  0 active torsions:
REMARK  status: ('A' for Active; 'I' for Inactive)
ROOT
ATOM      1  C2' OXE d   1      -1.818   3.054  -1.726  0.00  0.00     0.078 C 
ATOM      2  C1' OXE d   1      -1.718   2.549   1.033  0.00  0.00     0.078 C 
ATOM      3  C1  OXE d   1      -0.923   1.646   0.123  0.00  0.00    -0.078 A 
ATOM      4  C2  OXE d   1      -1.015   1.871  -1.229  0.00  0.00    -0.078 A 
ATOM      5  C3  OXE d   1      -0.260   1.102  -2.109  0.00  0.00     0.003 A 
ATOM      6  C4  OXE d   1       0.472   0.004  -1.642  0.00  0.00    -0.002 A 
ATOM      7  C5  OXE d   1       0.547  -0.268  -0.272  0.00  0.00    -0.002 A 
ATOM      8  C6  OXE d   1      -0.108   0.567   0.626  0.00  0.00     0.003 A 
ENDROOT
TORSDOF 0
ENDMDL
