MODEL 1
REMARK minimizedAffinity 0.0262643117
REMARK minimizedRMSD -1
REMARK  0 active torsions:
REMARK  status: ('A' for Active; 'I' for Inactive)
ROOT
ATOM      1  C2' OXE d   1       0.359  -1.338  -1.049  0.00  0.00     0.078 C 
ATOM      2  C1' OXE d   1      -0.303   1.131  -2.208  0.00  0.00     0.078 C 
ATOM      3  C1  OXE d   1      -0.070   1.093  -0.719  0.00  0.00    -0.078 A 
ATOM      4  C2  OXE d   1       0.208  -0.128  -0.153  0.00  0.00    -0.078 A 
ATOM      5  C3  OXE d   1       0.485  -0.210   1.208  0.00  0.00     0.003 A 
ATOM      6  C4  OXE d   1       0.333   0.912   2.032  0.00  0.00    -0.002 A 
ATOM      7  C5  OXE d   1       0.012   2.158   1.482  0.00  0.00    -0.002 A 
ATOM      8  C6  OXE d   1      -0.151   2.274   0.106  0.00  0.00     0.003 A 
ENDROOT
TORSDOF 0
ENDMDL
