MODEL 1
REMARK minimizedAffinity 2.42327499
REMARK minimizedRMSD -1
REMARK  0 active torsions:
REMARK  status: ('A' for Active; 'I' for Inactive)
ROOT
ATOM      1  C2' OXE d   1      -0.187  -4.141  -1.149  0.00  0.00     0.078 C 
ATOM      2  C1' OXE d   1      -2.006  -2.418  -2.415  0.00  0.00     0.078 C 
ATOM      3  C1  OXE d   1      -0.781  -1.806  -1.783  0.00  0.00    -0.078 A 
ATOM      4  C2  OXE d   1       0.080  -2.651  -1.125  0.00  0.00    -0.078 A 
ATOM      5  C3  OXE d   1       1.253  -2.146  -0.571  0.00  0.00     0.003 A 
ATOM      6  C4  OXE d   1       1.487  -0.766  -0.545  0.00  0.00    -0.002 A 
ATOM      7  C5  OXE d   1       0.602   0.117  -1.175  0.00  0.00    -0.002 A 
ATOM      8  C6  OXE d   1      -0.512  -0.390  -1.834  0.00  0.00     0.003 A 
ENDROOT
TORSDOF 0
ENDMDL
