MODEL 1
REMARK minimizedAffinity -3.67136931
REMARK minimizedRMSD -1
REMARK  0 active torsions:
REMARK  status: ('A' for Active; 'I' for Inactive)
ROOT
ATOM      1  C2' OXE d   1      -1.112   2.288   1.624  0.00  0.00     0.078 C 
ATOM      2  C1' OXE d   1      -1.407   2.130  -1.163  0.00  0.00     0.078 C 
ATOM      3  C1  OXE d   1      -0.551   1.089  -0.486  0.00  0.00    -0.078 A 
ATOM      4  C2  OXE d   1      -0.374   1.202   0.872  0.00  0.00    -0.078 A 
ATOM      5  C3  OXE d   1       0.362   0.237   1.553  0.00  0.00     0.003 A 
ATOM      6  C4  OXE d   1       1.049  -0.759   0.849  0.00  0.00    -0.002 A 
ATOM      7  C5  OXE d   1       0.915  -0.868  -0.539  0.00  0.00    -0.002 A 
ATOM      8  C6  OXE d   1       0.086   0.021  -1.215  0.00  0.00     0.003 A 
ENDROOT
TORSDOF 0
ENDMDL
