MODEL 1
REMARK minimizedAffinity 0.655639708
REMARK minimizedRMSD -1
REMARK  0 active torsions:
REMARK  status: ('A' for Active; 'I' for Inactive)
ROOT
ATOM      1  C2' OXE d   1       0.807  -5.126  -0.800  0.00  0.00     0.078 C 
ATOM      2  C1' OXE d   1      -0.833  -3.091   0.224  0.00  0.00     0.078 C 
ATOM      3  C1  OXE d   1      -1.039  -3.505  -1.212  0.00  0.00    -0.078 A 
ATOM      4  C2  OXE d   1      -0.201  -4.469  -1.718  0.00  0.00    -0.078 A 
ATOM      5  C3  OXE d   1      -0.383  -4.926  -3.020  0.00  0.00     0.003 A 
ATOM      6  C4  OXE d   1      -1.311  -4.305  -3.866  0.00  0.00    -0.002 A 
ATOM      7  C5  OXE d   1      -2.148  -3.294  -3.381  0.00  0.00    -0.002 A 
ATOM      8  C6  OXE d   1      -2.054  -2.912  -2.047  0.00  0.00     0.003 A 
ENDROOT
TORSDOF 0
ENDMDL
