MODEL 1
REMARK minimizedAffinity 4.10153961
REMARK minimizedRMSD -1
REMARK  0 active torsions:
REMARK  status: ('A' for Active; 'I' for Inactive)
ROOT
ATOM      1  C1  DEN d   1      -1.518   0.395   3.142  0.00  0.00     0.130 A 
ATOM      2  C2  DEN d   1      -0.692  -0.809   3.133  0.00  0.00    -0.031 A 
ATOM      3  C3  DEN d   1      -0.988  -1.557   1.895  0.00  0.00     0.027 A 
ATOM      4  C4  DEN d   1      -2.634  -0.968  -0.002  0.00  0.00     0.027 A 
ATOM      5  C5  DEN d   1      -3.566  -0.051  -0.435  0.00  0.00    -0.003 A 
ATOM      6  C6  DEN d   1      -3.903   1.052   0.304  0.00  0.00     0.001 A 
ATOM      7  C7  DEN d   1      -3.270   1.290   1.495  0.00  0.00     0.017 A 
ATOM      8  C8  DEN d   1      -2.334   0.366   1.942  0.00  0.00    -0.094 A 
ATOM      9  C9  DEN d   1      -1.998  -0.736   1.174  0.00  0.00    -0.072 A 
ENDROOT
TORSDOF 0
ENDMDL
