MODEL 1
REMARK minimizedAffinity -0.391146868
REMARK minimizedRMSD -1
REMARK  0 active torsions:
REMARK  status: ('A' for Active; 'I' for Inactive)
ROOT
ATOM      1  C1  DEN d   1       0.064  -0.192  -5.988  0.00  0.00     0.130 A 
ATOM      2  C2  DEN d   1      -0.270   0.773  -4.944  0.00  0.00    -0.031 A 
ATOM      3  C3  DEN d   1      -0.508   0.027  -3.692  0.00  0.00     0.027 A 
ATOM      4  C4  DEN d   1      -0.387  -2.515  -3.271  0.00  0.00     0.027 A 
ATOM      5  C5  DEN d   1      -0.152  -3.740  -3.855  0.00  0.00    -0.003 A 
ATOM      6  C6  DEN d   1       0.135  -3.870  -5.188  0.00  0.00     0.001 A 
ATOM      7  C7  DEN d   1       0.240  -2.751  -5.972  0.00  0.00     0.017 A 
ATOM      8  C8  DEN d   1      -0.002  -1.513  -5.391  0.00  0.00    -0.094 A 
ATOM      9  C9  DEN d   1      -0.280  -1.402  -4.039  0.00  0.00    -0.072 A 
ENDROOT
TORSDOF 0
ENDMDL
