MODEL 1
REMARK minimizedAffinity -3.91503882
REMARK minimizedRMSD -1
REMARK  0 active torsions:
REMARK  status: ('A' for Active; 'I' for Inactive)
ROOT
ATOM      1  C1  DEN d   1      -1.691   0.663   1.778  0.00  0.00     0.130 A 
ATOM      2  C2  DEN d   1      -3.129   0.561   1.545  0.00  0.00    -0.031 A 
ATOM      3  C3  DEN d   1      -3.343  -0.344   0.398  0.00  0.00     0.027 A 
ATOM      4  C4  DEN d   1      -1.597  -1.595  -1.030  0.00  0.00     0.027 A 
ATOM      5  C5  DEN d   1      -0.250  -1.812  -1.220  0.00  0.00    -0.003 A 
ATOM      6  C6  DEN d   1       0.704  -1.198  -0.453  0.00  0.00     0.001 A 
ATOM      7  C7  DEN d   1       0.323  -0.371   0.571  0.00  0.00     0.017 A 
ATOM      8  C8  DEN d   1      -1.033  -0.142   0.764  0.00  0.00    -0.094 A 
ATOM      9  C9  DEN d   1      -1.982  -0.781  -0.014  0.00  0.00    -0.072 A 
ENDROOT
TORSDOF 0
ENDMDL
