MODEL 1
REMARK minimizedAffinity 10.3373508
REMARK minimizedRMSD -1
REMARK  0 active torsions:
REMARK  status: ('A' for Active; 'I' for Inactive)
ROOT
ATOM      1  C1  DEN d   1       2.447  -1.867  -3.557  0.00  0.00     0.130 A 
ATOM      2  C2  DEN d   1       3.432  -1.092  -4.306  0.00  0.00    -0.031 A 
ATOM      3  C3  DEN d   1       2.727  -0.390  -5.397  0.00  0.00     0.027 A 
ATOM      4  C4  DEN d   1       0.217  -0.421  -5.991  0.00  0.00     0.027 A 
ATOM      5  C5  DEN d   1      -1.011  -0.943  -5.649  0.00  0.00    -0.003 A 
ATOM      6  C6  DEN d   1      -1.166  -1.828  -4.615  0.00  0.00     0.001 A 
ATOM      7  C7  DEN d   1      -0.081  -2.184  -3.858  0.00  0.00     0.017 A 
ATOM      8  C8  DEN d   1       1.162  -1.668  -4.201  0.00  0.00    -0.094 A 
ATOM      9  C9  DEN d   1       1.296  -0.765  -5.242  0.00  0.00    -0.072 A 
ENDROOT
TORSDOF 0
ENDMDL
