MODEL 1
REMARK minimizedAffinity 6.38345766
REMARK minimizedRMSD -1
REMARK  0 active torsions:
REMARK  status: ('A' for Active; 'I' for Inactive)
ROOT
ATOM      1  C1  DEN d   1       1.039  -2.238   3.205  0.00  0.00     0.130 A 
ATOM      2  C2  DEN d   1       2.067  -1.228   2.968  0.00  0.00    -0.031 A 
ATOM      3  C3  DEN d   1       1.446  -0.110   2.230  0.00  0.00     0.027 A 
ATOM      4  C4  DEN d   1      -0.995   0.157   1.441  0.00  0.00     0.027 A 
ATOM      5  C5  DEN d   1      -2.234  -0.445   1.400  0.00  0.00    -0.003 A 
ATOM      6  C6  DEN d   1      -2.458  -1.690   1.923  0.00  0.00     0.001 A 
ATOM      7  C7  DEN d   1      -1.439  -2.357   2.551  0.00  0.00     0.017 A 
ATOM      8  C8  DEN d   1      -0.186  -1.760   2.590  0.00  0.00    -0.094 A 
ATOM      9  C9  DEN d   1       0.018  -0.495   2.066  0.00  0.00    -0.072 A 
ENDROOT
TORSDOF 0
ENDMDL
