MODEL 1
REMARK minimizedAffinity 7.73698568
REMARK minimizedRMSD -1
REMARK  0 active torsions:
REMARK  status: ('A' for Active; 'I' for Inactive)
ROOT
ATOM      1  C1  DEN d   1       2.478  -1.239  -4.218  0.00  0.00     0.130 A 
ATOM      2  C2  DEN d   1       3.164  -0.335  -5.137  0.00  0.00    -0.031 A 
ATOM      3  C3  DEN d   1       2.146   0.298  -6.000  0.00  0.00     0.027 A 
ATOM      4  C4  DEN d   1      -0.412  -0.031  -5.998  0.00  0.00     0.027 A 
ATOM      5  C5  DEN d   1      -1.457  -0.706  -5.407  0.00  0.00    -0.003 A 
ATOM      6  C6  DEN d   1      -1.262  -1.624  -4.410  0.00  0.00     0.001 A 
ATOM      7  C7  DEN d   1       0.004  -1.859  -3.942  0.00  0.00     0.017 A 
ATOM      8  C8  DEN d   1       1.063  -1.187  -4.538  0.00  0.00    -0.094 A 
ATOM      9  C9  DEN d   1       0.844  -0.254  -5.537  0.00  0.00    -0.072 A 
ENDROOT
TORSDOF 0
ENDMDL
