MODEL 1
REMARK minimizedAffinity 9.36130714
REMARK minimizedRMSD -1
REMARK  0 active torsions:
REMARK  status: ('A' for Active; 'I' for Inactive)
ROOT
ATOM      1  C1  DEN d   1      -0.024   1.216   1.875  0.00  0.00     0.130 A 
ATOM      2  C2  DEN d   1      -1.362   1.109   1.299  0.00  0.00    -0.031 A 
ATOM      3  C3  DEN d   1      -1.772  -0.308   1.357  0.00  0.00     0.027 A 
ATOM      4  C4  DEN d   1      -0.475  -2.336   2.284  0.00  0.00     0.027 A 
ATOM      5  C5  DEN d   1       0.705  -2.743   2.866  0.00  0.00    -0.003 A 
ATOM      6  C6  DEN d   1       1.730  -1.872   3.125  0.00  0.00     0.001 A 
ATOM      7  C7  DEN d   1       1.577  -0.540   2.843  0.00  0.00     0.017 A 
ATOM      8  C8  DEN d   1       0.392  -0.123   2.249  0.00  0.00    -0.094 A 
ATOM      9  C9  DEN d   1      -0.637  -1.017   2.006  0.00  0.00    -0.072 A 
ENDROOT
TORSDOF 0
ENDMDL
