MODEL 1
REMARK minimizedAffinity 0.345814109
REMARK minimizedRMSD -1
REMARK  0 active torsions:
REMARK  status: ('A' for Active; 'I' for Inactive)
ROOT
ATOM      1  C1  DEN d   1       0.437  -1.850   3.738  0.00  0.00     0.130 A 
ATOM      2  C2  DEN d   1       1.628  -1.147   3.270  0.00  0.00    -0.031 A 
ATOM      3  C3  DEN d   1       1.220  -0.221   2.194  0.00  0.00     0.027 A 
ATOM      4  C4  DEN d   1      -1.131   0.195   1.217  0.00  0.00     0.027 A 
ATOM      5  C5  DEN d   1      -2.456  -0.175   1.285  0.00  0.00    -0.003 A 
ATOM      6  C6  DEN d   1      -2.901  -1.144   2.144  0.00  0.00     0.001 A 
ATOM      7  C7  DEN d   1      -2.020  -1.747   3.003  0.00  0.00     0.017 A 
ATOM      8  C8  DEN d   1      -0.681  -1.385   2.935  0.00  0.00    -0.094 A 
ATOM      9  C9  DEN d   1      -0.253  -0.394   2.068  0.00  0.00    -0.072 A 
ENDROOT
TORSDOF 0
ENDMDL
