MODEL 1
REMARK minimizedAffinity 0.986443937
REMARK minimizedRMSD -1
REMARK  0 active torsions:
REMARK  status: ('A' for Active; 'I' for Inactive)
ROOT
ATOM      1  C1  DEN d   1       0.520  -2.963  -3.184  0.00  0.00     0.130 A 
ATOM      2  C2  DEN d   1       1.786  -3.359  -2.575  0.00  0.00    -0.031 A 
ATOM      3  C3  DEN d   1       2.861  -2.559  -3.196  0.00  0.00     0.027 A 
ATOM      4  C4  DEN d   1       2.688  -0.752  -5.027  0.00  0.00     0.027 A 
ATOM      5  C5  DEN d   1       1.823  -0.078  -5.862  0.00  0.00    -0.003 A 
ATOM      6  C6  DEN d   1       0.479  -0.341  -5.886  0.00  0.00     0.001 A 
ATOM      7  C7  DEN d   1      -0.047  -1.271  -5.028  0.00  0.00     0.017 A 
ATOM      8  C8  DEN d   1       0.820  -1.959  -4.189  0.00  0.00    -0.094 A 
ATOM      9  C9  DEN d   1       2.174  -1.670  -4.170  0.00  0.00    -0.072 A 
ENDROOT
TORSDOF 0
ENDMDL
