MODEL 1
REMARK minimizedAffinity 0.0967076644
REMARK minimizedRMSD -1
REMARK  0 active torsions:
REMARK  status: ('A' for Active; 'I' for Inactive)
ROOT
ATOM      1  C1  DEN d   1      -0.636   0.014   2.319  0.00  0.00     0.130 A 
ATOM      2  C2  DEN d   1      -1.823   0.500   3.017  0.00  0.00    -0.031 A 
ATOM      3  C3  DEN d   1      -3.003   0.170   2.193  0.00  0.00     0.027 A 
ATOM      4  C4  DEN d   1      -3.107  -1.044  -0.080  0.00  0.00     0.027 A 
ATOM      5  C5  DEN d   1      -2.357  -1.635  -1.073  0.00  0.00    -0.003 A 
ATOM      6  C6  DEN d   1      -0.989  -1.687  -1.021  0.00  0.00     0.001 A 
ATOM      7  C7  DEN d   1      -0.331  -1.178   0.068  0.00  0.00     0.017 A 
ATOM      8  C8  DEN d   1      -1.081  -0.575   1.069  0.00  0.00    -0.094 A 
ATOM      9  C9  DEN d   1      -2.463  -0.543   1.004  0.00  0.00    -0.072 A 
ENDROOT
TORSDOF 0
ENDMDL
