MODEL 1
REMARK minimizedAffinity -0.867343366
REMARK minimizedRMSD -1
REMARK  0 active torsions:
REMARK  status: ('A' for Active; 'I' for Inactive)
ROOT
ATOM      1  C   UNL d   1       0.309  -0.032  -1.405  0.00  0.00     0.172 C 
ATOM      2  N   UNL d   1       0.836   0.297  -0.102  0.00  0.00    -0.070 N 
ATOM      3  C1  UNL d   1       0.342   1.256   0.741  0.00  0.00    -0.004 A 
ATOM      4  C2  UNL d   1       1.119   1.259   1.879  0.00  0.00    -0.047 A 
ATOM      5  C3  UNL d   1       2.116   0.268   1.714  0.00  0.00    -0.047 A 
ATOM      6  C4  UNL d   1       1.917  -0.312   0.479  0.00  0.00    -0.004 A 
ENDROOT
TORSDOF 0
ENDMDL
