MODEL 1
REMARK minimizedAffinity -3.72662187
REMARK minimizedRMSD -1
REMARK  0 active torsions:
REMARK  status: ('A' for Active; 'I' for Inactive)
ROOT
ATOM      1  C   UNL d   1      -1.666  -0.596   0.051  0.00  0.00     0.172 C 
ATOM      2  N   UNL d   1      -0.563  -0.048   0.805  0.00  0.00    -0.070 N 
ATOM      3  C1  UNL d   1      -0.602   0.323   2.122  0.00  0.00    -0.004 A 
ATOM      4  C2  UNL d   1       0.646   0.795   2.466  0.00  0.00    -0.047 A 
ATOM      5  C3  UNL d   1       1.464   0.705   1.315  0.00  0.00    -0.047 A 
ATOM      6  C4  UNL d   1       0.691   0.180   0.301  0.00  0.00    -0.004 A 
ENDROOT
TORSDOF 0
ENDMDL
