MODEL 1
REMARK minimizedAffinity -0.459616601
REMARK minimizedRMSD -1
REMARK  0 active torsions:
REMARK  status: ('A' for Active; 'I' for Inactive)
ROOT
ATOM      1  C   UNL d   1       0.664  -0.434   1.100  0.00  0.00     0.172 C 
ATOM      2  N   UNL d   1      -0.629  -0.447   0.458  0.00  0.00    -0.070 N 
ATOM      3  C1  UNL d   1      -0.904  -0.981  -0.773  0.00  0.00    -0.004 A 
ATOM      4  C2  UNL d   1      -2.246  -0.792  -1.025  0.00  0.00    -0.047 A 
ATOM      5  C3  UNL d   1      -2.796  -0.121   0.093  0.00  0.00    -0.047 A 
ATOM      6  C4  UNL d   1      -1.774   0.081   0.995  0.00  0.00    -0.004 A 
ENDROOT
TORSDOF 0
ENDMDL
