MODEL 1
REMARK minimizedAffinity 3.46826601
REMARK minimizedRMSD -1
REMARK  0 active torsions:
REMARK  status: ('A' for Active; 'I' for Inactive)
ROOT
ATOM      1  C   UNL d   1      -2.838  -2.626  -6.000  0.00  0.00     0.172 C 
ATOM      2  N   UNL d   1      -1.866  -1.845  -5.271  0.00  0.00    -0.070 N 
ATOM      3  C1  UNL d   1      -1.189  -2.255  -4.154  0.00  0.00    -0.004 A 
ATOM      4  C2  UNL d   1      -0.359  -1.226  -3.762  0.00  0.00    -0.047 A 
ATOM      5  C3  UNL d   1      -0.546  -0.161  -4.675  0.00  0.00    -0.047 A 
ATOM      6  C4  UNL d   1      -1.484  -0.571  -5.599  0.00  0.00    -0.004 A 
ENDROOT
TORSDOF 0
ENDMDL
