MODEL 1
REMARK minimizedAffinity 0.52987206
REMARK minimizedRMSD -1
REMARK  0 active torsions:
REMARK  status: ('A' for Active; 'I' for Inactive)
ROOT
ATOM      1  C   UNL d   1      -2.187   1.036   1.891  0.00  0.00     0.172 C 
ATOM      2  N   UNL d   1      -0.960   0.297   2.070  0.00  0.00    -0.070 N 
ATOM      3  C1  UNL d   1       0.054   0.198   1.155  0.00  0.00    -0.004 A 
ATOM      4  C2  UNL d   1       1.043  -0.590   1.704  0.00  0.00    -0.047 A 
ATOM      5  C3  UNL d   1       0.607  -0.980   2.992  0.00  0.00    -0.047 A 
ATOM      6  C4  UNL d   1      -0.635  -0.417   3.194  0.00  0.00    -0.004 A 
ENDROOT
TORSDOF 0
ENDMDL
