MODEL 1
REMARK minimizedAffinity -0.603328705
REMARK minimizedRMSD -1
REMARK  0 active torsions:
REMARK  status: ('A' for Active; 'I' for Inactive)
ROOT
ATOM      1  C   UNL d   1      -1.440  -0.914   3.797  0.00  0.00     0.172 C 
ATOM      2  N   UNL d   1      -0.717  -0.401   2.657  0.00  0.00    -0.070 N 
ATOM      3  C1  UNL d   1      -1.278   0.024   1.482  0.00  0.00    -0.004 A 
ATOM      4  C2  UNL d   1      -0.258   0.437   0.653  0.00  0.00    -0.047 A 
ATOM      5  C3  UNL d   1       0.958   0.253   1.353  0.00  0.00    -0.047 A 
ATOM      6  C4  UNL d   1       0.644  -0.267   2.591  0.00  0.00    -0.004 A 
ENDROOT
TORSDOF 0
ENDMDL
