MODEL 1
REMARK minimizedAffinity 0.828463852
REMARK minimizedRMSD -1
REMARK  0 active torsions:
REMARK  status: ('A' for Active; 'I' for Inactive)
ROOT
ATOM      1  C   UNL d   1       0.750   0.000   1.752  0.00  0.00     0.172 C 
ATOM      2  N   UNL d   1      -0.544  -0.101   2.387  0.00  0.00    -0.070 N 
ATOM      3  C1  UNL d   1      -0.950  -1.114   3.214  0.00  0.00    -0.004 A 
ATOM      4  C2  UNL d   1      -2.242  -0.843   3.610  0.00  0.00    -0.047 A 
ATOM      5  C3  UNL d   1      -2.625   0.375   3.000  0.00  0.00    -0.047 A 
ATOM      6  C4  UNL d   1      -1.555   0.812   2.248  0.00  0.00    -0.004 A 
ENDROOT
TORSDOF 0
ENDMDL
