MODEL 1
REMARK minimizedAffinity -0.0255631898
REMARK minimizedRMSD -1
REMARK  0 active torsions:
REMARK  status: ('A' for Active; 'I' for Inactive)
ROOT
ATOM      1  C   UNL d   1       0.438  -3.027  -1.764  0.00  0.00     0.172 C 
ATOM      2  N   UNL d   1       0.419  -3.664  -3.059  0.00  0.00    -0.070 N 
ATOM      3  C1  UNL d   1       0.725  -4.976  -3.308  0.00  0.00    -0.004 A 
ATOM      4  C2  UNL d   1       0.587  -5.191  -4.662  0.00  0.00    -0.047 A 
ATOM      5  C3  UNL d   1       0.185  -3.967  -5.248  0.00  0.00    -0.047 A 
ATOM      6  C4  UNL d   1       0.088  -3.039  -4.232  0.00  0.00    -0.004 A 
ENDROOT
TORSDOF 0
ENDMDL
