MODEL 1
REMARK minimizedAffinity 10.6252279
REMARK minimizedRMSD -1
REMARK  0 active torsions:
REMARK  status: ('A' for Active; 'I' for Inactive)
ROOT
ATOM      1  C   UNL d   1       5.017   2.253   5.234  0.00  0.00    -0.002 A 
ATOM      2  C1  UNL d   1       5.264   2.585   3.909  0.00  0.00     0.010 A 
ATOM      3  C2  UNL d   1       4.623   3.676   3.319  0.00  0.00     0.041 A 
ATOM      4  C3  UNL d   1       3.723   4.437   4.090  0.00  0.00    -0.075 A 
ATOM      5  S   UNL d   1       2.825   5.817   3.579  0.00  0.00     0.015 SA
ATOM      6  C4  UNL d   1       2.093   6.000   5.107  0.00  0.00     0.022 A 
ATOM      7  C5  UNL d   1       2.512   5.040   5.997  0.00  0.00     0.026 A 
ATOM      8  C6  UNL d   1       3.459   4.124   5.426  0.00  0.00    -0.082 A 
ATOM      9  C7  UNL d   1       4.123   3.011   5.996  0.00  0.00     0.045 A 
ENDROOT
TORSDOF 0
ENDMDL
