MODEL 1
REMARK minimizedAffinity 12.6168604
REMARK minimizedRMSD -1
REMARK  0 active torsions:
REMARK  status: ('A' for Active; 'I' for Inactive)
ROOT
ATOM      1  C   UNL d   1       0.853  -0.537   0.780  0.00  0.00    -0.002 A 
ATOM      2  C1  UNL d   1       0.498  -0.577  -0.561  0.00  0.00     0.010 A 
ATOM      3  C2  UNL d   1      -0.842  -0.485  -0.944  0.00  0.00     0.041 A 
ATOM      4  C3  UNL d   1      -1.828  -0.348   0.054  0.00  0.00    -0.075 A 
ATOM      5  S   UNL d   1      -3.531  -0.217  -0.179  0.00  0.00     0.015 SA
ATOM      6  C4  UNL d   1      -3.827  -0.103   1.495  0.00  0.00     0.022 A 
ATOM      7  C5  UNL d   1      -2.666  -0.163   2.229  0.00  0.00     0.026 A 
ATOM      8  C6  UNL d   1      -1.494  -0.305   1.410  0.00  0.00    -0.082 A 
ATOM      9  C7  UNL d   1      -0.127  -0.402   1.766  0.00  0.00     0.045 A 
ENDROOT
TORSDOF 0
ENDMDL
