MODEL 1
REMARK minimizedAffinity 22.9320545
REMARK minimizedRMSD -1
REMARK  0 active torsions:
REMARK  status: ('A' for Active; 'I' for Inactive)
ROOT
ATOM      1  C   UNL d   1       3.779  -3.295  -1.438  0.00  0.00    -0.002 A 
ATOM      2  C1  UNL d   1       3.527  -2.890  -2.741  0.00  0.00     0.010 A 
ATOM      3  C2  UNL d   1       2.226  -2.594  -3.154  0.00  0.00     0.041 A 
ATOM      4  C3  UNL d   1       1.173  -2.713  -2.226  0.00  0.00    -0.075 A 
ATOM      5  S   UNL d   1      -0.500  -2.403  -2.506  0.00  0.00     0.015 SA
ATOM      6  C4  UNL d   1      -0.919  -2.801  -0.903  0.00  0.00     0.022 A 
ATOM      7  C5  UNL d   1       0.178  -3.164  -0.158  0.00  0.00     0.026 A 
ATOM      8  C6  UNL d   1       1.401  -3.119  -0.908  0.00  0.00    -0.082 A 
ATOM      9  C7  UNL d   1       2.731  -3.412  -0.520  0.00  0.00     0.045 A 
ENDROOT
TORSDOF 0
ENDMDL
