MODEL 1
REMARK minimizedAffinity 9.73386765
REMARK minimizedRMSD -1
REMARK  0 active torsions:
REMARK  status: ('A' for Active; 'I' for Inactive)
ROOT
ATOM      1  C   UNL d   1      -1.732  -1.098  -2.114  0.00  0.00    -0.002 A 
ATOM      2  C1  UNL d   1      -1.086  -2.284  -2.432  0.00  0.00     0.010 A 
ATOM      3  C2  UNL d   1       0.139  -2.605  -1.844  0.00  0.00     0.041 A 
ATOM      4  C3  UNL d   1       0.708  -1.707  -0.921  0.00  0.00    -0.075 A 
ATOM      5  S   UNL d   1       2.199  -1.890  -0.075  0.00  0.00     0.015 SA
ATOM      6  C4  UNL d   1       2.013  -0.399   0.729  0.00  0.00     0.022 A 
ATOM      7  C5  UNL d   1       0.848   0.237   0.373  0.00  0.00     0.026 A 
ATOM      8  C6  UNL d   1       0.076  -0.506  -0.584  0.00  0.00    -0.082 A 
ATOM      9  C7  UNL d   1      -1.164  -0.209  -1.197  0.00  0.00     0.045 A 
ENDROOT
TORSDOF 0
ENDMDL
