MODEL 1
REMARK minimizedAffinity -2.67271876
REMARK minimizedRMSD -1
REMARK  0 active torsions:
REMARK  status: ('A' for Active; 'I' for Inactive)
ROOT
ATOM      1  C1  BNZ d   1      -0.171   0.289  -1.542  0.00  0.00     0.000 A 
ATOM      2  C2  BNZ d   1       0.283   0.872  -2.695  0.00  0.00     0.000 A 
ATOM      3  C3  BNZ d   1       1.240   1.847  -2.656  0.00  0.00     0.000 A 
ATOM      4  C4  BNZ d   1       1.712   2.266  -1.464  0.00  0.00     0.000 A 
ATOM      5  C5  BNZ d   1       1.257   1.695  -0.292  0.00  0.00     0.000 A 
ATOM      6  C6  BNZ d   1       0.322   0.686  -0.337  0.00  0.00     0.000 A 
ENDROOT
TORSDOF 0
ENDMDL
