MODEL 1
REMARK minimizedAffinity 0.196955994
REMARK minimizedRMSD -1
REMARK  0 active torsions:
REMARK  status: ('A' for Active; 'I' for Inactive)
ROOT
ATOM      1  C1  BNZ d   1       1.029   2.531  -0.950  0.00  0.00     0.000 A 
ATOM      2  C2  BNZ d   1       0.644   1.798   0.141  0.00  0.00     0.000 A 
ATOM      3  C3  BNZ d   1       0.191   0.516  -0.002  0.00  0.00     0.000 A 
ATOM      4  C4  BNZ d   1       0.087  -0.017  -1.237  0.00  0.00     0.000 A 
ATOM      5  C5  BNZ d   1       0.462   0.713  -2.347  0.00  0.00     0.000 A 
ATOM      6  C6  BNZ d   1       0.954   1.989  -2.196  0.00  0.00     0.000 A 
ENDROOT
TORSDOF 0
ENDMDL
