MODEL 1
REMARK minimizedAffinity -3.62158465
REMARK minimizedRMSD -1
REMARK  0 active torsions:
REMARK  status: ('A' for Active; 'I' for Inactive)
ROOT
ATOM      1  C1  BNZ d   1      -1.151  -1.970   2.450  0.00  0.00     0.000 A 
ATOM      2  C2  BNZ d   1      -0.074  -2.130   1.619  0.00  0.00     0.000 A 
ATOM      3  C3  BNZ d   1       0.349  -1.107   0.817  0.00  0.00     0.000 A 
ATOM      4  C4  BNZ d   1      -0.328   0.059   0.817  0.00  0.00     0.000 A 
ATOM      5  C5  BNZ d   1      -1.422   0.233   1.642  0.00  0.00     0.000 A 
ATOM      6  C6  BNZ d   1      -1.821  -0.786   2.477  0.00  0.00     0.000 A 
ENDROOT
TORSDOF 0
ENDMDL
