MODEL 1
REMARK minimizedAffinity -1.67106426
REMARK minimizedRMSD -1
REMARK  0 active torsions:
REMARK  status: ('A' for Active; 'I' for Inactive)
ROOT
ATOM      1  C1  BNZ d   1      -0.275   1.141  -0.048  0.00  0.00     0.000 A 
ATOM      2  C2  BNZ d   1       1.062   1.140  -0.343  0.00  0.00     0.000 A 
ATOM      3  C3  BNZ d   1       1.841   0.053  -0.059  0.00  0.00     0.000 A 
ATOM      4  C4  BNZ d   1       1.290  -1.015   0.554  0.00  0.00     0.000 A 
ATOM      5  C5  BNZ d   1      -0.054  -1.026   0.866  0.00  0.00     0.000 A 
ATOM      6  C6  BNZ d   1      -0.843   0.055   0.544  0.00  0.00     0.000 A 
ENDROOT
TORSDOF 0
ENDMDL
