MODEL 1
REMARK minimizedAffinity -4.8119483
REMARK minimizedRMSD -1
REMARK  0 active torsions:
REMARK  status: ('A' for Active; 'I' for Inactive)
ROOT
ATOM      1  C1  BNZ d   1      -0.108  -0.462   0.034  0.00  0.00     0.000 A 
ATOM      2  C2  BNZ d   1      -0.656  -1.034   1.152  0.00  0.00     0.000 A 
ATOM      3  C3  BNZ d   1      -0.808  -2.389   1.241  0.00  0.00     0.000 A 
ATOM      4  C4  BNZ d   1      -0.450  -3.167   0.199  0.00  0.00     0.000 A 
ATOM      5  C5  BNZ d   1       0.096  -2.605  -0.938  0.00  0.00     0.000 A 
ATOM      6  C6  BNZ d   1       0.283  -1.243  -1.009  0.00  0.00     0.000 A 
ENDROOT
TORSDOF 0
ENDMDL
