MODEL 1
REMARK minimizedAffinity -4.69399643
REMARK minimizedRMSD -1
REMARK  0 active torsions:
REMARK  status: ('A' for Active; 'I' for Inactive)
ROOT
ATOM      1  C1  BNZ d   1      -1.160  -2.204  -0.209  0.00  0.00     0.000 A 
ATOM      2  C2  BNZ d   1      -0.308  -1.502  -1.018  0.00  0.00     0.000 A 
ATOM      3  C3  BNZ d   1      -0.156  -0.151  -0.871  0.00  0.00     0.000 A 
ATOM      4  C4  BNZ d   1      -0.886   0.500   0.058  0.00  0.00     0.000 A 
ATOM      5  C5  BNZ d   1      -1.757  -0.193   0.875  0.00  0.00     0.000 A 
ATOM      6  C6  BNZ d   1      -1.878  -1.558   0.750  0.00  0.00     0.000 A 
ENDROOT
TORSDOF 0
ENDMDL
