MODEL 1
REMARK minimizedAffinity -3.39936972
REMARK minimizedRMSD -1
REMARK  0 active torsions:
REMARK  status: ('A' for Active; 'I' for Inactive)
ROOT
ATOM      1  C1  BNZ d   1      -0.783  -2.120   1.917  0.00  0.00     0.000 A 
ATOM      2  C2  BNZ d   1      -1.910  -2.265   1.153  0.00  0.00     0.000 A 
ATOM      3  C3  BNZ d   1      -2.080  -1.535   0.010  0.00  0.00     0.000 A 
ATOM      4  C4  BNZ d   1      -1.143  -0.632  -0.346  0.00  0.00     0.000 A 
ATOM      5  C5  BNZ d   1      -0.006  -0.467   0.419  0.00  0.00     0.000 A 
ATOM      6  C6  BNZ d   1       0.180  -1.232   1.548  0.00  0.00     0.000 A 
ENDROOT
TORSDOF 0
ENDMDL
