MODEL 1
REMARK minimizedAffinity -4.69702101
REMARK minimizedRMSD -1
REMARK  0 active torsions:
REMARK  status: ('A' for Active; 'I' for Inactive)
ROOT
ATOM      1  C1  BNZ d   1      -2.244  -1.823   0.544  0.00  0.00     0.000 A 
ATOM      2  C2  BNZ d   1      -1.539  -2.718   1.305  0.00  0.00     0.000 A 
ATOM      3  C3  BNZ d   1      -0.231  -2.486   1.625  0.00  0.00     0.000 A 
ATOM      4  C4  BNZ d   1       0.382  -1.382   1.152  0.00  0.00     0.000 A 
ATOM      5  C5  BNZ d   1      -0.312  -0.475   0.376  0.00  0.00     0.000 A 
ATOM      6  C6  BNZ d   1      -1.640  -0.692   0.088  0.00  0.00     0.000 A 
ENDROOT
TORSDOF 0
ENDMDL
