MODEL 1
REMARK minimizedAffinity -3.96831131
REMARK minimizedRMSD -1
REMARK  0 active torsions:
REMARK  status: ('A' for Active; 'I' for Inactive)
ROOT
ATOM      1  C1  BNZ d   1       1.115  -1.874  -0.150  0.00  0.00     0.000 A 
ATOM      2  C2  BNZ d   1       0.724  -2.822   0.758  0.00  0.00     0.000 A 
ATOM      3  C3  BNZ d   1      -0.362  -2.616   1.562  0.00  0.00     0.000 A 
ATOM      4  C4  BNZ d   1      -1.031  -1.448   1.486  0.00  0.00     0.000 A 
ATOM      5  C5  BNZ d   1      -0.644  -0.478   0.582  0.00  0.00     0.000 A 
ATOM      6  C6  BNZ d   1       0.426  -0.705  -0.253  0.00  0.00     0.000 A 
ENDROOT
TORSDOF 0
ENDMDL
