MODEL 1
REMARK minimizedAffinity -4.67528391
REMARK minimizedRMSD -1
REMARK  0 active torsions:
REMARK  status: ('A' for Active; 'I' for Inactive)
ROOT
ATOM      1  C1  BNZ d   1      -0.920  -0.763  -0.054  0.00  0.00     0.000 A 
ATOM      2  C2  BNZ d   1      -1.493  -1.787   0.652  0.00  0.00     0.000 A 
ATOM      3  C3  BNZ d   1      -0.726  -2.642   1.392  0.00  0.00     0.000 A 
ATOM      4  C4  BNZ d   1       0.615  -2.499   1.392  0.00  0.00     0.000 A 
ATOM      5  C5  BNZ d   1       1.209  -1.478   0.678  0.00  0.00     0.000 A 
ATOM      6  C6  BNZ d   1       0.431  -0.594  -0.034  0.00  0.00     0.000 A 
ENDROOT
TORSDOF 0
ENDMDL
