MODEL 1
REMARK minimizedAffinity -4.00306988
REMARK minimizedRMSD -1
REMARK  0 active torsions:
REMARK  status: ('A' for Active; 'I' for Inactive)
ROOT
ATOM      1  C1  BNZ d   1       0.259   0.960  -1.363  0.00  0.00     0.000 A 
ATOM      2  C2  BNZ d   1       0.123   0.636  -2.686  0.00  0.00     0.000 A 
ATOM      3  C3  BNZ d   1       0.964   1.164  -3.626  0.00  0.00     0.000 A 
ATOM      4  C4  BNZ d   1       1.913   2.044  -3.247  0.00  0.00     0.000 A 
ATOM      5  C5  BNZ d   1       2.056   2.389  -1.917  0.00  0.00     0.000 A 
ATOM      6  C6  BNZ d   1       1.232   1.826  -0.969  0.00  0.00     0.000 A 
ENDROOT
TORSDOF 0
ENDMDL
