MODEL 1
REMARK minimizedAffinity -2.36001325
REMARK minimizedRMSD -1
REMARK  0 active torsions:
REMARK  status: ('A' for Active; 'I' for Inactive)
ROOT
ATOM      1  C1  BNZ d   1       0.875  -2.632   0.154  0.00  0.00     0.000 A 
ATOM      2  C2  BNZ d   1       0.769  -1.784  -0.916  0.00  0.00     0.000 A 
ATOM      3  C3  BNZ d   1       0.191  -0.553  -0.779  0.00  0.00     0.000 A 
ATOM      4  C4  BNZ d   1      -0.314  -0.187   0.417  0.00  0.00     0.000 A 
ATOM      5  C5  BNZ d   1      -0.223  -1.035   1.503  0.00  0.00     0.000 A 
ATOM      6  C6  BNZ d   1       0.394  -2.258   1.370  0.00  0.00     0.000 A 
ENDROOT
TORSDOF 0
ENDMDL
