MODEL 1
REMARK minimizedAffinity -3.85228992
REMARK minimizedRMSD -1
REMARK  0 active torsions:
REMARK  status: ('A' for Active; 'I' for Inactive)
ROOT
ATOM      1  C1  BNZ d   1       1.245   0.736  -0.549  0.00  0.00     0.000 A 
ATOM      2  C2  BNZ d   1      -0.107   0.919  -0.425  0.00  0.00     0.000 A 
ATOM      3  C3  BNZ d   1      -0.914  -0.098   0.003  0.00  0.00     0.000 A 
ATOM      4  C4  BNZ d   1      -0.374  -1.305   0.269  0.00  0.00     0.000 A 
ATOM      5  C5  BNZ d   1       0.985  -1.508   0.139  0.00  0.00     0.000 A 
ATOM      6  C6  BNZ d   1       1.800  -0.471  -0.255  0.00  0.00     0.000 A 
ENDROOT
TORSDOF 0
ENDMDL
