MODEL 1
REMARK minimizedAffinity -2.32229781
REMARK minimizedRMSD -1
REMARK  0 active torsions:
REMARK  status: ('A' for Active; 'I' for Inactive)
ROOT
ATOM      1  C1  BNZ d   1       0.999  -1.734   1.333  0.00  0.00     0.000 A 
ATOM      2  C2  BNZ d   1       1.156  -0.393   1.108  0.00  0.00     0.000 A 
ATOM      3  C3  BNZ d   1       0.665   0.189  -0.027  0.00  0.00     0.000 A 
ATOM      4  C4  BNZ d   1       0.054  -0.577  -0.954  0.00  0.00     0.000 A 
ATOM      5  C5  BNZ d   1      -0.105  -1.933  -0.746  0.00  0.00     0.000 A 
ATOM      6  C6  BNZ d   1       0.357  -2.508   0.416  0.00  0.00     0.000 A 
ENDROOT
TORSDOF 0
ENDMDL
