MODEL 1
REMARK minimizedAffinity -3.13659334
REMARK minimizedRMSD -1
REMARK  0 active torsions:
REMARK  status: ('A' for Active; 'I' for Inactive)
ROOT
ATOM      1  C1  BNZ d   1       0.616   0.595  -0.204  0.00  0.00     0.000 A 
ATOM      2  C2  BNZ d   1      -0.116  -0.385  -0.821  0.00  0.00     0.000 A 
ATOM      3  C3  BNZ d   1       0.154  -1.706  -0.596  0.00  0.00     0.000 A 
ATOM      4  C4  BNZ d   1       1.178  -2.045   0.212  0.00  0.00     0.000 A 
ATOM      5  C5  BNZ d   1       1.931  -1.069   0.835  0.00  0.00     0.000 A 
ATOM      6  C6  BNZ d   1       1.632   0.259   0.637  0.00  0.00     0.000 A 
ENDROOT
TORSDOF 0
ENDMDL
