MODEL 1
REMARK minimizedAffinity -3.06897449
REMARK minimizedRMSD -1
REMARK  1 active torsions:
REMARK  status: ('A' for Active; 'I' for Inactive)
REMARK    1  A    between atoms: C3_4  and  O_7 
ROOT
ATOM      1  C   UNL d   1       4.624   5.263  -5.998  0.00  0.00    -0.033 A 
ATOM      2  C1  UNL d   1       3.831   5.999  -5.115  0.00  0.00     0.039 A 
ATOM      3  C2  UNL d   1       4.120   6.000  -3.749  0.00  0.00    -0.080 A 
ATOM      4  C3  UNL d   1       5.204   5.262  -3.279  0.00  0.00     0.150 A 
ATOM      5  C4  UNL d   1       6.000   4.530  -4.153  0.00  0.00    -0.007 A 
ATOM      6  C5  UNL d   1       5.709   4.529  -5.517  0.00  0.00     0.039 A 
ENDROOT
BRANCH   4   7
ATOM      7  O   UNL d   1       5.522   5.229  -1.954  0.00  0.00    -0.526 OA
ATOM      8  H5  UNL d   1       4.868   5.758  -1.467  0.00  0.00     0.418 HD
ENDBRANCH   4   7
TORSDOF 1
ENDMDL
