MODEL 1
REMARK minimizedAffinity 6.27462292
REMARK minimizedRMSD -1
REMARK  1 active torsions:
REMARK  status: ('A' for Active; 'I' for Inactive)
REMARK    1  A    between atoms: C3_4  and  O_7 
ROOT
ATOM      1  C   UNL d   1      -0.579  -1.971  -2.563  0.00  0.00    -0.033 A 
ATOM      2  C1  UNL d   1       0.289  -2.663  -1.717  0.00  0.00     0.039 A 
ATOM      3  C2  UNL d   1       1.629  -2.830  -2.072  0.00  0.00    -0.080 A 
ATOM      4  C3  UNL d   1       2.088  -2.299  -3.275  0.00  0.00     0.150 A 
ATOM      5  C4  UNL d   1       1.229  -1.604  -4.121  0.00  0.00    -0.007 A 
ATOM      6  C5  UNL d   1      -0.109  -1.440  -3.764  0.00  0.00     0.039 A 
ENDROOT
BRANCH   4   7
ATOM      7  O   UNL d   1       3.386  -2.440  -3.667  0.00  0.00    -0.526 OA
ATOM      8  H5  UNL d   1       3.854  -2.966  -2.997  0.00  0.00     0.418 HD
ENDBRANCH   4   7
TORSDOF 1
ENDMDL
