MODEL 1
REMARK minimizedAffinity -1.16361344
REMARK minimizedRMSD -1
REMARK  1 active torsions:
REMARK  status: ('A' for Active; 'I' for Inactive)
REMARK    1  A    between atoms: C3_4  and  O_7 
ROOT
ATOM      1  C   UNL d   1       4.168   5.972  -2.525  0.00  0.00    -0.033 A 
ATOM      2  C1  UNL d   1       5.368   5.352  -2.173  0.00  0.00     0.039 A 
ATOM      3  C2  UNL d   1       6.000   4.489  -3.071  0.00  0.00    -0.080 A 
ATOM      4  C3  UNL d   1       5.423   4.257  -4.316  0.00  0.00     0.150 A 
ATOM      5  C4  UNL d   1       4.229   4.875  -4.675  0.00  0.00    -0.007 A 
ATOM      6  C5  UNL d   1       3.600   5.735  -3.777  0.00  0.00     0.039 A 
ENDROOT
BRANCH   4   7
ATOM      7  O   UNL d   1       6.000   3.419  -5.224  0.00  0.00    -0.526 OA
ATOM      8  H5  UNL d   1       6.803   3.042  -4.827  0.00  0.00     0.418 HD
ENDBRANCH   4   7
TORSDOF 1
ENDMDL
