MODEL 1
REMARK minimizedAffinity -0.163653225
REMARK minimizedRMSD -1
REMARK  1 active torsions:
REMARK  status: ('A' for Active; 'I' for Inactive)
REMARK    1  A    between atoms: C3_4  and  O_7 
ROOT
ATOM      1  C   UNL d   1       4.708   5.303  -5.224  0.00  0.00    -0.033 A 
ATOM      2  C1  UNL d   1       3.683   4.868  -4.383  0.00  0.00     0.039 A 
ATOM      3  C2  UNL d   1       3.812   4.996  -2.998  0.00  0.00    -0.080 A 
ATOM      4  C3  UNL d   1       4.969   5.561  -2.469  0.00  0.00     0.150 A 
ATOM      5  C4  UNL d   1       5.993   6.000  -3.302  0.00  0.00    -0.007 A 
ATOM      6  C5  UNL d   1       5.863   5.870  -4.684  0.00  0.00     0.039 A 
ENDROOT
BRANCH   4   7
ATOM      7  O   UNL d   1       5.142   5.702  -1.124  0.00  0.00    -0.526 OA
ATOM      8  H5  UNL d   1       4.367   5.329  -0.673  0.00  0.00     0.418 HD
ENDBRANCH   4   7
TORSDOF 1
ENDMDL
