MODEL 1
REMARK minimizedAffinity -3.15553045
REMARK minimizedRMSD -1
REMARK  1 active torsions:
REMARK  status: ('A' for Active; 'I' for Inactive)
REMARK    1  A    between atoms: C3_4  and  O_7 
ROOT
ATOM      1  C   UNL d   1       4.061   6.000  -5.330  0.00  0.00    -0.033 A 
ATOM      2  C1  UNL d   1       3.422   5.653  -4.139  0.00  0.00     0.039 A 
ATOM      3  C2  UNL d   1       4.061   4.819  -3.219  0.00  0.00    -0.080 A 
ATOM      4  C3  UNL d   1       5.337   4.341  -3.502  0.00  0.00     0.150 A 
ATOM      5  C4  UNL d   1       5.982   4.686  -4.685  0.00  0.00    -0.007 A 
ATOM      6  C5  UNL d   1       5.342   5.518  -5.603  0.00  0.00     0.039 A 
ENDROOT
BRANCH   4   7
ATOM      7  O   UNL d   1       5.999   3.521  -2.637  0.00  0.00    -0.526 OA
ATOM      8  H5  UNL d   1       5.421   3.345  -1.876  0.00  0.00     0.418 HD
ENDBRANCH   4   7
TORSDOF 1
ENDMDL
