MODEL 1
REMARK minimizedAffinity -1.05224288
REMARK minimizedRMSD -1
REMARK  1 active torsions:
REMARK  status: ('A' for Active; 'I' for Inactive)
REMARK    1  A    between atoms: C3_4  and  O_7 
ROOT
ATOM      1  C   UNL d   1       4.876   5.998  -2.280  0.00  0.00    -0.033 A 
ATOM      2  C1  UNL d   1       3.731   5.730  -3.033  0.00  0.00     0.039 A 
ATOM      3  C2  UNL d   1       3.710   4.647  -3.913  0.00  0.00    -0.080 A 
ATOM      4  C3  UNL d   1       4.837   3.839  -4.030  0.00  0.00     0.150 A 
ATOM      5  C4  UNL d   1       5.980   4.097  -3.279  0.00  0.00    -0.007 A 
ATOM      6  C5  UNL d   1       5.999   5.180  -2.402  0.00  0.00     0.039 A 
ENDROOT
BRANCH   4   7
ATOM      7  O   UNL d   1       4.866   2.773  -4.879  0.00  0.00    -0.526 OA
ATOM      8  H5  UNL d   1       4.018   2.734  -5.352  0.00  0.00     0.418 HD
ENDBRANCH   4   7
TORSDOF 1
ENDMDL
