MODEL 1
REMARK minimizedAffinity 2.32979321
REMARK minimizedRMSD -1
REMARK  1 active torsions:
REMARK  status: ('A' for Active; 'I' for Inactive)
REMARK    1  A    between atoms: C3_4  and  O_7 
ROOT
ATOM      1  C   UNL d   1       3.899   3.561  -4.053  0.00  0.00    -0.033 A 
ATOM      2  C1  UNL d   1       5.276   3.372  -3.921  0.00  0.00     0.039 A 
ATOM      3  C2  UNL d   1       6.000   4.119  -2.990  0.00  0.00    -0.080 A 
ATOM      4  C3  UNL d   1       5.335   5.051  -2.196  0.00  0.00     0.150 A 
ATOM      5  C4  UNL d   1       3.963   5.242  -2.319  0.00  0.00    -0.007 A 
ATOM      6  C5  UNL d   1       3.242   4.495  -3.251  0.00  0.00     0.039 A 
ENDROOT
BRANCH   4   7
ATOM      7  O   UNL d   1       5.999   5.807  -1.277  0.00  0.00    -0.526 OA
ATOM      8  H5  UNL d   1       6.945   5.587  -1.323  0.00  0.00     0.418 HD
ENDBRANCH   4   7
TORSDOF 1
ENDMDL
