MODEL 1
REMARK minimizedAffinity -2.61406684
REMARK minimizedRMSD -1
REMARK  1 active torsions:
REMARK  status: ('A' for Active; 'I' for Inactive)
REMARK    1  A    between atoms: C3_4  and  O_7 
ROOT
ATOM      1  C   UNL d   1       4.010   5.342  -3.546  0.00  0.00    -0.033 A 
ATOM      2  C1  UNL d   1       5.212   5.991  -3.257  0.00  0.00     0.039 A 
ATOM      3  C2  UNL d   1       5.896   5.703  -2.074  0.00  0.00    -0.080 A 
ATOM      4  C3  UNL d   1       5.370   4.765  -1.191  0.00  0.00     0.150 A 
ATOM      5  C4  UNL d   1       4.175   4.111  -1.475  0.00  0.00    -0.007 A 
ATOM      6  C5  UNL d   1       3.492   4.401  -2.655  0.00  0.00     0.039 A 
ENDROOT
BRANCH   4   7
ATOM      7  O   UNL d   1       5.999   4.454  -0.023  0.00  0.00    -0.526 OA
ATOM      8  H5  UNL d   1       6.797   5.004   0.053  0.00  0.00     0.418 HD
ENDBRANCH   4   7
TORSDOF 1
ENDMDL
