MODEL 1
REMARK minimizedAffinity -3.17428255
REMARK minimizedRMSD -1
REMARK  1 active torsions:
REMARK  status: ('A' for Active; 'I' for Inactive)
REMARK    1  A    between atoms: C3_4  and  O_7 
ROOT
ATOM      1  C   UNL d   1       3.975   4.116  -3.743  0.00  0.00    -0.033 A 
ATOM      2  C1  UNL d   1       3.221   4.490  -2.629  0.00  0.00     0.039 A 
ATOM      3  C2  UNL d   1       3.855   4.985  -1.488  0.00  0.00    -0.080 A 
ATOM      4  C3  UNL d   1       5.242   5.101  -1.475  0.00  0.00     0.150 A 
ATOM      5  C4  UNL d   1       6.000   4.734  -2.582  0.00  0.00    -0.007 A 
ATOM      6  C5  UNL d   1       5.364   4.239  -3.720  0.00  0.00     0.039 A 
ENDROOT
BRANCH   4   7
ATOM      7  O   UNL d   1       5.907   5.575  -0.382  0.00  0.00    -0.526 OA
ATOM      8  H5  UNL d   1       5.257   5.761   0.316  0.00  0.00     0.418 HD
ENDBRANCH   4   7
TORSDOF 1
ENDMDL
