MODEL 1
REMARK minimizedAffinity -3.700804
REMARK minimizedRMSD -1
REMARK  1 active torsions:
REMARK  status: ('A' for Active; 'I' for Inactive)
REMARK    1  A    between atoms: C3_4  and  O_7 
ROOT
ATOM      1  C   UNL d   1       4.890   4.382  -5.755  0.00  0.00    -0.033 A 
ATOM      2  C1  UNL d   1       3.787   4.956  -5.122  0.00  0.00     0.039 A 
ATOM      3  C2  UNL d   1       3.787   5.130  -3.736  0.00  0.00    -0.080 A 
ATOM      4  C3  UNL d   1       4.895   4.726  -2.997  0.00  0.00     0.150 A 
ATOM      5  C4  UNL d   1       6.000   4.156  -3.622  0.00  0.00    -0.007 A 
ATOM      6  C5  UNL d   1       5.997   3.983  -5.006  0.00  0.00     0.039 A 
ENDROOT
BRANCH   4   7
ATOM      7  O   UNL d   1       4.939   4.870  -1.642  0.00  0.00    -0.526 OA
ATOM      8  H5  UNL d   1       4.096   5.251  -1.346  0.00  0.00     0.418 HD
ENDBRANCH   4   7
TORSDOF 1
ENDMDL
