MODEL 1
REMARK minimizedAffinity -3.20271111
REMARK minimizedRMSD -1
REMARK  1 active torsions:
REMARK  status: ('A' for Active; 'I' for Inactive)
REMARK    1  A    between atoms: C3_4  and  O_7 
ROOT
ATOM      1  C   UNL d   1       3.623  -1.531   6.000  0.00  0.00    -0.033 A 
ATOM      2  C1  UNL d   1       3.002  -1.179   4.800  0.00  0.00     0.039 A 
ATOM      3  C2  UNL d   1       3.437  -1.738   3.597  0.00  0.00    -0.080 A 
ATOM      4  C3  UNL d   1       4.491  -2.647   3.607  0.00  0.00     0.150 A 
ATOM      5  C4  UNL d   1       5.111  -3.006   4.799  0.00  0.00    -0.007 A 
ATOM      6  C5  UNL d   1       4.676  -2.446   6.000  0.00  0.00     0.039 A 
ENDROOT
BRANCH   4   7
ATOM      7  O   UNL d   1       4.953  -3.216   2.457  0.00  0.00    -0.526 OA
ATOM      8  H5  UNL d   1       4.449  -2.853   1.710  0.00  0.00     0.418 HD
ENDBRANCH   4   7
TORSDOF 1
ENDMDL
