MODEL 1
REMARK minimizedAffinity -3.45972538
REMARK minimizedRMSD -1
REMARK  1 active torsions:
REMARK  status: ('A' for Active; 'I' for Inactive)
REMARK    1  A    between atoms: C3_4  and  O_7 
ROOT
ATOM      1  C   UNL d   1       4.018   4.440  -5.011  0.00  0.00    -0.033 A 
ATOM      2  C1  UNL d   1       5.318   3.999  -4.759  0.00  0.00     0.039 A 
ATOM      3  C2  UNL d   1       6.000   4.442  -3.623  0.00  0.00    -0.080 A 
ATOM      4  C3  UNL d   1       5.369   5.323  -2.748  0.00  0.00     0.150 A 
ATOM      5  C4  UNL d   1       4.072   5.763  -2.991  0.00  0.00    -0.007 A 
ATOM      6  C5  UNL d   1       3.394   5.320  -4.126  0.00  0.00     0.039 A 
ENDROOT
BRANCH   4   7
ATOM      7  O   UNL d   1       5.996   5.787  -1.630  0.00  0.00    -0.526 OA
ATOM      8  H5  UNL d   1       6.896   5.421  -1.607  0.00  0.00     0.418 HD
ENDBRANCH   4   7
TORSDOF 1
ENDMDL
