MODEL 1
REMARK minimizedAffinity -4.55741501
REMARK minimizedRMSD -1
REMARK  1 active torsions:
REMARK  status: ('A' for Active; 'I' for Inactive)
REMARK    1  A    between atoms: C3_4  and  O_7 
ROOT
ATOM      1  C   UNL d   1       3.908   4.959  -3.759  0.00  0.00    -0.033 A 
ATOM      2  C1  UNL d   1       3.231   4.079  -4.605  0.00  0.00     0.039 A 
ATOM      3  C2  UNL d   1       3.920   3.033  -5.223  0.00  0.00    -0.080 A 
ATOM      4  C3  UNL d   1       5.284   2.879  -4.985  0.00  0.00     0.150 A 
ATOM      5  C4  UNL d   1       5.963   3.750  -4.141  0.00  0.00    -0.007 A 
ATOM      6  C5  UNL d   1       5.274   4.794  -3.525  0.00  0.00     0.039 A 
ENDROOT
BRANCH   4   7
ATOM      7  O   UNL d   1       5.999   1.876  -5.569  0.00  0.00    -0.526 OA
ATOM      8  H5  UNL d   1       5.405   1.371  -6.149  0.00  0.00     0.418 HD
ENDBRANCH   4   7
TORSDOF 1
ENDMDL
