MODEL 1
REMARK minimizedAffinity -1.35904264
REMARK minimizedRMSD -1
REMARK  1 active torsions:
REMARK  status: ('A' for Active; 'I' for Inactive)
REMARK    1  A    between atoms: C3_4  and  O_7 
ROOT
ATOM      1  C   UNL d   1       4.543   4.396  -5.019  0.00  0.00    -0.033 A 
ATOM      2  C1  UNL d   1       4.014   5.556  -4.450  0.00  0.00     0.039 A 
ATOM      3  C2  UNL d   1       4.475   6.000  -3.209  0.00  0.00    -0.080 A 
ATOM      4  C3  UNL d   1       5.465   5.277  -2.549  0.00  0.00     0.150 A 
ATOM      5  C4  UNL d   1       6.000   4.123  -3.113  0.00  0.00    -0.007 A 
ATOM      6  C5  UNL d   1       5.538   3.681  -4.352  0.00  0.00     0.039 A 
ENDROOT
BRANCH   4   7
ATOM      7  O   UNL d   1       5.944   5.668  -1.334  0.00  0.00    -0.526 OA
ATOM      8  H5  UNL d   1       5.462   6.465  -1.056  0.00  0.00     0.418 HD
ENDBRANCH   4   7
TORSDOF 1
ENDMDL
