MODEL 1
REMARK minimizedAffinity -4.23651886
REMARK minimizedRMSD -1
REMARK  1 active torsions:
REMARK  status: ('A' for Active; 'I' for Inactive)
REMARK    1  A    between atoms: C3_4  and  O_7 
ROOT
ATOM      1  C   UNL d   1       4.598   4.561  -5.515  0.00  0.00    -0.033 A 
ATOM      2  C1  UNL d   1       5.751   5.245  -5.124  0.00  0.00     0.039 A 
ATOM      3  C2  UNL d   1       6.000   5.481  -3.770  0.00  0.00    -0.080 A 
ATOM      4  C3  UNL d   1       5.089   5.028  -2.820  0.00  0.00     0.150 A 
ATOM      5  C4  UNL d   1       3.941   4.343  -3.202  0.00  0.00    -0.007 A 
ATOM      6  C5  UNL d   1       3.694   4.109  -4.554  0.00  0.00     0.039 A 
ENDROOT
BRANCH   4   7
ATOM      7  O   UNL d   1       5.286   5.238  -1.487  0.00  0.00    -0.526 OA
ATOM      8  H5  UNL d   1       6.106   5.749  -1.374  0.00  0.00     0.418 HD
ENDBRANCH   4   7
TORSDOF 1
ENDMDL
