MODEL 1
REMARK minimizedAffinity -3.2758131
REMARK minimizedRMSD -1
REMARK  1 active torsions:
REMARK  status: ('A' for Active; 'I' for Inactive)
REMARK    1  A    between atoms: C3_4  and  O_7 
ROOT
ATOM      1  C   UNL d   1       5.409   4.784  -5.995  0.00  0.00    -0.033 A 
ATOM      2  C1  UNL d   1       5.861   3.661  -5.300  0.00  0.00     0.039 A 
ATOM      3  C2  UNL d   1       6.000   3.706  -3.911  0.00  0.00    -0.080 A 
ATOM      4  C3  UNL d   1       5.682   4.878  -3.231  0.00  0.00     0.150 A 
ATOM      5  C4  UNL d   1       5.227   5.999  -3.916  0.00  0.00    -0.007 A 
ATOM      6  C5  UNL d   1       5.091   5.953  -5.303  0.00  0.00     0.039 A 
ENDROOT
BRANCH   4   7
ATOM      7  O   UNL d   1       5.806   4.971  -1.876  0.00  0.00    -0.526 OA
ATOM      8  H5  UNL d   1       6.157   4.130  -1.541  0.00  0.00     0.418 HD
ENDBRANCH   4   7
TORSDOF 1
ENDMDL
