MODEL 1
REMARK minimizedAffinity -3.34383464
REMARK minimizedRMSD -1
REMARK  1 active torsions:
REMARK  status: ('A' for Active; 'I' for Inactive)
REMARK    1  A    between atoms: C3_4  and  O_7 
ROOT
ATOM      1  C   UNL d   1       5.836   3.827  -5.997  0.00  0.00    -0.033 A 
ATOM      2  C1  UNL d   1       5.984   5.215  -5.966  0.00  0.00     0.039 A 
ATOM      3  C2  UNL d   1       5.360   5.963  -4.966  0.00  0.00    -0.080 A 
ATOM      4  C3  UNL d   1       4.592   5.312  -4.004  0.00  0.00     0.150 A 
ATOM      5  C4  UNL d   1       4.442   3.929  -4.028  0.00  0.00    -0.007 A 
ATOM      6  C5  UNL d   1       5.066   3.184  -5.028  0.00  0.00     0.039 A 
ENDROOT
BRANCH   4   7
ATOM      7  O   UNL d   1       3.959   6.000  -3.012  0.00  0.00    -0.526 OA
ATOM      8  H5  UNL d   1       4.129   6.948  -3.139  0.00  0.00     0.418 HD
ENDBRANCH   4   7
TORSDOF 1
ENDMDL
