MODEL 1
REMARK minimizedAffinity -3.24451113
REMARK minimizedRMSD -1
REMARK  1 active torsions:
REMARK  status: ('A' for Active; 'I' for Inactive)
REMARK    1  A    between atoms: C3_4  and  O_7 
ROOT
ATOM      1  C   UNL d   1       6.000   4.408  -2.727  0.00  0.00    -0.033 A 
ATOM      2  C1  UNL d   1       5.409   5.508  -2.101  0.00  0.00     0.039 A 
ATOM      3  C2  UNL d   1       4.185   5.999  -2.558  0.00  0.00    -0.080 A 
ATOM      4  C3  UNL d   1       3.561   5.381  -3.639  0.00  0.00     0.150 A 
ATOM      5  C4  UNL d   1       4.142   4.283  -4.265  0.00  0.00    -0.007 A 
ATOM      6  C5  UNL d   1       5.366   3.795  -3.808  0.00  0.00     0.039 A 
ENDROOT
BRANCH   4   7
ATOM      7  O   UNL d   1       2.368   5.828  -4.123  0.00  0.00    -0.526 OA
ATOM      8  H5  UNL d   1       2.101   6.609  -3.612  0.00  0.00     0.418 HD
ENDBRANCH   4   7
TORSDOF 1
ENDMDL
