MODEL 1
REMARK minimizedAffinity 1.90471041
REMARK minimizedRMSD -1
REMARK  2 active torsions:
REMARK  status: ('A' for Active; 'I' for Inactive)
REMARK    1  A    between atoms: C2'_3  and  C1'_4 
REMARK    2  A    between atoms: C1'_4  and  C1_5 
ROOT
ATOM      1  C1  I4B d   1      -3.519   3.870   0.889  0.00  0.00    -0.075 A 
ATOM      2  C2  I4B d   1      -4.768   3.300   0.904  0.00  0.00     0.003 A 
ATOM      3  C3  I4B d   1      -5.907   4.088   1.202  0.00  0.00     0.002 A 
ATOM      4  C4  I4B d   1      -5.746   5.419   1.527  0.00  0.00    -0.004 A 
ATOM      5  C5  I4B d   1      -4.482   6.000   1.490  0.00  0.00     0.002 A 
ATOM      6  C6  I4B d   1      -3.362   5.223   1.157  0.00  0.00     0.003 A 
ENDROOT
BRANCH   1   7
ATOM      7  C1' I4B d   1      -2.335   3.002   0.603  0.00  0.00     0.060 C 
BRANCH   7   8
ATOM      8  C2' I4B d   1      -1.457   3.726  -0.397  0.00  0.00    -0.013 C 
ATOM      9  C4' I4B d   1      -0.021   3.288  -0.279  0.00  0.00     0.013 C 
ATOM     10  C3' I4B d   1      -1.995   3.453  -1.770  0.00  0.00     0.013 C 
ENDBRANCH   7   8
ENDBRANCH   1   7
TORSDOF 2
ENDMDL
