MODEL 1
REMARK minimizedAffinity 12.6091919
REMARK minimizedRMSD -1
REMARK  2 active torsions:
REMARK  status: ('A' for Active; 'I' for Inactive)
REMARK    1  A    between atoms: C2'_3  and  C1'_4 
REMARK    2  A    between atoms: C1'_4  and  C1_5 
ROOT
ATOM      1  C1  I4B d   1      -1.970   3.553  -1.889  0.00  0.00    -0.075 A 
ATOM      2  C2  I4B d   1      -0.654   3.390  -1.535  0.00  0.00     0.003 A 
ATOM      3  C3  I4B d   1       0.233   4.494  -1.561  0.00  0.00     0.002 A 
ATOM      4  C4  I4B d   1      -0.223   5.723  -1.992  0.00  0.00    -0.004 A 
ATOM      5  C5  I4B d   1      -1.563   5.891  -2.329  0.00  0.00     0.002 A 
ATOM      6  C6  I4B d   1      -2.445   4.802  -2.265  0.00  0.00     0.003 A 
ENDROOT
BRANCH   1   7
ATOM      7  C1' I4B d   1      -2.871   2.359  -1.881  0.00  0.00     0.060 C 
BRANCH   7   8
ATOM      8  C2' I4B d   1      -3.589   2.308  -3.215  0.00  0.00    -0.013 C 
ATOM      9  C4' I4B d   1      -2.671   1.833  -4.310  0.00  0.00     0.013 C 
ATOM     10  C3' I4B d   1      -4.773   1.400  -3.069  0.00  0.00     0.013 C 
ENDBRANCH   7   8
ENDBRANCH   1   7
TORSDOF 2
ENDMDL
