MODEL 1
REMARK minimizedAffinity 13.6047478
REMARK minimizedRMSD -1
REMARK  2 active torsions:
REMARK  status: ('A' for Active; 'I' for Inactive)
REMARK    1  A    between atoms: C2'_3  and  C1'_4 
REMARK    2  A    between atoms: C1'_4  and  C1_5 
ROOT
ATOM      1  C1  I4B d   1      -3.816   0.132   2.921  0.00  0.00    -0.075 A 
ATOM      2  C2  I4B d   1      -4.902  -0.479   2.346  0.00  0.00     0.003 A 
ATOM      3  C3  I4B d   1      -5.999  -0.882   3.145  0.00  0.00     0.002 A 
ATOM      4  C4  I4B d   1      -5.946  -0.703   4.513  0.00  0.00    -0.004 A 
ATOM      5  C5  I4B d   1      -4.854  -0.062   5.091  0.00  0.00     0.002 A 
ATOM      6  C6  I4B d   1      -3.787   0.369   4.289  0.00  0.00     0.003 A 
ENDROOT
BRANCH   1   7
ATOM      7  C1' I4B d   1      -2.660   0.516   2.052  0.00  0.00     0.060 C 
BRANCH   7   8
ATOM      8  C2' I4B d   1      -2.898   1.928   1.556  0.00  0.00    -0.013 C 
ATOM      9  C4' I4B d   1      -1.601   2.609   1.206  0.00  0.00     0.013 C 
ATOM     10  C3' I4B d   1      -3.809   1.854   0.367  0.00  0.00     0.013 C 
ENDBRANCH   7   8
ENDBRANCH   1   7
TORSDOF 2
ENDMDL
