MODEL 1
REMARK minimizedAffinity 7.82663202
REMARK minimizedRMSD -1
REMARK  2 active torsions:
REMARK  status: ('A' for Active; 'I' for Inactive)
REMARK    1  A    between atoms: C2'_3  and  C1'_4 
REMARK    2  A    between atoms: C1'_4  and  C1_5 
ROOT
ATOM      1  C1  I4B d   1      -0.403   4.022  -1.463  0.00  0.00    -0.075 A 
ATOM      2  C2  I4B d   1       0.712   3.390  -0.972  0.00  0.00     0.003 A 
ATOM      3  C3  I4B d   1       1.955   4.067  -0.928  0.00  0.00     0.002 A 
ATOM      4  C4  I4B d   1       2.047   5.349  -1.429  0.00  0.00    -0.004 A 
ATOM      5  C5  I4B d   1       0.911   5.997  -1.906  0.00  0.00     0.002 A 
ATOM      6  C6  I4B d   1      -0.324   5.334  -1.912  0.00  0.00     0.003 A 
ENDROOT
BRANCH   1   7
ATOM      7  C1' I4B d   1      -1.692   3.265  -1.525  0.00  0.00     0.060 C 
BRANCH   7   8
ATOM      8  C2' I4B d   1      -1.901   2.816  -2.957  0.00  0.00    -0.013 C 
ATOM      9  C4' I4B d   1      -2.943   1.732  -3.042  0.00  0.00     0.013 C 
ATOM     10  C3' I4B d   1      -2.300   4.015  -3.765  0.00  0.00     0.013 C 
ENDBRANCH   7   8
ENDBRANCH   1   7
TORSDOF 2
ENDMDL
