MODEL 1
REMARK minimizedAffinity 8.04340744
REMARK minimizedRMSD -1
REMARK  2 active torsions:
REMARK  status: ('A' for Active; 'I' for Inactive)
REMARK    1  A    between atoms: C2'_3  and  C1'_4 
REMARK    2  A    between atoms: C1'_4  and  C1_5 
ROOT
ATOM      1  C1  I4B d   1       3.421  -1.380   2.385  0.00  0.00    -0.075 A 
ATOM      2  C2  I4B d   1       3.327  -2.044   3.582  0.00  0.00     0.003 A 
ATOM      3  C3  I4B d   1       4.249  -3.068   3.904  0.00  0.00     0.002 A 
ATOM      4  C4  I4B d   1       5.213  -3.429   2.984  0.00  0.00    -0.004 A 
ATOM      5  C5  I4B d   1       5.322  -2.739   1.780  0.00  0.00     0.002 A 
ATOM      6  C6  I4B d   1       4.428  -1.699   1.483  0.00  0.00     0.003 A 
ENDROOT
BRANCH   1   7
ATOM      7  C1' I4B d   1       2.410  -0.325   2.063  0.00  0.00     0.060 C 
BRANCH   7   8
ATOM      8  C2' I4B d   1       1.222  -1.001   1.410  0.00  0.00    -0.013 C 
ATOM      9  C4' I4B d   1       1.653  -1.857   0.248  0.00  0.00     0.013 C 
ATOM     10  C3' I4B d   1       0.523  -1.819   2.454  0.00  0.00     0.013 C 
ENDBRANCH   7   8
ENDBRANCH   1   7
TORSDOF 2
ENDMDL
