MODEL 1
REMARK minimizedAffinity 17.2581539
REMARK minimizedRMSD -1
REMARK  2 active torsions:
REMARK  status: ('A' for Active; 'I' for Inactive)
REMARK    1  A    between atoms: C2'_3  and  C1'_4 
REMARK    2  A    between atoms: C1'_4  and  C1_5 
ROOT
ATOM      1  C1  I4B d   1      -3.721   1.624  -2.905  0.00  0.00    -0.075 A 
ATOM      2  C2  I4B d   1      -4.446   0.527  -3.298  0.00  0.00     0.003 A 
ATOM      3  C3  I4B d   1      -5.616   0.157  -2.591  0.00  0.00     0.002 A 
ATOM      4  C4  I4B d   1      -5.992   0.876  -1.475  0.00  0.00    -0.004 A 
ATOM      5  C5  I4B d   1      -5.268   2.001  -1.092  0.00  0.00     0.002 A 
ATOM      6  C6  I4B d   1      -4.132   2.386  -1.819  0.00  0.00     0.003 A 
ENDROOT
BRANCH   1   7
ATOM      7  C1' I4B d   1      -2.472   1.968  -3.655  0.00  0.00     0.060 C 
BRANCH   7   8
ATOM      8  C2' I4B d   1      -1.658   0.700  -3.812  0.00  0.00    -0.013 C 
ATOM      9  C4' I4B d   1      -1.035   0.618  -5.180  0.00  0.00     0.013 C 
ATOM     10  C3' I4B d   1      -0.611   0.686  -2.738  0.00  0.00     0.013 C 
ENDBRANCH   7   8
ENDBRANCH   1   7
TORSDOF 2
ENDMDL
