MODEL 1
REMARK minimizedAffinity -5.47900772
REMARK minimizedRMSD -1
REMARK  3 active torsions:
REMARK  status: ('A' for Active; 'I' for Inactive)
REMARK    1  A    between atoms: C3'_2  and  C2'_3 
REMARK    2  A    between atoms: C2'_3  and  C1'_4 
REMARK    3  A    between atoms: C1'_4  and  C1_5 
ROOT
ATOM      1  C1  N4B d   1       0.109  -0.216   0.251  0.00  0.00    -0.075 A 
ATOM      2  C2  N4B d   1      -1.149   0.215   0.725  0.00  0.00     0.002 A 
ATOM      3  C3  N4B d   1      -1.471   1.550   0.701  0.00  0.00     0.002 A 
ATOM      4  C4  N4B d   1      -0.547   2.470   0.228  0.00  0.00    -0.004 A 
ATOM      5  C5  N4B d   1       0.656   2.043  -0.251  0.00  0.00     0.002 A 
ATOM      6  C6  N4B d   1       0.991   0.704  -0.237  0.00  0.00     0.002 A 
ENDROOT
BRANCH   1   7
ATOM      7  C1' N4B d   1       0.539  -1.655   0.336  0.00  0.00     0.057 C 
BRANCH   7   8
ATOM      8  C2' N4B d   1      -0.483  -2.527  -0.387  0.00  0.00     0.009 C 
BRANCH   8   9
ATOM      9  C3' N4B d   1      -0.069  -2.817  -1.820  0.00  0.00     0.004 C 
ATOM     10  C4' N4B d   1      -1.219  -3.245  -2.681  0.00  0.00     0.003 C 
ENDBRANCH   8   9
ENDBRANCH   7   8
ENDBRANCH   1   7
TORSDOF 3
ENDMDL
