MODEL 1
REMARK minimizedAffinity -3.91694784
REMARK minimizedRMSD -1
REMARK  3 active torsions:
REMARK  status: ('A' for Active; 'I' for Inactive)
REMARK    1  A    between atoms: C3'_2  and  C2'_3 
REMARK    2  A    between atoms: C2'_3  and  C1'_4 
REMARK    3  A    between atoms: C1'_4  and  C1_5 
ROOT
ATOM      1  C1  N4B d   1       0.165   0.077   0.025  0.00  0.00    -0.075 A 
ATOM      2  C2  N4B d   1      -1.144   0.043   0.553  0.00  0.00     0.002 A 
ATOM      3  C3  N4B d   1      -1.774   1.212   0.903  0.00  0.00     0.002 A 
ATOM      4  C4  N4B d   1      -1.109   2.420   0.753  0.00  0.00    -0.004 A 
ATOM      5  C5  N4B d   1       0.146   2.446   0.219  0.00  0.00     0.002 A 
ATOM      6  C6  N4B d   1       0.789   1.279  -0.141  0.00  0.00     0.002 A 
ENDROOT
BRANCH   1   7
ATOM      7  C1' N4B d   1       0.927  -1.181  -0.292  0.00  0.00     0.057 C 
BRANCH   7   8
ATOM      8  C2' N4B d   1      -0.059  -2.334  -0.462  0.00  0.00     0.009 C 
BRANCH   8   9
ATOM      9  C3' N4B d   1       0.097  -3.022  -1.807  0.00  0.00     0.004 C 
ATOM     10  C4' N4B d   1      -1.216  -3.421  -2.411  0.00  0.00     0.003 C 
ENDBRANCH   8   9
ENDBRANCH   7   8
ENDBRANCH   1   7
TORSDOF 3
ENDMDL
