MODEL 1
REMARK minimizedAffinity -4.87092066
REMARK minimizedRMSD -1
REMARK  3 active torsions:
REMARK  status: ('A' for Active; 'I' for Inactive)
REMARK    1  A    between atoms: C3'_2  and  C2'_3 
REMARK    2  A    between atoms: C2'_3  and  C1'_4 
REMARK    3  A    between atoms: C1'_4  and  C1_5 
ROOT
ATOM      1  C1  N4B d   1       0.352   0.645   0.178  0.00  0.00    -0.075 A 
ATOM      2  C2  N4B d   1       1.229   1.206  -0.777  0.00  0.00     0.002 A 
ATOM      3  C3  N4B d   1       1.109   2.529  -1.125  0.00  0.00     0.002 A 
ATOM      4  C4  N4B d   1       0.112   3.302  -0.549  0.00  0.00    -0.004 A 
ATOM      5  C5  N4B d   1      -0.715   2.759   0.390  0.00  0.00     0.002 A 
ATOM      6  C6  N4B d   1      -0.603   1.432   0.753  0.00  0.00     0.002 A 
ENDROOT
BRANCH   1   7
ATOM      7  C1' N4B d   1       0.389  -0.818   0.527  0.00  0.00     0.057 C 
BRANCH   7   8
ATOM      8  C2' N4B d   1      -0.713  -1.544  -0.239  0.00  0.00     0.009 C 
BRANCH   8   9
ATOM      9  C3' N4B d   1      -0.228  -2.054  -1.585  0.00  0.00     0.004 C 
ATOM     10  C4' N4B d   1      -1.139  -3.088  -2.177  0.00  0.00     0.003 C 
ENDBRANCH   8   9
ENDBRANCH   7   8
ENDBRANCH   1   7
TORSDOF 3
ENDMDL
