MODEL 1
REMARK minimizedAffinity -5.41512823
REMARK minimizedRMSD -1
REMARK  3 active torsions:
REMARK  status: ('A' for Active; 'I' for Inactive)
REMARK    1  A    between atoms: C3'_2  and  C2'_3 
REMARK    2  A    between atoms: C2'_3  and  C1'_4 
REMARK    3  A    between atoms: C1'_4  and  C1_5 
ROOT
ATOM      1  C1  N4B d   1      -0.191   0.197   0.008  0.00  0.00    -0.075 A 
ATOM      2  C2  N4B d   1      -1.438   0.764   0.349  0.00  0.00     0.002 A 
ATOM      3  C3  N4B d   1      -1.652   2.109   0.174  0.00  0.00     0.002 A 
ATOM      4  C4  N4B d   1      -0.632   2.907  -0.322  0.00  0.00    -0.004 A 
ATOM      5  C5  N4B d   1       0.561   2.347  -0.673  0.00  0.00     0.002 A 
ATOM      6  C6  N4B d   1       0.789   0.996  -0.506  0.00  0.00     0.002 A 
ENDROOT
BRANCH   1   7
ATOM      7  C1' N4B d   1       0.119  -1.253   0.262  0.00  0.00     0.057 C 
BRANCH   7   8
ATOM      8  C2' N4B d   1      -0.428  -2.091  -0.889  0.00  0.00     0.009 C 
BRANCH   8   9
ATOM      9  C3' N4B d   1      -1.452  -3.108  -0.415  0.00  0.00     0.004 C 
ATOM     10  C4' N4B d   1      -2.517  -3.380  -1.435  0.00  0.00     0.003 C 
ENDBRANCH   8   9
ENDBRANCH   7   8
ENDBRANCH   1   7
TORSDOF 3
ENDMDL
