MODEL 1
REMARK minimizedAffinity -4.8561573
REMARK minimizedRMSD -1
REMARK  3 active torsions:
REMARK  status: ('A' for Active; 'I' for Inactive)
REMARK    1  A    between atoms: C3'_2  and  C2'_3 
REMARK    2  A    between atoms: C2'_3  and  C1'_4 
REMARK    3  A    between atoms: C1'_4  and  C1_5 
ROOT
ATOM      1  C1  N4B d   1      -0.033   0.074   0.112  0.00  0.00    -0.075 A 
ATOM      2  C2  N4B d   1      -1.398   0.433   0.173  0.00  0.00     0.002 A 
ATOM      3  C3  N4B d   1      -1.755   1.744   0.373  0.00  0.00     0.002 A 
ATOM      4  C4  N4B d   1      -0.770   2.706   0.532  0.00  0.00    -0.004 A 
ATOM      5  C5  N4B d   1       0.546   2.356   0.446  0.00  0.00     0.002 A 
ATOM      6  C6  N4B d   1       0.919   1.043   0.242  0.00  0.00     0.002 A 
ENDROOT
BRANCH   1   7
ATOM      7  C1' N4B d   1       0.406  -1.358  -0.019  0.00  0.00     0.057 C 
BRANCH   7   8
ATOM      8  C2' N4B d   1       0.370  -1.760  -1.491  0.00  0.00     0.009 C 
BRANCH   8   9
ATOM      9  C3' N4B d   1      -0.029  -3.215  -1.673  0.00  0.00     0.004 C 
ATOM     10  C4' N4B d   1      -1.101  -3.647  -0.717  0.00  0.00     0.003 C 
ENDBRANCH   8   9
ENDBRANCH   7   8
ENDBRANCH   1   7
TORSDOF 3
ENDMDL
