MODEL 1
REMARK minimizedAffinity -3.69205952
REMARK minimizedRMSD -1
REMARK  3 active torsions:
REMARK  status: ('A' for Active; 'I' for Inactive)
REMARK    1  A    between atoms: C3'_2  and  C2'_3 
REMARK    2  A    between atoms: C2'_3  and  C1'_4 
REMARK    3  A    between atoms: C1'_4  and  C1_5 
ROOT
ATOM      1  C1  N4B d   1      -0.254   0.727   0.259  0.00  0.00    -0.075 A 
ATOM      2  C2  N4B d   1       0.590   1.005  -0.839  0.00  0.00     0.002 A 
ATOM      3  C3  N4B d   1       1.190   2.236  -0.948  0.00  0.00     0.002 A 
ATOM      4  C4  N4B d   1       0.947   3.205   0.013  0.00  0.00    -0.004 A 
ATOM      5  C5  N4B d   1       0.150   2.920   1.083  0.00  0.00     0.002 A 
ATOM      6  C6  N4B d   1      -0.456   1.686   1.208  0.00  0.00     0.002 A 
ENDROOT
BRANCH   1   7
ATOM      7  C1' N4B d   1      -1.000  -0.574   0.377  0.00  0.00     0.057 C 
BRANCH   7   8
ATOM      8  C2' N4B d   1      -0.217  -1.668  -0.344  0.00  0.00     0.009 C 
BRANCH   8   9
ATOM      9  C3' N4B d   1      -1.080  -2.881  -0.645  0.00  0.00     0.004 C 
ATOM     10  C4' N4B d   1      -0.976  -3.327  -2.073  0.00  0.00     0.003 C 
ENDBRANCH   8   9
ENDBRANCH   7   8
ENDBRANCH   1   7
TORSDOF 3
ENDMDL
