MODEL 1
REMARK minimizedAffinity -5.71253872
REMARK minimizedRMSD -1
REMARK  3 active torsions:
REMARK  status: ('A' for Active; 'I' for Inactive)
REMARK    1  A    between atoms: C3'_2  and  C2'_3 
REMARK    2  A    between atoms: C2'_3  and  C1'_4 
REMARK    3  A    between atoms: C1'_4  and  C1_5 
ROOT
ATOM      1  C1  N4B d   1       0.553   0.254   0.117  0.00  0.00    -0.075 A 
ATOM      2  C2  N4B d   1      -0.537   0.784   0.840  0.00  0.00     0.002 A 
ATOM      3  C3  N4B d   1      -0.769   2.138   0.838  0.00  0.00     0.002 A 
ATOM      4  C4  N4B d   1       0.083   2.979   0.138  0.00  0.00    -0.004 A 
ATOM      5  C5  N4B d   1       1.119   2.456  -0.579  0.00  0.00     0.002 A 
ATOM      6  C6  N4B d   1       1.362   1.097  -0.589  0.00  0.00     0.002 A 
ENDROOT
BRANCH   1   7
ATOM      7  C1' N4B d   1       0.897  -1.210   0.159  0.00  0.00     0.057 C 
BRANCH   7   8
ATOM      8  C2' N4B d   1      -0.276  -2.016  -0.389  0.00  0.00     0.009 C 
BRANCH   8   9
ATOM      9  C3' N4B d   1       0.063  -2.691  -1.707  0.00  0.00     0.004 C 
ATOM     10  C4' N4B d   1      -1.095  -3.445  -2.289  0.00  0.00     0.003 C 
ENDBRANCH   8   9
ENDBRANCH   7   8
ENDBRANCH   1   7
TORSDOF 3
ENDMDL
