MODEL 1
REMARK minimizedAffinity 0.534385979
REMARK minimizedRMSD -1
REMARK  3 active torsions:
REMARK  status: ('A' for Active; 'I' for Inactive)
REMARK    1  A    between atoms: C3'_2  and  C2'_3 
REMARK    2  A    between atoms: C2'_3  and  C1'_4 
REMARK    3  A    between atoms: C1'_4  and  C1_5 
ROOT
ATOM      1  C1  N4B d   1       0.112  -1.835  -0.870  0.00  0.00    -0.075 A 
ATOM      2  C2  N4B d   1       0.883  -1.943  -2.048  0.00  0.00     0.002 A 
ATOM      3  C3  N4B d   1       0.537  -2.856  -3.014  0.00  0.00     0.002 A 
ATOM      4  C4  N4B d   1      -0.561  -3.680  -2.816  0.00  0.00    -0.004 A 
ATOM      5  C5  N4B d   1      -1.316  -3.552  -1.687  0.00  0.00     0.002 A 
ATOM      6  C6  N4B d   1      -0.981  -2.636  -0.710  0.00  0.00     0.002 A 
ENDROOT
BRANCH   1   7
ATOM      7  C1' N4B d   1       0.501  -0.913   0.253  0.00  0.00     0.057 C 
BRANCH   7   8
ATOM      8  C2' N4B d   1       2.022  -0.799   0.303  0.00  0.00     0.009 C 
BRANCH   8   9
ATOM      9  C3' N4B d   1       2.487   0.645   0.222  0.00  0.00     0.004 C 
ATOM     10  C4' N4B d   1       1.650   1.474  -0.706  0.00  0.00     0.003 C 
ENDBRANCH   8   9
ENDBRANCH   7   8
ENDBRANCH   1   7
TORSDOF 3
ENDMDL
