MODEL 1
REMARK minimizedAffinity -1.01596975
REMARK minimizedRMSD -1
REMARK  1 active torsions:
REMARK  status: ('A' for Active; 'I' for Inactive)
REMARK    1  A    between atoms: C1_2  and  C2_3 
ROOT
ATOM      1  C2  UNL d   1       1.391  -0.881   1.566  0.00  0.00    -0.077 A 
ATOM      2  C3  UNL d   1       0.369   0.009   1.926  0.00  0.00     0.002 A 
ATOM      3  C4  UNL d   1      -0.855  -0.012   1.254  0.00  0.00     0.002 A 
ATOM      4  C5  UNL d   1      -1.070  -0.923   0.222  0.00  0.00    -0.004 A 
ATOM      5  C6  UNL d   1      -0.059  -1.810  -0.145  0.00  0.00     0.002 A 
ATOM      6  C7  UNL d   1       1.166  -1.790   0.525  0.00  0.00     0.002 A 
ENDROOT
BRANCH   1   7
ATOM      7  C1  UNL d   1       2.694  -0.893   2.322  0.00  0.00     0.055 C 
ATOM      8  C   UNL d   1       2.475  -1.202   3.796  0.00  0.00     0.019 C 
ENDBRANCH   1   7
TORSDOF 1
ENDMDL
