MODEL 1
REMARK minimizedAffinity -4.6021862
REMARK minimizedRMSD -1
REMARK  1 active torsions:
REMARK  status: ('A' for Active; 'I' for Inactive)
REMARK    1  A    between atoms: C1_2  and  C2_3 
ROOT
ATOM      1  C2  UNL d   1       0.240  -1.615   0.446  0.00  0.00    -0.077 A 
ATOM      2  C3  UNL d   1       0.526  -2.932   0.057  0.00  0.00     0.002 A 
ATOM      3  C4  UNL d   1       1.848  -3.347  -0.110  0.00  0.00     0.002 A 
ATOM      4  C5  UNL d   1       2.895  -2.455   0.113  0.00  0.00    -0.004 A 
ATOM      5  C6  UNL d   1       2.621  -1.143   0.498  0.00  0.00     0.002 A 
ATOM      6  C7  UNL d   1       1.300  -0.726   0.665  0.00  0.00     0.002 A 
ENDROOT
BRANCH   1   7
ATOM      7  C1  UNL d   1      -1.183  -1.179   0.675  0.00  0.00     0.055 C 
ATOM      8  C   UNL d   1      -1.247   0.066   1.548  0.00  0.00     0.019 C 
ENDBRANCH   1   7
TORSDOF 1
ENDMDL
