MODEL 1
REMARK minimizedAffinity -3.82903266
REMARK minimizedRMSD -1
REMARK  1 active torsions:
REMARK  status: ('A' for Active; 'I' for Inactive)
REMARK    1  A    between atoms: C1_2  and  C2_3 
ROOT
ATOM      1  C2  UNL d   1      -0.505   0.044   1.052  0.00  0.00    -0.077 A 
ATOM      2  C3  UNL d   1       0.736   0.161   1.693  0.00  0.00     0.002 A 
ATOM      3  C4  UNL d   1       1.825  -0.602   1.267  0.00  0.00     0.002 A 
ATOM      4  C5  UNL d   1       1.685  -1.484   0.198  0.00  0.00    -0.004 A 
ATOM      5  C6  UNL d   1       0.453  -1.609  -0.444  0.00  0.00     0.002 A 
ATOM      6  C7  UNL d   1      -0.636  -0.848  -0.020  0.00  0.00     0.002 A 
ENDROOT
BRANCH   1   7
ATOM      7  C1  UNL d   1      -1.668   0.902   1.477  0.00  0.00     0.055 C 
ATOM      8  C   UNL d   1      -2.719   0.993   0.381  0.00  0.00     0.019 C 
ENDBRANCH   1   7
TORSDOF 1
ENDMDL
