MODEL 1
REMARK minimizedAffinity 8.59936619
REMARK minimizedRMSD -1
REMARK  1 active torsions:
REMARK  status: ('A' for Active; 'I' for Inactive)
REMARK    1  A    between atoms: C1_2  and  C2_3 
ROOT
ATOM      1  C2  UNL d   1       1.046  -1.429   1.419  0.00  0.00    -0.077 A 
ATOM      2  C3  UNL d   1      -0.247  -1.114   0.977  0.00  0.00     0.002 A 
ATOM      3  C4  UNL d   1      -0.939  -1.989   0.137  0.00  0.00     0.002 A 
ATOM      4  C5  UNL d   1      -0.348  -3.185  -0.264  0.00  0.00    -0.004 A 
ATOM      5  C6  UNL d   1       0.938  -3.507   0.168  0.00  0.00     0.002 A 
ATOM      6  C7  UNL d   1       1.632  -2.633   1.006  0.00  0.00     0.002 A 
ENDROOT
BRANCH   1   7
ATOM      7  C1  UNL d   1       1.775  -0.510   2.364  0.00  0.00     0.055 C 
ATOM      8  C   UNL d   1       1.526  -0.897   3.814  0.00  0.00     0.019 C 
ENDBRANCH   1   7
TORSDOF 1
ENDMDL
