MODEL 1
REMARK minimizedAffinity -4.02104855
REMARK minimizedRMSD -1
REMARK  1 active torsions:
REMARK  status: ('A' for Active; 'I' for Inactive)
REMARK    1  A    between atoms: C1_2  and  C2_3 
ROOT
ATOM      1  C2  UNL d   1      -1.220   0.002   1.235  0.00  0.00    -0.077 A 
ATOM      2  C3  UNL d   1       0.129   0.280   1.498  0.00  0.00     0.002 A 
ATOM      3  C4  UNL d   1       1.132  -0.559   1.009  0.00  0.00     0.002 A 
ATOM      4  C5  UNL d   1       0.797  -1.678   0.249  0.00  0.00    -0.004 A 
ATOM      5  C6  UNL d   1      -0.541  -1.965  -0.016  0.00  0.00     0.002 A 
ATOM      6  C7  UNL d   1      -1.545  -1.128   0.473  0.00  0.00     0.002 A 
ENDROOT
BRANCH   1   7
ATOM      7  C1  UNL d   1      -2.300   0.933   1.721  0.00  0.00     0.055 C 
ATOM      8  C   UNL d   1      -3.400   1.094   0.681  0.00  0.00     0.019 C 
ENDBRANCH   1   7
TORSDOF 1
ENDMDL
