MODEL 1
REMARK minimizedAffinity 4.46989632
REMARK minimizedRMSD -1
REMARK  1 active torsions:
REMARK  status: ('A' for Active; 'I' for Inactive)
REMARK    1  A    between atoms: C1_2  and  C2_3 
ROOT
ATOM      1  C2  UNL d   1       2.070  -1.766   0.516  0.00  0.00    -0.077 A 
ATOM      2  C3  UNL d   1       1.746  -2.875  -0.277  0.00  0.00     0.002 A 
ATOM      3  C4  UNL d   1       0.433  -3.345  -0.333  0.00  0.00     0.002 A 
ATOM      4  C5  UNL d   1      -0.568  -2.708   0.399  0.00  0.00    -0.004 A 
ATOM      5  C6  UNL d   1      -0.256  -1.605   1.192  0.00  0.00     0.002 A 
ATOM      6  C7  UNL d   1       1.057  -1.135   1.250  0.00  0.00     0.002 A 
ENDROOT
BRANCH   1   7
ATOM      7  C1  UNL d   1       3.477  -1.228   0.539  0.00  0.00     0.055 C 
ATOM      8  C   UNL d   1       3.701  -0.316   1.737  0.00  0.00     0.019 C 
ENDBRANCH   1   7
TORSDOF 1
ENDMDL
