MODEL 1
REMARK minimizedAffinity 0.589608133
REMARK minimizedRMSD -1
REMARK  1 active torsions:
REMARK  status: ('A' for Active; 'I' for Inactive)
REMARK    1  A    between atoms: C1_2  and  C2_3 
ROOT
ATOM      1  C2  UNL d   1       1.970  -2.071   0.184  0.00  0.00    -0.077 A 
ATOM      2  C3  UNL d   1       1.397  -1.178   1.101  0.00  0.00     0.002 A 
ATOM      3  C4  UNL d   1       0.020  -1.186   1.329  0.00  0.00     0.002 A 
ATOM      4  C5  UNL d   1      -0.795  -2.088   0.649  0.00  0.00    -0.004 A 
ATOM      5  C6  UNL d   1      -0.236  -2.979  -0.266  0.00  0.00     0.002 A 
ATOM      6  C7  UNL d   1       1.140  -2.972  -0.497  0.00  0.00     0.002 A 
ENDROOT
BRANCH   1   7
ATOM      7  C1  UNL d   1       3.461  -2.097  -0.027  0.00  0.00     0.055 C 
ATOM      8  C   UNL d   1       3.960  -3.513  -0.276  0.00  0.00     0.019 C 
ENDBRANCH   1   7
TORSDOF 1
ENDMDL
