MODEL 1
REMARK minimizedAffinity -3.0663476
REMARK minimizedRMSD -1
REMARK  1 active torsions:
REMARK  status: ('A' for Active; 'I' for Inactive)
REMARK    1  A    between atoms: C1_2  and  C2_3 
ROOT
ATOM      1  C2  UNL d   1       1.142  -2.719   0.057  0.00  0.00    -0.077 A 
ATOM      2  C3  UNL d   1      -0.034  -2.852   0.808  0.00  0.00     0.002 A 
ATOM      3  C4  UNL d   1      -0.676  -1.724   1.322  0.00  0.00     0.002 A 
ATOM      4  C5  UNL d   1      -0.152  -0.454   1.087  0.00  0.00    -0.004 A 
ATOM      5  C6  UNL d   1       1.019  -0.311   0.343  0.00  0.00     0.002 A 
ATOM      6  C7  UNL d   1       1.662  -1.438  -0.170  0.00  0.00     0.002 A 
ENDROOT
BRANCH   1   7
ATOM      7  C1  UNL d   1       1.808  -3.931  -0.539  0.00  0.00     0.055 C 
ATOM      8  C   UNL d   1       3.309  -3.722  -0.686  0.00  0.00     0.019 C 
ENDBRANCH   1   7
TORSDOF 1
ENDMDL
