MODEL 1
REMARK minimizedAffinity -4.25586605
REMARK minimizedRMSD -1
REMARK  1 active torsions:
REMARK  status: ('A' for Active; 'I' for Inactive)
REMARK    1  A    between atoms: C1_2  and  C2_3 
ROOT
ATOM      1  C2  UNL d   1       1.085  -2.577  -0.201  0.00  0.00    -0.077 A 
ATOM      2  C3  UNL d   1      -0.296  -2.376  -0.070  0.00  0.00     0.002 A 
ATOM      3  C4  UNL d   1      -0.790  -1.167   0.425  0.00  0.00     0.002 A 
ATOM      4  C5  UNL d   1       0.090  -0.150   0.789  0.00  0.00    -0.004 A 
ATOM      5  C6  UNL d   1       1.465  -0.341   0.664  0.00  0.00     0.002 A 
ATOM      6  C7  UNL d   1       1.961  -1.549   0.170  0.00  0.00     0.002 A 
ENDROOT
BRANCH   1   7
ATOM      7  C1  UNL d   1       1.618  -3.861  -0.781  0.00  0.00     0.055 C 
ATOM      8  C   UNL d   1       3.059  -4.103  -0.358  0.00  0.00     0.019 C 
ENDBRANCH   1   7
TORSDOF 1
ENDMDL
