MODEL 1
REMARK minimizedAffinity 3.35821557
REMARK minimizedRMSD -1
REMARK  1 active torsions:
REMARK  status: ('A' for Active; 'I' for Inactive)
REMARK    1  A    between atoms: C1_2  and  C2_3 
ROOT
ATOM      1  C2  UNL d   1       0.609  -1.734  -0.331  0.00  0.00    -0.077 A 
ATOM      2  C3  UNL d   1       1.546  -0.807   0.147  0.00  0.00     0.002 A 
ATOM      3  C4  UNL d   1       1.213   0.061   1.188  0.00  0.00     0.002 A 
ATOM      4  C5  UNL d   1      -0.055   0.009   1.762  0.00  0.00    -0.004 A 
ATOM      5  C6  UNL d   1      -0.995  -0.908   1.292  0.00  0.00     0.002 A 
ATOM      6  C7  UNL d   1      -0.664  -1.776   0.251  0.00  0.00     0.002 A 
ENDROOT
BRANCH   1   7
ATOM      7  C1  UNL d   1       0.983  -2.704  -1.421  0.00  0.00     0.055 C 
ATOM      8  C   UNL d   1       0.472  -2.238  -2.777  0.00  0.00     0.019 C 
ENDBRANCH   1   7
TORSDOF 1
ENDMDL
