MODEL 1
REMARK minimizedAffinity -0.0237917155
REMARK minimizedRMSD -1
REMARK  1 active torsions:
REMARK  status: ('A' for Active; 'I' for Inactive)
REMARK    1  A    between atoms: C1_2  and  C2_3 
ROOT
ATOM      1  C2  UNL d   1       1.016  -1.649   0.346  0.00  0.00    -0.077 A 
ATOM      2  C3  UNL d   1       0.631  -2.931  -0.071  0.00  0.00     0.002 A 
ATOM      3  C4  UNL d   1       1.562  -3.797  -0.646  0.00  0.00     0.002 A 
ATOM      4  C5  UNL d   1       2.886  -3.393  -0.807  0.00  0.00    -0.004 A 
ATOM      5  C6  UNL d   1       3.279  -2.119  -0.397  0.00  0.00     0.002 A 
ATOM      6  C7  UNL d   1       2.349  -1.252   0.177  0.00  0.00     0.002 A 
ENDROOT
BRANCH   1   7
ATOM      7  C1  UNL d   1       0.024  -0.732   1.011  0.00  0.00     0.055 C 
ATOM      8  C   UNL d   1      -1.405  -1.100   0.641  0.00  0.00     0.019 C 
ENDBRANCH   1   7
TORSDOF 1
ENDMDL
