MODEL 1
REMARK minimizedAffinity 4.42857647
REMARK minimizedRMSD -1
REMARK  1 active torsions:
REMARK  status: ('A' for Active; 'I' for Inactive)
REMARK    1  A    between atoms: C1_2  and  C2_3 
ROOT
ATOM      1  C2  UNL d   1       0.620  -2.423   0.129  0.00  0.00    -0.077 A 
ATOM      2  C3  UNL d   1       1.738  -1.915   0.805  0.00  0.00     0.002 A 
ATOM      3  C4  UNL d   1       1.605  -0.835   1.679  0.00  0.00     0.002 A 
ATOM      4  C5  UNL d   1       0.355  -0.256   1.888  0.00  0.00    -0.004 A 
ATOM      5  C6  UNL d   1      -0.763  -0.752   1.218  0.00  0.00     0.002 A 
ATOM      6  C7  UNL d   1      -0.631  -1.831   0.343  0.00  0.00     0.002 A 
ENDROOT
BRANCH   1   7
ATOM      7  C1  UNL d   1       0.753  -3.620  -0.777  0.00  0.00     0.055 C 
ATOM      8  C   UNL d   1       2.110  -4.289  -0.613  0.00  0.00     0.019 C 
ENDBRANCH   1   7
TORSDOF 1
ENDMDL
