MODEL 1
REMARK minimizedAffinity -5.39716911
REMARK minimizedRMSD -1
REMARK  1 active torsions:
REMARK  status: ('A' for Active; 'I' for Inactive)
REMARK    1  A    between atoms: C1_2  and  C2_3 
ROOT
ATOM      1  C2  UNL d   1      -1.751  -0.323   1.040  0.00  0.00    -0.077 A 
ATOM      2  C3  UNL d   1      -0.679  -0.671   1.875  0.00  0.00     0.002 A 
ATOM      3  C4  UNL d   1      -0.010  -1.883   1.696  0.00  0.00     0.002 A 
ATOM      4  C5  UNL d   1      -0.401  -2.754   0.681  0.00  0.00    -0.004 A 
ATOM      5  C6  UNL d   1      -1.466  -2.417  -0.153  0.00  0.00     0.002 A 
ATOM      6  C7  UNL d   1      -2.138  -1.207   0.025  0.00  0.00     0.002 A 
ENDROOT
BRANCH   1   7
ATOM      7  C1  UNL d   1      -2.443   1.006   1.200  0.00  0.00     0.055 C 
ATOM      8  C   UNL d   1      -3.491   1.218   0.118  0.00  0.00     0.019 C 
ENDBRANCH   1   7
TORSDOF 1
ENDMDL
