MODEL 1
REMARK minimizedAffinity 9.61499023
REMARK minimizedRMSD -1
REMARK  1 active torsions:
REMARK  status: ('A' for Active; 'I' for Inactive)
REMARK    1  A    between atoms: C1_2  and  C2_3 
ROOT
ATOM      1  C2  UNL d   1       3.251  -4.395  -0.411  0.00  0.00    -0.077 A 
ATOM      2  C3  UNL d   1       4.046  -3.249  -0.267  0.00  0.00     0.002 A 
ATOM      3  C4  UNL d   1       3.465  -2.024   0.067  0.00  0.00     0.002 A 
ATOM      4  C5  UNL d   1       2.089  -1.934   0.263  0.00  0.00    -0.004 A 
ATOM      5  C6  UNL d   1       1.290  -3.067   0.120  0.00  0.00     0.002 A 
ATOM      6  C7  UNL d   1       1.868  -4.292  -0.214  0.00  0.00     0.002 A 
ENDROOT
BRANCH   1   7
ATOM      7  C1  UNL d   1       3.881  -5.728  -0.721  0.00  0.00     0.055 C 
ATOM      8  C   UNL d   1       5.076  -5.999   0.182  0.00  0.00     0.019 C 
ENDBRANCH   1   7
TORSDOF 1
ENDMDL
