MODEL 1
REMARK minimizedAffinity 7.61000156
REMARK minimizedRMSD -1
REMARK  0 active torsions:
REMARK  status: ('A' for Active; 'I' for Inactive)
ROOT
ATOM      1  N1  IND d   1       0.790   0.072  -1.516  0.00  0.00    -0.196 N 
ATOM      2  C2  IND d   1      -0.252   0.848  -1.942  0.00  0.00     0.054 A 
ATOM      3  C3  IND d   1      -0.974   1.285  -0.885  0.00  0.00    -0.031 A 
ATOM      4  C4  IND d   1      -0.567   0.934   1.632  0.00  0.00     0.051 A 
ATOM      5  C5  IND d   1       0.240   0.266   2.510  0.00  0.00    -0.031 A 
ATOM      6  C6  IND d   1       1.294  -0.515   2.082  0.00  0.00     0.015 A 
ATOM      7  C7  IND d   1       1.590  -0.647   0.755  0.00  0.00    -0.016 A 
ATOM      8  C8  IND d   1       0.768   0.024  -0.140  0.00  0.00    -0.047 A 
ATOM      9  C9  IND d   1      -0.329   0.783   0.286  0.00  0.00    -0.096 A 
ATOM     10  HN1 IND d   1       1.364  -0.320  -2.024  0.00  0.00     0.298 HD
ENDROOT
TORSDOF 0
ENDMDL
