MODEL 1
REMARK minimizedAffinity 2.47386527
REMARK minimizedRMSD -1
REMARK  0 active torsions:
REMARK  status: ('A' for Active; 'I' for Inactive)
ROOT
ATOM      1  N1  IND d   1      -0.376   1.538  -0.850  0.00  0.00    -0.196 N 
ATOM      2  C2  IND d   1      -0.082   0.336  -1.430  0.00  0.00     0.054 A 
ATOM      3  C3  IND d   1       0.611  -0.444  -0.571  0.00  0.00    -0.031 A 
ATOM      4  C4  IND d   1       1.283   0.010   1.872  0.00  0.00     0.051 A 
ATOM      5  C5  IND d   1       1.268   0.985   2.830  0.00  0.00    -0.031 A 
ATOM      6  C6  IND d   1       0.690   2.217   2.607  0.00  0.00     0.015 A 
ATOM      7  C7  IND d   1       0.093   2.519   1.416  0.00  0.00    -0.016 A 
ATOM      8  C8  IND d   1       0.112   1.534   0.438  0.00  0.00    -0.047 A 
ATOM      9  C9  IND d   1       0.735   0.297   0.644  0.00  0.00    -0.096 A 
ATOM     10  HN1 IND d   1      -0.796   2.188  -1.226  0.00  0.00     0.298 HD
ENDROOT
TORSDOF 0
ENDMDL
