MODEL 1
REMARK minimizedAffinity 3.2010963
REMARK minimizedRMSD -1
REMARK  0 active torsions:
REMARK  status: ('A' for Active; 'I' for Inactive)
ROOT
ATOM      1  N1  IND d   1       0.621   1.265  -0.947  0.00  0.00    -0.196 N 
ATOM      2  C2  IND d   1      -0.404   0.914  -1.781  0.00  0.00     0.054 A 
ATOM      3  C3  IND d   1      -1.063  -0.160  -1.290  0.00  0.00    -0.031 A 
ATOM      4  C4  IND d   1      -0.696  -1.438   0.914  0.00  0.00     0.051 A 
ATOM      5  C5  IND d   1       0.144  -1.511   1.990  0.00  0.00    -0.031 A 
ATOM      6  C6  IND d   1       1.205  -0.643   2.146  0.00  0.00     0.015 A 
ATOM      7  C7  IND d   1       1.461   0.342   1.234  0.00  0.00    -0.016 A 
ATOM      8  C8  IND d   1       0.615   0.414   0.137  0.00  0.00    -0.047 A 
ATOM      9  C9  IND d   1      -0.438  -0.490  -0.049  0.00  0.00    -0.096 A 
ATOM     10  HN1 IND d   1       1.176   1.908  -1.077  0.00  0.00     0.298 HD
ENDROOT
TORSDOF 0
ENDMDL
