MODEL 1
REMARK minimizedAffinity 4.05058813
REMARK minimizedRMSD -1
REMARK  0 active torsions:
REMARK  status: ('A' for Active; 'I' for Inactive)
ROOT
ATOM      1  N1  IND d   1       0.998   0.783  -1.084  0.00  0.00    -0.196 N 
ATOM      2  C2  IND d   1       0.023   1.739  -1.011  0.00  0.00     0.054 A 
ATOM      3  C3  IND d   1      -0.309   1.974   0.278  0.00  0.00    -0.031 A 
ATOM      4  C4  IND d   1       0.692   0.981   2.432  0.00  0.00     0.051 A 
ATOM      5  C5  IND d   1       1.582   0.043   2.874  0.00  0.00    -0.031 A 
ATOM      6  C6  IND d   1       2.340  -0.710   2.000  0.00  0.00     0.015 A 
ATOM      7  C7  IND d   1       2.244  -0.544   0.648  0.00  0.00    -0.016 A 
ATOM      8  C8  IND d   1       1.336   0.403   0.196  0.00  0.00    -0.047 A 
ATOM      9  C9  IND d   1       0.533   1.140   1.076  0.00  0.00    -0.096 A 
ATOM     10  HN1 IND d   1       1.342   0.472  -1.808  0.00  0.00     0.298 HD
ENDROOT
TORSDOF 0
ENDMDL
