MODEL 1
REMARK minimizedAffinity -4.79219627
REMARK minimizedRMSD -1
REMARK  2 active torsions:
REMARK  status: ('A' for Active; 'I' for Inactive)
REMARK    1  A    between atoms: C1_2  and  C2_3 
REMARK    2  A    between atoms: C2_3  and  C3_4 
ROOT
ATOM      1  C3  UNL d   1       0.152  -0.562  -0.264  0.00  0.00    -0.075 A 
ATOM      2  C4  UNL d   1       0.687  -0.028   0.918  0.00  0.00     0.002 A 
ATOM      3  C5  UNL d   1      -0.139   0.603   1.848  0.00  0.00     0.002 A 
ATOM      4  C6  UNL d   1      -1.506   0.717   1.606  0.00  0.00    -0.004 A 
ATOM      5  C7  UNL d   1      -2.046   0.205   0.428  0.00  0.00     0.002 A 
ATOM      6  C8  UNL d   1      -1.223  -0.430  -0.503  0.00  0.00     0.002 A 
ENDROOT
BRANCH   1   7
ATOM      7  C2  UNL d   1       1.036  -1.272  -1.261  0.00  0.00     0.056 C 
BRANCH   7   8
ATOM      8  C1  UNL d   1       0.798  -0.852  -2.715  0.00  0.00     0.007 C 
ATOM      9  C   UNL d   1       1.910   0.024  -3.277  0.00  0.00     0.009 C 
ENDBRANCH   7   8
ENDBRANCH   1   7
TORSDOF 2
ENDMDL
