MODEL 1
REMARK minimizedAffinity -4.47033215
REMARK minimizedRMSD -1
REMARK  2 active torsions:
REMARK  status: ('A' for Active; 'I' for Inactive)
REMARK    1  A    between atoms: C1_2  and  C2_3 
REMARK    2  A    between atoms: C2_3  and  C3_4 
ROOT
ATOM      1  C3  UNL d   1      -0.341  -0.141   0.299  0.00  0.00    -0.075 A 
ATOM      2  C4  UNL d   1       0.691   0.565   0.935  0.00  0.00     0.002 A 
ATOM      3  C5  UNL d   1       0.449   1.259   2.120  0.00  0.00     0.002 A 
ATOM      4  C6  UNL d   1      -0.827   1.266   2.679  0.00  0.00    -0.004 A 
ATOM      5  C7  UNL d   1      -1.863   0.581   2.048  0.00  0.00     0.002 A 
ATOM      6  C8  UNL d   1      -1.623  -0.118   0.864  0.00  0.00     0.002 A 
ENDROOT
BRANCH   1   7
ATOM      7  C2  UNL d   1      -0.078  -0.919  -0.968  0.00  0.00     0.056 C 
BRANCH   7   8
ATOM      8  C1  UNL d   1       1.170  -0.464  -1.732  0.00  0.00     0.007 C 
ATOM      9  C   UNL d   1       0.910  -0.210  -3.210  0.00  0.00     0.009 C 
ENDBRANCH   7   8
ENDBRANCH   1   7
TORSDOF 2
ENDMDL
