MODEL 1
REMARK minimizedAffinity -5.56519413
REMARK minimizedRMSD -1
REMARK  2 active torsions:
REMARK  status: ('A' for Active; 'I' for Inactive)
REMARK    1  A    between atoms: C1_2  and  C2_3 
REMARK    2  A    between atoms: C2_3  and  C3_4 
ROOT
ATOM      1  C3  UNL d   1       0.105  -0.021   0.535  0.00  0.00    -0.075 A 
ATOM      2  C4  UNL d   1      -1.289  -0.102   0.669  0.00  0.00     0.002 A 
ATOM      3  C5  UNL d   1      -1.946   0.604   1.677  0.00  0.00     0.002 A 
ATOM      4  C6  UNL d   1      -1.220   1.392   2.567  0.00  0.00    -0.004 A 
ATOM      5  C7  UNL d   1       0.167   1.467   2.454  0.00  0.00     0.002 A 
ATOM      6  C8  UNL d   1       0.827   0.764   1.444  0.00  0.00     0.002 A 
ENDROOT
BRANCH   1   7
ATOM      7  C2  UNL d   1       0.819  -0.760  -0.571  0.00  0.00     0.056 C 
BRANCH   7   8
ATOM      8  C1  UNL d   1      -0.079  -1.125  -1.758  0.00  0.00     0.007 C 
ATOM      9  C   UNL d   1       0.323  -0.427  -3.051  0.00  0.00     0.009 C 
ENDBRANCH   7   8
ENDBRANCH   1   7
TORSDOF 2
ENDMDL
