MODEL 1
REMARK minimizedAffinity -5.22958422
REMARK minimizedRMSD -1
REMARK  2 active torsions:
REMARK  status: ('A' for Active; 'I' for Inactive)
REMARK    1  A    between atoms: C1_2  and  C2_3 
REMARK    2  A    between atoms: C2_3  and  C3_4 
ROOT
ATOM      1  C3  UNL d   1       0.309  -0.245   0.148  0.00  0.00    -0.075 A 
ATOM      2  C4  UNL d   1       0.950   0.524   1.130  0.00  0.00     0.002 A 
ATOM      3  C5  UNL d   1       0.206   1.201   2.097  0.00  0.00     0.002 A 
ATOM      4  C6  UNL d   1      -1.185   1.127   2.088  0.00  0.00    -0.004 A 
ATOM      5  C7  UNL d   1      -1.833   0.379   1.107  0.00  0.00     0.002 A 
ATOM      6  C8  UNL d   1      -1.091  -0.303   0.141  0.00  0.00     0.002 A 
ENDROOT
BRANCH   1   7
ATOM      7  C2  UNL d   1       1.109  -1.005  -0.883  0.00  0.00     0.056 C 
BRANCH   7   8
ATOM      8  C1  UNL d   1       0.820  -0.587  -2.329  0.00  0.00     0.007 C 
ATOM      9  C   UNL d   1       1.923   0.268  -2.939  0.00  0.00     0.009 C 
ENDBRANCH   7   8
ENDBRANCH   1   7
TORSDOF 2
ENDMDL
