MODEL 1
REMARK minimizedAffinity -4.09857941
REMARK minimizedRMSD -1
REMARK  2 active torsions:
REMARK  status: ('A' for Active; 'I' for Inactive)
REMARK    1  A    between atoms: C1_2  and  C2_3 
REMARK    2  A    between atoms: C2_3  and  C3_4 
ROOT
ATOM      1  C3  UNL d   1      -0.138  -0.024   0.556  0.00  0.00    -0.075 A 
ATOM      2  C4  UNL d   1      -1.478  -0.077   0.969  0.00  0.00     0.002 A 
ATOM      3  C5  UNL d   1      -1.926   0.721   2.022  0.00  0.00     0.002 A 
ATOM      4  C6  UNL d   1      -1.041   1.571   2.682  0.00  0.00    -0.004 A 
ATOM      5  C7  UNL d   1       0.295   1.619   2.291  0.00  0.00     0.002 A 
ATOM      6  C8  UNL d   1       0.745   0.826   1.234  0.00  0.00     0.002 A 
ENDROOT
BRANCH   1   7
ATOM      7  C2  UNL d   1       0.346  -0.862  -0.603  0.00  0.00     0.056 C 
BRANCH   7   8
ATOM      8  C1  UNL d   1       0.956  -0.049  -1.749  0.00  0.00     0.007 C 
ATOM      9  C   UNL d   1       0.103  -0.058  -3.011  0.00  0.00     0.009 C 
ENDBRANCH   7   8
ENDBRANCH   1   7
TORSDOF 2
ENDMDL
