MODEL 1
REMARK minimizedAffinity -3.83064532
REMARK minimizedRMSD -1
REMARK  2 active torsions:
REMARK  status: ('A' for Active; 'I' for Inactive)
REMARK    1  A    between atoms: C1_2  and  C2_3 
REMARK    2  A    between atoms: C2_3  and  C3_4 
ROOT
ATOM      1  C3  UNL d   1      -0.265  -0.039   0.824  0.00  0.00    -0.075 A 
ATOM      2  C4  UNL d   1       0.947   0.050   1.524  0.00  0.00     0.002 A 
ATOM      3  C5  UNL d   1       0.960   0.377   2.880  0.00  0.00     0.002 A 
ATOM      4  C6  UNL d   1      -0.235   0.630   3.550  0.00  0.00    -0.004 A 
ATOM      5  C7  UNL d   1      -1.444   0.560   2.861  0.00  0.00     0.002 A 
ATOM      6  C8  UNL d   1      -1.460   0.228   1.505  0.00  0.00     0.002 A 
ENDROOT
BRANCH   1   7
ATOM      7  C2  UNL d   1      -0.288  -0.422  -0.636  0.00  0.00     0.056 C 
BRANCH   7   8
ATOM      8  C1  UNL d   1       1.096  -0.716  -1.226  0.00  0.00     0.007 C 
ATOM      9  C   UNL d   1       1.411   0.115  -2.462  0.00  0.00     0.009 C 
ENDBRANCH   7   8
ENDBRANCH   1   7
TORSDOF 2
ENDMDL
