MODEL 1
REMARK minimizedAffinity -5.92053938
REMARK minimizedRMSD -1
REMARK  2 active torsions:
REMARK  status: ('A' for Active; 'I' for Inactive)
REMARK    1  A    between atoms: C1_2  and  C2_3 
REMARK    2  A    between atoms: C2_3  and  C3_4 
ROOT
ATOM      1  C3  UNL d   1      -0.517  -0.185   0.130  0.00  0.00    -0.075 A 
ATOM      2  C4  UNL d   1      -1.797  -0.063   0.688  0.00  0.00     0.002 A 
ATOM      3  C5  UNL d   1      -1.976   0.572   1.918  0.00  0.00     0.002 A 
ATOM      4  C6  UNL d   1      -0.878   1.083   2.607  0.00  0.00    -0.004 A 
ATOM      5  C7  UNL d   1       0.400   0.952   2.070  0.00  0.00     0.002 A 
ATOM      6  C8  UNL d   1       0.582   0.321   0.838  0.00  0.00     0.002 A 
ENDROOT
BRANCH   1   7
ATOM      7  C2  UNL d   1      -0.320  -0.845  -1.214  0.00  0.00     0.056 C 
BRANCH   7   8
ATOM      8  C1  UNL d   1       0.399   0.035  -2.242  0.00  0.00     0.007 C 
ATOM      9  C   UNL d   1      -0.194  -0.070  -3.641  0.00  0.00     0.009 C 
ENDBRANCH   7   8
ENDBRANCH   1   7
TORSDOF 2
ENDMDL
