MODEL 1
REMARK minimizedAffinity -5.40774202
REMARK minimizedRMSD -1
REMARK  2 active torsions:
REMARK  status: ('A' for Active; 'I' for Inactive)
REMARK    1  A    between atoms: C1_2  and  C2_3 
REMARK    2  A    between atoms: C2_3  and  C3_4 
ROOT
ATOM      1  C3  UNL d   1       0.601  -0.290   0.609  0.00  0.00    -0.075 A 
ATOM      2  C4  UNL d   1       1.499  -0.580   1.646  0.00  0.00     0.002 A 
ATOM      3  C5  UNL d   1       1.238  -0.157   2.949  0.00  0.00     0.002 A 
ATOM      4  C6  UNL d   1       0.082   0.569   3.230  0.00  0.00    -0.004 A 
ATOM      5  C7  UNL d   1      -0.809   0.878   2.205  0.00  0.00     0.002 A 
ATOM      6  C8  UNL d   1      -0.552   0.452   0.901  0.00  0.00     0.002 A 
ENDROOT
BRANCH   1   7
ATOM      7  C2  UNL d   1       0.863  -0.770  -0.798  0.00  0.00     0.056 C 
BRANCH   7   8
ATOM      8  C1  UNL d   1       0.234  -2.130  -1.121  0.00  0.00     0.007 C 
ATOM      9  C   UNL d   1      -0.009  -2.341  -2.609  0.00  0.00     0.009 C 
ENDBRANCH   7   8
ENDBRANCH   1   7
TORSDOF 2
ENDMDL
