MODEL 1
REMARK minimizedAffinity 5.78900671
REMARK minimizedRMSD -1
REMARK  0 active torsions:
REMARK  status: ('A' for Active; 'I' for Inactive)
ROOT
ATOM      1  C1  BNZ d   1      -4.832   4.142  -5.893  0.00  0.00     0.000 A 
ATOM      2  C2  BNZ d   1      -3.914   4.184  -4.879  0.00  0.00     0.000 A 
ATOM      3  C3  BNZ d   1      -4.026   5.101  -3.871  0.00  0.00     0.000 A 
ATOM      4  C4  BNZ d   1      -5.032   5.999  -3.901  0.00  0.00     0.000 A 
ATOM      5  C5  BNZ d   1      -5.960   5.975  -4.922  0.00  0.00     0.000 A 
ATOM      6  C6  BNZ d   1      -5.867   5.026  -5.914  0.00  0.00     0.000 A 
ENDROOT
TORSDOF 0
ENDMDL
