MODEL 1
REMARK minimizedAffinity -2.81820178
REMARK minimizedRMSD -1
REMARK  0 active torsions:
REMARK  status: ('A' for Active; 'I' for Inactive)
ROOT
ATOM      1  C1  BNZ d   1      -5.048   4.080   0.768  0.00  0.00     0.000 A 
ATOM      2  C2  BNZ d   1      -3.934   4.088  -0.028  0.00  0.00     0.000 A 
ATOM      3  C3  BNZ d   1      -3.754   5.061  -0.971  0.00  0.00     0.000 A 
ATOM      4  C4  BNZ d   1      -4.706   6.000  -1.144  0.00  0.00     0.000 A 
ATOM      5  C5  BNZ d   1      -5.840   6.000  -0.356  0.00  0.00     0.000 A 
ATOM      6  C6  BNZ d   1      -5.999   5.042   0.619  0.00  0.00     0.000 A 
ENDROOT
TORSDOF 0
ENDMDL
