MODEL 1
REMARK minimizedAffinity 2.8599062
REMARK minimizedRMSD -1
REMARK  0 active torsions:
REMARK  status: ('A' for Active; 'I' for Inactive)
ROOT
ATOM      1  C1  BNZ d   1      -4.682   1.824   5.999  0.00  0.00     0.000 A 
ATOM      2  C2  BNZ d   1      -3.368   1.501   5.788  0.00  0.00     0.000 A 
ATOM      3  C3  BNZ d   1      -2.994   0.205   5.566  0.00  0.00     0.000 A 
ATOM      4  C4  BNZ d   1      -3.926  -0.769   5.595  0.00  0.00     0.000 A 
ATOM      5  C5  BNZ d   1      -5.254  -0.460   5.815  0.00  0.00     0.000 A 
ATOM      6  C6  BNZ d   1      -5.632   0.850   6.000  0.00  0.00     0.000 A 
ENDROOT
TORSDOF 0
ENDMDL
