MODEL 1
REMARK minimizedAffinity 9.89145088
REMARK minimizedRMSD -1
REMARK  0 active torsions:
REMARK  status: ('A' for Active; 'I' for Inactive)
ROOT
ATOM      1  C1  BNZ d   1      -5.091   3.855  -5.770  0.00  0.00     0.000 A 
ATOM      2  C2  BNZ d   1      -4.235   3.920  -4.703  0.00  0.00     0.000 A 
ATOM      3  C3  BNZ d   1      -4.266   4.984  -3.844  0.00  0.00     0.000 A 
ATOM      4  C4  BNZ d   1      -5.123   5.998  -4.076  0.00  0.00     0.000 A 
ATOM      5  C5  BNZ d   1      -5.986   5.952  -5.153  0.00  0.00     0.000 A 
ATOM      6  C6  BNZ d   1      -5.979   4.862  -5.993  0.00  0.00     0.000 A 
ENDROOT
TORSDOF 0
ENDMDL
