MODEL 1
REMARK minimizedAffinity 2.69435191
REMARK minimizedRMSD -1
REMARK  0 active torsions:
REMARK  status: ('A' for Active; 'I' for Inactive)
ROOT
ATOM      1  C1  BNZ d   1      -1.025  -1.843   0.227  0.00  0.00     0.000 A 
ATOM      2  C2  BNZ d   1      -0.211  -2.941   0.144  0.00  0.00     0.000 A 
ATOM      3  C3  BNZ d   1      -0.368  -3.995   1.001  0.00  0.00     0.000 A 
ATOM      4  C4  BNZ d   1      -1.310  -3.932   1.964  0.00  0.00     0.000 A 
ATOM      5  C5  BNZ d   1      -2.133  -2.828   2.066  0.00  0.00     0.000 A 
ATOM      6  C6  BNZ d   1      -1.998  -1.786   1.178  0.00  0.00     0.000 A 
ENDROOT
TORSDOF 0
ENDMDL
