MODEL 1
REMARK minimizedAffinity 3.24939823
REMARK minimizedRMSD -1
REMARK  0 active torsions:
REMARK  status: ('A' for Active; 'I' for Inactive)
ROOT
ATOM      1  C1  BNZ d   1      -2.991   0.361   5.622  0.00  0.00     0.000 A 
ATOM      2  C2  BNZ d   1      -3.381   1.618   6.000  0.00  0.00     0.000 A 
ATOM      3  C3  BNZ d   1      -4.700   1.974   5.991  0.00  0.00     0.000 A 
ATOM      4  C4  BNZ d   1      -5.623   1.087   5.567  0.00  0.00     0.000 A 
ATOM      5  C5  BNZ d   1      -5.245  -0.181   5.174  0.00  0.00     0.000 A 
ATOM      6  C6  BNZ d   1      -3.920  -0.549   5.221  0.00  0.00     0.000 A 
ENDROOT
TORSDOF 0
ENDMDL
