MODEL 1
REMARK minimizedAffinity 5.60692978
REMARK minimizedRMSD -1
REMARK  0 active torsions:
REMARK  status: ('A' for Active; 'I' for Inactive)
ROOT
ATOM      1  C1  BNZ d   1      -3.504   1.924   5.718  0.00  0.00     0.000 A 
ATOM      2  C2  BNZ d   1      -3.613   0.594   5.410  0.00  0.00     0.000 A 
ATOM      3  C3  BNZ d   1      -4.835  -0.018   5.371  0.00  0.00     0.000 A 
ATOM      4  C4  BNZ d   1      -5.941   0.690   5.678  0.00  0.00     0.000 A 
ATOM      5  C5  BNZ d   1      -5.847   2.029   5.999  0.00  0.00     0.000 A 
ATOM      6  C6  BNZ d   1      -4.619   2.651   6.000  0.00  0.00     0.000 A 
ENDROOT
TORSDOF 0
ENDMDL
