MODEL 1
REMARK minimizedAffinity 4.50857019
REMARK minimizedRMSD -1
REMARK  0 active torsions:
REMARK  status: ('A' for Active; 'I' for Inactive)
ROOT
ATOM      1  C1  BNZ d   1      -3.973   0.608   5.991  0.00  0.00     0.000 A 
ATOM      2  C2  BNZ d   1      -3.222   1.751   5.931  0.00  0.00     0.000 A 
ATOM      3  C3  BNZ d   1      -3.819   2.980   5.889  0.00  0.00     0.000 A 
ATOM      4  C4  BNZ d   1      -5.165   3.062   5.866  0.00  0.00     0.000 A 
ATOM      5  C5  BNZ d   1      -5.937   1.919   5.916  0.00  0.00     0.000 A 
ATOM      6  C6  BNZ d   1      -5.332   0.685   5.998  0.00  0.00     0.000 A 
ENDROOT
TORSDOF 0
ENDMDL
