MODEL 1
REMARK minimizedAffinity 8.0673399
REMARK minimizedRMSD -1
REMARK  0 active torsions:
REMARK  status: ('A' for Active; 'I' for Inactive)
ROOT
ATOM      1  C1  BNZ d   1      -5.894   4.932  -5.805  0.00  0.00     0.000 A 
ATOM      2  C2  BNZ d   1      -5.029   3.870  -5.792  0.00  0.00     0.000 A 
ATOM      3  C3  BNZ d   1      -3.952   3.855  -4.950  0.00  0.00     0.000 A 
ATOM      4  C4  BNZ d   1      -3.719   4.918  -4.153  0.00  0.00     0.000 A 
ATOM      5  C5  BNZ d   1      -4.577   6.000  -4.162  0.00  0.00     0.000 A 
ATOM      6  C6  BNZ d   1      -5.681   5.994  -4.982  0.00  0.00     0.000 A 
ENDROOT
TORSDOF 0
ENDMDL
