MODEL 1
REMARK minimizedAffinity 6.30405521
REMARK minimizedRMSD -1
REMARK  0 active torsions:
REMARK  status: ('A' for Active; 'I' for Inactive)
ROOT
ATOM      1  C1  BNZ d   1      -2.285   0.004   5.249  0.00  0.00     0.000 A 
ATOM      2  C2  BNZ d   1      -2.975   1.186   5.252  0.00  0.00     0.000 A 
ATOM      3  C3  BNZ d   1      -4.283   1.232   5.647  0.00  0.00     0.000 A 
ATOM      4  C4  BNZ d   1      -4.910   0.091   6.000  0.00  0.00     0.000 A 
ATOM      5  C5  BNZ d   1      -4.230  -1.111   5.993  0.00  0.00     0.000 A 
ATOM      6  C6  BNZ d   1      -2.902  -1.147   5.631  0.00  0.00     0.000 A 
ENDROOT
TORSDOF 0
ENDMDL
