MODEL 1
REMARK minimizedAffinity 3.73455071
REMARK minimizedRMSD -1
REMARK  0 active torsions:
REMARK  status: ('A' for Active; 'I' for Inactive)
ROOT
ATOM      1  C1  BNZ d   1      -5.595  -0.371   5.582  0.00  0.00     0.000 A 
ATOM      2  C2  BNZ d   1      -4.280  -0.604   5.280  0.00  0.00     0.000 A 
ATOM      3  C3  BNZ d   1      -3.355   0.399   5.360  0.00  0.00     0.000 A 
ATOM      4  C4  BNZ d   1      -3.753   1.642   5.701  0.00  0.00     0.000 A 
ATOM      5  C5  BNZ d   1      -5.077   1.895   5.999  0.00  0.00     0.000 A 
ATOM      6  C6  BNZ d   1      -5.999   0.874   5.955  0.00  0.00     0.000 A 
ENDROOT
TORSDOF 0
ENDMDL
