MODEL 1
REMARK minimizedAffinity 7.93800306
REMARK minimizedRMSD -1
REMARK  0 active torsions:
REMARK  status: ('A' for Active; 'I' for Inactive)
ROOT
ATOM      1  C1  BNZ d   1      -0.066  -4.726   0.665  0.00  0.00     0.000 A 
ATOM      2  C2  BNZ d   1      -0.010  -5.702  -0.294  0.00  0.00     0.000 A 
ATOM      3  C3  BNZ d   1       0.047  -5.378  -1.620  0.00  0.00     0.000 A 
ATOM      4  C4  BNZ d   1       0.007  -4.081  -1.988  0.00  0.00     0.000 A 
ATOM      5  C5  BNZ d   1      -0.059  -3.085  -1.034  0.00  0.00     0.000 A 
ATOM      6  C6  BNZ d   1      -0.077  -3.414   0.302  0.00  0.00     0.000 A 
ENDROOT
TORSDOF 0
ENDMDL
