MODEL 1
REMARK minimizedAffinity 5.39338827
REMARK minimizedRMSD -1
REMARK  0 active torsions:
REMARK  status: ('A' for Active; 'I' for Inactive)
ROOT
ATOM      1  C1  BNZ d   1      -0.970  -3.884   1.007  0.00  0.00     0.000 A 
ATOM      2  C2  BNZ d   1      -0.846  -3.026  -0.053  0.00  0.00     0.000 A 
ATOM      3  C3  BNZ d   1      -1.657  -1.932  -0.167  0.00  0.00     0.000 A 
ATOM      4  C4  BNZ d   1      -2.617  -1.719   0.756  0.00  0.00     0.000 A 
ATOM      5  C5  BNZ d   1      -2.761  -2.579   1.826  0.00  0.00     0.000 A 
ATOM      6  C6  BNZ d   1      -1.917  -3.658   1.959  0.00  0.00     0.000 A 
ENDROOT
TORSDOF 0
ENDMDL
