MODEL 1
REMARK minimizedAffinity -5.27512217
REMARK minimizedRMSD -1
REMARK  0 active torsions:
REMARK  status: ('A' for Active; 'I' for Inactive)
ROOT
ATOM      1  C2' OXE d   1      -1.543  -0.206   1.907  0.00  0.00     0.078 C 
ATOM      2  C1' OXE d   1      -0.031   1.062  -0.090  0.00  0.00     0.078 C 
ATOM      3  C1  OXE d   1      -0.361  -0.398  -0.277  0.00  0.00    -0.078 A 
ATOM      4  C2  OXE d   1      -1.061  -1.022   0.727  0.00  0.00    -0.078 A 
ATOM      5  C3  OXE d   1      -1.438  -2.353   0.580  0.00  0.00     0.003 A 
ATOM      6  C4  OXE d   1      -0.980  -3.104  -0.510  0.00  0.00    -0.002 A 
ATOM      7  C5  OXE d   1      -0.232  -2.497  -1.525  0.00  0.00    -0.002 A 
ATOM      8  C6  OXE d   1       0.049  -1.138  -1.445  0.00  0.00     0.003 A 
ENDROOT
TORSDOF 0
ENDMDL
