MODEL 1
REMARK minimizedAffinity -4.02293396
REMARK minimizedRMSD -1
REMARK  0 active torsions:
REMARK  status: ('A' for Active; 'I' for Inactive)
ROOT
ATOM      1  C2' OXE d   1      -1.691   0.813   0.471  0.00  0.00     0.078 C 
ATOM      2  C1' OXE d   1       0.779  -0.422  -0.032  0.00  0.00     0.078 C 
ATOM      3  C1  OXE d   1       0.780   1.057   0.264  0.00  0.00    -0.078 A 
ATOM      4  C2  OXE d   1      -0.438   1.662   0.463  0.00  0.00    -0.078 A 
ATOM      5  C3  OXE d   1      -0.490   3.013   0.793  0.00  0.00     0.003 A 
ATOM      6  C4  OXE d   1       0.672   3.794   0.774  0.00  0.00    -0.002 A 
ATOM      7  C5  OXE d   1       1.918   3.205   0.534  0.00  0.00    -0.002 A 
ATOM      8  C6  OXE d   1       1.994   1.833   0.320  0.00  0.00     0.003 A 
ENDROOT
TORSDOF 0
ENDMDL
