MODEL 1
REMARK minimizedAffinity -5.71359062
REMARK minimizedRMSD -1
REMARK  0 active torsions:
REMARK  status: ('A' for Active; 'I' for Inactive)
ROOT
ATOM      1  C2' OXE d   1      -2.336   0.438   1.350  0.00  0.00     0.078 C 
ATOM      2  C1' OXE d   1       0.040   1.339   0.157  0.00  0.00     0.078 C 
ATOM      3  C1  OXE d   1      -0.146  -0.149   0.318  0.00  0.00    -0.078 A 
ATOM      4  C2  OXE d   1      -1.290  -0.579   0.945  0.00  0.00    -0.078 A 
ATOM      5  C3  OXE d   1      -1.537  -1.943   1.071  0.00  0.00     0.003 A 
ATOM      6  C4  OXE d   1      -0.560  -2.877   0.703  0.00  0.00    -0.002 A 
ATOM      7  C5  OXE d   1       0.630  -2.458   0.099  0.00  0.00    -0.002 A 
ATOM      8  C6  OXE d   1       0.834  -1.103  -0.139  0.00  0.00     0.003 A 
ENDROOT
TORSDOF 0
ENDMDL
