MODEL 1
REMARK minimizedAffinity -1.85379672
REMARK minimizedRMSD -1
REMARK  0 active torsions:
REMARK  status: ('A' for Active; 'I' for Inactive)
ROOT
ATOM      1  C2' OXE d   1      -0.061   0.891  -1.791  0.00  0.00     0.078 C 
ATOM      2  C1' OXE d   1       0.164  -1.726  -2.781  0.00  0.00     0.078 C 
ATOM      3  C1  OXE d   1      -0.181  -1.553  -1.323  0.00  0.00    -0.078 A 
ATOM      4  C2  OXE d   1      -0.243  -0.269  -0.836  0.00  0.00    -0.078 A 
ATOM      5  C3  OXE d   1      -0.610  -0.052   0.489  0.00  0.00     0.003 A 
ATOM      6  C4  OXE d   1      -0.767  -1.130   1.367  0.00  0.00    -0.002 A 
ATOM      7  C5  OXE d   1      -0.669  -2.446   0.901  0.00  0.00    -0.002 A 
ATOM      8  C6  OXE d   1      -0.419  -2.674  -0.447  0.00  0.00     0.003 A 
ENDROOT
TORSDOF 0
ENDMDL
