MODEL 1
REMARK minimizedAffinity -6.02472401
REMARK minimizedRMSD -1
REMARK  0 active torsions:
REMARK  status: ('A' for Active; 'I' for Inactive)
ROOT
ATOM      1  C2' OXE d   1      -0.306   0.944  -0.333  0.00  0.00     0.078 C 
ATOM      2  C1' OXE d   1       0.155  -0.254  -2.829  0.00  0.00     0.078 C 
ATOM      3  C1  OXE d   1      -0.094  -1.160  -1.649  0.00  0.00    -0.078 A 
ATOM      4  C2  OXE d   1      -0.273  -0.566  -0.423  0.00  0.00    -0.078 A 
ATOM      5  C3  OXE d   1      -0.561  -1.353   0.689  0.00  0.00     0.003 A 
ATOM      6  C4  OXE d   1      -0.519  -2.750   0.599  0.00  0.00    -0.002 A 
ATOM      7  C5  OXE d   1      -0.299  -3.375  -0.633  0.00  0.00    -0.002 A 
ATOM      8  C6  OXE d   1      -0.128  -2.597  -1.772  0.00  0.00     0.003 A 
ENDROOT
TORSDOF 0
ENDMDL
