MODEL 1
REMARK minimizedAffinity -3.31257224
REMARK minimizedRMSD -1
REMARK  0 active torsions:
REMARK  status: ('A' for Active; 'I' for Inactive)
ROOT
ATOM      1  C2' OXE d   1      -0.406  -0.017   0.046  0.00  0.00     0.078 C 
ATOM      2  C1' OXE d   1      -0.323   1.842  -2.056  0.00  0.00     0.078 C 
ATOM      3  C1  OXE d   1       0.421   2.180  -0.788  0.00  0.00    -0.078 A 
ATOM      4  C2  OXE d   1       0.337   1.286   0.252  0.00  0.00    -0.078 A 
ATOM      5  C3  OXE d   1       1.049   1.523   1.424  0.00  0.00     0.003 A 
ATOM      6  C4  OXE d   1       1.725   2.735   1.610  0.00  0.00    -0.002 A 
ATOM      7  C5  OXE d   1       1.790   3.677   0.578  0.00  0.00    -0.002 A 
ATOM      8  C6  OXE d   1       1.181   3.397  -0.640  0.00  0.00     0.003 A 
ENDROOT
TORSDOF 0
ENDMDL
