MODEL 1
REMARK minimizedAffinity -4.89663458
REMARK minimizedRMSD -1
REMARK  0 active torsions:
REMARK  status: ('A' for Active; 'I' for Inactive)
ROOT
ATOM      1  C2' OXE d   1      -1.458  -1.562   1.735  0.00  0.00     0.078 C 
ATOM      2  C1' OXE d   1       0.329  -3.341   0.502  0.00  0.00     0.078 C 
ATOM      3  C1  OXE d   1       0.258  -1.932  -0.032  0.00  0.00    -0.078 A 
ATOM      4  C2  OXE d   1      -0.653  -1.082   0.547  0.00  0.00    -0.078 A 
ATOM      5  C3  OXE d   1      -0.721   0.244   0.129  0.00  0.00     0.003 A 
ATOM      6  C4  OXE d   1       0.021   0.677  -0.977  0.00  0.00    -0.002 A 
ATOM      7  C5  OXE d   1       0.925  -0.184  -1.607  0.00  0.00    -0.002 A 
ATOM      8  C6  OXE d   1       1.087  -1.477  -1.121  0.00  0.00     0.003 A 
ENDROOT
TORSDOF 0
ENDMDL
