MODEL 1
REMARK minimizedAffinity 0.549237072
REMARK minimizedRMSD -1
REMARK  0 active torsions:
REMARK  status: ('A' for Active; 'I' for Inactive)
ROOT
ATOM      1  C2' OXE d   1       1.051   2.732   0.316  0.00  0.00     0.078 C 
ATOM      2  C1' OXE d   1       1.700   0.274   1.505  0.00  0.00     0.078 C 
ATOM      3  C1  OXE d   1       1.078   0.248   0.132  0.00  0.00    -0.078 A 
ATOM      4  C2  OXE d   1       0.721   1.454  -0.423  0.00  0.00    -0.078 A 
ATOM      5  C3  OXE d   1       0.193   1.490  -1.711  0.00  0.00     0.003 A 
ATOM      6  C4  OXE d   1      -0.118   0.302  -2.383  0.00  0.00    -0.002 A 
ATOM      7  C5  OXE d   1       0.201  -0.937  -1.819  0.00  0.00    -0.002 A 
ATOM      8  C6  OXE d   1       0.837  -0.980  -0.584  0.00  0.00     0.003 A 
ENDROOT
TORSDOF 0
ENDMDL
