MODEL 1
REMARK minimizedAffinity -4.43098259
REMARK minimizedRMSD -1
REMARK  0 active torsions:
REMARK  status: ('A' for Active; 'I' for Inactive)
ROOT
ATOM      1  C2' OXE d   1       0.283  -3.502   0.201  0.00  0.00     0.078 C 
ATOM      2  C1' OXE d   1      -2.242  -2.674   1.106  0.00  0.00     0.078 C 
ATOM      3  C1  OXE d   1      -1.250  -1.607   0.716  0.00  0.00    -0.078 A 
ATOM      4  C2  OXE d   1      -0.001  -2.020   0.318  0.00  0.00    -0.078 A 
ATOM      5  C3  OXE d   1       0.934  -1.080  -0.105  0.00  0.00     0.003 A 
ATOM      6  C4  OXE d   1       0.667   0.289   0.016  0.00  0.00    -0.002 A 
ATOM      7  C5  OXE d   1      -0.585   0.732   0.456  0.00  0.00    -0.002 A 
ATOM      8  C6  OXE d   1      -1.567  -0.201   0.769  0.00  0.00     0.003 A 
ENDROOT
TORSDOF 0
ENDMDL
