MODEL 1
REMARK minimizedAffinity -0.412634015
REMARK minimizedRMSD -1
REMARK  0 active torsions:
REMARK  status: ('A' for Active; 'I' for Inactive)
ROOT
ATOM      1  C2' OXE d   1       0.697   2.445  -1.452  0.00  0.00     0.078 C 
ATOM      2  C1' OXE d   1       3.148   3.292  -0.376  0.00  0.00     0.078 C 
ATOM      3  C1  OXE d   1       1.961   3.217   0.551  0.00  0.00    -0.078 A 
ATOM      4  C2  OXE d   1       0.755   2.846   0.006  0.00  0.00    -0.078 A 
ATOM      5  C3  OXE d   1      -0.360   2.707   0.828  0.00  0.00     0.003 A 
ATOM      6  C4  OXE d   1      -0.300   3.089   2.174  0.00  0.00    -0.002 A 
ATOM      7  C5  OXE d   1       0.909   3.508   2.740  0.00  0.00    -0.002 A 
ATOM      8  C6  OXE d   1       2.056   3.536   1.954  0.00  0.00     0.003 A 
ENDROOT
TORSDOF 0
ENDMDL
