MODEL 1
REMARK minimizedAffinity 0.0643574744
REMARK minimizedRMSD -1
REMARK  0 active torsions:
REMARK  status: ('A' for Active; 'I' for Inactive)
ROOT
ATOM      1  C2' OXE d   1      -0.398  -3.357   1.056  0.00  0.00     0.078 C 
ATOM      2  C1' OXE d   1      -2.002  -1.568   2.507  0.00  0.00     0.078 C 
ATOM      3  C1  OXE d   1      -1.216  -1.022   1.342  0.00  0.00    -0.078 A 
ATOM      4  C2  OXE d   1      -0.397  -1.895   0.666  0.00  0.00    -0.078 A 
ATOM      5  C3  OXE d   1       0.308  -1.455  -0.450  0.00  0.00     0.003 A 
ATOM      6  C4  OXE d   1       0.311  -0.099  -0.798  0.00  0.00    -0.002 A 
ATOM      7  C5  OXE d   1      -0.485   0.815  -0.099  0.00  0.00    -0.002 A 
ATOM      8  C6  OXE d   1      -1.285   0.363   0.945  0.00  0.00     0.003 A 
ENDROOT
TORSDOF 0
ENDMDL
