MODEL 1
REMARK minimizedAffinity -4.14677143
REMARK minimizedRMSD -1
REMARK  0 active torsions:
REMARK  status: ('A' for Active; 'I' for Inactive)
ROOT
ATOM      1  C2' OXE d   1      -1.950   0.133   1.191  0.00  0.00     0.078 C 
ATOM      2  C1' OXE d   1       0.414   0.761  -0.187  0.00  0.00     0.078 C 
ATOM      3  C1  OXE d   1       0.125  -0.693   0.089  0.00  0.00    -0.078 A 
ATOM      4  C2  OXE d   1      -1.010  -0.988   0.804  0.00  0.00    -0.078 A 
ATOM      5  C3  OXE d   1      -1.352  -2.317   1.039  0.00  0.00     0.003 A 
ATOM      6  C4  OXE d   1      -0.472  -3.348   0.686  0.00  0.00    -0.002 A 
ATOM      7  C5  OXE d   1       0.709  -3.066  -0.008  0.00  0.00    -0.002 A 
ATOM      8  C6  OXE d   1       1.001  -1.751  -0.351  0.00  0.00     0.003 A 
ENDROOT
TORSDOF 0
ENDMDL
