MODEL 1
REMARK minimizedAffinity -6.43008995
REMARK minimizedRMSD -1
REMARK  0 active torsions:
REMARK  status: ('A' for Active; 'I' for Inactive)
ROOT
ATOM      1  C2' OXE d   1      -0.237   0.489  -0.826  0.00  0.00     0.078 C 
ATOM      2  C1' OXE d   1       0.202  -1.443  -2.814  0.00  0.00     0.078 C 
ATOM      3  C1  OXE d   1      -0.072  -1.926  -1.411  0.00  0.00    -0.078 A 
ATOM      4  C2  OXE d   1      -0.239  -0.973  -0.436  0.00  0.00    -0.078 A 
ATOM      5  C3  OXE d   1      -0.549  -1.364   0.864  0.00  0.00     0.003 A 
ATOM      6  C4  OXE d   1      -0.539  -2.718   1.218  0.00  0.00    -0.002 A 
ATOM      7  C5  OXE d   1      -0.332  -3.704   0.248  0.00  0.00    -0.002 A 
ATOM      8  C6  OXE d   1      -0.139  -3.327  -1.077  0.00  0.00     0.003 A 
ENDROOT
TORSDOF 0
ENDMDL
