MODEL 1
REMARK minimizedAffinity -4.03959799
REMARK minimizedRMSD -1
REMARK  0 active torsions:
REMARK  status: ('A' for Active; 'I' for Inactive)
ROOT
ATOM      1  C2' OXE d   1      -1.809   0.198   1.516  0.00  0.00     0.078 C 
ATOM      2  C1' OXE d   1       0.558   0.948   0.208  0.00  0.00     0.078 C 
ATOM      3  C1  OXE d   1       0.276  -0.526   0.362  0.00  0.00    -0.078 A 
ATOM      4  C2  OXE d   1      -0.862  -0.884   1.044  0.00  0.00    -0.078 A 
ATOM      5  C3  OXE d   1      -1.197  -2.229   1.167  0.00  0.00     0.003 A 
ATOM      6  C4  OXE d   1      -0.310  -3.223   0.737  0.00  0.00    -0.002 A 
ATOM      7  C5  OXE d   1       0.873  -2.880   0.074  0.00  0.00    -0.002 A 
ATOM      8  C6  OXE d   1       1.160  -1.540  -0.159  0.00  0.00     0.003 A 
ENDROOT
TORSDOF 0
ENDMDL
