MODEL 1
REMARK minimizedAffinity -5.19211149
REMARK minimizedRMSD -1
REMARK  0 active torsions:
REMARK  status: ('A' for Active; 'I' for Inactive)
ROOT
ATOM      1  C2' OXE d   1      -0.629  -3.386   0.120  0.00  0.00     0.078 C 
ATOM      2  C1' OXE d   1       0.281  -2.772  -2.464  0.00  0.00     0.078 C 
ATOM      3  C1  OXE d   1      -0.091  -1.625  -1.558  0.00  0.00    -0.078 A 
ATOM      4  C2  OXE d   1      -0.580  -1.937  -0.312  0.00  0.00    -0.078 A 
ATOM      5  C3  OXE d   1      -0.887  -0.916   0.583  0.00  0.00     0.003 A 
ATOM      6  C4  OXE d   1      -0.848   0.422   0.173  0.00  0.00    -0.002 A 
ATOM      7  C5  OXE d   1      -0.391   0.760  -1.105  0.00  0.00    -0.002 A 
ATOM      8  C6  OXE d   1       0.030  -0.247  -1.966  0.00  0.00     0.003 A 
ENDROOT
TORSDOF 0
ENDMDL
