MODEL 1
REMARK minimizedAffinity -2.99269772
REMARK minimizedRMSD -1
REMARK  0 active torsions:
REMARK  status: ('A' for Active; 'I' for Inactive)
ROOT
ATOM      1  C2' OXE d   1       0.760  -1.718  -2.400  0.00  0.00     0.078 C 
ATOM      2  C1' OXE d   1       0.038  -2.705   0.126  0.00  0.00     0.078 C 
ATOM      3  C1  OXE d   1      -0.193  -1.240  -0.149  0.00  0.00    -0.078 A 
ATOM      4  C2  OXE d   1       0.206  -0.756  -1.371  0.00  0.00    -0.078 A 
ATOM      5  C3  OXE d   1      -0.033   0.576  -1.696  0.00  0.00     0.003 A 
ATOM      6  C4  OXE d   1      -0.537   1.461  -0.735  0.00  0.00    -0.002 A 
ATOM      7  C5  OXE d   1      -0.913   0.997   0.530  0.00  0.00    -0.002 A 
ATOM      8  C6  OXE d   1      -0.787  -0.357   0.824  0.00  0.00     0.003 A 
ENDROOT
TORSDOF 0
ENDMDL
