MODEL 1
REMARK minimizedAffinity -5.84517813
REMARK minimizedRMSD -1
REMARK  0 active torsions:
REMARK  status: ('A' for Active; 'I' for Inactive)
ROOT
ATOM      1  C2' OXE d   1       0.674  -2.498  -2.747  0.00  0.00     0.078 C 
ATOM      2  C1' OXE d   1       0.042  -3.670  -0.276  0.00  0.00     0.078 C 
ATOM      3  C1  OXE d   1      -0.055  -2.169  -0.388  0.00  0.00    -0.078 A 
ATOM      4  C2  OXE d   1       0.301  -1.600  -1.587  0.00  0.00    -0.078 A 
ATOM      5  C3  OXE d   1       0.178  -0.225  -1.762  0.00  0.00     0.003 A 
ATOM      6  C4  OXE d   1      -0.158   0.600  -0.681  0.00  0.00    -0.002 A 
ATOM      7  C5  OXE d   1      -0.486   0.044   0.561  0.00  0.00    -0.002 A 
ATOM      8  C6  OXE d   1      -0.480  -1.338   0.711  0.00  0.00     0.003 A 
ENDROOT
TORSDOF 0
ENDMDL
