MODEL 1
REMARK minimizedAffinity 9.19255638
REMARK minimizedRMSD -1
REMARK  0 active torsions:
REMARK  status: ('A' for Active; 'I' for Inactive)
ROOT
ATOM      1  C2' OXE d   1       3.655  -4.052   3.242  0.00  0.00     0.078 C 
ATOM      2  C1' OXE d   1       1.798  -3.192   5.163  0.00  0.00     0.078 C 
ATOM      3  C1  OXE d   1       2.057  -2.290   3.982  0.00  0.00    -0.078 A 
ATOM      4  C2  OXE d   1       3.002  -2.697   3.071  0.00  0.00    -0.078 A 
ATOM      5  C3  OXE d   1       3.240  -1.929   1.935  0.00  0.00     0.003 A 
ATOM      6  C4  OXE d   1       2.638  -0.673   1.790  0.00  0.00    -0.002 A 
ATOM      7  C5  OXE d   1       1.703  -0.221   2.727  0.00  0.00    -0.002 A 
ATOM      8  C6  OXE d   1       1.370  -1.035   3.804  0.00  0.00     0.003 A 
ENDROOT
TORSDOF 0
ENDMDL
