MODEL 1
REMARK minimizedAffinity 2.61661458
REMARK minimizedRMSD -1
REMARK  0 active torsions:
REMARK  status: ('A' for Active; 'I' for Inactive)
ROOT
ATOM      1  C2' OXE d   1       2.294   2.580   0.778  0.00  0.00     0.078 C 
ATOM      2  C1' OXE d   1       3.996   0.633  -0.315  0.00  0.00     0.078 C 
ATOM      3  C1  OXE d   1       3.317   0.319   0.995  0.00  0.00    -0.078 A 
ATOM      4  C2  OXE d   1       2.522   1.296   1.545  0.00  0.00    -0.078 A 
ATOM      5  C3  OXE d   1       1.829   1.037   2.725  0.00  0.00     0.003 A 
ATOM      6  C4  OXE d   1       2.054  -0.150   3.433  0.00  0.00    -0.002 A 
ATOM      7  C5  OXE d   1       2.890  -1.142   2.910  0.00  0.00    -0.002 A 
ATOM      8  C6  OXE d   1       3.494  -0.941   1.674  0.00  0.00     0.003 A 
ENDROOT
TORSDOF 0
ENDMDL
