MODEL 1
REMARK minimizedAffinity 6.33666468
REMARK minimizedRMSD -1
REMARK  0 active torsions:
REMARK  status: ('A' for Active; 'I' for Inactive)
ROOT
ATOM      1  C2' OXE d   1       2.971   1.774   0.032  0.00  0.00     0.078 C 
ATOM      2  C1' OXE d   1       1.376   3.293   1.773  0.00  0.00     0.078 C 
ATOM      3  C1  OXE d   1       1.926   3.976   0.546  0.00  0.00    -0.078 A 
ATOM      4  C2  OXE d   1       2.744   3.238  -0.276  0.00  0.00    -0.078 A 
ATOM      5  C3  OXE d   1       3.233   3.805  -1.450  0.00  0.00     0.003 A 
ATOM      6  C4  OXE d   1       3.026   5.162  -1.722  0.00  0.00    -0.002 A 
ATOM      7  C5  OXE d   1       2.229   5.942  -0.877  0.00  0.00    -0.002 A 
ATOM      8  C6  OXE d   1       1.638   5.355   0.236  0.00  0.00     0.003 A 
ENDROOT
TORSDOF 0
ENDMDL
