MODEL 1
REMARK minimizedAffinity 0.638735056
REMARK minimizedRMSD -1
REMARK  0 active torsions:
REMARK  status: ('A' for Active; 'I' for Inactive)
ROOT
ATOM      1  C2' OXE d   1       4.447  -3.132   4.870  0.00  0.00     0.078 C 
ATOM      2  C1' OXE d   1       2.273  -2.301   3.300  0.00  0.00     0.078 C 
ATOM      3  C1  OXE d   1       2.056  -3.452   4.250  0.00  0.00    -0.078 A 
ATOM      4  C2  OXE d   1       3.137  -3.882   4.980  0.00  0.00    -0.078 A 
ATOM      5  C3  OXE d   1       2.978  -4.905   5.911  0.00  0.00     0.003 A 
ATOM      6  C4  OXE d   1       1.766  -5.600   6.000  0.00  0.00    -0.002 A 
ATOM      7  C5  OXE d   1       0.663  -5.204   5.236  0.00  0.00    -0.002 A 
ATOM      8  C6  OXE d   1       0.779  -4.107   4.390  0.00  0.00     0.003 A 
ENDROOT
TORSDOF 0
ENDMDL
