MODEL 1
REMARK minimizedAffinity 8.73785686
REMARK minimizedRMSD -1
REMARK  0 active torsions:
REMARK  status: ('A' for Active; 'I' for Inactive)
ROOT
ATOM      1  C2' OXE d   1       2.261  -1.921   3.381  0.00  0.00     0.078 C 
ATOM      2  C1' OXE d   1       2.363   0.336   5.048  0.00  0.00     0.078 C 
ATOM      3  C1  OXE d   1       2.468   0.555   3.559  0.00  0.00    -0.078 A 
ATOM      4  C2  OXE d   1       2.464  -0.558   2.754  0.00  0.00    -0.078 A 
ATOM      5  C3  OXE d   1       2.502  -0.409   1.371  0.00  0.00     0.003 A 
ATOM      6  C4  OXE d   1       2.700   0.854   0.799  0.00  0.00    -0.002 A 
ATOM      7  C5  OXE d   1       2.747   1.997   1.603  0.00  0.00    -0.002 A 
ATOM      8  C6  OXE d   1       2.590   1.870   2.979  0.00  0.00     0.003 A 
ENDROOT
TORSDOF 0
ENDMDL
