MODEL 1
REMARK minimizedAffinity 2.89625978
REMARK minimizedRMSD -1
REMARK  0 active torsions:
REMARK  status: ('A' for Active; 'I' for Inactive)
ROOT
ATOM      1  C2' OXE d   1       2.673   1.437   5.561  0.00  0.00     0.078 C 
ATOM      2  C1' OXE d   1       3.776  -1.108   5.998  0.00  0.00     0.078 C 
ATOM      3  C1  OXE d   1       3.088  -0.856   4.680  0.00  0.00    -0.078 A 
ATOM      4  C2  OXE d   1       2.510   0.377   4.493  0.00  0.00    -0.078 A 
ATOM      5  C3  OXE d   1       1.910   0.680   3.274  0.00  0.00     0.003 A 
ATOM      6  C4  OXE d   1       1.754  -0.309   2.296  0.00  0.00    -0.002 A 
ATOM      7  C5  OXE d   1       2.300  -1.584   2.481  0.00  0.00    -0.002 A 
ATOM      8  C6  OXE d   1       3.006  -1.860   3.647  0.00  0.00     0.003 A 
ENDROOT
TORSDOF 0
ENDMDL
