MODEL 1
REMARK minimizedAffinity 2.14325976
REMARK minimizedRMSD -1
REMARK  2 active torsions:
REMARK  status: ('A' for Active; 'I' for Inactive)
REMARK    1  A    between atoms: C1_2  and  C2_3 
REMARK    2  A    between atoms: C2_3  and  C3_4 
ROOT
ATOM      1  C3  UNL d   1      -1.260   1.349   0.909  0.00  0.00    -0.075 A 
ATOM      2  C4  UNL d   1      -1.905   2.315   0.123  0.00  0.00     0.002 A 
ATOM      3  C5  UNL d   1      -3.268   2.209  -0.152  0.00  0.00     0.002 A 
ATOM      4  C6  UNL d   1      -4.001   1.133   0.345  0.00  0.00    -0.004 A 
ATOM      5  C7  UNL d   1      -3.367   0.159   1.113  0.00  0.00     0.002 A 
ATOM      6  C8  UNL d   1      -2.003   0.265   1.393  0.00  0.00     0.002 A 
ENDROOT
BRANCH   1   7
ATOM      7  C2  UNL d   1       0.209   1.474   1.235  0.00  0.00     0.056 C 
BRANCH   7   8
ATOM      8  C1  UNL d   1       1.018   2.244   0.186  0.00  0.00     0.007 C 
ATOM      9  C   UNL d   1       1.937   1.351  -0.638  0.00  0.00     0.009 C 
ENDBRANCH   7   8
ENDBRANCH   1   7
TORSDOF 2
ENDMDL
