MODEL 1
REMARK minimizedAffinity 2.01621819
REMARK minimizedRMSD -1
REMARK  2 active torsions:
REMARK  status: ('A' for Active; 'I' for Inactive)
REMARK    1  A    between atoms: C1_2  and  C2_3 
REMARK    2  A    between atoms: C2_3  and  C3_4 
ROOT
ATOM      1  C3  UNL d   1      -1.914  -3.704   0.811  0.00  0.00    -0.075 A 
ATOM      2  C4  UNL d   1      -1.218  -4.345   1.847  0.00  0.00     0.002 A 
ATOM      3  C5  UNL d   1      -0.918  -3.663   3.027  0.00  0.00     0.002 A 
ATOM      4  C6  UNL d   1      -1.299  -2.332   3.181  0.00  0.00    -0.004 A 
ATOM      5  C7  UNL d   1      -1.976  -1.681   2.152  0.00  0.00     0.002 A 
ATOM      6  C8  UNL d   1      -2.282  -2.362   0.973  0.00  0.00     0.002 A 
ENDROOT
BRANCH   1   7
ATOM      7  C2  UNL d   1      -2.268  -4.446  -0.456  0.00  0.00     0.056 C 
BRANCH   7   8
ATOM      8  C1  UNL d   1      -2.089  -3.618  -1.733  0.00  0.00     0.007 C 
ATOM      9  C   UNL d   1      -0.979  -4.139  -2.636  0.00  0.00     0.009 C 
ENDBRANCH   7   8
ENDBRANCH   1   7
TORSDOF 2
ENDMDL
