MODEL 1
REMARK minimizedAffinity 1.47602212
REMARK minimizedRMSD -1
REMARK  2 active torsions:
REMARK  status: ('A' for Active; 'I' for Inactive)
REMARK    1  A    between atoms: C1_2  and  C2_3 
REMARK    2  A    between atoms: C2_3  and  C3_4 
ROOT
ATOM      1  C3  UNL d   1       4.554   5.202   2.080  0.00  0.00    -0.075 A 
ATOM      2  C4  UNL d   1       5.283   4.024   1.862  0.00  0.00     0.002 A 
ATOM      3  C5  UNL d   1       5.675   3.662   0.573  0.00  0.00     0.002 A 
ATOM      4  C6  UNL d   1       5.336   4.465  -0.513  0.00  0.00    -0.004 A 
ATOM      5  C7  UNL d   1       4.598   5.629  -0.310  0.00  0.00     0.002 A 
ATOM      6  C8  UNL d   1       4.207   5.996   0.979  0.00  0.00     0.002 A 
ENDROOT
BRANCH   1   7
ATOM      7  C2  UNL d   1       4.151   5.614   3.476  0.00  0.00     0.056 C 
BRANCH   7   8
ATOM      8  C1  UNL d   1       5.329   5.997   4.377  0.00  0.00     0.007 C 
ATOM      9  C   UNL d   1       4.983   5.975   5.860  0.00  0.00     0.009 C 
ENDBRANCH   7   8
ENDBRANCH   1   7
TORSDOF 2
ENDMDL
