MODEL 1
REMARK minimizedAffinity 1.7391783
REMARK minimizedRMSD -1
REMARK  2 active torsions:
REMARK  status: ('A' for Active; 'I' for Inactive)
REMARK    1  A    between atoms: C1_2  and  C2_3 
REMARK    2  A    between atoms: C2_3  and  C3_4 
ROOT
ATOM      1  C3  UNL d   1      -1.631  -3.977   1.610  0.00  0.00    -0.075 A 
ATOM      2  C4  UNL d   1      -2.354  -4.174   0.425  0.00  0.00     0.002 A 
ATOM      3  C5  UNL d   1      -3.038  -3.115  -0.172  0.00  0.00     0.002 A 
ATOM      4  C6  UNL d   1      -3.017  -1.850   0.413  0.00  0.00    -0.004 A 
ATOM      5  C7  UNL d   1      -2.315  -1.647   1.599  0.00  0.00     0.002 A 
ATOM      6  C8  UNL d   1      -1.626  -2.705   2.196  0.00  0.00     0.002 A 
ENDROOT
BRANCH   1   7
ATOM      7  C2  UNL d   1      -0.864  -5.113   2.245  0.00  0.00     0.056 C 
BRANCH   7   8
ATOM      8  C1  UNL d   1      -0.066  -4.708   3.488  0.00  0.00     0.007 C 
ATOM      9  C   UNL d   1       0.359  -5.895   4.342  0.00  0.00     0.009 C 
ENDBRANCH   7   8
ENDBRANCH   1   7
TORSDOF 2
ENDMDL
