MODEL 1
REMARK minimizedAffinity 5.61202335
REMARK minimizedRMSD -1
REMARK  2 active torsions:
REMARK  status: ('A' for Active; 'I' for Inactive)
REMARK    1  A    between atoms: C1_2  and  C2_3 
REMARK    2  A    between atoms: C2_3  and  C3_4 
ROOT
ATOM      1  C3  UNL d   1       0.867   1.478   1.187  0.00  0.00    -0.075 A 
ATOM      2  C4  UNL d   1       1.566   2.693   1.214  0.00  0.00     0.002 A 
ATOM      3  C5  UNL d   1       1.141   3.737   2.037  0.00  0.00     0.002 A 
ATOM      4  C6  UNL d   1       0.009   3.583   2.834  0.00  0.00    -0.004 A 
ATOM      5  C7  UNL d   1      -0.703   2.385   2.802  0.00  0.00     0.002 A 
ATOM      6  C8  UNL d   1      -0.278   1.338   1.983  0.00  0.00     0.002 A 
ENDROOT
BRANCH   1   7
ATOM      7  C2  UNL d   1       1.338   0.334   0.320  0.00  0.00     0.056 C 
BRANCH   7   8
ATOM      8  C1  UNL d   1       2.239   0.763  -0.843  0.00  0.00     0.007 C 
ATOM      9  C   UNL d   1       1.488   0.914  -2.159  0.00  0.00     0.009 C 
ENDBRANCH   7   8
ENDBRANCH   1   7
TORSDOF 2
ENDMDL
