MODEL 1
REMARK minimizedAffinity 1.74424899
REMARK minimizedRMSD -1
REMARK  2 active torsions:
REMARK  status: ('A' for Active; 'I' for Inactive)
REMARK    1  A    between atoms: C1_2  and  C2_3 
REMARK    2  A    between atoms: C2_3  and  C3_4 
ROOT
ATOM      1  C3  UNL d   1       0.314   1.318   1.365  0.00  0.00    -0.075 A 
ATOM      2  C4  UNL d   1       1.714   1.321   1.458  0.00  0.00     0.002 A 
ATOM      3  C5  UNL d   1       2.361   2.158   2.367  0.00  0.00     0.002 A 
ATOM      4  C6  UNL d   1       1.620   3.008   3.186  0.00  0.00    -0.004 A 
ATOM      5  C7  UNL d   1       0.230   3.025   3.090  0.00  0.00     0.002 A 
ATOM      6  C8  UNL d   1      -0.420   2.185   2.184  0.00  0.00     0.002 A 
ENDROOT
BRANCH   1   7
ATOM      7  C2  UNL d   1      -0.394   0.393   0.404  0.00  0.00     0.056 C 
BRANCH   7   8
ATOM      8  C1  UNL d   1      -1.415  -0.536   1.069  0.00  0.00     0.007 C 
ATOM      9  C   UNL d   1      -2.640  -0.801   0.204  0.00  0.00     0.009 C 
ENDBRANCH   7   8
ENDBRANCH   1   7
TORSDOF 2
ENDMDL
