MODEL 1
REMARK minimizedAffinity 1.06883669
REMARK minimizedRMSD -1
REMARK  2 active torsions:
REMARK  status: ('A' for Active; 'I' for Inactive)
REMARK    1  A    between atoms: C1_2  and  C2_3 
REMARK    2  A    between atoms: C2_3  and  C3_4 
ROOT
ATOM      1  C3  UNL d   1       1.650   4.869   1.870  0.00  0.00    -0.075 A 
ATOM      2  C4  UNL d   1       1.817   4.542   3.223  0.00  0.00     0.002 A 
ATOM      3  C5  UNL d   1       1.112   3.479   3.788  0.00  0.00     0.002 A 
ATOM      4  C6  UNL d   1       0.225   2.737   3.011  0.00  0.00    -0.004 A 
ATOM      5  C7  UNL d   1       0.038   3.063   1.669  0.00  0.00     0.002 A 
ATOM      6  C8  UNL d   1       0.746   4.124   1.101  0.00  0.00     0.002 A 
ENDROOT
BRANCH   1   7
ATOM      7  C2  UNL d   1       2.432   6.000   1.246  0.00  0.00     0.056 C 
BRANCH   7   8
ATOM      8  C1  UNL d   1       3.922   5.999   1.602  0.00  0.00     0.007 C 
ATOM      9  C   UNL d   1       4.832   5.991   0.380  0.00  0.00     0.009 C 
ENDBRANCH   7   8
ENDBRANCH   1   7
TORSDOF 2
ENDMDL
