MODEL 1
REMARK minimizedAffinity 3.87147236
REMARK minimizedRMSD -1
REMARK  2 active torsions:
REMARK  status: ('A' for Active; 'I' for Inactive)
REMARK    1  A    between atoms: C1_2  and  C2_3 
REMARK    2  A    between atoms: C2_3  and  C3_4 
ROOT
ATOM      1  C3  UNL d   1       1.874   2.374   2.016  0.00  0.00    -0.075 A 
ATOM      2  C4  UNL d   1       1.099   1.590   1.149  0.00  0.00     0.002 A 
ATOM      3  C5  UNL d   1      -0.291   1.559   1.274  0.00  0.00     0.002 A 
ATOM      4  C6  UNL d   1      -0.920   2.301   2.271  0.00  0.00    -0.004 A 
ATOM      5  C7  UNL d   1      -0.159   3.069   3.149  0.00  0.00     0.002 A 
ATOM      6  C8  UNL d   1       1.231   3.106   3.023  0.00  0.00     0.002 A 
ENDROOT
BRANCH   1   7
ATOM      7  C2  UNL d   1       3.375   2.435   1.868  0.00  0.00     0.056 C 
BRANCH   7   8
ATOM      8  C1  UNL d   1       3.942   3.858   1.844  0.00  0.00     0.007 C 
ATOM      9  C   UNL d   1       5.408   3.914   1.434  0.00  0.00     0.009 C 
ENDBRANCH   7   8
ENDBRANCH   1   7
TORSDOF 2
ENDMDL
