MODEL 1
REMARK minimizedAffinity 5.91593981
REMARK minimizedRMSD -1
REMARK  2 active torsions:
REMARK  status: ('A' for Active; 'I' for Inactive)
REMARK    1  A    between atoms: C1_2  and  C2_3 
REMARK    2  A    between atoms: C2_3  and  C3_4 
ROOT
ATOM      1  C3  UNL d   1      -0.266   1.386   1.281  0.00  0.00    -0.075 A 
ATOM      2  C4  UNL d   1       1.101   1.409   1.596  0.00  0.00     0.002 A 
ATOM      3  C5  UNL d   1       1.615   2.384   2.451  0.00  0.00     0.002 A 
ATOM      4  C6  UNL d   1       0.773   3.352   2.994  0.00  0.00    -0.004 A 
ATOM      5  C7  UNL d   1      -0.583   3.349   2.675  0.00  0.00     0.002 A 
ATOM      6  C8  UNL d   1      -1.101   2.373   1.823  0.00  0.00     0.002 A 
ENDROOT
BRANCH   1   7
ATOM      7  C2  UNL d   1      -0.833   0.316   0.379  0.00  0.00     0.056 C 
BRANCH   7   8
ATOM      8  C1  UNL d   1      -2.022  -0.441   0.981  0.00  0.00     0.007 C 
ATOM      9  C   UNL d   1      -2.970  -1.004  -0.069  0.00  0.00     0.009 C 
ENDBRANCH   7   8
ENDBRANCH   1   7
TORSDOF 2
ENDMDL
