MODEL 1
REMARK minimizedAffinity 5.0452199
REMARK minimizedRMSD -1
REMARK  2 active torsions:
REMARK  status: ('A' for Active; 'I' for Inactive)
REMARK    1  A    between atoms: C1_2  and  C2_3 
REMARK    2  A    between atoms: C2_3  and  C3_4 
ROOT
ATOM      1  C3  UNL d   1       0.892   1.529  -0.657  0.00  0.00    -0.075 A 
ATOM      2  C4  UNL d   1       0.152   2.102  -1.702  0.00  0.00     0.002 A 
ATOM      3  C5  UNL d   1       0.674   2.154  -2.995  0.00  0.00     0.002 A 
ATOM      4  C6  UNL d   1       1.944   1.646  -3.257  0.00  0.00    -0.004 A 
ATOM      5  C7  UNL d   1       2.696   1.090  -2.224  0.00  0.00     0.002 A 
ATOM      6  C8  UNL d   1       2.174   1.032  -0.930  0.00  0.00     0.002 A 
ENDROOT
BRANCH   1   7
ATOM      7  C2  UNL d   1       0.321   1.443   0.738  0.00  0.00     0.056 C 
BRANCH   7   8
ATOM      8  C1  UNL d   1      -1.080   0.825   0.800  0.00  0.00     0.007 C 
ATOM      9  C   UNL d   1      -1.751   0.995   2.157  0.00  0.00     0.009 C 
ENDBRANCH   7   8
ENDBRANCH   1   7
TORSDOF 2
ENDMDL
