MODEL 1
REMARK minimizedAffinity -2.4966681
REMARK minimizedRMSD -1
REMARK  2 active torsions:
REMARK  status: ('A' for Active; 'I' for Inactive)
REMARK    1  A    between atoms: C1_2  and  C2_3 
REMARK    2  A    between atoms: C2_3  and  C3_4 
ROOT
ATOM      1  C3  UNL d   1      -0.354   1.321   1.147  0.00  0.00    -0.075 A 
ATOM      2  C4  UNL d   1       0.556   0.575   0.385  0.00  0.00     0.002 A 
ATOM      3  C5  UNL d   1       1.925   0.645   0.647  0.00  0.00     0.002 A 
ATOM      4  C6  UNL d   1       2.401   1.467   1.666  0.00  0.00    -0.004 A 
ATOM      5  C7  UNL d   1       1.507   2.225   2.419  0.00  0.00     0.002 A 
ATOM      6  C8  UNL d   1       0.137   2.154   2.162  0.00  0.00     0.002 A 
ENDROOT
BRANCH   1   7
ATOM      7  C2  UNL d   1      -1.838   1.228   0.888  0.00  0.00     0.056 C 
BRANCH   7   8
ATOM      8  C1  UNL d   1      -2.231   0.122  -0.097  0.00  0.00     0.007 C 
ATOM      9  C   UNL d   1      -3.456  -0.668   0.344  0.00  0.00     0.009 C 
ENDBRANCH   7   8
ENDBRANCH   1   7
TORSDOF 2
ENDMDL
