MODEL 1
REMARK minimizedAffinity 3.76414299
REMARK minimizedRMSD -1
REMARK  2 active torsions:
REMARK  status: ('A' for Active; 'I' for Inactive)
REMARK    1  A    between atoms: C1_2  and  C2_3 
REMARK    2  A    between atoms: C2_3  and  C3_4 
ROOT
ATOM      1  C3  UNL d   1      -0.824  -5.984   2.805  0.00  0.00    -0.075 A 
ATOM      2  C4  UNL d   1       0.384  -5.979   2.094  0.00  0.00     0.002 A 
ATOM      3  C5  UNL d   1       1.604  -5.992   2.770  0.00  0.00     0.002 A 
ATOM      4  C6  UNL d   1       1.632  -6.000   4.163  0.00  0.00    -0.004 A 
ATOM      5  C7  UNL d   1       0.437  -5.988   4.880  0.00  0.00     0.002 A 
ATOM      6  C8  UNL d   1      -0.785  -5.980   4.206  0.00  0.00     0.002 A 
ENDROOT
BRANCH   1   7
ATOM      7  C2  UNL d   1      -2.148  -6.000   2.079  0.00  0.00     0.056 C 
BRANCH   7   8
ATOM      8  C1  UNL d   1      -2.125  -5.285   0.724  0.00  0.00     0.007 C 
ATOM      9  C   UNL d   1      -3.485  -5.247   0.041  0.00  0.00     0.009 C 
ENDBRANCH   7   8
ENDBRANCH   1   7
TORSDOF 2
ENDMDL
