MODEL 1
REMARK minimizedAffinity 1.50734866
REMARK minimizedRMSD -1
REMARK  2 active torsions:
REMARK  status: ('A' for Active; 'I' for Inactive)
REMARK    1  A    between atoms: C1_2  and  C2_3 
REMARK    2  A    between atoms: C2_3  and  C3_4 
ROOT
ATOM      1  C3  UNL d   1      -0.635   1.006   0.921  0.00  0.00    -0.075 A 
ATOM      2  C4  UNL d   1      -1.145   1.912   1.863  0.00  0.00     0.002 A 
ATOM      3  C5  UNL d   1      -0.284   2.717   2.609  0.00  0.00     0.002 A 
ATOM      4  C6  UNL d   1       1.095   2.620   2.431  0.00  0.00    -0.004 A 
ATOM      5  C7  UNL d   1       1.612   1.711   1.510  0.00  0.00     0.002 A 
ATOM      6  C8  UNL d   1       0.753   0.908   0.759  0.00  0.00     0.002 A 
ENDROOT
BRANCH   1   7
ATOM      7  C2  UNL d   1      -1.563   0.152   0.090  0.00  0.00     0.056 C 
BRANCH   7   8
ATOM      8  C1  UNL d   1      -2.886  -0.189   0.784  0.00  0.00     0.007 C 
ATOM      9  C   UNL d   1      -3.051  -1.677   1.064  0.00  0.00     0.009 C 
ENDBRANCH   7   8
ENDBRANCH   1   7
TORSDOF 2
ENDMDL
