MODEL 1
REMARK minimizedAffinity 8.84336853
REMARK minimizedRMSD -1
REMARK  0 active torsions:
REMARK  status: ('A' for Active; 'I' for Inactive)
ROOT
ATOM      1  C1  DEN d   1      -5.544   4.285  -0.791  0.00  0.00     0.130 A 
ATOM      2  C2  DEN d   1      -5.999   4.986  -1.989  0.00  0.00    -0.031 A 
ATOM      3  C3  DEN d   1      -5.269   4.431  -3.147  0.00  0.00     0.027 A 
ATOM      4  C4  DEN d   1      -3.492   2.563  -3.202  0.00  0.00     0.027 A 
ATOM      5  C5  DEN d   1      -2.770   1.677  -2.432  0.00  0.00    -0.003 A 
ATOM      6  C6  DEN d   1      -2.897   1.622  -1.070  0.00  0.00     0.001 A 
ATOM      7  C7  DEN d   1      -3.799   2.438  -0.438  0.00  0.00     0.017 A 
ATOM      8  C8  DEN d   1      -4.524   3.339  -1.207  0.00  0.00    -0.094 A 
ATOM      9  C9  DEN d   1      -4.391   3.371  -2.584  0.00  0.00    -0.072 A 
ENDROOT
TORSDOF 0
ENDMDL
