MODEL 1
REMARK minimizedAffinity -2.27904534
REMARK minimizedRMSD -1
REMARK  0 active torsions:
REMARK  status: ('A' for Active; 'I' for Inactive)
ROOT
ATOM      1  C1  DEN d   1       5.928   4.120  -5.491  0.00  0.00     0.130 A 
ATOM      2  C2  DEN d   1       4.926   3.183  -5.991  0.00  0.00    -0.031 A 
ATOM      3  C3  DEN d   1       3.782   3.196  -5.057  0.00  0.00     0.027 A 
ATOM      4  C4  DEN d   1       3.465   4.574  -2.900  0.00  0.00     0.027 A 
ATOM      5  C5  DEN d   1       4.049   5.498  -2.063  0.00  0.00    -0.003 A 
ATOM      6  C6  DEN d   1       5.304   5.999  -2.289  0.00  0.00     0.001 A 
ATOM      7  C7  DEN d   1       5.999   5.610  -3.404  0.00  0.00     0.017 A 
ATOM      8  C8  DEN d   1       5.419   4.673  -4.249  0.00  0.00    -0.094 A 
ATOM      9  C9  DEN d   1       4.145   4.189  -4.010  0.00  0.00    -0.072 A 
ENDROOT
TORSDOF 0
ENDMDL
