MODEL 1
REMARK minimizedAffinity 19.1166039
REMARK minimizedRMSD -1
REMARK  0 active torsions:
REMARK  status: ('A' for Active; 'I' for Inactive)
ROOT
ATOM      1  C1  DEN d   1      -6.000   3.961  -2.006  0.00  0.00     0.130 A 
ATOM      2  C2  DEN d   1      -6.000   4.705  -0.750  0.00  0.00    -0.031 A 
ATOM      3  C3  DEN d   1      -4.861   4.229   0.062  0.00  0.00     0.027 A 
ATOM      4  C4  DEN d   1      -3.106   2.427  -0.504  0.00  0.00     0.027 A 
ATOM      5  C5  DEN d   1      -2.702   1.511  -1.451  0.00  0.00    -0.003 A 
ATOM      6  C6  DEN d   1      -3.383   1.325  -2.624  0.00  0.00     0.001 A 
ATOM      7  C7  DEN d   1      -4.479   2.098  -2.902  0.00  0.00     0.017 A 
ATOM      8  C8  DEN d   1      -4.897   3.018  -1.950  0.00  0.00    -0.094 A 
ATOM      9  C9  DEN d   1      -4.188   3.199  -0.774  0.00  0.00    -0.072 A 
ENDROOT
TORSDOF 0
ENDMDL
