MODEL 1
REMARK minimizedAffinity 15.7747421
REMARK minimizedRMSD -1
REMARK  0 active torsions:
REMARK  status: ('A' for Active; 'I' for Inactive)
ROOT
ATOM      1  C1  DEN d   1       0.601   0.790   2.557  0.00  0.00     0.130 A 
ATOM      2  C2  DEN d   1       1.536   0.854   1.437  0.00  0.00    -0.031 A 
ATOM      3  C3  DEN d   1       2.095  -0.497   1.232  0.00  0.00     0.027 A 
ATOM      4  C4  DEN d   1       1.602  -2.672   2.529  0.00  0.00     0.027 A 
ATOM      5  C5  DEN d   1       0.887  -3.220   3.570  0.00  0.00    -0.003 A 
ATOM      6  C6  DEN d   1       0.058  -2.469   4.362  0.00  0.00     0.001 A 
ATOM      7  C7  DEN d   1      -0.110  -1.136   4.096  0.00  0.00     0.017 A 
ATOM      8  C8  DEN d   1       0.614  -0.575   3.052  0.00  0.00    -0.094 A 
ATOM      9  C9  DEN d   1       1.437  -1.352   2.256  0.00  0.00    -0.072 A 
ENDROOT
TORSDOF 0
ENDMDL
