MODEL 1
REMARK minimizedAffinity 1.52987683
REMARK minimizedRMSD -1
REMARK  0 active torsions:
REMARK  status: ('A' for Active; 'I' for Inactive)
ROOT
ATOM      1  C1  DEN d   1       4.899   6.000  -1.953  0.00  0.00     0.130 A 
ATOM      2  C2  DEN d   1       3.568   5.604  -1.501  0.00  0.00    -0.031 A 
ATOM      3  C3  DEN d   1       2.818   5.108  -2.672  0.00  0.00     0.027 A 
ATOM      4  C4  DEN d   1       3.584   4.912  -5.127  0.00  0.00     0.027 A 
ATOM      5  C5  DEN d   1       4.627   5.136  -5.999  0.00  0.00    -0.003 A 
ATOM      6  C6  DEN d   1       5.812   5.690  -5.592  0.00  0.00     0.001 A 
ATOM      7  C7  DEN d   1       6.000   5.998  -4.271  0.00  0.00     0.017 A 
ATOM      8  C8  DEN d   1       4.950   5.782  -3.388  0.00  0.00    -0.094 A 
ATOM      9  C9  DEN d   1       3.764   5.210  -3.815  0.00  0.00    -0.072 A 
ENDROOT
TORSDOF 0
ENDMDL
