MODEL 1
REMARK minimizedAffinity 9.65617466
REMARK minimizedRMSD -1
REMARK  0 active torsions:
REMARK  status: ('A' for Active; 'I' for Inactive)
ROOT
ATOM      1  C1  DEN d   1       2.255  -0.885   0.965  0.00  0.00     0.130 A 
ATOM      2  C2  DEN d   1       2.272   0.539   1.292  0.00  0.00    -0.031 A 
ATOM      3  C3  DEN d   1       1.817   0.691   2.689  0.00  0.00     0.027 A 
ATOM      4  C4  DEN d   1       1.098  -1.129   4.369  0.00  0.00     0.027 A 
ATOM      5  C5  DEN d   1       0.908  -2.482   4.546  0.00  0.00    -0.003 A 
ATOM      6  C6  DEN d   1       1.119  -3.386   3.539  0.00  0.00     0.001 A 
ATOM      7  C7  DEN d   1       1.577  -2.953   2.322  0.00  0.00     0.017 A 
ATOM      8  C8  DEN d   1       1.764  -1.590   2.135  0.00  0.00    -0.094 A 
ATOM      9  C9  DEN d   1       1.557  -0.693   3.169  0.00  0.00    -0.072 A 
ENDROOT
TORSDOF 0
ENDMDL
