MODEL 1
REMARK minimizedAffinity 4.40492153
REMARK minimizedRMSD -1
REMARK  0 active torsions:
REMARK  status: ('A' for Active; 'I' for Inactive)
ROOT
ATOM      1  C1  DEN d   1       3.640   3.801  -2.687  0.00  0.00     0.130 A 
ATOM      2  C2  DEN d   1       3.688   4.921  -1.751  0.00  0.00    -0.031 A 
ATOM      3  C3  DEN d   1       4.523   5.981  -2.351  0.00  0.00     0.027 A 
ATOM      4  C4  DEN d   1       5.734   6.000  -4.627  0.00  0.00     0.027 A 
ATOM      5  C5  DEN d   1       5.996   5.269  -5.766  0.00  0.00    -0.003 A 
ATOM      6  C6  DEN d   1       5.523   3.996  -5.941  0.00  0.00     0.001 A 
ATOM      7  C7  DEN d   1       4.725   3.430  -4.982  0.00  0.00     0.017 A 
ATOM      8  C8  DEN d   1       4.463   4.158  -3.829  0.00  0.00    -0.094 A 
ATOM      9  C9  DEN d   1       4.940   5.448  -3.675  0.00  0.00    -0.072 A 
ENDROOT
TORSDOF 0
ENDMDL
