MODEL 1
REMARK minimizedAffinity 11.1820869
REMARK minimizedRMSD -1
REMARK  0 active torsions:
REMARK  status: ('A' for Active; 'I' for Inactive)
ROOT
ATOM      1  C1  DEN d   1       3.659   5.126  -5.149  0.00  0.00     0.130 A 
ATOM      2  C2  DEN d   1       4.759   5.575  -5.998  0.00  0.00    -0.031 A 
ATOM      3  C3  DEN d   1       5.869   6.000  -5.121  0.00  0.00     0.027 A 
ATOM      4  C4  DEN d   1       5.992   5.999  -2.545  0.00  0.00     0.027 A 
ATOM      5  C5  DEN d   1       5.300   5.718  -1.388  0.00  0.00    -0.003 A 
ATOM      6  C6  DEN d   1       4.011   5.255  -1.403  0.00  0.00     0.001 A 
ATOM      7  C7  DEN d   1       3.389   5.017  -2.600  0.00  0.00     0.017 A 
ATOM      8  C8  DEN d   1       4.078   5.305  -3.770  0.00  0.00    -0.094 A 
ATOM      9  C9  DEN d   1       5.385   5.761  -3.735  0.00  0.00    -0.072 A 
ENDROOT
TORSDOF 0
ENDMDL
