MODEL 1
REMARK minimizedAffinity 11.9893551
REMARK minimizedRMSD -1
REMARK  0 active torsions:
REMARK  status: ('A' for Active; 'I' for Inactive)
ROOT
ATOM      1  C1  DEN d   1       2.981   2.055   0.266  0.00  0.00     0.130 A 
ATOM      2  C2  DEN d   1       3.715   1.259  -0.714  0.00  0.00    -0.031 A 
ATOM      3  C3  DEN d   1       3.510  -0.167  -0.390  0.00  0.00     0.027 A 
ATOM      4  C4  DEN d   1       2.132  -1.215   1.521  0.00  0.00     0.027 A 
ATOM      5  C5  DEN d   1       1.341  -0.942   2.615  0.00  0.00    -0.003 A 
ATOM      6  C6  DEN d   1       1.071   0.338   3.019  0.00  0.00     0.001 A 
ATOM      7  C7  DEN d   1       1.560   1.395   2.298  0.00  0.00     0.017 A 
ATOM      8  C8  DEN d   1       2.364   1.128   1.198  0.00  0.00    -0.094 A 
ATOM      9  C9  DEN d   1       2.616  -0.173   0.798  0.00  0.00    -0.072 A 
ENDROOT
TORSDOF 0
ENDMDL
