MODEL 1
REMARK minimizedAffinity -4.30527592
REMARK minimizedRMSD -1
REMARK  0 active torsions:
REMARK  status: ('A' for Active; 'I' for Inactive)
ROOT
ATOM      1  C   UNL d   1       0.611   0.301   0.031  0.00  0.00     0.078 C 
ATOM      2  C1  UNL d   1      -0.532   0.991  -0.653  0.00  0.00    -0.077 A 
ATOM      3  C2  UNL d   1      -1.544   1.615   0.087  0.00  0.00    -0.001 A 
ATOM      4  C3  UNL d   1      -2.607   2.245  -0.563  0.00  0.00     0.003 A 
ATOM      5  C4  UNL d   1      -2.668   2.257  -1.955  0.00  0.00    -0.005 A 
ATOM      6  C5  UNL d   1      -1.666   1.638  -2.699  0.00  0.00     0.003 A 
ATOM      7  C6  UNL d   1      -0.603   1.007  -2.051  0.00  0.00    -0.001 A 
ENDROOT
TORSDOF 0
ENDMDL
