MODEL 1
REMARK minimizedAffinity 2.4483254
REMARK minimizedRMSD -1
REMARK  0 active torsions:
REMARK  status: ('A' for Active; 'I' for Inactive)
ROOT
ATOM      1  C   UNL d   1      -0.079   2.017   2.242  0.00  0.00     0.078 C 
ATOM      2  C1  UNL d   1      -0.220   2.448   0.812  0.00  0.00    -0.077 A 
ATOM      3  C2  UNL d   1      -0.275   1.506  -0.223  0.00  0.00    -0.001 A 
ATOM      4  C3  UNL d   1      -0.397   1.922  -1.550  0.00  0.00     0.003 A 
ATOM      5  C4  UNL d   1      -0.464   3.280  -1.854  0.00  0.00    -0.005 A 
ATOM      6  C5  UNL d   1      -0.409   4.225  -0.831  0.00  0.00     0.003 A 
ATOM      7  C6  UNL d   1      -0.287   3.811   0.497  0.00  0.00    -0.001 A 
ENDROOT
TORSDOF 0
ENDMDL
