MODEL 1
REMARK minimizedAffinity 6.51304102
REMARK minimizedRMSD -1
REMARK  0 active torsions:
REMARK  status: ('A' for Active; 'I' for Inactive)
ROOT
ATOM      1  C   UNL d   1      -0.061   1.376  -1.644  0.00  0.00     0.078 C 
ATOM      2  C1  UNL d   1      -0.591   1.953  -0.366  0.00  0.00    -0.077 A 
ATOM      3  C2  UNL d   1       0.255   2.181   0.727  0.00  0.00    -0.001 A 
ATOM      4  C3  UNL d   1      -0.254   2.710   1.915  0.00  0.00     0.003 A 
ATOM      5  C4  UNL d   1      -1.610   3.014   2.021  0.00  0.00    -0.005 A 
ATOM      6  C5  UNL d   1      -2.459   2.789   0.939  0.00  0.00     0.003 A 
ATOM      7  C6  UNL d   1      -1.952   2.260  -0.249  0.00  0.00    -0.001 A 
ENDROOT
TORSDOF 0
ENDMDL
