MODEL 1
REMARK minimizedAffinity 2.22343493
REMARK minimizedRMSD -1
REMARK  0 active torsions:
REMARK  status: ('A' for Active; 'I' for Inactive)
ROOT
ATOM      1  C   UNL d   1      -0.089   1.078  -2.089  0.00  0.00     0.078 C 
ATOM      2  C1  UNL d   1      -0.540   1.754  -0.828  0.00  0.00    -0.077 A 
ATOM      3  C2  UNL d   1       0.263   1.749   0.319  0.00  0.00    -0.001 A 
ATOM      4  C3  UNL d   1      -0.173   2.374   1.488  0.00  0.00     0.003 A 
ATOM      5  C4  UNL d   1      -1.414   3.007   1.522  0.00  0.00    -0.005 A 
ATOM      6  C5  UNL d   1      -2.220   3.015   0.386  0.00  0.00     0.003 A 
ATOM      7  C6  UNL d   1      -1.786   2.391  -0.784  0.00  0.00    -0.001 A 
ENDROOT
TORSDOF 0
ENDMDL
