MODEL 1
REMARK minimizedAffinity 1.57370162
REMARK minimizedRMSD -1
REMARK  0 active torsions:
REMARK  status: ('A' for Active; 'I' for Inactive)
ROOT
ATOM      1  C   UNL d   1       0.769  -0.773   4.225  0.00  0.00     0.078 C 
ATOM      2  C1  UNL d   1       0.675   0.191   3.080  0.00  0.00    -0.077 A 
ATOM      3  C2  UNL d   1      -0.332   1.162   3.035  0.00  0.00    -0.001 A 
ATOM      4  C3  UNL d   1      -0.412   2.046   1.958  0.00  0.00     0.003 A 
ATOM      5  C4  UNL d   1       0.511   1.967   0.917  0.00  0.00    -0.005 A 
ATOM      6  C5  UNL d   1       1.515   1.002   0.952  0.00  0.00     0.003 A 
ATOM      7  C6  UNL d   1       1.597   0.117   2.028  0.00  0.00    -0.001 A 
ENDROOT
TORSDOF 0
ENDMDL
