MODEL 1
REMARK minimizedAffinity 1.20751894
REMARK minimizedRMSD -1
REMARK  0 active torsions:
REMARK  status: ('A' for Active; 'I' for Inactive)
ROOT
ATOM      1  C   UNL d   1      -0.206   1.761  -2.008  0.00  0.00     0.078 C 
ATOM      2  C1  UNL d   1      -0.584   2.122  -0.602  0.00  0.00    -0.077 A 
ATOM      3  C2  UNL d   1      -1.890   2.515  -0.285  0.00  0.00    -0.001 A 
ATOM      4  C3  UNL d   1      -2.224   2.858   1.026  0.00  0.00     0.003 A 
ATOM      5  C4  UNL d   1      -1.259   2.813   2.030  0.00  0.00    -0.005 A 
ATOM      6  C5  UNL d   1       0.044   2.426   1.723  0.00  0.00     0.003 A 
ATOM      7  C6  UNL d   1       0.381   2.082   0.413  0.00  0.00    -0.001 A 
ENDROOT
TORSDOF 0
ENDMDL
