MODEL 1
REMARK minimizedAffinity 1.60518229
REMARK minimizedRMSD -1
REMARK  0 active torsions:
REMARK  status: ('A' for Active; 'I' for Inactive)
ROOT
ATOM      1  C   UNL d   1      -0.039   1.114  -2.181  0.00  0.00     0.078 C 
ATOM      2  C1  UNL d   1       0.663  -0.170  -1.854  0.00  0.00    -0.077 A 
ATOM      3  C2  UNL d   1      -0.037  -1.381  -1.798  0.00  0.00    -0.001 A 
ATOM      4  C3  UNL d   1       0.629  -2.567  -1.483  0.00  0.00     0.003 A 
ATOM      5  C4  UNL d   1       1.997  -2.553  -1.220  0.00  0.00    -0.005 A 
ATOM      6  C5  UNL d   1       2.702  -1.352  -1.271  0.00  0.00     0.003 A 
ATOM      7  C6  UNL d   1       2.038  -0.165  -1.586  0.00  0.00    -0.001 A 
ENDROOT
TORSDOF 0
ENDMDL
