MODEL 1
REMARK minimizedAffinity -0.338591248
REMARK minimizedRMSD -1
REMARK  0 active torsions:
REMARK  status: ('A' for Active; 'I' for Inactive)
ROOT
ATOM      1  C   UNL d   1      -2.534   1.000   3.888  0.00  0.00     0.020 A 
ATOM      2  C1  UNL d   1      -1.424   1.768   3.539  0.00  0.00     0.020 A 
ATOM      3  C2  UNL d   1      -0.783   1.555   2.317  0.00  0.00     0.034 A 
ATOM      4  C3  UNL d   1      -1.252   0.572   1.439  0.00  0.00     0.017 A 
ATOM      5  C4  UNL d   1      -2.367  -0.199   1.789  0.00  0.00     0.017 A 
ATOM      6  C5  UNL d   1      -3.005   0.019   3.014  0.00  0.00     0.034 A 
ATOM      7 Cl   UNL d   1      -3.004  -1.430   0.757  0.00  0.00    -0.070 Cl
ATOM      8 Cl1  UNL d   1      -0.411   0.363  -0.056  0.00  0.00    -0.070 Cl
ENDROOT
TORSDOF 0
ENDMDL
