MODEL 1
REMARK minimizedAffinity -2.68933201
REMARK minimizedRMSD -1
REMARK  0 active torsions:
REMARK  status: ('A' for Active; 'I' for Inactive)
ROOT
ATOM      1  C   UNL d   1       0.230   1.878  -0.750  0.00  0.00     0.020 A 
ATOM      2  C1  UNL d   1      -0.738   1.024  -0.223  0.00  0.00     0.020 A 
ATOM      3  C2  UNL d   1      -0.431  -0.318   0.013  0.00  0.00     0.034 A 
ATOM      4  C3  UNL d   1       0.847  -0.809  -0.279  0.00  0.00     0.017 A 
ATOM      5  C4  UNL d   1       1.818   0.049  -0.808  0.00  0.00     0.017 A 
ATOM      6  C5  UNL d   1       1.505   1.392  -1.042  0.00  0.00     0.034 A 
ATOM      7 Cl   UNL d   1       3.416  -0.485  -1.193  0.00  0.00    -0.070 Cl
ATOM      8 Cl1  UNL d   1       1.157  -2.480   0.038  0.00  0.00    -0.070 Cl
ENDROOT
TORSDOF 0
ENDMDL
