MODEL 1
REMARK minimizedAffinity -4.00125837
REMARK minimizedRMSD -1
REMARK  0 active torsions:
REMARK  status: ('A' for Active; 'I' for Inactive)
ROOT
ATOM      1  C   UNL d   1      -0.308  -0.883   0.148  0.00  0.00     0.020 A 
ATOM      2  C1  UNL d   1       0.579  -1.912  -0.165  0.00  0.00     0.020 A 
ATOM      3  C2  UNL d   1       1.697  -1.652  -0.960  0.00  0.00     0.034 A 
ATOM      4  C3  UNL d   1       1.932  -0.360  -1.444  0.00  0.00     0.017 A 
ATOM      5  C4  UNL d   1       1.042   0.672  -1.129  0.00  0.00     0.017 A 
ATOM      6  C5  UNL d   1      -0.077   0.407  -0.333  0.00  0.00     0.034 A 
ATOM      7 Cl   UNL d   1       1.265   2.292  -1.689  0.00  0.00    -0.070 Cl
ATOM      8 Cl1  UNL d   1       3.336  -0.111  -2.420  0.00  0.00    -0.070 Cl
ENDROOT
TORSDOF 0
ENDMDL
