MODEL 1
REMARK minimizedAffinity -4.2750926
REMARK minimizedRMSD -1
REMARK  0 active torsions:
REMARK  status: ('A' for Active; 'I' for Inactive)
ROOT
ATOM      1  C   UNL d   1      -2.067   1.129   3.506  0.00  0.00     0.020 A 
ATOM      2  C1  UNL d   1      -3.263   0.412   3.545  0.00  0.00     0.020 A 
ATOM      3  C2  UNL d   1      -3.586  -0.464   2.507  0.00  0.00     0.034 A 
ATOM      4  C3  UNL d   1      -2.714  -0.625   1.424  0.00  0.00     0.017 A 
ATOM      5  C4  UNL d   1      -1.514   0.095   1.386  0.00  0.00     0.017 A 
ATOM      6  C5  UNL d   1      -1.195   0.970   2.428  0.00  0.00     0.034 A 
ATOM      7 Cl   UNL d   1      -0.387  -0.052   0.083  0.00  0.00    -0.070 Cl
ATOM      8 Cl1  UNL d   1      -3.178  -1.725   0.175  0.00  0.00    -0.070 Cl
ENDROOT
TORSDOF 0
ENDMDL
