MODEL 1
REMARK minimizedAffinity -4.24789619
REMARK minimizedRMSD -1
REMARK  0 active torsions:
REMARK  status: ('A' for Active; 'I' for Inactive)
ROOT
ATOM      1  C   UNL d   1       2.029  -0.035  -0.991  0.00  0.00     0.020 A 
ATOM      2  C1  UNL d   1       2.282  -1.375  -1.282  0.00  0.00     0.020 A 
ATOM      3  C2  UNL d   1       1.337  -2.351  -0.958  0.00  0.00     0.034 A 
ATOM      4  C3  UNL d   1       0.134  -1.988  -0.341  0.00  0.00     0.017 A 
ATOM      5  C4  UNL d   1      -0.120  -0.643  -0.049  0.00  0.00     0.017 A 
ATOM      6  C5  UNL d   1       0.830   0.330  -0.376  0.00  0.00     0.034 A 
ATOM      7 Cl   UNL d   1      -1.581  -0.118   0.710  0.00  0.00    -0.070 Cl
ATOM      8 Cl1  UNL d   1      -0.990  -3.247   0.031  0.00  0.00    -0.070 Cl
ENDROOT
TORSDOF 0
ENDMDL
