MODEL 1
REMARK minimizedAffinity -2.34458447
REMARK minimizedRMSD -1
REMARK  0 active torsions:
REMARK  status: ('A' for Active; 'I' for Inactive)
ROOT
ATOM      1  C   UNL d   1       1.708  -2.341  -0.190  0.00  0.00     0.020 A 
ATOM      2  C1  UNL d   1       2.121  -1.890  -1.443  0.00  0.00     0.020 A 
ATOM      3  C2  UNL d   1       1.722  -0.632  -1.899  0.00  0.00     0.034 A 
ATOM      4  C3  UNL d   1       0.906   0.179  -1.101  0.00  0.00     0.017 A 
ATOM      5  C4  UNL d   1       0.492  -0.274   0.156  0.00  0.00     0.017 A 
ATOM      6  C5  UNL d   1       0.895  -1.535   0.608  0.00  0.00     0.034 A 
ATOM      7 Cl   UNL d   1      -0.515   0.670   1.197  0.00  0.00    -0.070 Cl
ATOM      8 Cl1  UNL d   1       0.451   1.724  -1.728  0.00  0.00    -0.070 Cl
ENDROOT
TORSDOF 0
ENDMDL
