MODEL 1
REMARK minimizedAffinity -3.95118952
REMARK minimizedRMSD -1
REMARK  0 active torsions:
REMARK  status: ('A' for Active; 'I' for Inactive)
ROOT
ATOM      1  C   UNL d   1       3.063  -0.622  -1.651  0.00  0.00     0.020 A 
ATOM      2  C1  UNL d   1       2.777   0.704  -1.326  0.00  0.00     0.020 A 
ATOM      3  C2  UNL d   1       1.604   1.015  -0.636  0.00  0.00     0.034 A 
ATOM      4  C3  UNL d   1       0.712   0.001  -0.269  0.00  0.00     0.017 A 
ATOM      5  C4  UNL d   1       1.000  -1.329  -0.596  0.00  0.00     0.017 A 
ATOM      6  C5  UNL d   1       2.176  -1.636  -1.287  0.00  0.00     0.034 A 
ATOM      7 Cl   UNL d   1      -0.052  -2.635  -0.177  0.00  0.00    -0.070 Cl
ATOM      8 Cl1  UNL d   1      -0.720   0.459   0.583  0.00  0.00    -0.070 Cl
ENDROOT
TORSDOF 0
ENDMDL
