MODEL 1
REMARK minimizedAffinity -1.57544076
REMARK minimizedRMSD -1
REMARK  0 active torsions:
REMARK  status: ('A' for Active; 'I' for Inactive)
ROOT
ATOM      1  C   UNL d   1      -0.271  -1.632   0.485  0.00  0.00     0.020 A 
ATOM      2  C1  UNL d   1      -1.023  -0.460   0.567  0.00  0.00     0.020 A 
ATOM      3  C2  UNL d   1      -0.682   0.644  -0.217  0.00  0.00     0.034 A 
ATOM      4  C3  UNL d   1       0.413   0.579  -1.087  0.00  0.00     0.017 A 
ATOM      5  C4  UNL d   1       1.167  -0.598  -1.168  0.00  0.00     0.017 A 
ATOM      6  C5  UNL d   1       0.821  -1.700  -0.380  0.00  0.00     0.034 A 
ATOM      7 Cl   UNL d   1       2.532  -0.754  -2.217  0.00  0.00    -0.070 Cl
ATOM      8 Cl1  UNL d   1       0.777   1.982  -2.027  0.00  0.00    -0.070 Cl
ENDROOT
TORSDOF 0
ENDMDL
