MODEL 1
REMARK minimizedAffinity -1.89102483
REMARK minimizedRMSD -1
REMARK  0 active torsions:
REMARK  status: ('A' for Active; 'I' for Inactive)
ROOT
ATOM      1  C   UNL d   1       1.291  -1.308  -0.025  0.00  0.00     0.020 A 
ATOM      2  C1  UNL d   1       0.663  -2.550  -0.114  0.00  0.00     0.020 A 
ATOM      3  C2  UNL d   1      -0.697  -2.625  -0.419  0.00  0.00     0.034 A 
ATOM      4  C3  UNL d   1      -1.435  -1.456  -0.638  0.00  0.00     0.017 A 
ATOM      5  C4  UNL d   1      -0.804  -0.209  -0.549  0.00  0.00     0.017 A 
ATOM      6  C5  UNL d   1       0.558  -0.140  -0.243  0.00  0.00     0.034 A 
ATOM      7 Cl   UNL d   1      -1.648   1.277  -0.806  0.00  0.00    -0.070 Cl
ATOM      8 Cl1  UNL d   1      -3.113  -1.623  -1.013  0.00  0.00    -0.070 Cl
ENDROOT
TORSDOF 0
ENDMDL
