MODEL 1
REMARK minimizedAffinity -4.15513849
REMARK minimizedRMSD -1
REMARK  0 active torsions:
REMARK  status: ('A' for Active; 'I' for Inactive)
ROOT
ATOM      1  C   UNL d   1       2.490   0.643  -1.234  0.00  0.00     0.020 A 
ATOM      2  C1  UNL d   1       2.551  -0.634  -1.791  0.00  0.00     0.020 A 
ATOM      3  C2  UNL d   1       1.542  -1.561  -1.523  0.00  0.00     0.034 A 
ATOM      4  C3  UNL d   1       0.469  -1.214  -0.695  0.00  0.00     0.017 A 
ATOM      5  C4  UNL d   1       0.409   0.067  -0.135  0.00  0.00     0.017 A 
ATOM      6  C5  UNL d   1       1.421   0.992  -0.407  0.00  0.00     0.034 A 
ATOM      7 Cl   UNL d   1      -0.884   0.568   0.896  0.00  0.00    -0.070 Cl
ATOM      8 Cl1  UNL d   1      -0.743  -2.412  -0.406  0.00  0.00    -0.070 Cl
ENDROOT
TORSDOF 0
ENDMDL
