MODEL 1
REMARK minimizedAffinity 4.80892467
REMARK minimizedRMSD -1
REMARK  0 active torsions:
REMARK  status: ('A' for Active; 'I' for Inactive)
ROOT
ATOM      1  C   UNL d   1       2.273   5.983  -5.236  0.00  0.00     0.020 A 
ATOM      2  C1  UNL d   1       3.647   5.985  -5.476  0.00  0.00     0.020 A 
ATOM      3  C2  UNL d   1       4.542   5.989  -4.404  0.00  0.00     0.034 A 
ATOM      4  C3  UNL d   1       4.065   5.991  -3.089  0.00  0.00     0.017 A 
ATOM      5  C4  UNL d   1       2.686   5.990  -2.849  0.00  0.00     0.017 A 
ATOM      6  C5  UNL d   1       1.794   5.986  -3.926  0.00  0.00     0.034 A 
ATOM      7 Cl   UNL d   1       2.022   5.992  -1.253  0.00  0.00    -0.070 Cl
ATOM      8 Cl1  UNL d   1       5.230   5.995  -1.812  0.00  0.00    -0.070 Cl
ENDROOT
TORSDOF 0
ENDMDL
