MODEL 1
REMARK minimizedAffinity 3.44606113
REMARK minimizedRMSD -1
REMARK  0 active torsions:
REMARK  status: ('A' for Active; 'I' for Inactive)
ROOT
ATOM      1  C   UNL d   1       5.999   3.641   5.032  0.00  0.00     0.020 A 
ATOM      2  C1  UNL d   1       5.021   2.648   5.060  0.00  0.00     0.020 A 
ATOM      3  C2  UNL d   1       3.969   2.679   4.142  0.00  0.00     0.034 A 
ATOM      4  C3  UNL d   1       3.892   3.705   3.193  0.00  0.00     0.017 A 
ATOM      5  C4  UNL d   1       4.875   4.702   3.166  0.00  0.00     0.017 A 
ATOM      6  C5  UNL d   1       5.926   4.666   4.087  0.00  0.00     0.034 A 
ATOM      7 Cl   UNL d   1       4.848   5.999   2.025  0.00  0.00    -0.070 Cl
ATOM      8 Cl1  UNL d   1       2.563   3.681   2.089  0.00  0.00    -0.070 Cl
ENDROOT
TORSDOF 0
ENDMDL
