MODEL 1
REMARK minimizedAffinity 2.10648727
REMARK minimizedRMSD -1
REMARK  0 active torsions:
REMARK  status: ('A' for Active; 'I' for Inactive)
ROOT
ATOM      1  C   UNL d   1      -1.688   0.100   4.709  0.00  0.00     0.020 A 
ATOM      2  C1  UNL d   1      -1.425   0.715   3.485  0.00  0.00     0.020 A 
ATOM      3  C2  UNL d   1      -1.884   0.136   2.300  0.00  0.00     0.034 A 
ATOM      4  C3  UNL d   1      -2.607  -1.062   2.336  0.00  0.00     0.017 A 
ATOM      5  C4  UNL d   1      -2.870  -1.678   3.565  0.00  0.00     0.017 A 
ATOM      6  C5  UNL d   1      -2.409  -1.094   4.748  0.00  0.00     0.034 A 
ATOM      7 Cl   UNL d   1      -3.757  -3.157   3.689  0.00  0.00    -0.070 Cl
ATOM      8 Cl1  UNL d   1      -3.144  -1.721   0.832  0.00  0.00    -0.070 Cl
ENDROOT
TORSDOF 0
ENDMDL
