MODEL 1
REMARK minimizedAffinity -1.0594008
REMARK minimizedRMSD -1
REMARK  0 active torsions:
REMARK  status: ('A' for Active; 'I' for Inactive)
ROOT
ATOM      1  C   UNL d   1       4.119   5.417   0.478  0.00  0.00     0.020 A 
ATOM      2  C1  UNL d   1       4.040   4.029   0.374  0.00  0.00     0.020 A 
ATOM      3  C2  UNL d   1       4.524   3.223   1.406  0.00  0.00     0.034 A 
ATOM      4  C3  UNL d   1       5.090   3.803   2.547  0.00  0.00     0.017 A 
ATOM      5  C4  UNL d   1       5.169   5.197   2.651  0.00  0.00     0.017 A 
ATOM      6  C5  UNL d   1       4.682   6.000   1.614  0.00  0.00     0.034 A 
ATOM      7 Cl   UNL d   1       5.853   5.986   4.027  0.00  0.00    -0.070 Cl
ATOM      8 Cl1  UNL d   1       5.668   2.745   3.784  0.00  0.00    -0.070 Cl
ENDROOT
TORSDOF 0
ENDMDL
