MODEL 1
REMARK minimizedAffinity -1.08038187
REMARK minimizedRMSD -1
REMARK  0 active torsions:
REMARK  status: ('A' for Active; 'I' for Inactive)
ROOT
ATOM      1  C   UNL d   1       5.733   0.745   5.494  0.00  0.00     0.020 A 
ATOM      2  C1  UNL d   1       5.564   0.943   4.124  0.00  0.00     0.020 A 
ATOM      3  C2  UNL d   1       5.527  -0.153   3.259  0.00  0.00     0.034 A 
ATOM      4  C3  UNL d   1       5.660  -1.452   3.764  0.00  0.00     0.017 A 
ATOM      5  C4  UNL d   1       5.829  -1.650   5.139  0.00  0.00     0.017 A 
ATOM      6  C5  UNL d   1       5.865  -0.549   6.000  0.00  0.00     0.034 A 
ATOM      7 Cl   UNL d   1       5.999  -3.222   5.835  0.00  0.00    -0.070 Cl
ATOM      8 Cl1  UNL d   1       5.605  -2.761   2.637  0.00  0.00    -0.070 Cl
ENDROOT
TORSDOF 0
ENDMDL
