MODEL 1
REMARK minimizedAffinity -0.752279937
REMARK minimizedRMSD -1
REMARK  0 active torsions:
REMARK  status: ('A' for Active; 'I' for Inactive)
ROOT
ATOM      1  C   UNL d   1       5.341   0.791   4.863  0.00  0.00     0.020 A 
ATOM      2  C1  UNL d   1       5.934   1.458   5.934  0.00  0.00     0.020 A 
ATOM      3  C2  UNL d   1       6.000   2.853   5.938  0.00  0.00     0.034 A 
ATOM      4  C3  UNL d   1       5.471   3.586   4.869  0.00  0.00     0.017 A 
ATOM      5  C4  UNL d   1       4.876   2.915   3.795  0.00  0.00     0.017 A 
ATOM      6  C5  UNL d   1       4.813   1.518   3.796  0.00  0.00     0.034 A 
ATOM      7 Cl   UNL d   1       4.202   3.750   2.440  0.00  0.00    -0.070 Cl
ATOM      8 Cl1  UNL d   1       5.587   5.308   4.940  0.00  0.00    -0.070 Cl
ENDROOT
TORSDOF 0
ENDMDL
