MODEL 1
REMARK minimizedAffinity -3.71081448
REMARK minimizedRMSD -1
REMARK  0 active torsions:
REMARK  status: ('A' for Active; 'I' for Inactive)
ROOT
ATOM      1  C   UNL d   1       5.265  -1.802   3.357  0.00  0.00     0.020 A 
ATOM      2  C1  UNL d   1       5.121  -1.125   2.147  0.00  0.00     0.020 A 
ATOM      3  C2  UNL d   1       5.248   0.265   2.104  0.00  0.00     0.034 A 
ATOM      4  C3  UNL d   1       5.520   0.983   3.275  0.00  0.00     0.017 A 
ATOM      5  C4  UNL d   1       5.664   0.303   4.490  0.00  0.00     0.017 A 
ATOM      6  C5  UNL d   1       5.535  -1.089   4.526  0.00  0.00     0.034 A 
ATOM      7 Cl   UNL d   1       5.999   1.119   5.975  0.00  0.00    -0.070 Cl
ATOM      8 Cl1  UNL d   1       5.665   2.700   3.149  0.00  0.00    -0.070 Cl
ENDROOT
TORSDOF 0
ENDMDL
