MODEL 1
REMARK minimizedAffinity -5.16017723
REMARK minimizedRMSD -1
REMARK  0 active torsions:
REMARK  status: ('A' for Active; 'I' for Inactive)
ROOT
ATOM      1  C   UNL d   1       0.433  -0.509  -1.495  0.00  0.00     0.078 C 
ATOM      2  C1  UNL d   1       0.265  -0.032  -0.083  0.00  0.00    -0.077 A 
ATOM      3  C2  UNL d   1       1.340  -0.043   0.815  0.00  0.00    -0.001 A 
ATOM      4  C3  UNL d   1       1.167   0.395   2.129  0.00  0.00     0.003 A 
ATOM      5  C4  UNL d   1      -0.080   0.845   2.558  0.00  0.00    -0.005 A 
ATOM      6  C5  UNL d   1      -1.156   0.858   1.672  0.00  0.00     0.003 A 
ATOM      7  C6  UNL d   1      -0.985   0.420   0.358  0.00  0.00    -0.001 A 
ENDROOT
TORSDOF 0
ENDMDL
