MODEL 1
REMARK minimizedAffinity -5.59530067
REMARK minimizedRMSD -1
REMARK  0 active torsions:
REMARK  status: ('A' for Active; 'I' for Inactive)
ROOT
ATOM      1  C   UNL d   1      -2.638  -2.360  -5.834  0.00  0.00     0.078 C 
ATOM      2  C1  UNL d   1      -1.683  -1.392  -5.204  0.00  0.00    -0.077 A 
ATOM      3  C2  UNL d   1      -1.611  -0.063  -5.638  0.00  0.00    -0.001 A 
ATOM      4  C3  UNL d   1      -0.710   0.825  -5.048  0.00  0.00     0.003 A 
ATOM      5  C4  UNL d   1       0.127   0.394  -4.021  0.00  0.00    -0.005 A 
ATOM      6  C5  UNL d   1       0.065  -0.928  -3.584  0.00  0.00     0.003 A 
ATOM      7  C6  UNL d   1      -0.836  -1.817  -4.172  0.00  0.00    -0.001 A 
ENDROOT
TORSDOF 0
ENDMDL
