MODEL 1
REMARK minimizedAffinity -4.7724328
REMARK minimizedRMSD -1
REMARK  0 active torsions:
REMARK  status: ('A' for Active; 'I' for Inactive)
ROOT
ATOM      1  C   UNL d   1      -2.290  -1.615  -5.558  0.00  0.00     0.078 C 
ATOM      2  C1  UNL d   1      -1.100  -0.868  -5.033  0.00  0.00    -0.077 A 
ATOM      3  C2  UNL d   1      -0.589   0.245  -5.712  0.00  0.00    -0.001 A 
ATOM      4  C3  UNL d   1       0.525   0.924  -5.216  0.00  0.00     0.003 A 
ATOM      5  C4  UNL d   1       1.138   0.497  -4.040  0.00  0.00    -0.005 A 
ATOM      6  C5  UNL d   1       0.639  -0.611  -3.359  0.00  0.00     0.003 A 
ATOM      7  C6  UNL d   1      -0.475  -1.291  -3.853  0.00  0.00    -0.001 A 
ENDROOT
TORSDOF 0
ENDMDL
