MODEL 1
REMARK minimizedAffinity -3.48363352
REMARK minimizedRMSD -1
REMARK  0 active torsions:
REMARK  status: ('A' for Active; 'I' for Inactive)
ROOT
ATOM      1  C   UNL d   1       1.011  -1.402  -1.088  0.00  0.00     0.078 C 
ATOM      2  C1  UNL d   1       0.994  -0.467  -2.260  0.00  0.00    -0.077 A 
ATOM      3  C2  UNL d   1      -0.191  -0.208  -2.959  0.00  0.00    -0.001 A 
ATOM      4  C3  UNL d   1      -0.191   0.657  -4.054  0.00  0.00     0.003 A 
ATOM      5  C4  UNL d   1       0.993   1.270  -4.461  0.00  0.00    -0.005 A 
ATOM      6  C5  UNL d   1       2.178   1.017  -3.773  0.00  0.00     0.003 A 
ATOM      7  C6  UNL d   1       2.179   0.152  -2.677  0.00  0.00    -0.001 A 
ENDROOT
TORSDOF 0
ENDMDL
