MODEL 1
REMARK minimizedAffinity -2.52426767
REMARK minimizedRMSD -1
REMARK  0 active torsions:
REMARK  status: ('A' for Active; 'I' for Inactive)
ROOT
ATOM      1  C   UNL d   1       0.631  -1.098  -1.411  0.00  0.00     0.078 C 
ATOM      2  C1  UNL d   1       0.679  -0.276  -2.665  0.00  0.00    -0.077 A 
ATOM      3  C2  UNL d   1       1.859   0.367  -3.061  0.00  0.00    -0.001 A 
ATOM      4  C3  UNL d   1       1.887   1.136  -4.225  0.00  0.00     0.003 A 
ATOM      5  C4  UNL d   1       0.738   1.271  -5.002  0.00  0.00    -0.005 A 
ATOM      6  C5  UNL d   1      -0.441   0.637  -4.615  0.00  0.00     0.003 A 
ATOM      7  C6  UNL d   1      -0.471  -0.133  -3.451  0.00  0.00    -0.001 A 
ENDROOT
TORSDOF 0
ENDMDL
