MODEL 1
REMARK minimizedAffinity -4.21172953
REMARK minimizedRMSD -1
REMARK  0 active torsions:
REMARK  status: ('A' for Active; 'I' for Inactive)
ROOT
ATOM      1  C   UNL d   1       0.562  -0.781  -0.994  0.00  0.00     0.078 C 
ATOM      2  C1  UNL d   1       0.061  -0.091   0.240  0.00  0.00    -0.077 A 
ATOM      3  C2  UNL d   1       0.952   0.429   1.187  0.00  0.00    -0.001 A 
ATOM      4  C3  UNL d   1       0.471   1.061   2.336  0.00  0.00     0.003 A 
ATOM      5  C4  UNL d   1      -0.901   1.177   2.549  0.00  0.00    -0.005 A 
ATOM      6  C5  UNL d   1      -1.795   0.660   1.613  0.00  0.00     0.003 A 
ATOM      7  C6  UNL d   1      -1.316   0.029   0.464  0.00  0.00    -0.001 A 
ENDROOT
TORSDOF 0
ENDMDL
