MODEL 1
REMARK minimizedAffinity -4.66028261
REMARK minimizedRMSD -1
REMARK  0 active torsions:
REMARK  status: ('A' for Active; 'I' for Inactive)
ROOT
ATOM      1  C   UNL d   1      -1.454   0.032  -5.094  0.00  0.00     0.078 C 
ATOM      2  C1  UNL d   1      -0.345   0.134  -4.090  0.00  0.00    -0.077 A 
ATOM      3  C2  UNL d   1       0.739   0.997  -4.298  0.00  0.00    -0.001 A 
ATOM      4  C3  UNL d   1       1.769   1.075  -3.360  0.00  0.00     0.003 A 
ATOM      5  C4  UNL d   1       1.727   0.292  -2.207  0.00  0.00    -0.005 A 
ATOM      6  C5  UNL d   1       0.654  -0.570  -1.993  0.00  0.00     0.003 A 
ATOM      7  C6  UNL d   1      -0.377  -0.650  -2.930  0.00  0.00    -0.001 A 
ENDROOT
TORSDOF 0
ENDMDL
