MODEL 1
REMARK minimizedAffinity 2.12762094
REMARK minimizedRMSD -1
REMARK  0 active torsions:
REMARK  status: ('A' for Active; 'I' for Inactive)
ROOT
ATOM      1  C   UNL d   1      -0.705  -1.833   1.780  0.00  0.00     0.078 C 
ATOM      2  C1  UNL d   1      -0.393  -0.596   0.992  0.00  0.00    -0.077 A 
ATOM      3  C2  UNL d   1      -0.500  -0.584  -0.404  0.00  0.00    -0.001 A 
ATOM      4  C3  UNL d   1      -0.196   0.572  -1.125  0.00  0.00     0.003 A 
ATOM      5  C4  UNL d   1       0.218   1.724  -0.459  0.00  0.00    -0.005 A 
ATOM      6  C5  UNL d   1       0.329   1.721   0.930  0.00  0.00     0.003 A 
ATOM      7  C6  UNL d   1       0.026   0.566   1.653  0.00  0.00    -0.001 A 
ENDROOT
TORSDOF 0
ENDMDL
