MODEL 1
REMARK minimizedAffinity -2.6531744
REMARK minimizedRMSD -1
REMARK  0 active torsions:
REMARK  status: ('A' for Active; 'I' for Inactive)
ROOT
ATOM      1  C   UNL d   1       3.312  -4.849  -1.870  0.00  0.00     0.078 C 
ATOM      2  C1  UNL d   1       3.720  -4.994  -3.306  0.00  0.00    -0.077 A 
ATOM      3  C2  UNL d   1       4.795  -4.264  -3.827  0.00  0.00    -0.001 A 
ATOM      4  C3  UNL d   1       5.157  -4.401  -5.168  0.00  0.00     0.003 A 
ATOM      5  C4  UNL d   1       4.450  -5.267  -5.999  0.00  0.00    -0.005 A 
ATOM      6  C5  UNL d   1       3.377  -5.996  -5.489  0.00  0.00     0.003 A 
ATOM      7  C6  UNL d   1       3.013  -5.860  -4.149  0.00  0.00    -0.001 A 
ENDROOT
TORSDOF 0
ENDMDL
