MODEL 1
REMARK minimizedAffinity -2.95198059
REMARK minimizedRMSD -1
REMARK  0 active torsions:
REMARK  status: ('A' for Active; 'I' for Inactive)
ROOT
ATOM      1  C   UNL d   1       0.767  -0.823   2.345  0.00  0.00     0.078 C 
ATOM      2  C1  UNL d   1       0.711   0.423   1.512  0.00  0.00    -0.077 A 
ATOM      3  C2  UNL d   1      -0.516   0.970   1.115  0.00  0.00    -0.001 A 
ATOM      4  C3  UNL d   1      -0.553   2.125   0.332  0.00  0.00     0.003 A 
ATOM      5  C4  UNL d   1       0.633   2.741  -0.062  0.00  0.00    -0.005 A 
ATOM      6  C5  UNL d   1       1.858   2.203   0.326  0.00  0.00     0.003 A 
ATOM      7  C6  UNL d   1       1.897   1.048   1.109  0.00  0.00    -0.001 A 
ENDROOT
TORSDOF 0
ENDMDL
