MODEL 1
REMARK minimizedAffinity 1.23398089
REMARK minimizedRMSD -1
REMARK  0 active torsions:
REMARK  status: ('A' for Active; 'I' for Inactive)
ROOT
ATOM      1  C   UNL d   1       2.557  -4.559  -1.083  0.00  0.00     0.078 C 
ATOM      2  C1  UNL d   1       1.352  -3.669  -1.138  0.00  0.00    -0.077 A 
ATOM      3  C2  UNL d   1       0.346  -3.874  -2.091  0.00  0.00    -0.001 A 
ATOM      4  C3  UNL d   1      -0.765  -3.031  -2.137  0.00  0.00     0.003 A 
ATOM      5  C4  UNL d   1      -0.881  -1.976  -1.233  0.00  0.00    -0.005 A 
ATOM      6  C5  UNL d   1       0.115  -1.763  -0.283  0.00  0.00     0.003 A 
ATOM      7  C6  UNL d   1       1.228  -2.605  -0.236  0.00  0.00    -0.001 A 
ENDROOT
TORSDOF 0
ENDMDL
