MODEL 1
REMARK minimizedAffinity 9.55507946
REMARK minimizedRMSD -1
REMARK  0 active torsions:
REMARK  status: ('A' for Active; 'I' for Inactive)
ROOT
ATOM      1  C   UNL d   1      -0.866   5.289   1.138  0.00  0.00     0.078 C 
ATOM      2  C1  UNL d   1      -0.412   3.968   0.592  0.00  0.00    -0.077 A 
ATOM      3  C2  UNL d   1      -1.245   2.843   0.642  0.00  0.00    -0.001 A 
ATOM      4  C3  UNL d   1      -0.806   1.617   0.138  0.00  0.00     0.003 A 
ATOM      5  C4  UNL d   1       0.467   1.504  -0.417  0.00  0.00    -0.005 A 
ATOM      6  C5  UNL d   1       1.303   2.618  -0.469  0.00  0.00     0.003 A 
ATOM      7  C6  UNL d   1       0.866   3.844   0.034  0.00  0.00    -0.001 A 
ENDROOT
TORSDOF 0
ENDMDL
