MODEL 1
REMARK minimizedAffinity 5.89338064
REMARK minimizedRMSD -1
REMARK  0 active torsions:
REMARK  status: ('A' for Active; 'I' for Inactive)
ROOT
ATOM      1  C   UNL d   1       2.963   1.124   0.759  0.00  0.00     0.078 C 
ATOM      2  C1  UNL d   1       1.514   1.144   0.374  0.00  0.00    -0.077 A 
ATOM      3  C2  UNL d   1       0.716   0.002   0.509  0.00  0.00    -0.001 A 
ATOM      4  C3  UNL d   1      -0.629   0.033   0.138  0.00  0.00     0.003 A 
ATOM      5  C4  UNL d   1      -1.188   1.204  -0.372  0.00  0.00    -0.005 A 
ATOM      6  C5  UNL d   1      -0.400   2.345  -0.512  0.00  0.00     0.003 A 
ATOM      7  C6  UNL d   1       0.945   2.316  -0.141  0.00  0.00    -0.001 A 
ENDROOT
TORSDOF 0
ENDMDL
