MODEL 1
REMARK minimizedAffinity 2.36655116
REMARK minimizedRMSD -1
REMARK  0 active torsions:
REMARK  status: ('A' for Active; 'I' for Inactive)
ROOT
ATOM      1  C   UNL d   1      -0.736   0.102  -0.340  0.00  0.00     0.078 C 
ATOM      2  C1  UNL d   1      -1.520   0.466  -1.566  0.00  0.00    -0.077 A 
ATOM      3  C2  UNL d   1      -1.437  -0.307  -2.731  0.00  0.00    -0.001 A 
ATOM      4  C3  UNL d   1      -2.165   0.049  -3.867  0.00  0.00     0.003 A 
ATOM      5  C4  UNL d   1      -2.981   1.179  -3.850  0.00  0.00    -0.005 A 
ATOM      6  C5  UNL d   1      -3.068   1.955  -2.696  0.00  0.00     0.003 A 
ATOM      7  C6  UNL d   1      -2.341   1.601  -1.559  0.00  0.00    -0.001 A 
ENDROOT
TORSDOF 0
ENDMDL
