MODEL 1
REMARK minimizedAffinity -0.982899845
REMARK minimizedRMSD -1
REMARK  0 active torsions:
REMARK  status: ('A' for Active; 'I' for Inactive)
ROOT
ATOM      1  C   UNL d   1       4.103  -1.702  -4.195  0.00  0.00     0.078 C 
ATOM      2  C1  UNL d   1       3.982  -3.173  -4.464  0.00  0.00    -0.077 A 
ATOM      3  C2  UNL d   1       3.567  -4.058  -3.461  0.00  0.00    -0.001 A 
ATOM      4  C3  UNL d   1       3.468  -5.425  -3.723  0.00  0.00     0.003 A 
ATOM      5  C4  UNL d   1       3.783  -5.920  -4.987  0.00  0.00    -0.005 A 
ATOM      6  C5  UNL d   1       4.199  -5.047  -5.991  0.00  0.00     0.003 A 
ATOM      7  C6  UNL d   1       4.299  -3.680  -5.731  0.00  0.00    -0.001 A 
ENDROOT
TORSDOF 0
ENDMDL
