MODEL 1
REMARK minimizedAffinity 4.107687
REMARK minimizedRMSD -1
REMARK  0 active torsions:
REMARK  status: ('A' for Active; 'I' for Inactive)
ROOT
ATOM      1  C   UNL d   1       0.018  -1.378   1.011  0.00  0.00     0.078 C 
ATOM      2  C1  UNL d   1       0.283   0.054   0.654  0.00  0.00    -0.077 A 
ATOM      3  C2  UNL d   1      -0.754   0.896   0.234  0.00  0.00    -0.001 A 
ATOM      4  C3  UNL d   1      -0.492   2.224  -0.105  0.00  0.00     0.003 A 
ATOM      5  C4  UNL d   1       0.807   2.722  -0.029  0.00  0.00    -0.005 A 
ATOM      6  C5  UNL d   1       1.846   1.891   0.386  0.00  0.00     0.003 A 
ATOM      7  C6  UNL d   1       1.585   0.563   0.726  0.00  0.00    -0.001 A 
ENDROOT
TORSDOF 0
ENDMDL
