MODEL 1
REMARK minimizedAffinity 6.10561323
REMARK minimizedRMSD -1
REMARK  2 active torsions:
REMARK  status: ('A' for Active; 'I' for Inactive)
REMARK    1  A    between atoms: C2'_3  and  C1'_4 
REMARK    2  A    between atoms: C1'_4  and  C1_5 
ROOT
ATOM      1  C1  I4B d   1      -0.390  -1.914   2.474  0.00  0.00    -0.075 A 
ATOM      2  C2  I4B d   1      -1.295  -2.891   2.807  0.00  0.00     0.003 A 
ATOM      3  C3  I4B d   1      -0.983  -4.255   2.589  0.00  0.00     0.002 A 
ATOM      4  C4  I4B d   1       0.215  -4.591   1.993  0.00  0.00    -0.004 A 
ATOM      5  C5  I4B d   1       1.141  -3.601   1.678  0.00  0.00     0.002 A 
ATOM      6  C6  I4B d   1       0.842  -2.254   1.931  0.00  0.00     0.003 A 
ENDROOT
BRANCH   1   7
ATOM      7  C1' I4B d   1      -0.765  -0.482   2.688  0.00  0.00     0.060 C 
BRANCH   7   8
ATOM      8  C2' I4B d   1      -1.204   0.090   1.355  0.00  0.00    -0.013 C 
ATOM      9  C4' I4B d   1      -0.254  -0.303   0.254  0.00  0.00     0.013 C 
ATOM     10  C3' I4B d   1      -2.592  -0.402   1.074  0.00  0.00     0.013 C 
ENDBRANCH   7   8
ENDBRANCH   1   7
TORSDOF 2
ENDMDL
