MODEL 1
REMARK minimizedAffinity 7.52078342
REMARK minimizedRMSD -1
REMARK  2 active torsions:
REMARK  status: ('A' for Active; 'I' for Inactive)
REMARK    1  A    between atoms: C2'_3  and  C1'_4 
REMARK    2  A    between atoms: C1'_4  and  C1_5 
ROOT
ATOM      1  C1  I4B d   1       4.320   3.307   0.203  0.00  0.00    -0.075 A 
ATOM      2  C2  I4B d   1       4.022   2.628  -0.952  0.00  0.00     0.003 A 
ATOM      3  C3  I4B d   1       4.538   1.327  -1.167  0.00  0.00     0.002 A 
ATOM      4  C4  I4B d   1       5.384   0.768  -0.232  0.00  0.00    -0.004 A 
ATOM      5  C5  I4B d   1       5.668   1.449   0.949  0.00  0.00     0.002 A 
ATOM      6  C6  I4B d   1       5.122   2.721   1.174  0.00  0.00     0.003 A 
ENDROOT
BRANCH   1   7
ATOM      7  C1' I4B d   1       3.785   4.692   0.384  0.00  0.00     0.060 C 
BRANCH   7   8
ATOM      8  C2' I4B d   1       4.009   5.095   1.827  0.00  0.00    -0.013 C 
ATOM      9  C4' I4B d   1       5.208   5.996   1.962  0.00  0.00     0.013 C 
ATOM     10  C3' I4B d   1       2.765   5.773   2.318  0.00  0.00     0.013 C 
ENDBRANCH   7   8
ENDBRANCH   1   7
TORSDOF 2
ENDMDL
