MODEL 1
REMARK minimizedAffinity -2.86357021
REMARK minimizedRMSD -1
REMARK  2 active torsions:
REMARK  status: ('A' for Active; 'I' for Inactive)
REMARK    1  A    between atoms: C2'_3  and  C1'_4 
REMARK    2  A    between atoms: C1'_4  and  C1_5 
ROOT
ATOM      1  C1  I4B d   1       0.124  -1.777   2.458  0.00  0.00    -0.075 A 
ATOM      2  C2  I4B d   1       0.137  -0.988   1.335  0.00  0.00     0.003 A 
ATOM      3  C3  I4B d   1      -1.001  -0.219   0.991  0.00  0.00     0.002 A 
ATOM      4  C4  I4B d   1      -2.141  -0.307   1.765  0.00  0.00    -0.004 A 
ATOM      5  C5  I4B d   1      -2.144  -1.090   2.916  0.00  0.00     0.002 A 
ATOM      6  C6  I4B d   1      -1.001  -1.821   3.271  0.00  0.00     0.003 A 
ENDROOT
BRANCH   1   7
ATOM      7  C1' I4B d   1       1.332  -2.602   2.773  0.00  0.00     0.060 C 
BRANCH   7   8
ATOM      8  C2' I4B d   1       1.598  -3.510   1.590  0.00  0.00    -0.013 C 
ATOM      9  C4' I4B d   1       3.039  -3.947   1.552  0.00  0.00     0.013 C 
ATOM     10  C3' I4B d   1       0.678  -4.690   1.696  0.00  0.00     0.013 C 
ENDBRANCH   7   8
ENDBRANCH   1   7
TORSDOF 2
ENDMDL
