MODEL 1
REMARK minimizedAffinity 0.327210456
REMARK minimizedRMSD -1
REMARK  2 active torsions:
REMARK  status: ('A' for Active; 'I' for Inactive)
REMARK    1  A    between atoms: C2'_3  and  C1'_4 
REMARK    2  A    between atoms: C1'_4  and  C1_5 
ROOT
ATOM      1  C1  I4B d   1       0.229  -1.202   0.969  0.00  0.00    -0.075 A 
ATOM      2  C2  I4B d   1      -0.279  -0.855  -0.258  0.00  0.00     0.003 A 
ATOM      3  C3  I4B d   1      -1.604  -0.371  -0.370  0.00  0.00     0.002 A 
ATOM      4  C4  I4B d   1      -2.399  -0.298   0.756  0.00  0.00    -0.004 A 
ATOM      5  C5  I4B d   1      -1.875  -0.628   2.003  0.00  0.00     0.002 A 
ATOM      6  C6  I4B d   1      -0.549  -1.072   2.112  0.00  0.00     0.003 A 
ENDROOT
BRANCH   1   7
ATOM      7  C1' I4B d   1       1.622  -1.742   1.047  0.00  0.00     0.060 C 
BRANCH   7   8
ATOM      8  C2' I4B d   1       1.600  -2.965   1.940  0.00  0.00    -0.013 C 
ATOM      9  C4' I4B d   1       2.213  -4.155   1.250  0.00  0.00     0.013 C 
ATOM     10  C3' I4B d   1       2.339  -2.630   3.201  0.00  0.00     0.013 C 
ENDBRANCH   7   8
ENDBRANCH   1   7
TORSDOF 2
ENDMDL
