MODEL 1
REMARK minimizedAffinity -1.60885537
REMARK minimizedRMSD -1
REMARK  2 active torsions:
REMARK  status: ('A' for Active; 'I' for Inactive)
REMARK    1  A    between atoms: C2'_3  and  C1'_4 
REMARK    2  A    between atoms: C1'_4  and  C1_5 
ROOT
ATOM      1  C1  I4B d   1      -0.089  -1.401   1.641  0.00  0.00    -0.075 A 
ATOM      2  C2  I4B d   1       0.275  -1.093   0.353  0.00  0.00     0.003 A 
ATOM      3  C3  I4B d   1      -0.633  -0.425  -0.503  0.00  0.00     0.002 A 
ATOM      4  C4  I4B d   1      -1.903  -0.130  -0.051  0.00  0.00    -0.004 A 
ATOM      5  C5  I4B d   1      -2.262  -0.422   1.262  0.00  0.00     0.002 A 
ATOM      6  C6  I4B d   1      -1.345  -1.051   2.117  0.00  0.00     0.003 A 
ENDROOT
BRANCH   1   7
ATOM      7  C1' I4B d   1       0.883  -2.136   2.508  0.00  0.00     0.060 C 
BRANCH   7   8
ATOM      8  C2' I4B d   1       1.262  -3.421   1.799  0.00  0.00    -0.013 C 
ATOM      9  C4' I4B d   1       2.577  -3.954   2.303  0.00  0.00     0.013 C 
ATOM     10  C3' I4B d   1       0.157  -4.412   2.016  0.00  0.00     0.013 C 
ENDBRANCH   7   8
ENDBRANCH   1   7
TORSDOF 2
ENDMDL
