MODEL 1
REMARK minimizedAffinity -2.08719468
REMARK minimizedRMSD -1
REMARK  2 active torsions:
REMARK  status: ('A' for Active; 'I' for Inactive)
REMARK    1  A    between atoms: C2'_3  and  C1'_4 
REMARK    2  A    between atoms: C1'_4  and  C1_5 
ROOT
ATOM      1  C1  I4B d   1       0.455  -1.710   1.442  0.00  0.00    -0.075 A 
ATOM      2  C2  I4B d   1      -0.073  -1.516   2.694  0.00  0.00     0.003 A 
ATOM      3  C3  I4B d   1      -1.323  -0.870   2.848  0.00  0.00     0.002 A 
ATOM      4  C4  I4B d   1      -1.983  -0.392   1.734  0.00  0.00    -0.004 A 
ATOM      5  C5  I4B d   1      -1.457  -0.609   0.464  0.00  0.00     0.002 A 
ATOM      6  C6  I4B d   1      -0.236  -1.283   0.315  0.00  0.00     0.003 A 
ENDROOT
BRANCH   1   7
ATOM      7  C1' I4B d   1       1.794  -2.366   1.317  0.00  0.00     0.060 C 
BRANCH   7   8
ATOM      8  C2' I4B d   1       1.734  -3.691   2.051  0.00  0.00    -0.013 C 
ATOM      9  C4' I4B d   1       1.970  -4.845   1.112  0.00  0.00     0.013 C 
ATOM     10  C3' I4B d   1       2.761  -3.662   3.143  0.00  0.00     0.013 C 
ENDBRANCH   7   8
ENDBRANCH   1   7
TORSDOF 2
ENDMDL
