MODEL 1
REMARK minimizedAffinity -4.2835784
REMARK minimizedRMSD -1
REMARK  1 active torsions:
REMARK  status: ('A' for Active; 'I' for Inactive)
REMARK    1  A    between atoms: C1_2  and  C2_3 
ROOT
ATOM      1  C2  UNL d   1      -0.238  -0.097  -0.295  0.00  0.00    -0.073 A 
ATOM      2  C3  UNL d   1      -0.206   1.270   0.004  0.00  0.00    -0.002 A 
ATOM      3  C4  UNL d   1       0.940   1.845   0.553  0.00  0.00     0.004 A 
ATOM      4  C5  UNL d   1       2.068   1.062   0.802  0.00  0.00    -0.004 A 
ATOM      5  C6  UNL d   1       2.059  -0.303   0.500  0.00  0.00    -0.075 A 
ATOM      6  C7  UNL d   1       3.263  -1.159   0.764  0.00  0.00     0.076 C 
ATOM      7  C8  UNL d   1       0.903  -0.874  -0.049  0.00  0.00     0.001 A 
ENDROOT
BRANCH   1   8
ATOM      8  C1  UNL d   1      -1.472  -0.721  -0.893  0.00  0.00     0.053 C 
ATOM      9  C   UNL d   1      -2.223   0.249  -1.791  0.00  0.00     0.018 C 
ENDBRANCH   1   8
TORSDOF 1
ENDMDL
