MODEL 1
REMARK minimizedAffinity -3.74234033
REMARK minimizedRMSD -1
REMARK  1 active torsions:
REMARK  status: ('A' for Active; 'I' for Inactive)
REMARK    1  A    between atoms: C1_2  and  C2_3 
ROOT
ATOM      1  C2  UNL d   1      -0.265   0.143  -0.241  0.00  0.00    -0.073 A 
ATOM      2  C3  UNL d   1       0.256   1.055  -1.166  0.00  0.00    -0.002 A 
ATOM      3  C4  UNL d   1       1.544   1.566  -1.002  0.00  0.00     0.004 A 
ATOM      4  C5  UNL d   1       2.325   1.168   0.083  0.00  0.00    -0.004 A 
ATOM      5  C6  UNL d   1       1.825   0.249   1.012  0.00  0.00    -0.075 A 
ATOM      6  C7  UNL d   1       2.652  -0.188   2.185  0.00  0.00     0.076 C 
ATOM      7  C8  UNL d   1       0.530  -0.259   0.841  0.00  0.00     0.001 A 
ENDROOT
BRANCH   1   8
ATOM      8  C1  UNL d   1      -1.653  -0.417  -0.418  0.00  0.00     0.053 C 
ATOM      9  C   UNL d   1      -2.258  -0.028  -1.757  0.00  0.00     0.018 C 
ENDBRANCH   1   8
TORSDOF 1
ENDMDL
