MODEL 1
REMARK minimizedAffinity -5.1556735
REMARK minimizedRMSD -1
REMARK  1 active torsions:
REMARK  status: ('A' for Active; 'I' for Inactive)
REMARK    1  A    between atoms: C1_2  and  C2_3 
ROOT
ATOM      1  C2  UNL d   1      -0.742   0.699  -0.401  0.00  0.00    -0.073 A 
ATOM      2  C3  UNL d   1       0.351   1.573  -0.430  0.00  0.00    -0.002 A 
ATOM      3  C4  UNL d   1       1.550   1.223   0.192  0.00  0.00     0.004 A 
ATOM      4  C5  UNL d   1       1.672  -0.005   0.841  0.00  0.00    -0.004 A 
ATOM      5  C6  UNL d   1       0.595  -0.898   0.870  0.00  0.00    -0.075 A 
ATOM      6  C7  UNL d   1       0.710  -2.222   1.566  0.00  0.00     0.076 C 
ATOM      7  C8  UNL d   1      -0.607  -0.538   0.246  0.00  0.00     0.001 A 
ENDROOT
BRANCH   1   8
ATOM      8  C1  UNL d   1      -2.037   1.070  -1.076  0.00  0.00     0.053 C 
ATOM      9  C   UNL d   1      -2.354   0.151  -2.245  0.00  0.00     0.018 C 
ENDBRANCH   1   8
TORSDOF 1
ENDMDL
