MODEL 1
REMARK minimizedAffinity 29.0788612
REMARK minimizedRMSD -1
REMARK  0 active torsions:
REMARK  status: ('A' for Active; 'I' for Inactive)
ROOT
ATOM      1  C   UNL d   1       0.939   4.945  -1.153  0.00  0.00    -0.002 A 
ATOM      2  C1  UNL d   1       0.914   4.938   0.235  0.00  0.00     0.010 A 
ATOM      3  C2  UNL d   1       1.441   3.860   0.949  0.00  0.00     0.041 A 
ATOM      4  C3  UNL d   1       2.001   2.780   0.238  0.00  0.00    -0.075 A 
ATOM      5  S   UNL d   1       2.706   1.353   0.901  0.00  0.00     0.015 SA
ATOM      6  C4  UNL d   1       3.057   0.720  -0.642  0.00  0.00     0.022 A 
ATOM      7  C5  UNL d   1       2.653   1.563  -1.650  0.00  0.00     0.026 A 
ATOM      8  C6  UNL d   1       2.038   2.764  -1.159  0.00  0.00    -0.082 A 
ATOM      9  C7  UNL d   1       1.495   3.872  -1.854  0.00  0.00     0.045 A 
ENDROOT
TORSDOF 0
ENDMDL
