MODEL 1
REMARK minimizedAffinity 21.5516968
REMARK minimizedRMSD -1
REMARK  0 active torsions:
REMARK  status: ('A' for Active; 'I' for Inactive)
ROOT
ATOM      1  C   UNL d   1      -2.906   0.540   3.922  0.00  0.00    -0.002 A 
ATOM      2  C1  UNL d   1      -2.649   0.690   5.278  0.00  0.00     0.010 A 
ATOM      3  C2  UNL d   1      -3.216   1.744   5.996  0.00  0.00     0.041 A 
ATOM      4  C3  UNL d   1      -4.055   2.654   5.323  0.00  0.00    -0.075 A 
ATOM      5  S   UNL d   1      -4.860   4.020   5.999  0.00  0.00     0.015 SA
ATOM      6  C4  UNL d   1      -5.565   4.437   4.505  0.00  0.00     0.022 A 
ATOM      7  C5  UNL d   1      -5.206   3.566   3.504  0.00  0.00     0.026 A 
ATOM      8  C6  UNL d   1      -4.330   2.524   3.959  0.00  0.00    -0.082 A 
ATOM      9  C7  UNL d   1      -3.739   1.445   3.258  0.00  0.00     0.045 A 
ENDROOT
TORSDOF 0
ENDMDL
