MODEL 1
REMARK minimizedAffinity 26.7610054
REMARK minimizedRMSD -1
REMARK  0 active torsions:
REMARK  status: ('A' for Active; 'I' for Inactive)
ROOT
ATOM      1  C   UNL d   1      -6.000   4.385  -5.993  0.00  0.00    -0.002 A 
ATOM      2  C1  UNL d   1      -5.306   5.587  -5.984  0.00  0.00     0.010 A 
ATOM      3  C2  UNL d   1      -3.926   5.609  -5.771  0.00  0.00     0.041 A 
ATOM      4  C3  UNL d   1      -3.249   4.391  -5.566  0.00  0.00    -0.075 A 
ATOM      5  S   UNL d   1      -1.561   4.174  -5.286  0.00  0.00     0.015 SA
ATOM      6  C4  UNL d   1      -1.722   2.482  -5.172  0.00  0.00     0.022 A 
ATOM      7  C5  UNL d   1      -3.024   2.074  -5.341  0.00  0.00     0.026 A 
ATOM      8  C6  UNL d   1      -3.925   3.168  -5.571  0.00  0.00    -0.082 A 
ATOM      9  C7  UNL d   1      -5.324   3.179  -5.789  0.00  0.00     0.045 A 
ENDROOT
TORSDOF 0
ENDMDL
