MODEL 1
REMARK minimizedAffinity 18.4430103
REMARK minimizedRMSD -1
REMARK  0 active torsions:
REMARK  status: ('A' for Active; 'I' for Inactive)
ROOT
ATOM      1  C   UNL d   1      -0.260  -3.950  -0.666  0.00  0.00    -0.002 A 
ATOM      2  C1  UNL d   1      -0.762  -3.700  -1.935  0.00  0.00     0.010 A 
ATOM      3  C2  UNL d   1      -0.342  -2.581  -2.657  0.00  0.00     0.041 A 
ATOM      4  C3  UNL d   1       0.601  -1.710  -2.077  0.00  0.00    -0.075 A 
ATOM      5  S   UNL d   1       1.261  -0.279  -2.775  0.00  0.00     0.015 SA
ATOM      6  C4  UNL d   1       2.226   0.034  -1.405  0.00  0.00     0.022 A 
ATOM      7  C5  UNL d   1       2.061  -0.921  -0.430  0.00  0.00     0.026 A 
ATOM      8  C6  UNL d   1       1.122  -1.942  -0.801  0.00  0.00    -0.082 A 
ATOM      9  C7  UNL d   1       0.676  -3.085  -0.094  0.00  0.00     0.045 A 
ENDROOT
TORSDOF 0
ENDMDL
