MODEL 1
REMARK minimizedAffinity 9.38556576
REMARK minimizedRMSD -1
REMARK  0 active torsions:
REMARK  status: ('A' for Active; 'I' for Inactive)
ROOT
ATOM      1  C   UNL d   1      -5.187  -1.213   3.726  0.00  0.00    -0.002 A 
ATOM      2  C1  UNL d   1      -4.147  -0.626   3.019  0.00  0.00     0.010 A 
ATOM      3  C2  UNL d   1      -3.752   0.685   3.294  0.00  0.00     0.041 A 
ATOM      4  C3  UNL d   1      -4.425   1.402   4.302  0.00  0.00    -0.075 A 
ATOM      5  S   UNL d   1      -4.114   3.019   4.811  0.00  0.00     0.015 SA
ATOM      6  C4  UNL d   1      -5.354   2.969   5.980  0.00  0.00     0.022 A 
ATOM      7  C5  UNL d   1      -6.000   1.756   5.994  0.00  0.00     0.026 A 
ATOM      8  C6  UNL d   1      -5.475   0.833   5.028  0.00  0.00    -0.082 A 
ATOM      9  C7  UNL d   1      -5.853  -0.498   4.725  0.00  0.00     0.045 A 
ENDROOT
TORSDOF 0
ENDMDL
