MODEL 1
REMARK minimizedAffinity 3.37734532
REMARK minimizedRMSD -1
REMARK  0 active torsions:
REMARK  status: ('A' for Active; 'I' for Inactive)
ROOT
ATOM      1  C   UNL d   1       3.405  -6.000  -1.808  0.00  0.00    -0.002 A 
ATOM      2  C1  UNL d   1       2.228  -5.955  -2.540  0.00  0.00     0.010 A 
ATOM      3  C2  UNL d   1       1.511  -4.763  -2.661  0.00  0.00     0.041 A 
ATOM      4  C3  UNL d   1       2.004  -3.605  -2.029  0.00  0.00    -0.075 A 
ATOM      5  S   UNL d   1       1.296  -2.033  -2.040  0.00  0.00     0.015 SA
ATOM      6  C4  UNL d   1       2.540  -1.383  -1.074  0.00  0.00     0.022 A 
ATOM      7  C5  UNL d   1       3.481  -2.329  -0.741  0.00  0.00     0.026 A 
ATOM      8  C6  UNL d   1       3.188  -3.624  -1.286  0.00  0.00    -0.082 A 
ATOM      9  C7  UNL d   1       3.891  -4.849  -1.182  0.00  0.00     0.045 A 
ENDROOT
TORSDOF 0
ENDMDL
