MODEL 1
REMARK minimizedAffinity 13.9029083
REMARK minimizedRMSD -1
REMARK  0 active torsions:
REMARK  status: ('A' for Active; 'I' for Inactive)
ROOT
ATOM      1  C   UNL d   1       1.134   0.441   3.756  0.00  0.00    -0.002 A 
ATOM      2  C1  UNL d   1       0.744   0.912   5.002  0.00  0.00     0.010 A 
ATOM      3  C2  UNL d   1      -0.577   1.299   5.233  0.00  0.00     0.041 A 
ATOM      4  C3  UNL d   1      -1.510   1.201   4.182  0.00  0.00    -0.075 A 
ATOM      5  S   UNL d   1      -3.183   1.617   4.235  0.00  0.00     0.015 SA
ATOM      6  C4  UNL d   1      -3.420   1.176   2.605  0.00  0.00     0.022 A 
ATOM      7  C5  UNL d   1      -2.262   0.722   2.020  0.00  0.00     0.026 A 
ATOM      8  C6  UNL d   1      -1.142   0.728   2.919  0.00  0.00    -0.082 A 
ATOM      9  C7  UNL d   1       0.205   0.345   2.716  0.00  0.00     0.045 A 
ENDROOT
TORSDOF 0
ENDMDL
