MODEL 1
REMARK minimizedAffinity 16.7641773
REMARK minimizedRMSD -1
REMARK  0 active torsions:
REMARK  status: ('A' for Active; 'I' for Inactive)
ROOT
ATOM      1  C   UNL d   1       0.938   5.003  -1.401  0.00  0.00    -0.002 A 
ATOM      2  C1  UNL d   1       0.567   5.260  -0.089  0.00  0.00     0.010 A 
ATOM      3  C2  UNL d   1       0.840   4.335   0.921  0.00  0.00     0.041 A 
ATOM      4  C3  UNL d   1       1.500   3.136   0.587  0.00  0.00    -0.075 A 
ATOM      5  S   UNL d   1       1.938   1.858   1.658  0.00  0.00     0.015 SA
ATOM      6  C4  UNL d   1       2.629   0.940   0.399  0.00  0.00     0.022 A 
ATOM      7  C5  UNL d   1       2.536   1.578  -0.815  0.00  0.00     0.026 A 
ATOM      8  C6  UNL d   1       1.884   2.855  -0.727  0.00  0.00    -0.082 A 
ATOM      9  C7  UNL d   1       1.593   3.812  -1.728  0.00  0.00     0.045 A 
ENDROOT
TORSDOF 0
ENDMDL
