MODEL 1
REMARK minimizedAffinity 8.96371365
REMARK minimizedRMSD -1
REMARK  0 active torsions:
REMARK  status: ('A' for Active; 'I' for Inactive)
ROOT
ATOM      1  C   UNL d   1      -5.856  -3.900  -6.000  0.00  0.00    -0.002 A 
ATOM      2  C1  UNL d   1      -5.978  -5.278  -5.889  0.00  0.00     0.010 A 
ATOM      3  C2  UNL d   1      -5.130  -6.000  -5.046  0.00  0.00     0.041 A 
ATOM      4  C3  UNL d   1      -4.150  -5.307  -4.309  0.00  0.00    -0.075 A 
ATOM      5  S   UNL d   1      -3.002  -5.982  -3.214  0.00  0.00     0.015 SA
ATOM      6  C4  UNL d   1      -2.324  -4.457  -2.868  0.00  0.00     0.022 A 
ATOM      7  C5  UNL d   1      -2.946  -3.446  -3.562  0.00  0.00     0.026 A 
ATOM      8  C6  UNL d   1      -4.009  -3.919  -4.404  0.00  0.00    -0.082 A 
ATOM      9  C7  UNL d   1      -4.883  -3.216  -5.267  0.00  0.00     0.045 A 
ENDROOT
TORSDOF 0
ENDMDL
