MODEL 1
REMARK minimizedAffinity 11.4277678
REMARK minimizedRMSD -1
REMARK  0 active torsions:
REMARK  status: ('A' for Active; 'I' for Inactive)
ROOT
ATOM      1  C   UNL d   1      -4.491  -0.409   2.507  0.00  0.00    -0.002 A 
ATOM      2  C1  UNL d   1      -4.461  -1.010   3.757  0.00  0.00     0.010 A 
ATOM      3  C2  UNL d   1      -3.716  -0.450   4.797  0.00  0.00     0.041 A 
ATOM      4  C3  UNL d   1      -2.995   0.736   4.557  0.00  0.00    -0.075 A 
ATOM      5  S   UNL d   1      -2.014   1.602   5.680  0.00  0.00     0.015 SA
ATOM      6  C4  UNL d   1      -1.612   2.790   4.527  0.00  0.00     0.022 A 
ATOM      7  C5  UNL d   1      -2.203   2.549   3.309  0.00  0.00     0.026 A 
ATOM      8  C6  UNL d   1      -3.010   1.361   3.307  0.00  0.00    -0.082 A 
ATOM      9  C7  UNL d   1      -3.775   0.769   2.273  0.00  0.00     0.045 A 
ENDROOT
TORSDOF 0
ENDMDL
