MODEL 1
REMARK minimizedAffinity 22.0429783
REMARK minimizedRMSD -1
REMARK  0 active torsions:
REMARK  status: ('A' for Active; 'I' for Inactive)
ROOT
ATOM      1  C   UNL d   1       1.272  -0.337  -3.356  0.00  0.00    -0.002 A 
ATOM      2  C1  UNL d   1       1.645  -1.421  -2.573  0.00  0.00     0.010 A 
ATOM      3  C2  UNL d   1       2.374  -1.230  -1.398  0.00  0.00     0.041 A 
ATOM      4  C3  UNL d   1       2.724   0.081  -1.018  0.00  0.00    -0.075 A 
ATOM      5  S   UNL d   1       3.613   0.556   0.381  0.00  0.00     0.015 SA
ATOM      6  C4  UNL d   1       3.517   2.208  -0.027  0.00  0.00     0.022 A 
ATOM      7  C5  UNL d   1       2.828   2.410  -1.199  0.00  0.00     0.026 A 
ATOM      8  C6  UNL d   1       2.359   1.188  -1.789  0.00  0.00    -0.082 A 
ATOM      9  C7  UNL d   1       1.621   0.962  -2.976  0.00  0.00     0.045 A 
ENDROOT
TORSDOF 0
ENDMDL
