MODEL 1
REMARK minimizedAffinity 6.10615396
REMARK minimizedRMSD -1
REMARK  0 active torsions:
REMARK  status: ('A' for Active; 'I' for Inactive)
ROOT
ATOM      1  C   UNL d   1       0.818   3.187   0.849  0.00  0.00     0.124 A 
ATOM      2  C1  UNL d   1       1.027   3.609  -0.456  0.00  0.00     0.062 A 
ATOM      3  C2  UNL d   1      -0.014   3.572  -1.379  0.00  0.00     0.162 A 
ATOM      4  C3  UNL d   1      -1.275   3.112  -1.000  0.00  0.00    -0.034 A 
ATOM      5  C4  UNL d   1      -1.477   2.688   0.315  0.00  0.00     0.162 A 
ATOM      6  C5  UNL d   1      -0.433   2.727   1.233  0.00  0.00     0.062 A 
ATOM      7  F   UNL d   1      -0.638   2.319   2.494  0.00  0.00    -0.097 F 
ATOM      8  F1  UNL d   1      -2.677   2.239   0.713  0.00  0.00    -0.096 F 
ATOM      9  I   UNL d   1      -2.834   3.054  -2.377  0.00  0.00    -0.060 I 
ATOM     10  F2  UNL d   1       0.217   3.986  -2.634  0.00  0.00    -0.096 F 
ATOM     11  F3  UNL d   1       2.236   4.054  -0.830  0.00  0.00    -0.097 F 
ATOM     12  F4  UNL d   1       1.822   3.223   1.735  0.00  0.00    -0.092 F 
ENDROOT
TORSDOF 0
ENDMDL
