MODEL 1
REMARK minimizedAffinity 24.6434288
REMARK minimizedRMSD -1
REMARK  0 active torsions:
REMARK  status: ('A' for Active; 'I' for Inactive)
ROOT
ATOM      1  C   UNL d   1       3.665  -4.484  -0.880  0.00  0.00     0.124 A 
ATOM      2  C1  UNL d   1       4.776  -4.841  -1.633  0.00  0.00     0.062 A 
ATOM      3  C2  UNL d   1       4.623  -5.263  -2.950  0.00  0.00     0.162 A 
ATOM      4  C3  UNL d   1       3.353  -5.329  -3.525  0.00  0.00    -0.034 A 
ATOM      5  C4  UNL d   1       2.241  -4.970  -2.762  0.00  0.00     0.162 A 
ATOM      6  C5  UNL d   1       2.399  -4.548  -1.445  0.00  0.00     0.062 A 
ATOM      7  F   UNL d   1       1.325  -4.204  -0.720  0.00  0.00    -0.097 F 
ATOM      8  F1  UNL d   1       1.006  -5.022  -3.283  0.00  0.00    -0.096 F 
ATOM      9  I   UNL d   1       3.120  -5.960  -5.494  0.00  0.00    -0.060 I 
ATOM     10  F2  UNL d   1       5.713  -5.602  -3.653  0.00  0.00    -0.096 F 
ATOM     11  F3  UNL d   1       6.000  -4.780  -1.089  0.00  0.00    -0.097 F 
ATOM     12  F4  UNL d   1       3.815  -4.079   0.387  0.00  0.00    -0.092 F 
ENDROOT
TORSDOF 0
ENDMDL
