MODEL 1
REMARK minimizedAffinity 13.1585674
REMARK minimizedRMSD -1
REMARK  0 active torsions:
REMARK  status: ('A' for Active; 'I' for Inactive)
ROOT
ATOM      1  C   UNL d   1       0.050   2.567   0.961  0.00  0.00     0.124 A 
ATOM      2  C1  UNL d   1      -0.886   2.471  -0.060  0.00  0.00     0.062 A 
ATOM      3  C2  UNL d   1      -0.745   3.238  -1.213  0.00  0.00     0.162 A 
ATOM      4  C3  UNL d   1       0.337   4.108  -1.351  0.00  0.00    -0.034 A 
ATOM      5  C4  UNL d   1       1.273   4.200  -0.320  0.00  0.00     0.162 A 
ATOM      6  C5  UNL d   1       1.128   3.431   0.830  0.00  0.00     0.062 A 
ATOM      7  F   UNL d   1       2.032   3.525   1.815  0.00  0.00    -0.097 F 
ATOM      8  F1  UNL d   1       2.324   5.027  -0.420  0.00  0.00    -0.096 F 
ATOM      9  I   UNL d   1       0.550   5.258  -3.073  0.00  0.00    -0.060 I 
ATOM     10  F2  UNL d   1      -1.664   3.125  -2.184  0.00  0.00    -0.096 F 
ATOM     11  F3  UNL d   1      -1.928   1.637   0.064  0.00  0.00    -0.097 F 
ATOM     12  F4  UNL d   1      -0.089   1.828   2.069  0.00  0.00    -0.092 F 
ENDROOT
TORSDOF 0
ENDMDL
