MODEL 1
REMARK minimizedAffinity 6.35387611
REMARK minimizedRMSD -1
REMARK  0 active torsions:
REMARK  status: ('A' for Active; 'I' for Inactive)
ROOT
ATOM      1  C   UNL d   1      -0.044   0.702  -2.387  0.00  0.00     0.124 A 
ATOM      2  C1  UNL d   1      -0.759   1.766  -1.854  0.00  0.00     0.062 A 
ATOM      3  C2  UNL d   1      -0.608   2.110  -0.514  0.00  0.00     0.162 A 
ATOM      4  C3  UNL d   1       0.263   1.391   0.303  0.00  0.00    -0.034 A 
ATOM      5  C4  UNL d   1       0.978   0.321  -0.239  0.00  0.00     0.162 A 
ATOM      6  C5  UNL d   1       0.824  -0.019  -1.579  0.00  0.00     0.062 A 
ATOM      7  F   UNL d   1       1.515  -1.047  -2.091  0.00  0.00    -0.097 F 
ATOM      8  F1  UNL d   1       1.824  -0.392   0.519  0.00  0.00    -0.096 F 
ATOM      9  I   UNL d   1       0.492   1.902   2.308  0.00  0.00    -0.060 I 
ATOM     10  F2  UNL d   1      -1.312   3.143  -0.027  0.00  0.00    -0.096 F 
ATOM     11  F3  UNL d   1      -1.599   2.464  -2.633  0.00  0.00    -0.097 F 
ATOM     12  F4  UNL d   1      -0.192   0.372  -3.676  0.00  0.00    -0.092 F 
ENDROOT
TORSDOF 0
ENDMDL
