MODEL 1
REMARK minimizedAffinity 16.2025661
REMARK minimizedRMSD -1
REMARK  0 active torsions:
REMARK  status: ('A' for Active; 'I' for Inactive)
ROOT
ATOM      1  C   UNL d   1       0.219   4.160  -1.325  0.00  0.00     0.124 A 
ATOM      2  C1  UNL d   1       1.035   4.374  -0.223  0.00  0.00     0.062 A 
ATOM      3  C2  UNL d   1       0.863   3.620   0.933  0.00  0.00     0.162 A 
ATOM      4  C3  UNL d   1      -0.130   2.642   0.994  0.00  0.00    -0.034 A 
ATOM      5  C4  UNL d   1      -0.948   2.432  -0.117  0.00  0.00     0.162 A 
ATOM      6  C5  UNL d   1      -0.771   3.189  -1.271  0.00  0.00     0.062 A 
ATOM      7  F   UNL d   1      -1.561   2.980  -2.335  0.00  0.00    -0.097 F 
ATOM      8  F1  UNL d   1      -1.912   1.500  -0.093  0.00  0.00    -0.096 F 
ATOM      9  I   UNL d   1      -0.391   1.511   2.722  0.00  0.00    -0.060 I 
ATOM     10  F2  UNL d   1       1.666   3.849   1.983  0.00  0.00    -0.096 F 
ATOM     11  F3  UNL d   1       1.992   5.312  -0.272  0.00  0.00    -0.097 F 
ATOM     12  F4  UNL d   1       0.386   4.888  -2.436  0.00  0.00    -0.092 F 
ENDROOT
TORSDOF 0
ENDMDL
