MODEL 1
REMARK minimizedAffinity 8.80659962
REMARK minimizedRMSD -1
REMARK  0 active torsions:
REMARK  status: ('A' for Active; 'I' for Inactive)
ROOT
ATOM      1  C   UNL d   1      -0.792   2.294   0.565  0.00  0.00     0.124 A 
ATOM      2  C1  UNL d   1       0.137   1.877   1.509  0.00  0.00     0.062 A 
ATOM      3  C2  UNL d   1       1.156   1.001   1.147  0.00  0.00     0.162 A 
ATOM      4  C3  UNL d   1       1.253   0.536  -0.164  0.00  0.00    -0.034 A 
ATOM      5  C4  UNL d   1       0.314   0.959  -1.107  0.00  0.00     0.162 A 
ATOM      6  C5  UNL d   1      -0.703   1.835  -0.741  0.00  0.00     0.062 A 
ATOM      7  F   UNL d   1      -1.599   2.237  -1.654  0.00  0.00    -0.097 F 
ATOM      8  F1  UNL d   1       0.378   0.532  -2.377  0.00  0.00    -0.096 F 
ATOM      9  I   UNL d   1       2.776  -0.774  -0.708  0.00  0.00    -0.060 I 
ATOM     10  F2  UNL d   1       2.040   0.614   2.080  0.00  0.00    -0.096 F 
ATOM     11  F3  UNL d   1       0.051   2.318   2.772  0.00  0.00    -0.097 F 
ATOM     12  F4  UNL d   1      -1.773   3.136   0.916  0.00  0.00    -0.092 F 
ENDROOT
TORSDOF 0
ENDMDL
