MODEL 1
REMARK minimizedAffinity 3.19713879
REMARK minimizedRMSD -1
REMARK  0 active torsions:
REMARK  status: ('A' for Active; 'I' for Inactive)
ROOT
ATOM      1  C   UNL d   1       1.792   3.055   1.947  0.00  0.00     0.124 A 
ATOM      2  C1  UNL d   1       2.490   4.189   1.553  0.00  0.00     0.062 A 
ATOM      3  C2  UNL d   1       2.114   4.879   0.404  0.00  0.00     0.162 A 
ATOM      4  C3  UNL d   1       1.033   4.437  -0.359  0.00  0.00    -0.034 A 
ATOM      5  C4  UNL d   1       0.337   3.296   0.042  0.00  0.00     0.162 A 
ATOM      6  C5  UNL d   1       0.717   2.610   1.191  0.00  0.00     0.062 A 
ATOM      7  F   UNL d   1       0.042   1.515   1.570  0.00  0.00    -0.097 F 
ATOM      8  F1  UNL d   1      -0.707   2.844  -0.669  0.00  0.00    -0.096 F 
ATOM      9  I   UNL d   1       0.468   5.466  -2.078  0.00  0.00    -0.060 I 
ATOM     10  F2  UNL d   1       2.806   5.971   0.048  0.00  0.00    -0.096 F 
ATOM     11  F3  UNL d   1       3.530   4.621   2.281  0.00  0.00    -0.097 F 
ATOM     12  F4  UNL d   1       2.157   2.393   3.052  0.00  0.00    -0.092 F 
ENDROOT
TORSDOF 0
ENDMDL
