MODEL 1
REMARK minimizedAffinity 18.6036854
REMARK minimizedRMSD -1
REMARK  0 active torsions:
REMARK  status: ('A' for Active; 'I' for Inactive)
ROOT
ATOM      1  C   UNL d   1       0.051   3.237  -0.539  0.00  0.00     0.124 A 
ATOM      2  C1  UNL d   1      -0.240   1.982  -0.022  0.00  0.00     0.062 A 
ATOM      3  C2  UNL d   1      -1.379   1.300  -0.441  0.00  0.00     0.162 A 
ATOM      4  C3  UNL d   1      -2.236   1.872  -1.382  0.00  0.00    -0.034 A 
ATOM      5  C4  UNL d   1      -1.936   3.135  -1.896  0.00  0.00     0.162 A 
ATOM      6  C5  UNL d   1      -0.796   3.812  -1.475  0.00  0.00     0.062 A 
ATOM      7  F   UNL d   1      -0.516   5.024  -1.975  0.00  0.00    -0.097 F 
ATOM      8  F1  UNL d   1      -2.738   3.713  -2.803  0.00  0.00    -0.096 F 
ATOM      9  I   UNL d   1      -3.940   0.856  -2.010  0.00  0.00    -0.060 I 
ATOM     10  F2  UNL d   1      -1.637   0.089   0.075  0.00  0.00    -0.096 F 
ATOM     11  F3  UNL d   1       0.577   1.424   0.883  0.00  0.00    -0.097 F 
ATOM     12  F4  UNL d   1       1.148   3.890  -0.134  0.00  0.00    -0.092 F 
ENDROOT
TORSDOF 0
ENDMDL
