MODEL 1
REMARK minimizedAffinity -2.12479615
REMARK minimizedRMSD -1
REMARK  1 active torsions:
REMARK  status: ('A' for Active; 'I' for Inactive)
REMARK    1  A    between atoms: C1_2  and  C2_3 
ROOT
ATOM      1  C2  UNL d   1       0.053  -0.454  -0.267  0.00  0.00    -0.076 A 
ATOM      2  C3  UNL d   1      -1.289  -0.201  -0.600  0.00  0.00     0.004 A 
ATOM      3  C4  UNL d   1      -2.197   0.235   0.363  0.00  0.00    -0.003 A 
ATOM      4  C5  UNL d   1      -1.779   0.424   1.675  0.00  0.00     0.000 A 
ATOM      5  C6  UNL d   1      -0.447   0.195   2.020  0.00  0.00     0.000 A 
ATOM      6  C7  UNL d   1       0.486  -0.229   1.058  0.00  0.00    -0.073 A 
ATOM      7  C8  UNL d   1       1.907  -0.467   1.486  0.00  0.00     0.078 C 
ENDROOT
BRANCH   1   8
ATOM      8  C1  UNL d   1       0.987  -0.951  -1.347  0.00  0.00     0.053 C 
ATOM      9  C   UNL d   1       0.402  -0.788  -2.742  0.00  0.00     0.018 C 
ENDBRANCH   1   8
TORSDOF 1
ENDMDL
