MODEL 1
REMARK minimizedAffinity -2.12507439
REMARK minimizedRMSD -1
REMARK  1 active torsions:
REMARK  status: ('A' for Active; 'I' for Inactive)
REMARK    1  A    between atoms: C1_2  and  C2_3 
ROOT
ATOM      1  C2  UNL d   1      -0.269   0.049  -0.465  0.00  0.00    -0.076 A 
ATOM      2  C3  UNL d   1      -1.466   0.508  -1.041  0.00  0.00     0.004 A 
ATOM      3  C4  UNL d   1      -2.586   0.773  -0.254  0.00  0.00    -0.003 A 
ATOM      4  C5  UNL d   1      -2.526   0.583   1.122  0.00  0.00     0.000 A 
ATOM      5  C6  UNL d   1      -1.341   0.146   1.713  0.00  0.00     0.000 A 
ATOM      6  C7  UNL d   1      -0.198  -0.110   0.936  0.00  0.00    -0.073 A 
ATOM      7  C8  UNL d   1       1.052  -0.586   1.624  0.00  0.00     0.078 C 
ENDROOT
BRANCH   1   8
ATOM      8  C1  UNL d   1       0.904  -0.247  -1.372  0.00  0.00     0.053 C 
ATOM      9  C   UNL d   1       0.551  -0.113  -2.845  0.00  0.00     0.018 C 
ENDBRANCH   1   8
TORSDOF 1
ENDMDL
