MODEL 1
REMARK minimizedAffinity -4.066926
REMARK minimizedRMSD -1
REMARK  1 active torsions:
REMARK  status: ('A' for Active; 'I' for Inactive)
REMARK    1  A    between atoms: C1_2  and  C2_3 
ROOT
ATOM      1  C2  UNL d   1      -0.167  -0.293  -0.115  0.00  0.00    -0.076 A 
ATOM      2  C3  UNL d   1      -1.491   0.162  -0.236  0.00  0.00     0.004 A 
ATOM      3  C4  UNL d   1      -2.261   0.438   0.893  0.00  0.00    -0.003 A 
ATOM      4  C5  UNL d   1      -1.719   0.263   2.161  0.00  0.00     0.000 A 
ATOM      5  C6  UNL d   1      -0.401  -0.171   2.300  0.00  0.00     0.000 A 
ATOM      6  C7  UNL d   1       0.394  -0.438   1.172  0.00  0.00    -0.073 A 
ATOM      7  C8  UNL d   1       1.807  -0.909   1.381  0.00  0.00     0.078 C 
ENDROOT
BRANCH   1   8
ATOM      8  C1  UNL d   1       0.612  -0.601  -1.374  0.00  0.00     0.053 C 
ATOM      9  C   UNL d   1       0.737   0.606  -2.291  0.00  0.00     0.018 C 
ENDBRANCH   1   8
TORSDOF 1
ENDMDL
