MODEL 1
REMARK minimizedAffinity -0.584377289
REMARK minimizedRMSD -1
REMARK  1 active torsions:
REMARK  status: ('A' for Active; 'I' for Inactive)
REMARK    1  A    between atoms: C1_2  and  C2_3 
ROOT
ATOM      1  C2  UNL d   1      -0.135  -0.268   0.032  0.00  0.00    -0.076 A 
ATOM      2  C3  UNL d   1      -1.447   0.129  -0.280  0.00  0.00     0.004 A 
ATOM      3  C4  UNL d   1      -2.309   0.601   0.708  0.00  0.00    -0.003 A 
ATOM      4  C5  UNL d   1      -1.872   0.686   2.026  0.00  0.00     0.000 A 
ATOM      5  C6  UNL d   1      -0.568   0.313   2.351  0.00  0.00     0.000 A 
ATOM      6  C7  UNL d   1       0.318  -0.150   1.363  0.00  0.00    -0.073 A 
ATOM      7  C8  UNL d   1       1.712  -0.543   1.771  0.00  0.00     0.078 C 
ENDROOT
BRANCH   1   8
ATOM      8  C1  UNL d   1       0.745  -0.798  -1.077  0.00  0.00     0.053 C 
ATOM      9  C   UNL d   1       0.565  -0.033  -2.379  0.00  0.00     0.018 C 
ENDBRANCH   1   8
TORSDOF 1
ENDMDL
