MODEL 1
REMARK minimizedAffinity 4.20780373
REMARK minimizedRMSD -1
REMARK  1 active torsions:
REMARK  status: ('A' for Active; 'I' for Inactive)
REMARK    1  A    between atoms: C1_2  and  C2_3 
ROOT
ATOM      1  C2  UNL d   1      -1.685  -0.281   1.235  0.00  0.00    -0.076 A 
ATOM      2  C3  UNL d   1      -0.513   0.316   1.732  0.00  0.00     0.004 A 
ATOM      3  C4  UNL d   1       0.572   0.572   0.895  0.00  0.00    -0.003 A 
ATOM      4  C5  UNL d   1       0.502   0.236  -0.452  0.00  0.00     0.000 A 
ATOM      5  C6  UNL d   1      -0.659  -0.340  -0.966  0.00  0.00     0.000 A 
ATOM      6  C7  UNL d   1      -1.768  -0.590  -0.139  0.00  0.00    -0.073 A 
ATOM      7  C8  UNL d   1      -2.993  -1.219  -0.745  0.00  0.00     0.078 C 
ENDROOT
BRANCH   1   8
ATOM      8  C1  UNL d   1      -2.819  -0.559   2.196  0.00  0.00     0.053 C 
ATOM      9  C   UNL d   1      -2.335  -1.134   3.518  0.00  0.00     0.018 C 
ENDBRANCH   1   8
TORSDOF 1
ENDMDL
