MODEL 1
REMARK minimizedAffinity -3.72625661
REMARK minimizedRMSD -1
REMARK  1 active torsions:
REMARK  status: ('A' for Active; 'I' for Inactive)
REMARK    1  A    between atoms: C1_2  and  C2_3 
ROOT
ATOM      1  C2  UNL d   1       0.101  -0.048   1.562  0.00  0.00    -0.076 A 
ATOM      2  C3  UNL d   1      -0.996   0.576   2.181  0.00  0.00     0.004 A 
ATOM      3  C4  UNL d   1      -2.116   0.957   1.443  0.00  0.00    -0.003 A 
ATOM      4  C5  UNL d   1      -2.156   0.719   0.073  0.00  0.00     0.000 A 
ATOM      5  C6  UNL d   1      -1.084   0.086  -0.554  0.00  0.00     0.000 A 
ATOM      6  C7  UNL d   1       0.045  -0.319   0.178  0.00  0.00    -0.073 A 
ATOM      7  C8  UNL d   1       1.175  -0.993  -0.551  0.00  0.00     0.078 C 
ENDROOT
BRANCH   1   8
ATOM      8  C1  UNL d   1       1.299  -0.413   2.409  0.00  0.00     0.053 C 
ATOM      9  C   UNL d   1       0.961  -0.501   3.890  0.00  0.00     0.018 C 
ENDBRANCH   1   8
TORSDOF 1
ENDMDL
