MODEL 1
REMARK minimizedAffinity 2.41726398
REMARK minimizedRMSD -1
REMARK  0 active torsions:
REMARK  status: ('A' for Active; 'I' for Inactive)
ROOT
ATOM      1  C   UNL d   1       5.633  -4.281  -2.108  0.00  0.00     0.023 A 
ATOM      2  C1  UNL d   1       6.000  -3.090  -1.481  0.00  0.00     0.003 A 
ATOM      3  C2  UNL d   1       5.031  -2.302  -0.857  0.00  0.00     0.048 A 
ATOM      4  C3  UNL d   1       3.698  -2.710  -0.863  0.00  0.00     0.023 A 
ATOM      5  C4  UNL d   1       3.327  -3.901  -1.489  0.00  0.00     0.048 A 
ATOM      6  C5  UNL d   1       4.298  -4.686  -2.113  0.00  0.00     0.003 A 
ATOM      7  I   UNL d   1       2.254  -1.538   0.065  0.00  0.00    -0.146 I 
ENDROOT
TORSDOF 0
ENDMDL
