MODEL 1
REMARK minimizedAffinity 11.1863995
REMARK minimizedRMSD -1
REMARK  0 active torsions:
REMARK  status: ('A' for Active; 'I' for Inactive)
ROOT
ATOM      1  C   UNL d   1       5.638  -3.614  -1.040  0.00  0.00     0.023 A 
ATOM      2  C1  UNL d   1       5.913  -2.259  -1.226  0.00  0.00     0.003 A 
ATOM      3  C2  UNL d   1       5.174  -1.294  -0.540  0.00  0.00     0.048 A 
ATOM      4  C3  UNL d   1       4.161  -1.690   0.333  0.00  0.00     0.023 A 
ATOM      5  C4  UNL d   1       3.883  -3.045   0.524  0.00  0.00     0.048 A 
ATOM      6  C5  UNL d   1       4.624  -4.006  -0.166  0.00  0.00     0.003 A 
ATOM      7  I   UNL d   1       3.059  -0.256   1.357  0.00  0.00    -0.146 I 
ENDROOT
TORSDOF 0
ENDMDL
