MODEL 1
REMARK minimizedAffinity 11.9352436
REMARK minimizedRMSD -1
REMARK  0 active torsions:
REMARK  status: ('A' for Active; 'I' for Inactive)
ROOT
ATOM      1  C   UNL d   1      -0.451   4.135   1.226  0.00  0.00     0.023 A 
ATOM      2  C1  UNL d   1      -1.324   3.644   2.197  0.00  0.00     0.003 A 
ATOM      3  C2  UNL d   1      -0.921   2.604   3.037  0.00  0.00     0.048 A 
ATOM      4  C3  UNL d   1       0.356   2.060   2.901  0.00  0.00     0.023 A 
ATOM      5  C4  UNL d   1       1.233   2.549   1.932  0.00  0.00     0.048 A 
ATOM      6  C5  UNL d   1       0.826   3.588   1.093  0.00  0.00     0.003 A 
ATOM      7  I   UNL d   1       0.957   0.512   4.151  0.00  0.00    -0.146 I 
ENDROOT
TORSDOF 0
ENDMDL
