MODEL 1
REMARK minimizedAffinity 4.211236
REMARK minimizedRMSD -1
REMARK  0 active torsions:
REMARK  status: ('A' for Active; 'I' for Inactive)
ROOT
ATOM      1  C   UNL d   1       5.243  -1.887   0.367  0.00  0.00     0.023 A 
ATOM      2  C1  UNL d   1       6.000  -3.012   0.039  0.00  0.00     0.003 A 
ATOM      3  C2  UNL d   1       5.633  -3.809  -1.047  0.00  0.00     0.048 A 
ATOM      4  C3  UNL d   1       4.508  -3.476  -1.801  0.00  0.00     0.023 A 
ATOM      5  C4  UNL d   1       3.748  -2.350  -1.476  0.00  0.00     0.048 A 
ATOM      6  C5  UNL d   1       4.119  -1.557  -0.389  0.00  0.00     0.003 A 
ATOM      7  I   UNL d   1       3.959  -4.661  -3.417  0.00  0.00    -0.146 I 
ENDROOT
TORSDOF 0
ENDMDL
