MODEL 1
REMARK minimizedAffinity 13.8408508
REMARK minimizedRMSD -1
REMARK  0 active torsions:
REMARK  status: ('A' for Active; 'I' for Inactive)
ROOT
ATOM      1  C   UNL d   1      -1.035  -1.127  -1.731  0.00  0.00     0.023 A 
ATOM      2  C1  UNL d   1       0.295  -0.718  -1.636  0.00  0.00     0.003 A 
ATOM      3  C2  UNL d   1       0.609   0.508  -1.045  0.00  0.00     0.048 A 
ATOM      4  C3  UNL d   1      -0.412   1.319  -0.551  0.00  0.00     0.023 A 
ATOM      5  C4  UNL d   1      -1.744   0.913  -0.644  0.00  0.00     0.048 A 
ATOM      6  C5  UNL d   1      -2.054  -0.313  -1.236  0.00  0.00     0.003 A 
ATOM      7  I   UNL d   1       0.053   3.144   0.328  0.00  0.00    -0.146 I 
ENDROOT
TORSDOF 0
ENDMDL
