MODEL 1
REMARK minimizedAffinity 5.98968363
REMARK minimizedRMSD -1
REMARK  0 active torsions:
REMARK  status: ('A' for Active; 'I' for Inactive)
ROOT
ATOM      1  C   UNL d   1       0.205  -0.935   0.623  0.00  0.00     0.124 A 
ATOM      2  C1  UNL d   1       0.869   0.149   1.182  0.00  0.00     0.062 A 
ATOM      3  C2  UNL d   1       1.440   1.117   0.362  0.00  0.00     0.162 A 
ATOM      4  C3  UNL d   1       1.350   1.007  -1.026  0.00  0.00    -0.034 A 
ATOM      5  C4  UNL d   1       0.682  -0.086  -1.580  0.00  0.00     0.162 A 
ATOM      6  C5  UNL d   1       0.112  -1.051  -0.756  0.00  0.00     0.062 A 
ATOM      7  F   UNL d   1      -0.529  -2.097  -1.297  0.00  0.00    -0.097 F 
ATOM      8  F1  UNL d   1       0.576  -0.222  -2.910  0.00  0.00    -0.096 F 
ATOM      9  I   UNL d   1       2.204   2.454  -2.255  0.00  0.00    -0.060 I 
ATOM     10  F2  UNL d   1       2.076   2.154   0.929  0.00  0.00    -0.096 F 
ATOM     11  F3  UNL d   1       0.960   0.263   2.514  0.00  0.00    -0.097 F 
ATOM     12  F4  UNL d   1      -0.344  -1.866   1.415  0.00  0.00    -0.092 F 
ENDROOT
TORSDOF 0
ENDMDL
