MODEL 1
REMARK minimizedAffinity 15.0317421
REMARK minimizedRMSD -1
REMARK  0 active torsions:
REMARK  status: ('A' for Active; 'I' for Inactive)
ROOT
ATOM      1  C   UNL d   1      -1.706  -3.980  -0.970  0.00  0.00     0.124 A 
ATOM      2  C1  UNL d   1      -2.624  -2.950  -0.825  0.00  0.00     0.062 A 
ATOM      3  C2  UNL d   1      -3.791  -2.940  -1.584  0.00  0.00     0.162 A 
ATOM      4  C3  UNL d   1      -4.047  -3.966  -2.495  0.00  0.00    -0.034 A 
ATOM      5  C4  UNL d   1      -3.118  -4.998  -2.635  0.00  0.00     0.162 A 
ATOM      6  C5  UNL d   1      -1.953  -5.003  -1.874  0.00  0.00     0.062 A 
ATOM      7  F   UNL d   1      -1.067  -6.000  -2.015  0.00  0.00    -0.097 F 
ATOM      8  F1  UNL d   1      -3.332  -6.000  -3.501  0.00  0.00    -0.096 F 
ATOM      9  I   UNL d   1      -5.790  -3.955  -3.632  0.00  0.00    -0.060 I 
ATOM     10  F2  UNL d   1      -4.661  -1.932  -1.424  0.00  0.00    -0.096 F 
ATOM     11  F3  UNL d   1      -2.387  -1.960   0.047  0.00  0.00    -0.097 F 
ATOM     12  F4  UNL d   1      -0.584  -3.986  -0.239  0.00  0.00    -0.092 F 
ENDROOT
TORSDOF 0
ENDMDL
