MODEL 1
REMARK minimizedAffinity 21.1711521
REMARK minimizedRMSD -1
REMARK  0 active torsions:
REMARK  status: ('A' for Active; 'I' for Inactive)
ROOT
ATOM      1  C   UNL d   1       1.192   2.733   1.194  0.00  0.00     0.124 A 
ATOM      2  C1  UNL d   1       1.154   1.584   1.972  0.00  0.00     0.062 A 
ATOM      3  C2  UNL d   1      -0.030   1.201   2.597  0.00  0.00     0.162 A 
ATOM      4  C3  UNL d   1      -1.185   1.968   2.446  0.00  0.00    -0.034 A 
ATOM      5  C4  UNL d   1      -1.139   3.122   1.662  0.00  0.00     0.162 A 
ATOM      6  C5  UNL d   1       0.046   3.500   1.039  0.00  0.00     0.062 A 
ATOM      7  F   UNL d   1       0.082   4.610   0.288  0.00  0.00    -0.097 F 
ATOM      8  F1  UNL d   1      -2.231   3.882   1.496  0.00  0.00    -0.096 F 
ATOM      9  I   UNL d   1      -2.957   1.399   3.379  0.00  0.00    -0.060 I 
ATOM     10  F2  UNL d   1      -0.038   0.087   3.343  0.00  0.00    -0.096 F 
ATOM     11  F3  UNL d   1       2.259   0.841   2.123  0.00  0.00    -0.097 F 
ATOM     12  F4  UNL d   1       2.332   3.099   0.594  0.00  0.00    -0.092 F 
ENDROOT
TORSDOF 0
ENDMDL
