MODEL 1
REMARK minimizedAffinity 12.2948751
REMARK minimizedRMSD -1
REMARK  0 active torsions:
REMARK  status: ('A' for Active; 'I' for Inactive)
ROOT
ATOM      1  C   UNL d   1       1.147   1.797   1.847  0.00  0.00     0.124 A 
ATOM      2  C1  UNL d   1       0.958   0.424   1.769  0.00  0.00     0.062 A 
ATOM      3  C2  UNL d   1       1.687  -0.332   0.855  0.00  0.00     0.162 A 
ATOM      4  C3  UNL d   1       2.613   0.284   0.013  0.00  0.00    -0.034 A 
ATOM      5  C4  UNL d   1       2.796   1.665   0.096  0.00  0.00     0.162 A 
ATOM      6  C5  UNL d   1       2.066   2.416   1.011  0.00  0.00     0.062 A 
ATOM      7  F   UNL d   1       2.249   3.742   1.085  0.00  0.00    -0.097 F 
ATOM      8  F1  UNL d   1       3.678   2.289  -0.699  0.00  0.00    -0.096 F 
ATOM      9  I   UNL d   1       3.705  -0.843  -1.355  0.00  0.00    -0.060 I 
ATOM     10  F2  UNL d   1       1.484  -1.656   0.801  0.00  0.00    -0.096 F 
ATOM     11  F3  UNL d   1       0.071  -0.176   2.575  0.00  0.00    -0.097 F 
ATOM     12  F4  UNL d   1       0.444   2.522   2.727  0.00  0.00    -0.092 F 
ENDROOT
TORSDOF 0
ENDMDL
