MODEL 1
REMARK minimizedAffinity 16.9326935
REMARK minimizedRMSD -1
REMARK  0 active torsions:
REMARK  status: ('A' for Active; 'I' for Inactive)
ROOT
ATOM      1  C   UNL d   1      -0.457   0.447  -2.078  0.00  0.00     0.124 A 
ATOM      2  C1  UNL d   1       0.089  -0.530  -1.257  0.00  0.00     0.062 A 
ATOM      3  C2  UNL d   1       1.370  -0.371  -0.736  0.00  0.00     0.162 A 
ATOM      4  C3  UNL d   1       2.114   0.770  -1.035  0.00  0.00    -0.034 A 
ATOM      5  C4  UNL d   1       1.559   1.748  -1.862  0.00  0.00     0.162 A 
ATOM      6  C5  UNL d   1       0.279   1.585  -2.380  0.00  0.00     0.062 A 
ATOM      7  F   UNL d   1      -0.247   2.530  -3.173  0.00  0.00    -0.097 F 
ATOM      8  F1  UNL d   1       2.248   2.857  -2.169  0.00  0.00    -0.096 F 
ATOM      9  I   UNL d   1       4.030   1.010  -0.258  0.00  0.00    -0.060 I 
ATOM     10  F2  UNL d   1       1.871  -1.332   0.054  0.00  0.00    -0.096 F 
ATOM     11  F3  UNL d   1      -0.620  -1.630  -0.965  0.00  0.00    -0.097 F 
ATOM     12  F4  UNL d   1      -1.689   0.292  -2.579  0.00  0.00    -0.092 F 
ENDROOT
TORSDOF 0
ENDMDL
