MODEL 1
REMARK minimizedAffinity 7.97945547
REMARK minimizedRMSD -1
REMARK  0 active torsions:
REMARK  status: ('A' for Active; 'I' for Inactive)
ROOT
ATOM      1  C   UNL d   1      -0.852  -3.004   0.065  0.00  0.00     0.124 A 
ATOM      2  C1  UNL d   1      -2.150  -2.850  -0.400  0.00  0.00     0.062 A 
ATOM      3  C2  UNL d   1      -2.649  -3.704  -1.380  0.00  0.00     0.162 A 
ATOM      4  C3  UNL d   1      -1.848  -4.721  -1.901  0.00  0.00    -0.034 A 
ATOM      5  C4  UNL d   1      -0.543  -4.869  -1.429  0.00  0.00     0.162 A 
ATOM      6  C5  UNL d   1      -0.049  -4.013  -0.449  0.00  0.00     0.062 A 
ATOM      7  F   UNL d   1       1.205  -4.163  -0.001  0.00  0.00    -0.097 F 
ATOM      8  F1  UNL d   1       0.254  -5.836  -1.907  0.00  0.00    -0.096 F 
ATOM      9  I   UNL d   1      -2.589  -6.000  -3.366  0.00  0.00    -0.060 I 
ATOM     10  F2  UNL d   1      -3.907  -3.533  -1.811  0.00  0.00    -0.096 F 
ATOM     11  F3  UNL d   1      -2.928  -1.876   0.094  0.00  0.00    -0.097 F 
ATOM     12  F4  UNL d   1      -0.375  -2.181   1.007  0.00  0.00    -0.092 F 
ENDROOT
TORSDOF 0
ENDMDL
