MODEL 1
REMARK minimizedAffinity 13.6766615
REMARK minimizedRMSD -1
REMARK  0 active torsions:
REMARK  status: ('A' for Active; 'I' for Inactive)
ROOT
ATOM      1  C   UNL d   1       1.067  -0.569  -2.824  0.00  0.00     0.124 A 
ATOM      2  C1  UNL d   1       0.605   0.667  -3.253  0.00  0.00     0.062 A 
ATOM      3  C2  UNL d   1       0.824   1.804  -2.480  0.00  0.00     0.162 A 
ATOM      4  C3  UNL d   1       1.510   1.710  -1.269  0.00  0.00    -0.034 A 
ATOM      5  C4  UNL d   1       1.972   0.463  -0.844  0.00  0.00     0.162 A 
ATOM      6  C5  UNL d   1       1.750  -0.670  -1.620  0.00  0.00     0.062 A 
ATOM      7  F   UNL d   1       2.198  -1.864  -1.204  0.00  0.00    -0.097 F 
ATOM      8  F1  UNL d   1       2.635   0.336   0.315  0.00  0.00    -0.096 F 
ATOM      9  I   UNL d   1       1.840   3.406  -0.110  0.00  0.00    -0.060 I 
ATOM     10  F2  UNL d   1       0.366   2.985  -2.919  0.00  0.00    -0.096 F 
ATOM     11  F3  UNL d   1      -0.056   0.768  -4.415  0.00  0.00    -0.097 F 
ATOM     12  F4  UNL d   1       0.854  -1.661  -3.569  0.00  0.00    -0.092 F 
ENDROOT
TORSDOF 0
ENDMDL
