MODEL 1
REMARK minimizedAffinity 11.1713228
REMARK minimizedRMSD -1
REMARK  0 active torsions:
REMARK  status: ('A' for Active; 'I' for Inactive)
ROOT
ATOM      1  C   UNL d   1       0.001  -0.810   0.464  0.00  0.00     0.124 A 
ATOM      2  C1  UNL d   1       0.189  -0.225   1.709  0.00  0.00     0.062 A 
ATOM      3  C2  UNL d   1       0.924   0.951   1.827  0.00  0.00     0.162 A 
ATOM      4  C3  UNL d   1       1.476   1.551   0.696  0.00  0.00    -0.034 A 
ATOM      5  C4  UNL d   1       1.284   0.957  -0.553  0.00  0.00     0.162 A 
ATOM      6  C5  UNL d   1       0.548  -0.218  -0.665  0.00  0.00     0.062 A 
ATOM      7  F   UNL d   1       0.368  -0.781  -1.869  0.00  0.00    -0.097 F 
ATOM      8  F1  UNL d   1       1.801   1.508  -1.661  0.00  0.00    -0.096 F 
ATOM      9  I   UNL d   1       2.576   3.310   0.867  0.00  0.00    -0.060 I 
ATOM     10  F2  UNL d   1       1.089   1.493   3.042  0.00  0.00    -0.096 F 
ATOM     11  F3  UNL d   1      -0.339  -0.796   2.802  0.00  0.00    -0.097 F 
ATOM     12  F4  UNL d   1      -0.706  -1.942   0.354  0.00  0.00    -0.092 F 
ENDROOT
TORSDOF 0
ENDMDL
