MODEL 1
REMARK minimizedAffinity 13.9470215
REMARK minimizedRMSD -1
REMARK  0 active torsions:
REMARK  status: ('A' for Active; 'I' for Inactive)
ROOT
ATOM      1  C   UNL d   1       1.062   1.764   2.186  0.00  0.00     0.124 A 
ATOM      2  C1  UNL d   1       0.592   0.463   2.077  0.00  0.00     0.062 A 
ATOM      3  C2  UNL d   1       0.957  -0.326   0.990  0.00  0.00     0.162 A 
ATOM      4  C3  UNL d   1       1.800   0.185   0.003  0.00  0.00    -0.034 A 
ATOM      5  C4  UNL d   1       2.268   1.495   0.118  0.00  0.00     0.162 A 
ATOM      6  C5  UNL d   1       1.900   2.279   1.206  0.00  0.00     0.062 A 
ATOM      7  F   UNL d   1       2.356   3.536   1.309  0.00  0.00    -0.097 F 
ATOM      8  F1  UNL d   1       3.080   2.017  -0.814  0.00  0.00    -0.096 F 
ATOM      9  I   UNL d   1       2.349  -0.991  -1.625  0.00  0.00    -0.060 I 
ATOM     10  F2  UNL d   1       0.487  -1.579   0.911  0.00  0.00    -0.096 F 
ATOM     11  F3  UNL d   1      -0.219  -0.036   3.022  0.00  0.00    -0.097 F 
ATOM     12  F4  UNL d   1       0.708   2.521   3.232  0.00  0.00    -0.092 F 
ENDROOT
TORSDOF 0
ENDMDL
