MODEL 1
REMARK minimizedAffinity 14.6400881
REMARK minimizedRMSD -1
REMARK  0 active torsions:
REMARK  status: ('A' for Active; 'I' for Inactive)
ROOT
ATOM      1  C   UNL d   1       0.676   0.304  -2.416  0.00  0.00     0.124 A 
ATOM      2  C1  UNL d   1       0.862   1.457  -3.165  0.00  0.00     0.062 A 
ATOM      3  C2  UNL d   1       2.093   2.105  -3.159  0.00  0.00     0.162 A 
ATOM      4  C3  UNL d   1       3.150   1.601  -2.401  0.00  0.00    -0.034 A 
ATOM      5  C4  UNL d   1       2.956   0.440  -1.650  0.00  0.00     0.162 A 
ATOM      6  C5  UNL d   1       1.723  -0.203  -1.659  0.00  0.00     0.062 A 
ATOM      7  F   UNL d   1       1.545  -1.318  -0.935  0.00  0.00    -0.097 F 
ATOM      8  F1  UNL d   1       3.951  -0.072  -0.910  0.00  0.00    -0.096 F 
ATOM      9  I   UNL d   1       4.994   2.567  -2.390  0.00  0.00    -0.060 I 
ATOM     10  F2  UNL d   1       2.244   3.218  -3.892  0.00  0.00    -0.096 F 
ATOM     11  F3  UNL d   1      -0.149   1.950  -3.896  0.00  0.00    -0.097 F 
ATOM     12  F4  UNL d   1      -0.511  -0.317  -2.422  0.00  0.00    -0.092 F 
ENDROOT
TORSDOF 0
ENDMDL
