MODEL 1
REMARK minimizedAffinity 15.0205555
REMARK minimizedRMSD -1
REMARK  0 active torsions:
REMARK  status: ('A' for Active; 'I' for Inactive)
ROOT
ATOM      1  C   UNL d   1       2.604  -0.389  -1.523  0.00  0.00     0.124 A 
ATOM      2  C1  UNL d   1       2.943   0.638  -0.653  0.00  0.00     0.062 A 
ATOM      3  C2  UNL d   1       2.128   1.761  -0.546  0.00  0.00     0.162 A 
ATOM      4  C3  UNL d   1       0.966   1.864  -1.311  0.00  0.00    -0.034 A 
ATOM      5  C4  UNL d   1       0.633   0.827  -2.185  0.00  0.00     0.162 A 
ATOM      6  C5  UNL d   1       1.451  -0.294  -2.288  0.00  0.00     0.062 A 
ATOM      7  F   UNL d   1       1.122  -1.285  -3.129  0.00  0.00    -0.097 F 
ATOM      8  F1  UNL d   1      -0.476   0.893  -2.935  0.00  0.00    -0.096 F 
ATOM      9  I   UNL d   1      -0.254   3.542  -1.155  0.00  0.00    -0.060 I 
ATOM     10  F2  UNL d   1       2.479   2.739   0.303  0.00  0.00    -0.096 F 
ATOM     11  F3  UNL d   1       4.057   0.548   0.087  0.00  0.00    -0.097 F 
ATOM     12  F4  UNL d   1       3.390  -1.469  -1.624  0.00  0.00    -0.092 F 
ENDROOT
TORSDOF 0
ENDMDL
