MODEL 1
REMARK minimizedAffinity 4.39277458
REMARK minimizedRMSD -1
REMARK  0 active torsions:
REMARK  status: ('A' for Active; 'I' for Inactive)
ROOT
ATOM      1  C   UNL d   1       1.408   1.759   0.997  0.00  0.00     0.124 A 
ATOM      2  C1  UNL d   1       0.518   1.359   1.984  0.00  0.00     0.062 A 
ATOM      3  C2  UNL d   1       0.136   0.025   2.083  0.00  0.00     0.162 A 
ATOM      4  C3  UNL d   1       0.645  -0.921   1.192  0.00  0.00    -0.034 A 
ATOM      5  C4  UNL d   1       1.539  -0.511   0.202  0.00  0.00     0.162 A 
ATOM      6  C5  UNL d   1       1.918   0.824   0.107  0.00  0.00     0.062 A 
ATOM      7  F   UNL d   1       2.778   1.209  -0.847  0.00  0.00    -0.097 F 
ATOM      8  F1  UNL d   1       2.047  -1.394  -0.671  0.00  0.00    -0.096 F 
ATOM      9  I   UNL d   1       0.076  -2.918   1.337  0.00  0.00    -0.060 I 
ATOM     10  F2  UNL d   1      -0.725  -0.334   3.046  0.00  0.00    -0.096 F 
ATOM     11  F3  UNL d   1       0.024   2.261   2.844  0.00  0.00    -0.097 F 
ATOM     12  F4  UNL d   1       1.773   3.045   0.903  0.00  0.00    -0.092 F 
ENDROOT
TORSDOF 0
ENDMDL
