MODEL 1
REMARK minimizedAffinity 25.934576
REMARK minimizedRMSD -1
REMARK  0 active torsions:
REMARK  status: ('A' for Active; 'I' for Inactive)
ROOT
ATOM      1  C   UNL d   1       0.844   2.518   1.645  0.00  0.00     0.124 A 
ATOM      2  C1  UNL d   1      -0.333   3.207   1.386  0.00  0.00     0.062 A 
ATOM      3  C2  UNL d   1      -1.560   2.656   1.745  0.00  0.00     0.162 A 
ATOM      4  C3  UNL d   1      -1.616   1.410   2.369  0.00  0.00    -0.034 A 
ATOM      5  C4  UNL d   1      -0.428   0.723   2.625  0.00  0.00     0.162 A 
ATOM      6  C5  UNL d   1       0.796   1.277   2.264  0.00  0.00     0.062 A 
ATOM      7  F   UNL d   1       1.932   0.611   2.515  0.00  0.00    -0.097 F 
ATOM      8  F1  UNL d   1      -0.445  -0.478   3.223  0.00  0.00    -0.096 F 
ATOM      9  I   UNL d   1      -3.448   0.582   2.908  0.00  0.00    -0.060 I 
ATOM     10  F2  UNL d   1      -2.681   3.344   1.483  0.00  0.00    -0.096 F 
ATOM     11  F3  UNL d   1      -0.289   4.406   0.787  0.00  0.00    -0.097 F 
ATOM     12  F4  UNL d   1       2.023   3.050   1.297  0.00  0.00    -0.092 F 
ENDROOT
TORSDOF 0
ENDMDL
