MODEL 1
REMARK minimizedAffinity 12.9592905
REMARK minimizedRMSD -1
REMARK  0 active torsions:
REMARK  status: ('A' for Active; 'I' for Inactive)
ROOT
ATOM      1  C   UNL d   1       1.935   0.638   1.264  0.00  0.00     0.124 A 
ATOM      2  C1  UNL d   1       1.687   1.872   1.850  0.00  0.00     0.062 A 
ATOM      3  C2  UNL d   1       0.386   2.243   2.177  0.00  0.00     0.162 A 
ATOM      4  C3  UNL d   1      -0.678   1.379   1.919  0.00  0.00    -0.034 A 
ATOM      5  C4  UNL d   1      -0.422   0.141   1.328  0.00  0.00     0.162 A 
ATOM      6  C5  UNL d   1       0.880  -0.226   1.003  0.00  0.00     0.062 A 
ATOM      7  F   UNL d   1       1.117  -1.418   0.436  0.00  0.00    -0.097 F 
ATOM      8  F1  UNL d   1      -1.422  -0.714   1.065  0.00  0.00    -0.096 F 
ATOM      9  I   UNL d   1      -2.625   1.931   2.406  0.00  0.00    -0.060 I 
ATOM     10  F2  UNL d   1       0.177   3.441   2.743  0.00  0.00    -0.096 F 
ATOM     11  F3  UNL d   1       2.704   2.709   2.102  0.00  0.00    -0.097 F 
ATOM     12  F4  UNL d   1       3.187   0.284   0.949  0.00  0.00    -0.092 F 
ENDROOT
TORSDOF 0
ENDMDL
