MODEL 1
REMARK minimizedAffinity 9.68169117
REMARK minimizedRMSD -1
REMARK  0 active torsions:
REMARK  status: ('A' for Active; 'I' for Inactive)
ROOT
ATOM      1  C   UNL d   1      -0.002  -0.908   2.059  0.00  0.00     0.124 A 
ATOM      2  C1  UNL d   1      -0.593  -1.576   0.995  0.00  0.00     0.062 A 
ATOM      3  C2  UNL d   1      -0.447  -1.093  -0.302  0.00  0.00     0.162 A 
ATOM      4  C3  UNL d   1       0.294   0.063  -0.544  0.00  0.00    -0.034 A 
ATOM      5  C4  UNL d   1       0.885   0.730   0.531  0.00  0.00     0.162 A 
ATOM      6  C5  UNL d   1       0.736   0.244   1.826  0.00  0.00     0.062 A 
ATOM      7  F   UNL d   1       1.308   0.890   2.853  0.00  0.00    -0.097 F 
ATOM      8  F1  UNL d   1       1.604   1.845   0.335  0.00  0.00    -0.096 F 
ATOM      9  I   UNL d   1       0.514   0.788  -2.482  0.00  0.00    -0.060 I 
ATOM     10  F2  UNL d   1      -1.030  -1.759  -1.311  0.00  0.00    -0.096 F 
ATOM     11  F3  UNL d   1      -1.308  -2.688   1.218  0.00  0.00    -0.097 F 
ATOM     12  F4  UNL d   1      -0.145  -1.374   3.306  0.00  0.00    -0.092 F 
ENDROOT
TORSDOF 0
ENDMDL
