MODEL 1
REMARK minimizedAffinity 8.19394207
REMARK minimizedRMSD -1
REMARK  0 active torsions:
REMARK  status: ('A' for Active; 'I' for Inactive)
ROOT
ATOM      1  C   UNL d   1      -0.909  -5.655  -0.575  0.00  0.00     0.124 A 
ATOM      2  C1  UNL d   1      -1.036  -5.542  -1.952  0.00  0.00     0.062 A 
ATOM      3  C2  UNL d   1      -2.287  -5.332  -2.525  0.00  0.00     0.162 A 
ATOM      4  C3  UNL d   1      -3.422  -5.233  -1.721  0.00  0.00    -0.034 A 
ATOM      5  C4  UNL d   1      -3.287  -5.349  -0.336  0.00  0.00     0.162 A 
ATOM      6  C5  UNL d   1      -2.034  -5.558   0.232  0.00  0.00     0.062 A 
ATOM      7  F   UNL d   1      -1.914  -5.667   1.563  0.00  0.00    -0.097 F 
ATOM      8  F1  UNL d   1      -4.357  -5.259   0.467  0.00  0.00    -0.096 F 
ATOM      9  I   UNL d   1      -5.295  -4.920  -2.573  0.00  0.00    -0.060 I 
ATOM     10  F2  UNL d   1      -2.380  -5.227  -3.859  0.00  0.00    -0.096 F 
ATOM     11  F3  UNL d   1       0.049  -5.635  -2.734  0.00  0.00    -0.097 F 
ATOM     12  F4  UNL d   1       0.296  -5.857  -0.026  0.00  0.00    -0.092 F 
ENDROOT
TORSDOF 0
ENDMDL
