MODEL 1
REMARK minimizedAffinity 17.2592087
REMARK minimizedRMSD -1
REMARK  0 active torsions:
REMARK  status: ('A' for Active; 'I' for Inactive)
ROOT
ATOM      1  C   UNL d   1       2.025   1.358  -1.484  0.00  0.00     0.124 A 
ATOM      2  C1  UNL d   1       1.750   0.336  -0.586  0.00  0.00     0.062 A 
ATOM      3  C2  UNL d   1       0.746  -0.587  -0.862  0.00  0.00     0.162 A 
ATOM      4  C3  UNL d   1       0.008  -0.493  -2.042  0.00  0.00    -0.034 A 
ATOM      5  C4  UNL d   1       0.290   0.538  -2.940  0.00  0.00     0.162 A 
ATOM      6  C5  UNL d   1       1.294   1.458  -2.660  0.00  0.00     0.062 A 
ATOM      7  F   UNL d   1       1.558   2.445  -3.529  0.00  0.00    -0.097 F 
ATOM      8  F1  UNL d   1      -0.400   0.658  -4.084  0.00  0.00    -0.096 F 
ATOM      9  I   UNL d   1      -1.495  -1.871  -2.458  0.00  0.00    -0.060 I 
ATOM     10  F2  UNL d   1       0.502  -1.565   0.024  0.00  0.00    -0.096 F 
ATOM     11  F3  UNL d   1       2.454   0.238   0.551  0.00  0.00    -0.097 F 
ATOM     12  F4  UNL d   1       2.991   2.245  -1.216  0.00  0.00    -0.092 F 
ENDROOT
TORSDOF 0
ENDMDL
