MODEL 1
REMARK minimizedAffinity 11.1037502
REMARK minimizedRMSD -1
REMARK  0 active torsions:
REMARK  status: ('A' for Active; 'I' for Inactive)
ROOT
ATOM      1  C   UNL d   1       1.017   5.107  -0.216  0.00  0.00     0.020 A 
ATOM      2  C1  UNL d   1       0.184   4.746  -1.275  0.00  0.00     0.020 A 
ATOM      3  C2  UNL d   1      -0.599   3.594  -1.186  0.00  0.00     0.034 A 
ATOM      4  C3  UNL d   1      -0.551   2.797  -0.036  0.00  0.00     0.017 A 
ATOM      5  C4  UNL d   1       0.286   3.159   1.026  0.00  0.00     0.017 A 
ATOM      6  C5  UNL d   1       1.068   4.314   0.932  0.00  0.00     0.034 A 
ATOM      7 Cl   UNL d   1       0.399   2.226   2.476  0.00  0.00    -0.070 Cl
ATOM      8 Cl1  UNL d   1      -1.546   1.385   0.005  0.00  0.00    -0.070 Cl
ENDROOT
TORSDOF 0
ENDMDL
