MODEL 1
REMARK minimizedAffinity 13.4018126
REMARK minimizedRMSD -1
REMARK  0 active torsions:
REMARK  status: ('A' for Active; 'I' for Inactive)
ROOT
ATOM      1  C   UNL d   1       1.572   0.052   3.343  0.00  0.00     0.020 A 
ATOM      2  C1  UNL d   1       0.595  -0.393   4.232  0.00  0.00     0.020 A 
ATOM      3  C2  UNL d   1      -0.669   0.201   4.237  0.00  0.00     0.034 A 
ATOM      4  C3  UNL d   1      -0.959   1.244   3.350  0.00  0.00     0.017 A 
ATOM      5  C4  UNL d   1       0.022   1.691   2.457  0.00  0.00     0.017 A 
ATOM      6  C5  UNL d   1       1.286   1.092   2.457  0.00  0.00     0.034 A 
ATOM      7 Cl   UNL d   1      -0.262   2.972   1.333  0.00  0.00    -0.070 Cl
ATOM      8 Cl1  UNL d   1      -2.543   1.932   3.410  0.00  0.00    -0.070 Cl
ENDROOT
TORSDOF 0
ENDMDL
