MODEL 1
REMARK minimizedAffinity 12.2301369
REMARK minimizedRMSD -1
REMARK  0 active torsions:
REMARK  status: ('A' for Active; 'I' for Inactive)
ROOT
ATOM      1  C   UNL d   1       0.381   0.381   4.561  0.00  0.00     0.020 A 
ATOM      2  C1  UNL d   1      -0.856   0.876   4.149  0.00  0.00     0.020 A 
ATOM      3  C2  UNL d   1      -0.918   1.943   3.250  0.00  0.00     0.034 A 
ATOM      4  C3  UNL d   1       0.260   2.518   2.759  0.00  0.00     0.017 A 
ATOM      5  C4  UNL d   1       1.501   2.021   3.173  0.00  0.00     0.017 A 
ATOM      6  C5  UNL d   1       1.557   0.952   4.073  0.00  0.00     0.034 A 
ATOM      7 Cl   UNL d   1       2.997   2.679   2.611  0.00  0.00    -0.070 Cl
ATOM      8 Cl1  UNL d   1       0.110   3.834   1.650  0.00  0.00    -0.070 Cl
ENDROOT
TORSDOF 0
ENDMDL
