MODEL 1
REMARK minimizedAffinity 6.52621746
REMARK minimizedRMSD -1
REMARK  0 active torsions:
REMARK  status: ('A' for Active; 'I' for Inactive)
ROOT
ATOM      1  C   UNL d   1      -0.733   6.000  -2.620  0.00  0.00     0.020 A 
ATOM      2  C1  UNL d   1      -1.885   5.332  -2.205  0.00  0.00     0.020 A 
ATOM      3  C2  UNL d   1      -1.898   4.659  -0.982  0.00  0.00     0.034 A 
ATOM      4  C3  UNL d   1      -0.759   4.652  -0.169  0.00  0.00     0.017 A 
ATOM      5  C4  UNL d   1       0.396   5.323  -0.586  0.00  0.00     0.017 A 
ATOM      6  C5  UNL d   1       0.405   5.995  -1.812  0.00  0.00     0.034 A 
ATOM      7 Cl   UNL d   1       1.841   5.359   0.362  0.00  0.00    -0.070 Cl
ATOM      8 Cl1  UNL d   1      -0.847   3.799   1.331  0.00  0.00    -0.070 Cl
ENDROOT
TORSDOF 0
ENDMDL
