MODEL 1
REMARK minimizedAffinity 15.0366917
REMARK minimizedRMSD -1
REMARK  0 active torsions:
REMARK  status: ('A' for Active; 'I' for Inactive)
ROOT
ATOM      1  C   UNL d   1       0.008   6.000   0.085  0.00  0.00     0.020 A 
ATOM      2  C1  UNL d   1      -0.013   5.488  -1.212  0.00  0.00     0.020 A 
ATOM      3  C2  UNL d   1       0.068   4.110  -1.420  0.00  0.00     0.034 A 
ATOM      4  C3  UNL d   1       0.171   3.238  -0.330  0.00  0.00     0.017 A 
ATOM      5  C4  UNL d   1       0.193   3.752   0.971  0.00  0.00     0.017 A 
ATOM      6  C5  UNL d   1       0.111   5.133   1.174  0.00  0.00     0.034 A 
ATOM      7 Cl   UNL d   1       0.318   2.739   2.366  0.00  0.00    -0.070 Cl
ATOM      8 Cl1  UNL d   1       0.268   1.545  -0.662  0.00  0.00    -0.070 Cl
ENDROOT
TORSDOF 0
ENDMDL
