MODEL 1
REMARK minimizedAffinity 11.2876406
REMARK minimizedRMSD -1
REMARK  0 active torsions:
REMARK  status: ('A' for Active; 'I' for Inactive)
ROOT
ATOM      1  C   UNL d   1       0.686  -0.830  -1.074  0.00  0.00     0.020 A 
ATOM      2  C1  UNL d   1       1.707  -0.019  -0.579  0.00  0.00     0.020 A 
ATOM      3  C2  UNL d   1       1.395   1.125   0.158  0.00  0.00     0.034 A 
ATOM      4  C3  UNL d   1       0.058   1.462   0.403  0.00  0.00     0.017 A 
ATOM      5  C4  UNL d   1      -0.966   0.648  -0.094  0.00  0.00     0.017 A 
ATOM      6  C5  UNL d   1      -0.647  -0.497  -0.832  0.00  0.00     0.034 A 
ATOM      7 Cl   UNL d   1      -2.638   0.998   0.166  0.00  0.00    -0.070 Cl
ATOM      8 Cl1  UNL d   1      -0.255   2.891   1.322  0.00  0.00    -0.070 Cl
ENDROOT
TORSDOF 0
ENDMDL
