MODEL 1
REMARK minimizedAffinity 11.5887489
REMARK minimizedRMSD -1
REMARK  0 active torsions:
REMARK  status: ('A' for Active; 'I' for Inactive)
ROOT
ATOM      1  C   UNL d   1      -0.630   5.999  -0.003  0.00  0.00     0.020 A 
ATOM      2  C1  UNL d   1       0.333   5.664  -0.953  0.00  0.00     0.020 A 
ATOM      3  C2  UNL d   1       0.856   4.370  -0.991  0.00  0.00     0.034 A 
ATOM      4  C3  UNL d   1       0.417   3.406  -0.076  0.00  0.00     0.017 A 
ATOM      5  C4  UNL d   1      -0.550   3.744   0.878  0.00  0.00     0.017 A 
ATOM      6  C5  UNL d   1      -1.071   5.041   0.911  0.00  0.00     0.034 A 
ATOM      7 Cl   UNL d   1      -1.141   2.609   2.040  0.00  0.00    -0.070 Cl
ATOM      8 Cl1  UNL d   1       1.107   1.826  -0.180  0.00  0.00    -0.070 Cl
ENDROOT
TORSDOF 0
ENDMDL
