MODEL 1
REMARK minimizedAffinity 15.7966719
REMARK minimizedRMSD -1
REMARK  0 active torsions:
REMARK  status: ('A' for Active; 'I' for Inactive)
ROOT
ATOM      1  C   UNL d   1       0.646   2.685   2.295  0.00  0.00     0.020 A 
ATOM      2  C1  UNL d   1      -0.440   1.897   2.676  0.00  0.00     0.020 A 
ATOM      3  C2  UNL d   1      -0.225   0.678   3.321  0.00  0.00     0.034 A 
ATOM      4  C3  UNL d   1       1.078   0.242   3.587  0.00  0.00     0.017 A 
ATOM      5  C4  UNL d   1       2.167   1.033   3.205  0.00  0.00     0.017 A 
ATOM      6  C5  UNL d   1       1.947   2.253   2.559  0.00  0.00     0.034 A 
ATOM      7 Cl   UNL d   1       3.804   0.561   3.499  0.00  0.00    -0.070 Cl
ATOM      8 Cl1  UNL d   1       1.269  -1.277   4.389  0.00  0.00    -0.070 Cl
ENDROOT
TORSDOF 0
ENDMDL
