MODEL 1
REMARK minimizedAffinity 0.411142498
REMARK minimizedRMSD -1
REMARK  0 active torsions:
REMARK  status: ('A' for Active; 'I' for Inactive)
ROOT
ATOM      1  C1  BNZ d   1       4.194   1.140  -0.889  0.00  0.00     0.000 A 
ATOM      2  C2  BNZ d   1       3.436   0.022  -1.115  0.00  0.00     0.000 A 
ATOM      3  C3  BNZ d   1       3.474  -1.036  -0.250  0.00  0.00     0.000 A 
ATOM      4  C4  BNZ d   1       4.299  -0.992   0.816  0.00  0.00     0.000 A 
ATOM      5  C5  BNZ d   1       5.076   0.125   1.053  0.00  0.00     0.000 A 
ATOM      6  C6  BNZ d   1       5.006   1.204   0.201  0.00  0.00     0.000 A 
ENDROOT
TORSDOF 0
ENDMDL
