MODEL 1
REMARK minimizedAffinity 0.229364187
REMARK minimizedRMSD -1
REMARK  0 active torsions:
REMARK  status: ('A' for Active; 'I' for Inactive)
ROOT
ATOM      1  C1  BNZ d   1       4.227   0.285   2.673  0.00  0.00     0.000 A 
ATOM      2  C2  BNZ d   1       4.265   1.652   2.752  0.00  0.00     0.000 A 
ATOM      3  C3  BNZ d   1       5.138   2.373   1.986  0.00  0.00     0.000 A 
ATOM      4  C4  BNZ d   1       5.998   1.725   1.174  0.00  0.00     0.000 A 
ATOM      5  C5  BNZ d   1       5.978   0.347   1.090  0.00  0.00     0.000 A 
ATOM      6  C6  BNZ d   1       5.071  -0.373   1.834  0.00  0.00     0.000 A 
ENDROOT
TORSDOF 0
ENDMDL
