MODEL 1
REMARK minimizedAffinity 0.555294514
REMARK minimizedRMSD -1
REMARK  0 active torsions:
REMARK  status: ('A' for Active; 'I' for Inactive)
ROOT
ATOM      1  C1  BNZ d   1       2.274   3.616   5.994  0.00  0.00     0.000 A 
ATOM      2  C2  BNZ d   1       1.678   4.848   5.997  0.00  0.00     0.000 A 
ATOM      3  C3  BNZ d   1       2.429   5.990   5.973  0.00  0.00     0.000 A 
ATOM      4  C4  BNZ d   1       3.775   5.898   5.988  0.00  0.00     0.000 A 
ATOM      5  C5  BNZ d   1       4.391   4.662   5.995  0.00  0.00     0.000 A 
ATOM      6  C6  BNZ d   1       3.631   3.515   5.979  0.00  0.00     0.000 A 
ENDROOT
TORSDOF 0
ENDMDL
