MODEL 1
REMARK minimizedAffinity 1.18382406
REMARK minimizedRMSD -1
REMARK  0 active torsions:
REMARK  status: ('A' for Active; 'I' for Inactive)
ROOT
ATOM      1  C1  BNZ d   1       5.244   1.728   4.919  0.00  0.00     0.000 A 
ATOM      2  C2  BNZ d   1       5.460   3.080   4.916  0.00  0.00     0.000 A 
ATOM      3  C3  BNZ d   1       4.551   3.935   5.474  0.00  0.00     0.000 A 
ATOM      4  C4  BNZ d   1       3.411   3.441   5.997  0.00  0.00     0.000 A 
ATOM      5  C5  BNZ d   1       3.174   2.080   6.000  0.00  0.00     0.000 A 
ATOM      6  C6  BNZ d   1       4.110   1.220   5.472  0.00  0.00     0.000 A 
ENDROOT
TORSDOF 0
ENDMDL
