MODEL 1
REMARK minimizedAffinity 5.94707441
REMARK minimizedRMSD -1
REMARK  0 active torsions:
REMARK  status: ('A' for Active; 'I' for Inactive)
ROOT
ATOM      1  C1  BNZ d   1       4.307   2.345   3.703  0.00  0.00     0.000 A 
ATOM      2  C2  BNZ d   1       3.662   2.988   4.726  0.00  0.00     0.000 A 
ATOM      3  C3  BNZ d   1       4.073   4.222   5.146  0.00  0.00     0.000 A 
ATOM      4  C4  BNZ d   1       5.150   4.794   4.571  0.00  0.00     0.000 A 
ATOM      5  C5  BNZ d   1       5.817   4.155   3.545  0.00  0.00     0.000 A 
ATOM      6  C6  BNZ d   1       5.377   2.930   3.098  0.00  0.00     0.000 A 
ENDROOT
TORSDOF 0
ENDMDL
