MODEL 1
REMARK minimizedAffinity -4.32937908
REMARK minimizedRMSD -1
REMARK  0 active torsions:
REMARK  status: ('A' for Active; 'I' for Inactive)
ROOT
ATOM      1  C1  BNZ d   1       4.426   4.202   5.997  0.00  0.00     0.000 A 
ATOM      2  C2  BNZ d   1       3.721   3.028   5.984  0.00  0.00     0.000 A 
ATOM      3  C3  BNZ d   1       3.973   2.070   5.041  0.00  0.00     0.000 A 
ATOM      4  C4  BNZ d   1       4.901   2.305   4.090  0.00  0.00     0.000 A 
ATOM      5  C5  BNZ d   1       5.613   3.487   4.085  0.00  0.00     0.000 A 
ATOM      6  C6  BNZ d   1       5.383   4.432   5.058  0.00  0.00     0.000 A 
ENDROOT
TORSDOF 0
ENDMDL
