MODEL 1
REMARK minimizedAffinity 4.46457338
REMARK minimizedRMSD -1
REMARK  0 active torsions:
REMARK  status: ('A' for Active; 'I' for Inactive)
ROOT
ATOM      1  C1  BNZ d   1       3.111   1.283   5.986  0.00  0.00     0.000 A 
ATOM      2  C2  BNZ d   1       4.464   1.067   5.978  0.00  0.00     0.000 A 
ATOM      3  C3  BNZ d   1       5.340   2.116   5.995  0.00  0.00     0.000 A 
ATOM      4  C4  BNZ d   1       4.864   3.378   5.979  0.00  0.00     0.000 A 
ATOM      5  C5  BNZ d   1       3.503   3.612   5.977  0.00  0.00     0.000 A 
ATOM      6  C6  BNZ d   1       2.624   2.553   5.999  0.00  0.00     0.000 A 
ENDROOT
TORSDOF 0
ENDMDL
