MODEL 1
REMARK minimizedAffinity -1.33089614
REMARK minimizedRMSD -1
REMARK  0 active torsions:
REMARK  status: ('A' for Active; 'I' for Inactive)
ROOT
ATOM      1  C1  BNZ d   1       3.336   3.243   6.000  0.00  0.00     0.000 A 
ATOM      2  C2  BNZ d   1       3.911   4.486   6.000  0.00  0.00     0.000 A 
ATOM      3  C3  BNZ d   1       4.881   4.808   5.092  0.00  0.00     0.000 A 
ATOM      4  C4  BNZ d   1       5.303   3.876   4.214  0.00  0.00     0.000 A 
ATOM      5  C5  BNZ d   1       4.740   2.615   4.207  0.00  0.00     0.000 A 
ATOM      6  C6  BNZ d   1       3.736   2.307   5.097  0.00  0.00     0.000 A 
ENDROOT
TORSDOF 0
ENDMDL
