MODEL 1
REMARK minimizedAffinity 1.50292468
REMARK minimizedRMSD -1
REMARK  0 active torsions:
REMARK  status: ('A' for Active; 'I' for Inactive)
ROOT
ATOM      1  C1  BNZ d   1       2.751   3.408   5.999  0.00  0.00     0.000 A 
ATOM      2  C2  BNZ d   1       3.405   4.173   5.070  0.00  0.00     0.000 A 
ATOM      3  C3  BNZ d   1       4.211   3.596   4.129  0.00  0.00     0.000 A 
ATOM      4  C4  BNZ d   1       4.395   2.260   4.143  0.00  0.00     0.000 A 
ATOM      5  C5  BNZ d   1       3.750   1.475   5.079  0.00  0.00     0.000 A 
ATOM      6  C6  BNZ d   1       2.909   2.056   6.000  0.00  0.00     0.000 A 
ENDROOT
TORSDOF 0
ENDMDL
