MODEL 1
REMARK minimizedAffinity 4.85743666
REMARK minimizedRMSD -1
REMARK  0 active torsions:
REMARK  status: ('A' for Active; 'I' for Inactive)
ROOT
ATOM      1  C2' OXE d   1      -3.036  -1.403   0.359  0.00  0.00     0.078 C 
ATOM      2  C1' OXE d   1      -3.930   0.563   2.152  0.00  0.00     0.078 C 
ATOM      3  C1  OXE d   1      -2.493   0.119   2.255  0.00  0.00    -0.078 A 
ATOM      4  C2  OXE d   1      -2.077  -0.877   1.404  0.00  0.00    -0.078 A 
ATOM      5  C3  OXE d   1      -0.746  -1.286   1.420  0.00  0.00     0.003 A 
ATOM      6  C4  OXE d   1       0.133  -0.802   2.397  0.00  0.00    -0.002 A 
ATOM      7  C5  OXE d   1      -0.282   0.184   3.298  0.00  0.00    -0.002 A 
ATOM      8  C6  OXE d   1      -1.576   0.685   3.213  0.00  0.00     0.003 A 
ENDROOT
TORSDOF 0
ENDMDL
