MODEL 1
REMARK minimizedAffinity -3.41567874
REMARK minimizedRMSD -1
REMARK  0 active torsions:
REMARK  status: ('A' for Active; 'I' for Inactive)
ROOT
ATOM      1  C2' OXE d   1      -0.956  -1.713  -1.898  0.00  0.00     0.078 C 
ATOM      2  C1' OXE d   1      -0.087  -3.373  -3.988  0.00  0.00     0.078 C 
ATOM      3  C1  OXE d   1      -0.405  -1.936  -4.317  0.00  0.00    -0.078 A 
ATOM      4  C2  OXE d   1      -0.874  -1.143  -3.298  0.00  0.00    -0.078 A 
ATOM      5  C3  OXE d   1      -1.131   0.204  -3.535  0.00  0.00     0.003 A 
ATOM      6  C4  OXE d   1      -1.062   0.721  -4.835  0.00  0.00    -0.002 A 
ATOM      7  C5  OXE d   1      -0.625  -0.080  -5.895  0.00  0.00    -0.002 A 
ATOM      8  C6  OXE d   1      -0.252  -1.396  -5.646  0.00  0.00     0.003 A 
ENDROOT
TORSDOF 0
ENDMDL
