MODEL 1
REMARK minimizedAffinity 2.12832785
REMARK minimizedRMSD -1
REMARK  0 active torsions:
REMARK  status: ('A' for Active; 'I' for Inactive)
ROOT
ATOM      1  C2' OXE d   1      -1.125  -1.132  -1.969  0.00  0.00     0.078 C 
ATOM      2  C1' OXE d   1      -0.018  -2.912  -3.835  0.00  0.00     0.078 C 
ATOM      3  C1  OXE d   1      -0.302  -1.503  -4.290  0.00  0.00    -0.078 A 
ATOM      4  C2  OXE d   1      -0.887  -0.652  -3.384  0.00  0.00    -0.078 A 
ATOM      5  C3  OXE d   1      -1.120   0.675  -3.736  0.00  0.00     0.003 A 
ATOM      6  C4  OXE d   1      -0.906   1.108  -5.050  0.00  0.00    -0.002 A 
ATOM      7  C5  OXE d   1      -0.348   0.246  -5.999  0.00  0.00    -0.002 A 
ATOM      8  C6  OXE d   1      -0.001  -1.047  -5.625  0.00  0.00     0.003 A 
ENDROOT
TORSDOF 0
ENDMDL
