MODEL 1
REMARK minimizedAffinity -0.788948715
REMARK minimizedRMSD -1
REMARK  0 active torsions:
REMARK  status: ('A' for Active; 'I' for Inactive)
ROOT
ATOM      1  C2' OXE d   1      -1.550  -2.002   0.170  0.00  0.00     0.078 C 
ATOM      2  C1' OXE d   1      -0.920  -0.538   2.480  0.00  0.00     0.078 C 
ATOM      3  C1  OXE d   1      -2.218  -0.222   1.779  0.00  0.00    -0.078 A 
ATOM      4  C2  OXE d   1      -2.496  -0.912   0.623  0.00  0.00    -0.078 A 
ATOM      5  C3  OXE d   1      -3.705  -0.699  -0.032  0.00  0.00     0.003 A 
ATOM      6  C4  OXE d   1      -4.570   0.319   0.388  0.00  0.00    -0.002 A 
ATOM      7  C5  OXE d   1      -4.287   1.060   1.540  0.00  0.00    -0.002 A 
ATOM      8  C6  OXE d   1      -3.138   0.774   2.270  0.00  0.00     0.003 A 
ENDROOT
TORSDOF 0
ENDMDL
