MODEL 1
REMARK minimizedAffinity 3.72275424
REMARK minimizedRMSD -1
REMARK  0 active torsions:
REMARK  status: ('A' for Active; 'I' for Inactive)
ROOT
ATOM      1  C2' OXE d   1      -1.885  -1.932   0.294  0.00  0.00     0.078 C 
ATOM      2  C1' OXE d   1      -0.671  -0.550   2.415  0.00  0.00     0.078 C 
ATOM      3  C1  OXE d   1      -2.043  -0.102   1.977  0.00  0.00    -0.078 A 
ATOM      4  C2  OXE d   1      -2.610  -0.753   0.908  0.00  0.00    -0.078 A 
ATOM      5  C3  OXE d   1      -3.897  -0.416   0.498  0.00  0.00     0.003 A 
ATOM      6  C4  OXE d   1      -4.556   0.682   1.064  0.00  0.00    -0.002 A 
ATOM      7  C5  OXE d   1      -3.980   1.385   2.128  0.00  0.00    -0.002 A 
ATOM      8  C6  OXE d   1      -2.745   0.980   2.623  0.00  0.00     0.003 A 
ENDROOT
TORSDOF 0
ENDMDL
