MODEL 1
REMARK minimizedAffinity 1.22819865
REMARK minimizedRMSD -1
REMARK  0 active torsions:
REMARK  status: ('A' for Active; 'I' for Inactive)
ROOT
ATOM      1  C2' OXE d   1      -1.534  -1.772   0.111  0.00  0.00     0.078 C 
ATOM      2  C1' OXE d   1      -0.382  -0.861   2.503  0.00  0.00     0.078 C 
ATOM      3  C1  OXE d   1      -1.688  -0.242   2.070  0.00  0.00    -0.078 A 
ATOM      4  C2  OXE d   1      -2.220  -0.660   0.875  0.00  0.00    -0.078 A 
ATOM      5  C3  OXE d   1      -3.450  -0.161   0.455  0.00  0.00     0.003 A 
ATOM      6  C4  OXE d   1      -4.074   0.874   1.163  0.00  0.00    -0.002 A 
ATOM      7  C5  OXE d   1      -3.528   1.343   2.363  0.00  0.00    -0.002 A 
ATOM      8  C6  OXE d   1      -2.360   0.767   2.851  0.00  0.00     0.003 A 
ENDROOT
TORSDOF 0
ENDMDL
