MODEL 1
REMARK minimizedAffinity -0.340589106
REMARK minimizedRMSD -1
REMARK  0 active torsions:
REMARK  status: ('A' for Active; 'I' for Inactive)
ROOT
ATOM      1  C2' OXE d   1       0.008  -1.320  -1.795  0.00  0.00     0.078 C 
ATOM      2  C1' OXE d   1       0.476  -3.320  -3.708  0.00  0.00     0.078 C 
ATOM      3  C1  OXE d   1       0.152  -1.933  -4.205  0.00  0.00    -0.078 A 
ATOM      4  C2  OXE d   1      -0.122  -0.972  -3.262  0.00  0.00    -0.078 A 
ATOM      5  C3  OXE d   1      -0.374   0.336  -3.664  0.00  0.00     0.003 A 
ATOM      6  C4  OXE d   1      -0.502   0.648  -5.023  0.00  0.00    -0.002 A 
ATOM      7  C5  OXE d   1      -0.267  -0.326  -6.000  0.00  0.00    -0.002 A 
ATOM      8  C6  OXE d   1       0.102  -1.608  -5.609  0.00  0.00     0.003 A 
ENDROOT
TORSDOF 0
ENDMDL
