MODEL 1
REMARK minimizedAffinity -2.08736038
REMARK minimizedRMSD -1
REMARK  0 active torsions:
REMARK  status: ('A' for Active; 'I' for Inactive)
ROOT
ATOM      1  C2' OXE d   1      -0.556  -0.822   2.329  0.00  0.00     0.078 C 
ATOM      2  C1' OXE d   1      -1.106  -1.077  -0.412  0.00  0.00     0.078 C 
ATOM      3  C1  OXE d   1      -2.176  -0.481   0.467  0.00  0.00    -0.078 A 
ATOM      4  C2  OXE d   1      -1.917  -0.403   1.814  0.00  0.00    -0.078 A 
ATOM      5  C3  OXE d   1      -2.848   0.188   2.663  0.00  0.00     0.003 A 
ATOM      6  C4  OXE d   1      -4.108   0.564   2.181  0.00  0.00    -0.002 A 
ATOM      7  C5  OXE d   1      -4.408   0.456   0.819  0.00  0.00    -0.002 A 
ATOM      8  C6  OXE d   1      -3.439  -0.024  -0.056  0.00  0.00     0.003 A 
ENDROOT
TORSDOF 0
ENDMDL
