MODEL 1
REMARK minimizedAffinity 2.89171934
REMARK minimizedRMSD -1
REMARK  0 active torsions:
REMARK  status: ('A' for Active; 'I' for Inactive)
ROOT
ATOM      1  C2' OXE d   1      -0.370  -1.488  -1.966  0.00  0.00     0.078 C 
ATOM      2  C1' OXE d   1       0.041  -3.228  -4.130  0.00  0.00     0.078 C 
ATOM      3  C1  OXE d   1      -0.329  -1.798  -4.437  0.00  0.00    -0.078 A 
ATOM      4  C2  OXE d   1      -0.574  -0.966  -3.372  0.00  0.00    -0.078 A 
ATOM      5  C3  OXE d   1      -0.865   0.376  -3.598  0.00  0.00     0.003 A 
ATOM      6  C4  OXE d   1      -1.061   0.849  -4.901  0.00  0.00    -0.002 A 
ATOM      7  C5  OXE d   1      -0.856   0.008  -6.000  0.00  0.00    -0.002 A 
ATOM      8  C6  OXE d   1      -0.449  -1.304  -5.787  0.00  0.00     0.003 A 
ENDROOT
TORSDOF 0
ENDMDL
