MODEL 1
REMARK minimizedAffinity -4.4576726
REMARK minimizedRMSD -1
REMARK  0 active torsions:
REMARK  status: ('A' for Active; 'I' for Inactive)
ROOT
ATOM      1  C2' OXE d   1      -0.908  -1.708  -1.111  0.00  0.00     0.078 C 
ATOM      2  C1' OXE d   1       0.112  -0.698   1.302  0.00  0.00     0.078 C 
ATOM      3  C1  OXE d   1      -1.325  -0.392   0.962  0.00  0.00    -0.078 A 
ATOM      4  C2  OXE d   1      -1.802  -0.851  -0.242  0.00  0.00    -0.078 A 
ATOM      5  C3  OXE d   1      -3.136  -0.643  -0.580  0.00  0.00     0.003 A 
ATOM      6  C4  OXE d   1      -3.954   0.160   0.225  0.00  0.00    -0.002 A 
ATOM      7  C5  OXE d   1      -3.477   0.671   1.437  0.00  0.00    -0.002 A 
ATOM      8  C6  OXE d   1      -2.180   0.369   1.839  0.00  0.00     0.003 A 
ENDROOT
TORSDOF 0
ENDMDL
