MODEL 1
REMARK minimizedAffinity -4.4571228
REMARK minimizedRMSD -1
REMARK  0 active torsions:
REMARK  status: ('A' for Active; 'I' for Inactive)
ROOT
ATOM      1  O1  BZF d   1      -2.214  -5.920  -4.918  0.00  0.00    -0.204 OA
ATOM      2  C2  BZF d   1      -0.874  -5.611  -5.047  0.00  0.00     0.174 A 
ATOM      3  C3  BZF d   1      -0.350  -5.250  -3.858  0.00  0.00    -0.012 A 
ATOM      4  C3A BZF d   1      -1.407  -5.427  -2.911  0.00  0.00    -0.107 A 
ATOM      5  C4  BZF d   1      -1.497  -5.248  -1.560  0.00  0.00     0.055 A 
ATOM      6  C5  BZF d   1      -2.695  -5.440  -0.947  0.00  0.00    -0.016 A 
ATOM      7  C6  BZF d   1      -3.822  -5.806  -1.653  0.00  0.00     0.022 A 
ATOM      8  C7  BZF d   1      -3.781  -6.000  -2.994  0.00  0.00     0.029 A 
ATOM      9  C7A BZF d   1      -2.564  -5.839  -3.612  0.00  0.00     0.058 A 
ENDROOT
TORSDOF 0
ENDMDL
