MODEL 1
REMARK minimizedAffinity -2.14824891
REMARK minimizedRMSD -1
REMARK  0 active torsions:
REMARK  status: ('A' for Active; 'I' for Inactive)
ROOT
ATOM      1  O1  BZF d   1      -0.403  -5.952  -3.783  0.00  0.00    -0.204 OA
ATOM      2  C2  BZF d   1      -0.924  -5.942  -5.063  0.00  0.00     0.174 A 
ATOM      3  C3  BZF d   1      -2.271  -5.997  -5.031  0.00  0.00    -0.012 A 
ATOM      4  C3A BZF d   1      -2.618  -5.952  -3.644  0.00  0.00    -0.107 A 
ATOM      5  C4  BZF d   1      -3.807  -5.958  -2.973  0.00  0.00     0.055 A 
ATOM      6  C5  BZF d   1      -3.798  -5.978  -1.614  0.00  0.00    -0.016 A 
ATOM      7  C6  BZF d   1      -2.620  -5.998  -0.896  0.00  0.00     0.022 A 
ATOM      8  C7  BZF d   1      -1.416  -5.988  -1.517  0.00  0.00     0.029 A 
ATOM      9  C7A BZF d   1      -1.422  -5.934  -2.890  0.00  0.00     0.058 A 
ENDROOT
TORSDOF 0
ENDMDL
