MODEL 1
REMARK minimizedAffinity -6.50418901
REMARK minimizedRMSD -1
REMARK  0 active torsions:
REMARK  status: ('A' for Active; 'I' for Inactive)
ROOT
ATOM      1  O1  BZF d   1       0.610  -5.129   3.653  0.00  0.00    -0.204 OA
ATOM      2  C2  BZF d   1       1.256  -5.128   4.874  0.00  0.00     0.174 A 
ATOM      3  C3  BZF d   1       1.966  -3.993   5.039  0.00  0.00    -0.012 A 
ATOM      4  C3A BZF d   1       1.675  -3.197   3.886  0.00  0.00    -0.107 A 
ATOM      5  C4  BZF d   1       2.068  -1.954   3.480  0.00  0.00     0.055 A 
ATOM      6  C5  BZF d   1       1.662  -1.496   2.267  0.00  0.00    -0.016 A 
ATOM      7  C6  BZF d   1       0.867  -2.256   1.433  0.00  0.00     0.022 A 
ATOM      8  C7  BZF d   1       0.448  -3.493   1.795  0.00  0.00     0.029 A 
ATOM      9  C7A BZF d   1       0.830  -3.945   3.034  0.00  0.00     0.058 A 
ENDROOT
TORSDOF 0
ENDMDL
