MODEL 1
REMARK minimizedAffinity -6.20182085
REMARK minimizedRMSD -1
REMARK  0 active torsions:
REMARK  status: ('A' for Active; 'I' for Inactive)
ROOT
ATOM      1  O1  BZF d   1       1.026  -5.552   3.528  0.00  0.00    -0.204 OA
ATOM      2  C2  BZF d   1       1.494  -5.484   4.826  0.00  0.00     0.174 A 
ATOM      3  C3  BZF d   1       1.873  -4.227   5.133  0.00  0.00    -0.012 A 
ATOM      4  C3A BZF d   1       1.540  -3.442   3.983  0.00  0.00    -0.107 A 
ATOM      5  C4  BZF d   1       1.660  -2.115   3.685  0.00  0.00     0.055 A 
ATOM      6  C5  BZF d   1       1.307  -1.682   2.446  0.00  0.00    -0.016 A 
ATOM      7  C6  BZF d   1       0.837  -2.548   1.481  0.00  0.00     0.022 A 
ATOM      8  C7  BZF d   1       0.696  -3.872   1.731  0.00  0.00     0.029 A 
ATOM      9  C7A BZF d   1       1.020  -4.308   2.993  0.00  0.00     0.058 A 
ENDROOT
TORSDOF 0
ENDMDL
