MODEL 1
REMARK minimizedAffinity -4.50554705
REMARK minimizedRMSD -1
REMARK  0 active torsions:
REMARK  status: ('A' for Active; 'I' for Inactive)
ROOT
ATOM      1  O1  BZF d   1      -2.245  -5.950  -4.467  0.00  0.00    -0.204 OA
ATOM      2  C2  BZF d   1      -0.882  -5.940  -4.242  0.00  0.00     0.174 A 
ATOM      3  C3  BZF d   1      -0.614  -5.898  -2.921  0.00  0.00    -0.012 A 
ATOM      4  C3A BZF d   1      -1.890  -5.974  -2.277  0.00  0.00    -0.107 A 
ATOM      5  C4  BZF d   1      -2.281  -5.993  -0.968  0.00  0.00     0.055 A 
ATOM      6  C5  BZF d   1      -3.608  -5.999  -0.676  0.00  0.00    -0.016 A 
ATOM      7  C6  BZF d   1      -4.570  -5.981  -1.665  0.00  0.00     0.022 A 
ATOM      8  C7  BZF d   1      -4.230  -5.968  -2.977  0.00  0.00     0.029 A 
ATOM      9  C7A BZF d   1      -2.890  -5.995  -3.276  0.00  0.00     0.058 A 
ENDROOT
TORSDOF 0
ENDMDL
