MODEL 1
REMARK minimizedAffinity -3.99167585
REMARK minimizedRMSD -1
REMARK  0 active torsions:
REMARK  status: ('A' for Active; 'I' for Inactive)
ROOT
ATOM      1  O1  BZF d   1      -1.405  -5.621  -4.799  0.00  0.00    -0.204 OA
ATOM      2  C2  BZF d   1      -1.739  -5.887  -3.485  0.00  0.00     0.174 A 
ATOM      3  C3  BZF d   1      -0.631  -6.000  -2.724  0.00  0.00    -0.012 A 
ATOM      4  C3A BZF d   1       0.460  -5.700  -3.600  0.00  0.00    -0.107 A 
ATOM      5  C4  BZF d   1       1.812  -5.631  -3.425  0.00  0.00     0.055 A 
ATOM      6  C5  BZF d   1       2.605  -5.383  -4.500  0.00  0.00    -0.016 A 
ATOM      7  C6  BZF d   1       2.081  -5.206  -5.764  0.00  0.00     0.022 A 
ATOM      8  C7  BZF d   1       0.745  -5.260  -5.986  0.00  0.00     0.029 A 
ATOM      9  C7A BZF d   1      -0.061  -5.477  -4.895  0.00  0.00     0.058 A 
ENDROOT
TORSDOF 0
ENDMDL
