MODEL 1
REMARK minimizedAffinity -2.13822842
REMARK minimizedRMSD -1
REMARK  0 active torsions:
REMARK  status: ('A' for Active; 'I' for Inactive)
ROOT
ATOM      1  O1  BZF d   1       2.586  -3.441   2.347  0.00  0.00    -0.204 OA
ATOM      2  C2  BZF d   1       1.952  -2.214   2.390  0.00  0.00     0.174 A 
ATOM      3  C3  BZF d   1       1.246  -2.081   3.532  0.00  0.00    -0.012 A 
ATOM      4  C3A BZF d   1       1.526  -3.263   4.288  0.00  0.00    -0.107 A 
ATOM      5  C4  BZF d   1       1.130  -3.706   5.517  0.00  0.00     0.055 A 
ATOM      6  C5  BZF d   1       1.525  -4.938   5.934  0.00  0.00    -0.016 A 
ATOM      7  C6  BZF d   1       2.310  -5.754   5.145  0.00  0.00     0.022 A 
ATOM      8  C7  BZF d   1       2.732  -5.355   3.920  0.00  0.00     0.029 A 
ATOM      9  C7A BZF d   1       2.362  -4.098   3.511  0.00  0.00     0.058 A 
ENDROOT
TORSDOF 0
ENDMDL
