MODEL 1
REMARK minimizedAffinity 0.501995981
REMARK minimizedRMSD -1
REMARK  0 active torsions:
REMARK  status: ('A' for Active; 'I' for Inactive)
ROOT
ATOM      1  O1  BZF d   1      -6.000  -5.955   0.222  0.00  0.00    -0.204 OA
ATOM      2  C2  BZF d   1      -5.685  -6.000  -1.123  0.00  0.00     0.174 A 
ATOM      3  C3  BZF d   1      -4.493  -5.413  -1.354  0.00  0.00    -0.012 A 
ATOM      4  C3A BZF d   1      -3.991  -5.057  -0.062  0.00  0.00    -0.107 A 
ATOM      5  C4  BZF d   1      -2.842  -4.456   0.366  0.00  0.00     0.055 A 
ATOM      6  C5  BZF d   1      -2.692  -4.186   1.689  0.00  0.00    -0.016 A 
ATOM      7  C6  BZF d   1      -3.671  -4.497   2.610  0.00  0.00     0.022 A 
ATOM      8  C7  BZF d   1      -4.826  -5.098   2.233  0.00  0.00     0.029 A 
ATOM      9  C7A BZF d   1      -4.967  -5.402   0.901  0.00  0.00     0.058 A 
ENDROOT
TORSDOF 0
ENDMDL
