MODEL 1
REMARK minimizedAffinity -3.6934371
REMARK minimizedRMSD -1
REMARK  0 active torsions:
REMARK  status: ('A' for Active; 'I' for Inactive)
ROOT
ATOM      1  O1  BZF d   1       1.981  -3.209   2.348  0.00  0.00    -0.204 OA
ATOM      2  C2  BZF d   1       1.635  -1.963   2.832  0.00  0.00     0.174 A 
ATOM      3  C3  BZF d   1       1.504  -1.991   4.174  0.00  0.00    -0.012 A 
ATOM      4  C3A BZF d   1       1.876  -3.317   4.561  0.00  0.00    -0.107 A 
ATOM      5  C4  BZF d   1       1.964  -3.954   5.766  0.00  0.00     0.055 A 
ATOM      6  C5  BZF d   1       2.287  -5.273   5.794  0.00  0.00    -0.016 A 
ATOM      7  C6  BZF d   1       2.524  -5.987   4.637  0.00  0.00     0.022 A 
ATOM      8  C7  BZF d   1       2.453  -5.398   3.419  0.00  0.00     0.029 A 
ATOM      9  C7A BZF d   1       2.159  -4.057   3.389  0.00  0.00     0.058 A 
ENDROOT
TORSDOF 0
ENDMDL
