MODEL 1
REMARK minimizedAffinity -4.14460468
REMARK minimizedRMSD -1
REMARK  0 active torsions:
REMARK  status: ('A' for Active; 'I' for Inactive)
ROOT
ATOM      1  O1  BZF d   1       0.896  -5.270   4.428  0.00  0.00    -0.204 OA
ATOM      2  C2  BZF d   1       1.743  -5.429   5.508  0.00  0.00     0.174 A 
ATOM      3  C3  BZF d   1       2.626  -4.412   5.576  0.00  0.00    -0.012 A 
ATOM      4  C3A BZF d   1       2.252  -3.517   4.523  0.00  0.00    -0.107 A 
ATOM      5  C4  BZF d   1       2.742  -2.318   4.093  0.00  0.00     0.055 A 
ATOM      6  C5  BZF d   1       2.196  -1.738   2.991  0.00  0.00    -0.016 A 
ATOM      7  C6  BZF d   1       1.164  -2.333   2.294  0.00  0.00     0.022 A 
ATOM      8  C7  BZF d   1       0.642  -3.520   2.686  0.00  0.00     0.029 A 
ATOM      9  C7A BZF d   1       1.170  -4.092   3.818  0.00  0.00     0.058 A 
ENDROOT
TORSDOF 0
ENDMDL
