MODEL 1
REMARK minimizedAffinity -3.67004848
REMARK minimizedRMSD -1
REMARK  0 active torsions:
REMARK  status: ('A' for Active; 'I' for Inactive)
ROOT
ATOM      1  O1  BZF d   1      -4.085  -5.947  -2.552  0.00  0.00    -0.204 OA
ATOM      2  C2  BZF d   1      -4.126  -5.939  -1.171  0.00  0.00     0.174 A 
ATOM      3  C3  BZF d   1      -2.882  -5.999  -0.655  0.00  0.00    -0.012 A 
ATOM      4  C3A BZF d   1      -2.004  -5.954  -1.783  0.00  0.00    -0.107 A 
ATOM      5  C4  BZF d   1      -0.644  -5.964  -1.916  0.00  0.00     0.055 A 
ATOM      6  C5  BZF d   1      -0.103  -5.984  -3.162  0.00  0.00    -0.016 A 
ATOM      7  C6  BZF d   1      -0.889  -6.000  -4.296  0.00  0.00     0.022 A 
ATOM      8  C7  BZF d   1      -2.242  -5.986  -4.214  0.00  0.00     0.029 A 
ATOM      9  C7A BZF d   1      -2.792  -5.932  -2.957  0.00  0.00     0.058 A 
ENDROOT
TORSDOF 0
ENDMDL
