MODEL 1
REMARK minimizedAffinity -4.42712784
REMARK minimizedRMSD -1
REMARK  0 active torsions:
REMARK  status: ('A' for Active; 'I' for Inactive)
ROOT
ATOM      1  O1  BZF d   1      -2.231  -5.890  -5.106  0.00  0.00    -0.204 OA
ATOM      2  C2  BZF d   1      -0.873  -5.785  -5.339  0.00  0.00     0.174 A 
ATOM      3  C3  BZF d   1      -0.194  -5.690  -4.177  0.00  0.00    -0.012 A 
ATOM      4  C3A BZF d   1      -1.182  -5.832  -3.152  0.00  0.00    -0.107 A 
ATOM      5  C4  BZF d   1      -1.123  -5.841  -1.787  0.00  0.00     0.055 A 
ATOM      6  C5  BZF d   1      -2.279  -5.926  -1.077  0.00  0.00    -0.016 A 
ATOM      7  C6  BZF d   1      -3.509  -5.998  -1.698  0.00  0.00     0.022 A 
ATOM      8  C7  BZF d   1      -3.617  -5.998  -3.049  0.00  0.00     0.029 A 
ATOM      9  C7A BZF d   1      -2.448  -5.945  -3.770  0.00  0.00     0.058 A 
ENDROOT
TORSDOF 0
ENDMDL
