MODEL 1
REMARK minimizedAffinity 6.33933067
REMARK minimizedRMSD -1
REMARK  0 active torsions:
REMARK  status: ('A' for Active; 'I' for Inactive)
ROOT
ATOM      1  O1  BZF d   1       2.048   0.188   0.994  0.00  0.00    -0.204 OA
ATOM      2  C2  BZF d   1       2.637  -0.631   1.939  0.00  0.00     0.174 A 
ATOM      3  C3  BZF d   1       2.034  -1.836   1.971  0.00  0.00    -0.012 A 
ATOM      4  C3A BZF d   1       1.063  -1.799   0.920  0.00  0.00    -0.107 A 
ATOM      5  C4  BZF d   1       0.160  -2.705   0.444  0.00  0.00     0.055 A 
ATOM      6  C5  BZF d   1      -0.693  -2.330  -0.546  0.00  0.00    -0.016 A 
ATOM      7  C6  BZF d   1      -0.674  -1.058  -1.077  0.00  0.00     0.022 A 
ATOM      8  C7  BZF d   1       0.208  -0.125  -0.641  0.00  0.00     0.029 A 
ATOM      9  C7A BZF d   1       1.093  -0.511   0.336  0.00  0.00     0.058 A 
ENDROOT
TORSDOF 0
ENDMDL
