MODEL 1
REMARK minimizedAffinity -4.07559252
REMARK minimizedRMSD -1
REMARK  0 active torsions:
REMARK  status: ('A' for Active; 'I' for Inactive)
ROOT
ATOM      1  O1  BZF d   1       0.873  -5.190   4.886  0.00  0.00    -0.204 OA
ATOM      2  C2  BZF d   1       1.928  -5.350   5.763  0.00  0.00     0.174 A 
ATOM      3  C3  BZF d   1       2.800  -4.327   5.654  0.00  0.00    -0.012 A 
ATOM      4  C3A BZF d   1       2.208  -3.427   4.711  0.00  0.00    -0.107 A 
ATOM      5  C4  BZF d   1       2.589  -2.220   4.199  0.00  0.00     0.055 A 
ATOM      6  C5  BZF d   1       1.821  -1.637   3.242  0.00  0.00    -0.016 A 
ATOM      7  C6  BZF d   1       0.670  -2.234   2.771  0.00  0.00     0.022 A 
ATOM      8  C7  BZF d   1       0.249  -3.429   3.252  0.00  0.00     0.029 A 
ATOM      9  C7A BZF d   1       1.006  -4.005   4.243  0.00  0.00     0.058 A 
ENDROOT
TORSDOF 0
ENDMDL
