MODEL 1
REMARK minimizedAffinity 11.9342833
REMARK minimizedRMSD -1
REMARK  0 active torsions:
REMARK  status: ('A' for Active; 'I' for Inactive)
ROOT
ATOM      1  O1  BZF d   1      -5.999   1.167  -2.237  0.00  0.00    -0.204 OA
ATOM      2  C2  BZF d   1      -5.175   0.944  -3.323  0.00  0.00     0.174 A 
ATOM      3  C3  BZF d   1      -4.136   0.155  -2.982  0.00  0.00    -0.012 A 
ATOM      4  C3A BZF d   1      -4.372  -0.208  -1.618  0.00  0.00    -0.107 A 
ATOM      5  C4  BZF d   1      -3.697  -0.991  -0.725  0.00  0.00     0.055 A 
ATOM      6  C5  BZF d   1      -4.155  -1.081   0.552  0.00  0.00    -0.016 A 
ATOM      7  C6  BZF d   1      -5.279  -0.399   0.970  0.00  0.00     0.022 A 
ATOM      8  C7  BZF d   1      -5.984   0.386   0.119  0.00  0.00     0.029 A 
ATOM      9  C7A BZF d   1      -5.543   0.453  -1.180  0.00  0.00     0.058 A 
ENDROOT
TORSDOF 0
ENDMDL
