MODEL 1
REMARK minimizedAffinity 3.86294127
REMARK minimizedRMSD -1
REMARK  0 active torsions:
REMARK  status: ('A' for Active; 'I' for Inactive)
ROOT
ATOM      1  O1  BZF d   1      -0.758  -5.993  -5.436  0.00  0.00    -0.204 OA
ATOM      2  C2  BZF d   1      -1.507  -5.388  -4.446  0.00  0.00     0.174 A 
ATOM      3  C3  BZF d   1      -0.716  -4.687  -3.608  0.00  0.00    -0.012 A 
ATOM      4  C3A BZF d   1       0.600  -4.789  -4.160  0.00  0.00    -0.107 A 
ATOM      5  C4  BZF d   1       1.816  -4.290  -3.788  0.00  0.00     0.055 A 
ATOM      6  C5  BZF d   1       2.919  -4.636  -4.502  0.00  0.00    -0.016 A 
ATOM      7  C6  BZF d   1       2.844  -5.482  -5.589  0.00  0.00     0.022 A 
ATOM      8  C7  BZF d   1       1.660  -5.998  -6.000  0.00  0.00     0.029 A 
ATOM      9  C7A BZF d   1       0.539  -5.624  -5.300  0.00  0.00     0.058 A 
ENDROOT
TORSDOF 0
ENDMDL
