MODEL 1
REMARK minimizedAffinity 10.0143089
REMARK minimizedRMSD -1
REMARK  0 active torsions:
REMARK  status: ('A' for Active; 'I' for Inactive)
ROOT
ATOM      1  O1  BZF d   1       1.364  -1.183   2.622  0.00  0.00    -0.204 OA
ATOM      2  C2  BZF d   1       1.084  -0.806   1.323  0.00  0.00     0.174 A 
ATOM      3  C3  BZF d   1       2.210  -0.437   0.678  0.00  0.00    -0.012 A 
ATOM      4  C3A BZF d   1       3.271  -0.680   1.606  0.00  0.00    -0.107 A 
ATOM      5  C4  BZF d   1       4.627  -0.527   1.544  0.00  0.00     0.055 A 
ATOM      6  C5  BZF d   1       5.373  -0.787   2.650  0.00  0.00    -0.016 A 
ATOM      7  C6  BZF d   1       4.797  -1.197   3.834  0.00  0.00     0.022 A 
ATOM      8  C7  BZF d   1       3.457  -1.369   3.943  0.00  0.00     0.029 A 
ATOM      9  C7A BZF d   1       2.703  -1.138   2.818  0.00  0.00     0.058 A 
ENDROOT
TORSDOF 0
ENDMDL
