MODEL 1
REMARK minimizedAffinity -0.433497578
REMARK minimizedRMSD -1
REMARK  0 active torsions:
REMARK  status: ('A' for Active; 'I' for Inactive)
ROOT
ATOM      1  O1  BZF d   1      -3.570   0.456  -3.682  0.00  0.00    -0.204 OA
ATOM      2  C2  BZF d   1      -3.673   1.830  -3.583  0.00  0.00     0.174 A 
ATOM      3  C3  BZF d   1      -4.191   2.186  -2.390  0.00  0.00    -0.012 A 
ATOM      4  C3A BZF d   1      -4.341   0.962  -1.664  0.00  0.00    -0.107 A 
ATOM      5  C4  BZF d   1      -4.792   0.664  -0.410  0.00  0.00     0.055 A 
ATOM      6  C5  BZF d   1      -4.879  -0.639  -0.032  0.00  0.00    -0.016 A 
ATOM      7  C6  BZF d   1      -4.530  -1.666  -0.883  0.00  0.00     0.022 A 
ATOM      8  C7  BZF d   1      -4.072  -1.419  -2.135  0.00  0.00     0.029 A 
ATOM      9  C7A BZF d   1      -3.952  -0.103  -2.508  0.00  0.00     0.058 A 
ENDROOT
TORSDOF 0
ENDMDL
