MODEL 1
REMARK minimizedAffinity 9.23142242
REMARK minimizedRMSD -1
REMARK  0 active torsions:
REMARK  status: ('A' for Active; 'I' for Inactive)
ROOT
ATOM      1  C   UNL d   1       0.433  -3.750  -3.214  0.00  0.00     0.077 C 
ATOM      2  C1  UNL d   1       1.325  -3.284  -2.102  0.00  0.00    -0.074 A 
ATOM      3  C2  UNL d   1       2.003  -4.200  -1.292  0.00  0.00    -0.005 A 
ATOM      4  C3  UNL d   1       2.837  -3.751  -0.268  0.00  0.00     0.006 A 
ATOM      5  C4  UNL d   1       3.000  -2.384  -0.043  0.00  0.00    -0.005 A 
ATOM      6  C5  UNL d   1       2.330  -1.453  -0.843  0.00  0.00    -0.074 A 
ATOM      7  C6  UNL d   1       2.502   0.021  -0.621  0.00  0.00     0.077 C 
ATOM      8  C7  UNL d   1       1.500  -1.911  -1.875  0.00  0.00    -0.001 A 
ENDROOT
TORSDOF 0
ENDMDL
