MODEL 1
REMARK minimizedAffinity 4.66624212
REMARK minimizedRMSD -1
REMARK  0 active torsions:
REMARK  status: ('A' for Active; 'I' for Inactive)
ROOT
ATOM      1  C   UNL d   1      -4.464  -1.828   1.955  0.00  0.00     0.077 C 
ATOM      2  C1  UNL d   1      -3.467  -0.744   2.235  0.00  0.00    -0.074 A 
ATOM      3  C2  UNL d   1      -3.789   0.331   3.070  0.00  0.00    -0.005 A 
ATOM      4  C3  UNL d   1      -2.847   1.327   3.328  0.00  0.00     0.006 A 
ATOM      5  C4  UNL d   1      -1.577   1.259   2.755  0.00  0.00    -0.005 A 
ATOM      6  C5  UNL d   1      -1.237   0.191   1.919  0.00  0.00    -0.074 A 
ATOM      7  C6  UNL d   1       0.128   0.098   1.303  0.00  0.00     0.077 C 
ATOM      8  C7  UNL d   1      -2.186  -0.809   1.669  0.00  0.00    -0.001 A 
ENDROOT
TORSDOF 0
ENDMDL
