MODEL 1
REMARK minimizedAffinity 11.8596535
REMARK minimizedRMSD -1
REMARK  0 active torsions:
REMARK  status: ('A' for Active; 'I' for Inactive)
ROOT
ATOM      1  C   UNL d   1       4.401   1.991   1.174  0.00  0.00     0.077 C 
ATOM      2  C1  UNL d   1       3.765   0.738   0.649  0.00  0.00    -0.074 A 
ATOM      3  C2  UNL d   1       2.573   0.789  -0.081  0.00  0.00    -0.005 A 
ATOM      4  C3  UNL d   1       1.998  -0.384  -0.572  0.00  0.00     0.006 A 
ATOM      5  C4  UNL d   1       2.609  -1.617  -0.338  0.00  0.00    -0.005 A 
ATOM      6  C5  UNL d   1       3.802  -1.687   0.389  0.00  0.00    -0.074 A 
ATOM      7  C6  UNL d   1       4.476  -3.003   0.640  0.00  0.00     0.077 C 
ATOM      8  C7  UNL d   1       4.377  -0.503   0.872  0.00  0.00    -0.001 A 
ENDROOT
TORSDOF 0
ENDMDL
