MODEL 1
REMARK minimizedAffinity 7.20961857
REMARK minimizedRMSD -1
REMARK  0 active torsions:
REMARK  status: ('A' for Active; 'I' for Inactive)
ROOT
ATOM      1  C   UNL d   1       0.390  -3.486  -3.292  0.00  0.00     0.077 C 
ATOM      2  C1  UNL d   1       1.227  -2.893  -2.198  0.00  0.00    -0.074 A 
ATOM      3  C2  UNL d   1       1.796  -3.703  -1.210  0.00  0.00    -0.005 A 
ATOM      4  C3  UNL d   1       2.580  -3.139  -0.203  0.00  0.00     0.006 A 
ATOM      5  C4  UNL d   1       2.802  -1.762  -0.175  0.00  0.00    -0.005 A 
ATOM      6  C5  UNL d   1       2.242  -0.936  -1.155  0.00  0.00    -0.074 A 
ATOM      7  C6  UNL d   1       2.479   0.545  -1.144  0.00  0.00     0.077 C 
ATOM      8  C7  UNL d   1       1.461  -1.511  -2.167  0.00  0.00    -0.001 A 
ENDROOT
TORSDOF 0
ENDMDL
