MODEL 1
REMARK minimizedAffinity 13.1303968
REMARK minimizedRMSD -1
REMARK  0 active torsions:
REMARK  status: ('A' for Active; 'I' for Inactive)
ROOT
ATOM      1  C   UNL d   1      -5.999   3.372   3.427  0.00  0.00     0.077 C 
ATOM      2  C1  UNL d   1      -4.737   2.868   4.060  0.00  0.00    -0.074 A 
ATOM      3  C2  UNL d   1      -4.488   3.064   5.423  0.00  0.00    -0.005 A 
ATOM      4  C3  UNL d   1      -3.313   2.582   6.000  0.00  0.00     0.006 A 
ATOM      5  C4  UNL d   1      -2.377   1.900   5.222  0.00  0.00    -0.005 A 
ATOM      6  C5  UNL d   1      -2.609   1.693   3.858  0.00  0.00    -0.074 A 
ATOM      7  C6  UNL d   1      -1.618   0.953   3.010  0.00  0.00     0.077 C 
ATOM      8  C7  UNL d   1      -3.795   2.175   3.287  0.00  0.00    -0.001 A 
ENDROOT
TORSDOF 0
ENDMDL
