MODEL 1
REMARK minimizedAffinity 7.97592163
REMARK minimizedRMSD -1
REMARK  0 active torsions:
REMARK  status: ('A' for Active; 'I' for Inactive)
ROOT
ATOM      1  C   UNL d   1       1.096   1.836   3.497  0.00  0.00     0.077 C 
ATOM      2  C1  UNL d   1       1.699   1.558   2.152  0.00  0.00    -0.074 A 
ATOM      3  C2  UNL d   1       1.041   0.746   1.223  0.00  0.00    -0.005 A 
ATOM      4  C3  UNL d   1       1.610   0.504  -0.027  0.00  0.00     0.006 A 
ATOM      5  C4  UNL d   1       2.842   1.069  -0.360  0.00  0.00    -0.005 A 
ATOM      6  C5  UNL d   1       3.514   1.884   0.556  0.00  0.00    -0.074 A 
ATOM      7  C6  UNL d   1       4.834   2.508   0.211  0.00  0.00     0.077 C 
ATOM      8  C7  UNL d   1       2.933   2.129   1.808  0.00  0.00    -0.001 A 
ENDROOT
TORSDOF 0
ENDMDL
