MODEL 1
REMARK minimizedAffinity 10.5351534
REMARK minimizedRMSD -1
REMARK  0 active torsions:
REMARK  status: ('A' for Active; 'I' for Inactive)
ROOT
ATOM      1  C   UNL d   1       0.571  -4.180  -2.971  0.00  0.00     0.077 C 
ATOM      2  C1  UNL d   1       1.408  -3.455  -1.959  0.00  0.00    -0.074 A 
ATOM      3  C2  UNL d   1       2.265  -4.153  -1.102  0.00  0.00    -0.005 A 
ATOM      4  C3  UNL d   1       3.044  -3.465  -0.172  0.00  0.00     0.006 A 
ATOM      5  C4  UNL d   1       2.973  -2.073  -0.090  0.00  0.00    -0.005 A 
ATOM      6  C5  UNL d   1       2.122  -1.359  -0.938  0.00  0.00    -0.074 A 
ATOM      7  C6  UNL d   1       2.042   0.138  -0.869  0.00  0.00     0.077 C 
ATOM      8  C7  UNL d   1       1.348  -2.057  -1.875  0.00  0.00    -0.001 A 
ENDROOT
TORSDOF 0
ENDMDL
