MODEL 1
REMARK minimizedAffinity 7.45729065
REMARK minimizedRMSD -1
REMARK  0 active torsions:
REMARK  status: ('A' for Active; 'I' for Inactive)
ROOT
ATOM      1  C   UNL d   1       2.126  -0.545  -0.421  0.00  0.00     0.077 C 
ATOM      2  C1  UNL d   1       2.330  -1.993  -0.754  0.00  0.00    -0.074 A 
ATOM      3  C2  UNL d   1       3.234  -2.777  -0.030  0.00  0.00    -0.005 A 
ATOM      4  C3  UNL d   1       3.406  -4.125  -0.345  0.00  0.00     0.006 A 
ATOM      5  C4  UNL d   1       2.676  -4.702  -1.386  0.00  0.00    -0.005 A 
ATOM      6  C5  UNL d   1       1.767  -3.934  -2.120  0.00  0.00    -0.074 A 
ATOM      7  C6  UNL d   1       0.968  -4.540  -3.235  0.00  0.00     0.077 C 
ATOM      8  C7  UNL d   1       1.595  -2.582  -1.793  0.00  0.00    -0.001 A 
ENDROOT
TORSDOF 0
ENDMDL
