MODEL 1
REMARK minimizedAffinity 4.14881182
REMARK minimizedRMSD -1
REMARK  0 active torsions:
REMARK  status: ('A' for Active; 'I' for Inactive)
ROOT
ATOM      1  C   UNL d   1      -2.645  -4.125  -5.751  0.00  0.00     0.077 C 
ATOM      2  C1  UNL d   1      -2.120  -4.774  -4.505  0.00  0.00    -0.074 A 
ATOM      3  C2  UNL d   1      -2.991  -5.326  -3.560  0.00  0.00    -0.005 A 
ATOM      4  C3  UNL d   1      -2.488  -5.935  -2.411  0.00  0.00     0.006 A 
ATOM      5  C4  UNL d   1      -1.111  -5.999  -2.195  0.00  0.00    -0.005 A 
ATOM      6  C5  UNL d   1      -0.224  -5.454  -3.129  0.00  0.00    -0.074 A 
ATOM      7  C6  UNL d   1       1.259  -5.524  -2.918  0.00  0.00     0.077 C 
ATOM      8  C7  UNL d   1      -0.737  -4.850  -4.285  0.00  0.00    -0.001 A 
ENDROOT
TORSDOF 0
ENDMDL
