MODEL 1
REMARK minimizedAffinity 19.0759583
REMARK minimizedRMSD -1
REMARK  0 active torsions:
REMARK  status: ('A' for Active; 'I' for Inactive)
ROOT
ATOM      1  C   UNL d   1       2.224  -0.434  -1.323  0.00  0.00     0.077 C 
ATOM      2  C1  UNL d   1       2.436   0.386  -0.086  0.00  0.00    -0.074 A 
ATOM      3  C2  UNL d   1       3.636   1.073   0.124  0.00  0.00    -0.005 A 
ATOM      4  C3  UNL d   1       3.815   1.840   1.276  0.00  0.00     0.006 A 
ATOM      5  C4  UNL d   1       2.799   1.926   2.227  0.00  0.00    -0.005 A 
ATOM      6  C5  UNL d   1       1.592   1.247   2.034  0.00  0.00    -0.074 A 
ATOM      7  C6  UNL d   1       0.485   1.337   3.043  0.00  0.00     0.077 C 
ATOM      8  C7  UNL d   1       1.416   0.484   0.871  0.00  0.00    -0.001 A 
ENDROOT
TORSDOF 0
ENDMDL
