MODEL 1
REMARK minimizedAffinity 14.5475359
REMARK minimizedRMSD -1
REMARK  0 active torsions:
REMARK  status: ('A' for Active; 'I' for Inactive)
ROOT
ATOM      1  C   UNL d   1      -1.391   0.729   2.616  0.00  0.00     0.077 C 
ATOM      2  C1  UNL d   1      -2.407   1.166   3.629  0.00  0.00    -0.074 A 
ATOM      3  C2  UNL d   1      -2.100   1.186   4.993  0.00  0.00    -0.005 A 
ATOM      4  C3  UNL d   1      -3.052   1.605   5.922  0.00  0.00     0.006 A 
ATOM      5  C4  UNL d   1      -4.319   2.006   5.497  0.00  0.00    -0.005 A 
ATOM      6  C5  UNL d   1      -4.644   1.993   4.137  0.00  0.00    -0.074 A 
ATOM      7  C6  UNL d   1      -5.998   2.431   3.663  0.00  0.00     0.077 C 
ATOM      8  C7  UNL d   1      -3.680   1.579   3.209  0.00  0.00    -0.001 A 
ENDROOT
TORSDOF 0
ENDMDL
