MODEL 1
REMARK minimizedAffinity 16.5843086
REMARK minimizedRMSD -1
REMARK  0 active torsions:
REMARK  status: ('A' for Active; 'I' for Inactive)
ROOT
ATOM      1  C   UNL d   1       6.000  -3.420  -0.004  0.00  0.00     0.077 C 
ATOM      2  C1  UNL d   1       4.505  -3.297  -0.027  0.00  0.00    -0.074 A 
ATOM      3  C2  UNL d   1       3.689  -4.373   0.337  0.00  0.00    -0.005 A 
ATOM      4  C3  UNL d   1       2.301  -4.240   0.320  0.00  0.00     0.006 A 
ATOM      5  C4  UNL d   1       1.716  -3.032  -0.061  0.00  0.00    -0.005 A 
ATOM      6  C5  UNL d   1       2.515  -1.945  -0.427  0.00  0.00    -0.074 A 
ATOM      7  C6  UNL d   1       1.902  -0.636  -0.829  0.00  0.00     0.077 C 
ATOM      8  C7  UNL d   1       3.910  -2.084  -0.401  0.00  0.00    -0.001 A 
ENDROOT
TORSDOF 0
ENDMDL
