MODEL 1
REMARK minimizedAffinity 10.6360054
REMARK minimizedRMSD -1
REMARK  0 active torsions:
REMARK  status: ('A' for Active; 'I' for Inactive)
ROOT
ATOM      1  C   UNL d   1       3.344  -4.207   0.243  0.00  0.00     0.077 C 
ATOM      2  C1  UNL d   1       2.682  -2.914  -0.129  0.00  0.00    -0.074 A 
ATOM      3  C2  UNL d   1       1.970  -2.789  -1.326  0.00  0.00    -0.005 A 
ATOM      4  C3  UNL d   1       1.352  -1.582  -1.654  0.00  0.00     0.006 A 
ATOM      5  C4  UNL d   1       1.440  -0.490  -0.790  0.00  0.00    -0.005 A 
ATOM      6  C5  UNL d   1       2.147  -0.596   0.412  0.00  0.00    -0.074 A 
ATOM      7  C6  UNL d   1       2.243   0.565   1.357  0.00  0.00     0.077 C 
ATOM      8  C7  UNL d   1       2.760  -1.814   0.738  0.00  0.00    -0.001 A 
ENDROOT
TORSDOF 0
ENDMDL
