MODEL 1
REMARK minimizedAffinity 14.8815088
REMARK minimizedRMSD -1
REMARK  0 active torsions:
REMARK  status: ('A' for Active; 'I' for Inactive)
ROOT
ATOM      1  C   UNL d   1       0.240  -4.130  -4.123  0.00  0.00     0.077 C 
ATOM      2  C1  UNL d   1       1.204  -4.449  -3.019  0.00  0.00    -0.074 A 
ATOM      3  C2  UNL d   1       1.776  -5.721  -2.909  0.00  0.00    -0.005 A 
ATOM      4  C3  UNL d   1       2.678  -6.000  -1.883  0.00  0.00     0.006 A 
ATOM      5  C4  UNL d   1       3.017  -5.012  -0.958  0.00  0.00    -0.005 A 
ATOM      6  C5  UNL d   1       2.456  -3.734  -1.052  0.00  0.00    -0.074 A 
ATOM      7  C6  UNL d   1       2.818  -2.658  -0.072  0.00  0.00     0.077 C 
ATOM      8  C7  UNL d   1       1.556  -3.460  -2.090  0.00  0.00    -0.001 A 
ENDROOT
TORSDOF 0
ENDMDL
