MODEL 1
REMARK minimizedAffinity 10.3266802
REMARK minimizedRMSD -1
REMARK  0 active torsions:
REMARK  status: ('A' for Active; 'I' for Inactive)
ROOT
ATOM      1  C   UNL d   1      -4.154   1.285   2.442  0.00  0.00     0.077 C 
ATOM      2  C1  UNL d   1      -3.743   0.535   3.674  0.00  0.00    -0.074 A 
ATOM      3  C2  UNL d   1      -3.374   1.216   4.839  0.00  0.00    -0.005 A 
ATOM      4  C3  UNL d   1      -3.003   0.505   5.981  0.00  0.00     0.006 A 
ATOM      5  C4  UNL d   1      -2.998  -0.890   5.969  0.00  0.00    -0.005 A 
ATOM      6  C5  UNL d   1      -3.365  -1.587   4.814  0.00  0.00    -0.074 A 
ATOM      7  C6  UNL d   1      -3.374  -3.087   4.787  0.00  0.00     0.077 C 
ATOM      8  C7  UNL d   1      -3.743  -0.866   3.673  0.00  0.00    -0.001 A 
ENDROOT
TORSDOF 0
ENDMDL
