MODEL 1
REMARK minimizedAffinity 16.8174286
REMARK minimizedRMSD -1
REMARK  0 active torsions:
REMARK  status: ('A' for Active; 'I' for Inactive)
ROOT
ATOM      1  C   UNL d   1       0.272  -3.786  -3.278  0.00  0.00     0.077 C 
ATOM      2  C1  UNL d   1       1.000  -3.111  -2.153  0.00  0.00    -0.074 A 
ATOM      3  C2  UNL d   1       1.316  -3.806  -0.981  0.00  0.00    -0.005 A 
ATOM      4  C3  UNL d   1       2.001  -3.167   0.052  0.00  0.00     0.006 A 
ATOM      5  C4  UNL d   1       2.376  -1.829  -0.075  0.00  0.00    -0.005 A 
ATOM      6  C5  UNL d   1       2.069  -1.118  -1.239  0.00  0.00    -0.074 A 
ATOM      7  C6  UNL d   1       2.474   0.317  -1.396  0.00  0.00     0.077 C 
ATOM      8  C7  UNL d   1       1.387  -1.769  -2.276  0.00  0.00    -0.001 A 
ENDROOT
TORSDOF 0
ENDMDL
