MODEL 1
REMARK minimizedAffinity 16.3269825
REMARK minimizedRMSD -1
REMARK  0 active torsions:
REMARK  status: ('A' for Active; 'I' for Inactive)
ROOT
ATOM      1  C   UNL d   1       0.838   1.498   5.999  0.00  0.00     0.077 C 
ATOM      2  C1  UNL d   1       0.286   1.108   4.660  0.00  0.00    -0.074 A 
ATOM      3  C2  UNL d   1       1.129   0.659   3.638  0.00  0.00    -0.005 A 
ATOM      4  C3  UNL d   1       0.601   0.291   2.401  0.00  0.00     0.006 A 
ATOM      5  C4  UNL d   1      -0.774   0.368   2.173  0.00  0.00    -0.005 A 
ATOM      6  C5  UNL d   1      -1.632   0.814   3.183  0.00  0.00    -0.074 A 
ATOM      7  C6  UNL d   1      -3.113   0.894   2.958  0.00  0.00     0.077 C 
ATOM      8  C7  UNL d   1      -1.094   1.176   4.426  0.00  0.00    -0.001 A 
ENDROOT
TORSDOF 0
ENDMDL
