MODEL 1
REMARK minimizedAffinity 20.2080402
REMARK minimizedRMSD -1
REMARK  0 active torsions:
REMARK  status: ('A' for Active; 'I' for Inactive)
ROOT
ATOM      1  C   UNL d   1       0.618  -0.030   1.956  0.00  0.00     0.077 C 
ATOM      2  C1  UNL d   1      -0.823   0.100   2.350  0.00  0.00    -0.074 A 
ATOM      3  C2  UNL d   1      -1.479   1.333   2.280  0.00  0.00    -0.005 A 
ATOM      4  C3  UNL d   1      -2.822   1.437   2.641  0.00  0.00     0.006 A 
ATOM      5  C4  UNL d   1      -3.522   0.310   3.076  0.00  0.00    -0.005 A 
ATOM      6  C5  UNL d   1      -2.883  -0.931   3.152  0.00  0.00    -0.074 A 
ATOM      7  C6  UNL d   1      -3.623  -2.154   3.608  0.00  0.00     0.077 C 
ATOM      8  C7  UNL d   1      -1.535  -1.029   2.781  0.00  0.00    -0.001 A 
ENDROOT
TORSDOF 0
ENDMDL
