MODEL 1
REMARK minimizedAffinity 2.98809743
REMARK minimizedRMSD -1
REMARK  0 active torsions:
REMARK  status: ('A' for Active; 'I' for Inactive)
ROOT
ATOM      1  C   UNL d   1       3.774  -6.000  -0.382  0.00  0.00     0.077 C 
ATOM      2  C1  UNL d   1       2.912  -5.026  -1.128  0.00  0.00    -0.074 A 
ATOM      3  C2  UNL d   1       1.870  -5.470  -1.949  0.00  0.00    -0.005 A 
ATOM      4  C3  UNL d   1       1.070  -4.551  -2.628  0.00  0.00     0.006 A 
ATOM      5  C4  UNL d   1       1.303  -3.182  -2.495  0.00  0.00    -0.005 A 
ATOM      6  C5  UNL d   1       2.340  -2.719  -1.678  0.00  0.00    -0.074 A 
ATOM      7  C6  UNL d   1       2.598  -1.251  -1.515  0.00  0.00     0.077 C 
ATOM      8  C7  UNL d   1       3.135  -3.648  -0.992  0.00  0.00    -0.001 A 
ENDROOT
TORSDOF 0
ENDMDL
