MODEL 1
REMARK minimizedAffinity 13.0788326
REMARK minimizedRMSD -1
REMARK  1 active torsions:
REMARK  status: ('A' for Active; 'I' for Inactive)
REMARK    1  A    between atoms: C1_2  and  C2_3 
ROOT
ATOM      1  C2  UNL d   1      -2.288   3.184  -3.735  0.00  0.00    -0.076 A 
ATOM      2  C3  UNL d   1      -1.598   2.122  -4.345  0.00  0.00     0.004 A 
ATOM      3  C4  UNL d   1      -0.205   2.095  -4.376  0.00  0.00    -0.003 A 
ATOM      4  C5  UNL d   1       0.521   3.131  -3.798  0.00  0.00     0.000 A 
ATOM      5  C6  UNL d   1      -0.147   4.184  -3.174  0.00  0.00     0.000 A 
ATOM      6  C7  UNL d   1      -1.551   4.217  -3.119  0.00  0.00    -0.073 A 
ATOM      7  C8  UNL d   1      -2.219   5.380  -2.438  0.00  0.00     0.078 C 
ENDROOT
BRANCH   1   8
ATOM      8  C1  UNL d   1      -3.800   3.172  -3.756  0.00  0.00     0.053 C 
ATOM      9  C   UNL d   1      -4.367   3.531  -5.121  0.00  0.00     0.018 C 
ENDBRANCH   1   8
TORSDOF 1
ENDMDL
