MODEL 1
REMARK minimizedAffinity 9.73965836
REMARK minimizedRMSD -1
REMARK  1 active torsions:
REMARK  status: ('A' for Active; 'I' for Inactive)
REMARK    1  A    between atoms: C1_2  and  C2_3 
ROOT
ATOM      1  C2  UNL d   1      -0.310  -0.947   3.008  0.00  0.00    -0.076 A 
ATOM      2  C3  UNL d   1       0.966  -0.459   3.339  0.00  0.00     0.004 A 
ATOM      3  C4  UNL d   1       1.947  -0.293   2.362  0.00  0.00    -0.003 A 
ATOM      4  C5  UNL d   1       1.667  -0.613   1.038  0.00  0.00     0.000 A 
ATOM      5  C6  UNL d   1       0.401  -1.081   0.689  0.00  0.00     0.000 A 
ATOM      6  C7  UNL d   1      -0.604  -1.238   1.659  0.00  0.00    -0.073 A 
ATOM      7  C8  UNL d   1      -1.950  -1.753   1.227  0.00  0.00     0.078 C 
ENDROOT
BRANCH   1   8
ATOM      8  C1  UNL d   1      -1.324  -1.131   4.114  0.00  0.00     0.053 C 
ATOM      9  C   UNL d   1      -1.088  -2.401   4.916  0.00  0.00     0.018 C 
ENDBRANCH   1   8
TORSDOF 1
ENDMDL
