MODEL 1
REMARK minimizedAffinity 6.90622854
REMARK minimizedRMSD -1
REMARK  1 active torsions:
REMARK  status: ('A' for Active; 'I' for Inactive)
REMARK    1  A    between atoms: C1_2  and  C2_3 
ROOT
ATOM      1  C2  UNL d   1       1.541  -0.419   2.309  0.00  0.00    -0.076 A 
ATOM      2  C3  UNL d   1       0.678  -0.886   3.316  0.00  0.00     0.004 A 
ATOM      3  C4  UNL d   1      -0.566  -1.430   2.999  0.00  0.00    -0.003 A 
ATOM      4  C5  UNL d   1      -0.967  -1.516   1.671  0.00  0.00     0.000 A 
ATOM      5  C6  UNL d   1      -0.116  -1.074   0.658  0.00  0.00     0.000 A 
ATOM      6  C7  UNL d   1       1.147  -0.538   0.959  0.00  0.00    -0.073 A 
ATOM      7  C8  UNL d   1       2.021  -0.071  -0.173  0.00  0.00     0.078 C 
ENDROOT
BRANCH   1   8
ATOM      8  C1  UNL d   1       2.866   0.186   2.714  0.00  0.00     0.053 C 
ATOM      9  C   UNL d   1       4.052  -0.634   2.232  0.00  0.00     0.018 C 
ENDBRANCH   1   8
TORSDOF 1
ENDMDL
