MODEL 1
REMARK minimizedAffinity 14.5364637
REMARK minimizedRMSD -1
REMARK  1 active torsions:
REMARK  status: ('A' for Active; 'I' for Inactive)
REMARK    1  A    between atoms: C1_2  and  C2_3 
ROOT
ATOM      1  C2  UNL d   1      -1.877  -1.659   0.858  0.00  0.00    -0.076 A 
ATOM      2  C3  UNL d   1      -1.036  -2.478   0.085  0.00  0.00     0.004 A 
ATOM      3  C4  UNL d   1      -1.561  -3.357  -0.860  0.00  0.00    -0.003 A 
ATOM      4  C5  UNL d   1      -2.937  -3.432  -1.048  0.00  0.00     0.000 A 
ATOM      5  C6  UNL d   1      -3.785  -2.615  -0.302  0.00  0.00     0.000 A 
ATOM      6  C7  UNL d   1      -3.271  -1.711   0.643  0.00  0.00    -0.073 A 
ATOM      7  C8  UNL d   1      -4.233  -0.857   1.424  0.00  0.00     0.078 C 
ENDROOT
BRANCH   1   8
ATOM      8  C1  UNL d   1      -1.252  -0.744   1.887  0.00  0.00     0.053 C 
ATOM      9  C   UNL d   1      -0.059   0.022   1.338  0.00  0.00     0.018 C 
ENDBRANCH   1   8
TORSDOF 1
ENDMDL
