MODEL 1
REMARK minimizedAffinity 17.1918678
REMARK minimizedRMSD -1
REMARK  1 active torsions:
REMARK  status: ('A' for Active; 'I' for Inactive)
REMARK    1  A    between atoms: C1_2  and  C2_3 
ROOT
ATOM      1  C2  UNL d   1      -0.422  -1.204   3.821  0.00  0.00    -0.076 A 
ATOM      2  C3  UNL d   1      -1.470  -1.540   2.947  0.00  0.00     0.004 A 
ATOM      3  C4  UNL d   1      -1.368  -1.298   1.578  0.00  0.00    -0.003 A 
ATOM      4  C5  UNL d   1      -0.215  -0.717   1.061  0.00  0.00     0.000 A 
ATOM      5  C6  UNL d   1       0.841  -0.393   1.911  0.00  0.00     0.000 A 
ATOM      6  C7  UNL d   1       0.761  -0.645   3.292  0.00  0.00    -0.073 A 
ATOM      7  C8  UNL d   1       1.928  -0.270   4.163  0.00  0.00     0.078 C 
ENDROOT
BRANCH   1   8
ATOM      8  C1  UNL d   1      -0.600  -1.464   5.300  0.00  0.00     0.053 C 
ATOM      9  C   UNL d   1      -1.222  -2.824   5.581  0.00  0.00     0.018 C 
ENDBRANCH   1   8
TORSDOF 1
ENDMDL
