MODEL 1
REMARK minimizedAffinity 8.16126823
REMARK minimizedRMSD -1
REMARK  1 active torsions:
REMARK  status: ('A' for Active; 'I' for Inactive)
REMARK    1  A    between atoms: C1_2  and  C2_3 
ROOT
ATOM      1  C2  UNL d   1       1.068  -0.468   1.142  0.00  0.00    -0.076 A 
ATOM      2  C3  UNL d   1      -0.162  -0.951   0.663  0.00  0.00     0.004 A 
ATOM      3  C4  UNL d   1      -1.167  -1.353   1.543  0.00  0.00    -0.003 A 
ATOM      4  C5  UNL d   1      -0.958  -1.276   2.915  0.00  0.00     0.000 A 
ATOM      5  C6  UNL d   1       0.249  -0.782   3.408  0.00  0.00     0.000 A 
ATOM      6  C7  UNL d   1       1.266  -0.358   2.535  0.00  0.00    -0.073 A 
ATOM      7  C8  UNL d   1       2.551   0.161   3.121  0.00  0.00     0.078 C 
ENDROOT
BRANCH   1   8
ATOM      8  C1  UNL d   1       2.130  -0.073   0.141  0.00  0.00     0.053 C 
ATOM      9  C   UNL d   1       1.701   1.096  -0.732  0.00  0.00     0.018 C 
ENDBRANCH   1   8
TORSDOF 1
ENDMDL
