MODEL 1
REMARK minimizedAffinity 14.4931488
REMARK minimizedRMSD -1
REMARK  1 active torsions:
REMARK  status: ('A' for Active; 'I' for Inactive)
REMARK    1  A    between atoms: C1_2  and  C2_3 
ROOT
ATOM      1  C2  UNL d   1      -1.904   3.517  -3.582  0.00  0.00    -0.076 A 
ATOM      2  C3  UNL d   1      -2.368   4.532  -2.727  0.00  0.00     0.004 A 
ATOM      3  C4  UNL d   1      -1.507   5.519  -2.251  0.00  0.00    -0.003 A 
ATOM      4  C5  UNL d   1      -0.167   5.508  -2.624  0.00  0.00     0.000 A 
ATOM      5  C6  UNL d   1       0.307   4.519  -3.485  0.00  0.00     0.000 A 
ATOM      6  C7  UNL d   1      -0.552   3.526  -3.986  0.00  0.00    -0.073 A 
ATOM      7  C8  UNL d   1       0.014   2.480  -4.907  0.00  0.00     0.078 C 
ENDROOT
BRANCH   1   8
ATOM      8  C1  UNL d   1      -2.878   2.457  -4.044  0.00  0.00     0.053 C 
ATOM      9  C   UNL d   1      -4.049   3.040  -4.820  0.00  0.00     0.018 C 
ENDBRANCH   1   8
TORSDOF 1
ENDMDL
