MODEL 1
REMARK minimizedAffinity 9.08198929
REMARK minimizedRMSD -1
REMARK  1 active torsions:
REMARK  status: ('A' for Active; 'I' for Inactive)
REMARK    1  A    between atoms: C1_2  and  C2_3 
ROOT
ATOM      1  C2  UNL d   1      -1.125   3.920  -3.444  0.00  0.00    -0.076 A 
ATOM      2  C3  UNL d   1       0.277   3.848  -3.509  0.00  0.00     0.004 A 
ATOM      3  C4  UNL d   1       0.913   2.801  -4.174  0.00  0.00    -0.003 A 
ATOM      4  C5  UNL d   1       0.156   1.809  -4.787  0.00  0.00     0.000 A 
ATOM      5  C6  UNL d   1      -1.237   1.873  -4.749  0.00  0.00     0.000 A 
ATOM      6  C7  UNL d   1      -1.893   2.931  -4.095  0.00  0.00    -0.073 A 
ATOM      7  C8  UNL d   1      -3.397   2.947  -4.079  0.00  0.00     0.078 C 
ENDROOT
BRANCH   1   8
ATOM      8  C1  UNL d   1      -1.758   5.064  -2.685  0.00  0.00     0.053 C 
ATOM      9  C   UNL d   1      -0.726   5.993  -2.065  0.00  0.00     0.018 C 
ENDBRANCH   1   8
TORSDOF 1
ENDMDL
