MODEL 1
REMARK minimizedAffinity 13.1635685
REMARK minimizedRMSD -1
REMARK  1 active torsions:
REMARK  status: ('A' for Active; 'I' for Inactive)
REMARK    1  A    between atoms: C1_2  and  C2_3 
ROOT
ATOM      1  C2  UNL d   1       1.585  -0.221   2.469  0.00  0.00    -0.076 A 
ATOM      2  C3  UNL d   1       0.714  -0.660   3.482  0.00  0.00     0.004 A 
ATOM      3  C4  UNL d   1      -0.572  -1.104   3.179  0.00  0.00    -0.003 A 
ATOM      4  C5  UNL d   1      -1.009  -1.116   1.859  0.00  0.00     0.000 A 
ATOM      5  C6  UNL d   1      -0.152  -0.700   0.840  0.00  0.00     0.000 A 
ATOM      6  C7  UNL d   1       1.153  -0.265   1.126  0.00  0.00    -0.073 A 
ATOM      7  C8  UNL d   1       2.032   0.178  -0.011  0.00  0.00     0.078 C 
ENDROOT
BRANCH   1   8
ATOM      8  C1  UNL d   1       2.959   0.275   2.860  0.00  0.00     0.053 C 
ATOM      9  C   UNL d   1       4.073  -0.462   2.133  0.00  0.00     0.018 C 
ENDBRANCH   1   8
TORSDOF 1
ENDMDL
