MODEL 1
REMARK minimizedAffinity 6.18576002
REMARK minimizedRMSD -1
REMARK  1 active torsions:
REMARK  status: ('A' for Active; 'I' for Inactive)
REMARK    1  A    between atoms: C1_2  and  C2_3 
ROOT
ATOM      1  C2  UNL d   1       0.854   2.557  -3.042  0.00  0.00    -0.076 A 
ATOM      2  C3  UNL d   1       0.506   3.918  -3.032  0.00  0.00     0.004 A 
ATOM      3  C4  UNL d   1      -0.638   4.371  -3.686  0.00  0.00    -0.003 A 
ATOM      4  C5  UNL d   1      -1.454   3.469  -4.361  0.00  0.00     0.000 A 
ATOM      5  C6  UNL d   1      -1.133   2.112  -4.367  0.00  0.00     0.000 A 
ATOM      6  C7  UNL d   1       0.008   1.637  -3.698  0.00  0.00    -0.073 A 
ATOM      7  C8  UNL d   1       0.309   0.164  -3.742  0.00  0.00     0.078 C 
ENDROOT
BRANCH   1   8
ATOM      8  C1  UNL d   1       2.122   2.128  -2.338  0.00  0.00     0.053 C 
ATOM      9  C   UNL d   1       1.872   1.693  -0.902  0.00  0.00     0.018 C 
ENDBRANCH   1   8
TORSDOF 1
ENDMDL
