MODEL 1
REMARK minimizedAffinity 13.1358671
REMARK minimizedRMSD -1
REMARK  1 active torsions:
REMARK  status: ('A' for Active; 'I' for Inactive)
REMARK    1  A    between atoms: C1_2  and  C2_3 
ROOT
ATOM      1  C2  UNL d   1      -0.011  -0.833   2.175  0.00  0.00    -0.076 A 
ATOM      2  C3  UNL d   1       1.022  -0.109   2.795  0.00  0.00     0.004 A 
ATOM      3  C4  UNL d   1       2.257   0.058   2.170  0.00  0.00    -0.003 A 
ATOM      4  C5  UNL d   1       2.478  -0.496   0.914  0.00  0.00     0.000 A 
ATOM      5  C6  UNL d   1       1.459  -1.201   0.276  0.00  0.00     0.000 A 
ATOM      6  C7  UNL d   1       0.203  -1.365   0.885  0.00  0.00    -0.073 A 
ATOM      7  C8  UNL d   1      -0.858  -2.141   0.154  0.00  0.00     0.078 C 
ENDROOT
BRANCH   1   8
ATOM      8  C1  UNL d   1      -1.319  -1.005   2.912  0.00  0.00     0.053 C 
ATOM      9  C   UNL d   1      -1.121  -1.421   4.362  0.00  0.00     0.018 C 
ENDBRANCH   1   8
TORSDOF 1
ENDMDL
