MODEL 1
REMARK minimizedAffinity 2.36923242
REMARK minimizedRMSD -1
REMARK  1 active torsions:
REMARK  status: ('A' for Active; 'I' for Inactive)
REMARK    1  A    between atoms: C1_2  and  C2_3 
ROOT
ATOM      1  C2  UNL d   1      -2.522   3.464  -3.044  0.00  0.00    -0.076 A 
ATOM      2  C3  UNL d   1      -2.651   4.681  -2.353  0.00  0.00     0.004 A 
ATOM      3  C4  UNL d   1      -1.537   5.473  -2.081  0.00  0.00    -0.003 A 
ATOM      4  C5  UNL d   1      -0.276   5.062  -2.496  0.00  0.00     0.000 A 
ATOM      5  C6  UNL d   1      -0.132   3.866  -3.199  0.00  0.00     0.000 A 
ATOM      6  C7  UNL d   1      -1.247   3.063  -3.495  0.00  0.00    -0.073 A 
ATOM      7  C8  UNL d   1      -1.032   1.780  -4.251  0.00  0.00     0.078 C 
ENDROOT
BRANCH   1   8
ATOM      8  C1  UNL d   1      -3.763   2.634  -3.287  0.00  0.00     0.053 C 
ATOM      9  C   UNL d   1      -4.528   3.078  -4.523  0.00  0.00     0.018 C 
ENDBRANCH   1   8
TORSDOF 1
ENDMDL
