MODEL 1
REMARK minimizedAffinity 10.3357925
REMARK minimizedRMSD -1
REMARK  1 active torsions:
REMARK  status: ('A' for Active; 'I' for Inactive)
REMARK    1  A    between atoms: C1_2  and  C2_3 
ROOT
ATOM      1  C2  UNL d   1       1.098  -0.805   1.060  0.00  0.00    -0.076 A 
ATOM      2  C3  UNL d   1      -0.063  -1.416   0.555  0.00  0.00     0.004 A 
ATOM      3  C4  UNL d   1      -1.170  -1.637   1.372  0.00  0.00    -0.003 A 
ATOM      4  C5  UNL d   1      -1.136  -1.248   2.707  0.00  0.00     0.000 A 
ATOM      5  C6  UNL d   1       0.001  -0.624   3.220  0.00  0.00     0.000 A 
ATOM      6  C7  UNL d   1       1.120  -0.380   2.406  0.00  0.00    -0.073 A 
ATOM      7  C8  UNL d   1       2.322   0.291   3.013  0.00  0.00     0.078 C 
ENDROOT
BRANCH   1   8
ATOM      8  C1  UNL d   1       2.279  -0.616   0.134  0.00  0.00     0.053 C 
ATOM      9  C   UNL d   1       2.097   0.562  -0.809  0.00  0.00     0.018 C 
ENDBRANCH   1   8
TORSDOF 1
ENDMDL
