MODEL 1
REMARK minimizedAffinity 15.8665934
REMARK minimizedRMSD -1
REMARK  0 active torsions:
REMARK  status: ('A' for Active; 'I' for Inactive)
ROOT
ATOM      1  N1  IND d   1      -4.365   4.200   3.766  0.00  0.00    -0.196 N 
ATOM      2  C2  IND d   1      -5.602   3.886   4.254  0.00  0.00     0.054 A 
ATOM      3  C3  IND d   1      -5.811   2.552   4.185  0.00  0.00    -0.031 A 
ATOM      4  C4  IND d   1      -4.221   0.686   3.402  0.00  0.00     0.051 A 
ATOM      5  C5  IND d   1      -2.994   0.484   2.834  0.00  0.00    -0.031 A 
ATOM      6  C6  IND d   1      -2.144   1.531   2.543  0.00  0.00     0.015 A 
ATOM      7  C7  IND d   1      -2.485   2.824   2.823  0.00  0.00    -0.016 A 
ATOM      8  C8  IND d   1      -3.732   3.034   3.393  0.00  0.00    -0.047 A 
ATOM      9  C9  IND d   1      -4.617   1.979   3.651  0.00  0.00    -0.096 A 
ATOM     10  HN1 IND d   1      -4.036   4.992   3.702  0.00  0.00     0.298 HD
ENDROOT
TORSDOF 0
ENDMDL
