MODEL 1
REMARK minimizedAffinity -3.59685326
REMARK minimizedRMSD -1
REMARK  0 active torsions:
REMARK  status: ('A' for Active; 'I' for Inactive)
ROOT
ATOM      1  N1  IND d   1       3.547  -4.545   0.622  0.00  0.00    -0.196 N 
ATOM      2  C2  IND d   1       4.908  -4.463   0.717  0.00  0.00     0.054 A 
ATOM      3  C3  IND d   1       5.455  -4.280  -0.505  0.00  0.00    -0.031 A 
ATOM      4  C4  IND d   1       4.299  -3.984  -2.786  0.00  0.00     0.051 A 
ATOM      5  C5  IND d   1       3.071  -4.019  -3.384  0.00  0.00    -0.031 A 
ATOM      6  C6  IND d   1       1.914  -4.233  -2.662  0.00  0.00     0.015 A 
ATOM      7  C7  IND d   1       1.943  -4.409  -1.308  0.00  0.00    -0.016 A 
ATOM      8  C8  IND d   1       3.189  -4.381  -0.698  0.00  0.00    -0.047 A 
ATOM      9  C9  IND d   1       4.370  -4.207  -1.432  0.00  0.00    -0.096 A 
ATOM     10  HN1 IND d   1       3.005  -4.677   1.277  0.00  0.00     0.298 HD
ENDROOT
TORSDOF 0
ENDMDL
