MODEL 1
REMARK minimizedAffinity 19.0170059
REMARK minimizedRMSD -1
REMARK  0 active torsions:
REMARK  status: ('A' for Active; 'I' for Inactive)
ROOT
ATOM      1  N1  IND d   1       4.433  -1.773   0.255  0.00  0.00    -0.196 N 
ATOM      2  C2  IND d   1       4.332  -3.095  -0.079  0.00  0.00     0.054 A 
ATOM      3  C3  IND d   1       3.156  -3.334  -0.701  0.00  0.00    -0.031 A 
ATOM      4  C4  IND d   1       1.292  -1.687  -1.365  0.00  0.00     0.051 A 
ATOM      5  C5  IND d   1       0.915  -0.380  -1.240  0.00  0.00    -0.031 A 
ATOM      6  C6  IND d   1       1.709   0.550  -0.600  0.00  0.00     0.015 A 
ATOM      7  C7  IND d   1       2.920   0.207  -0.068  0.00  0.00    -0.016 A 
ATOM      8  C8  IND d   1       3.303  -1.121  -0.187  0.00  0.00    -0.047 A 
ATOM      9  C9  IND d   1       2.482  -2.078  -0.798  0.00  0.00    -0.096 A 
ATOM     10  HN1 IND d   1       5.092  -1.410   0.672  0.00  0.00     0.298 HD
ENDROOT
TORSDOF 0
ENDMDL
