MODEL 1
REMARK minimizedAffinity 4.55647945
REMARK minimizedRMSD -1
REMARK  0 active torsions:
REMARK  status: ('A' for Active; 'I' for Inactive)
ROOT
ATOM      1  N1  IND d   1       1.654  -2.932  -0.089  0.00  0.00    -0.196 N 
ATOM      2  C2  IND d   1       0.512  -3.235  -0.777  0.00  0.00     0.054 A 
ATOM      3  C3  IND d   1       0.292  -2.321  -1.749  0.00  0.00    -0.031 A 
ATOM      4  C4  IND d   1       1.729  -0.306  -2.455  0.00  0.00     0.051 A 
ATOM      5  C5  IND d   1       2.846   0.398  -2.100  0.00  0.00    -0.031 A 
ATOM      6  C6  IND d   1       3.640   0.019  -1.037  0.00  0.00     0.015 A 
ATOM      7  C7  IND d   1       3.352  -1.090  -0.293  0.00  0.00    -0.016 A 
ATOM      8  C8  IND d   1       2.215  -1.803  -0.646  0.00  0.00    -0.047 A 
ATOM      9  C9  IND d   1       1.382  -1.399  -1.697  0.00  0.00    -0.096 A 
ATOM     10  HN1 IND d   1       1.970  -3.372   0.579  0.00  0.00     0.298 HD
ENDROOT
TORSDOF 0
ENDMDL
