MODEL 1
REMARK minimizedAffinity 18.3511982
REMARK minimizedRMSD -1
REMARK  0 active torsions:
REMARK  status: ('A' for Active; 'I' for Inactive)
ROOT
ATOM      1  N1  IND d   1      -0.399   0.814   2.219  0.00  0.00    -0.196 N 
ATOM      2  C2  IND d   1      -0.123   1.361   3.441  0.00  0.00     0.054 A 
ATOM      3  C3  IND d   1       1.199   1.622   3.553  0.00  0.00    -0.031 A 
ATOM      4  C4  IND d   1       3.076   1.326   1.816  0.00  0.00     0.051 A 
ATOM      5  C5  IND d   1       3.319   0.828   0.567  0.00  0.00    -0.031 A 
ATOM      6  C6  IND d   1       2.315   0.292  -0.212  0.00  0.00     0.015 A 
ATOM      7  C7  IND d   1       1.022   0.243   0.227  0.00  0.00    -0.016 A 
ATOM      8  C8  IND d   1       0.773   0.742   1.497  0.00  0.00    -0.047 A 
ATOM      9  C9  IND d   1       1.795   1.249   2.310  0.00  0.00    -0.096 A 
ATOM     10  HN1 IND d   1      -1.173   0.558   1.947  0.00  0.00     0.298 HD
ENDROOT
TORSDOF 0
ENDMDL
