MODEL 1
REMARK minimizedAffinity 2.97019982
REMARK minimizedRMSD -1
REMARK  0 active torsions:
REMARK  status: ('A' for Active; 'I' for Inactive)
ROOT
ATOM      1  N1  IND d   1       2.440   2.921  -1.498  0.00  0.00    -0.196 N 
ATOM      2  C2  IND d   1       1.680   1.789  -1.598  0.00  0.00     0.054 A 
ATOM      3  C3  IND d   1       0.437   2.012  -1.117  0.00  0.00    -0.031 A 
ATOM      4  C4  IND d   1      -0.600   4.188  -0.212  0.00  0.00     0.051 A 
ATOM      5  C5  IND d   1      -0.285   5.479   0.109  0.00  0.00    -0.031 A 
ATOM      6  C6  IND d   1       0.978   5.994  -0.096  0.00  0.00     0.015 A 
ATOM      7  C7  IND d   1       1.976   5.238  -0.643  0.00  0.00    -0.016 A 
ATOM      8  C8  IND d   1       1.662   3.924  -0.963  0.00  0.00    -0.047 A 
ATOM      9  C9  IND d   1       0.394   3.383  -0.718  0.00  0.00    -0.096 A 
ATOM     10  HN1 IND d   1       3.265   2.994  -1.730  0.00  0.00     0.298 HD
ENDROOT
TORSDOF 0
ENDMDL
