MODEL 1
REMARK minimizedAffinity 0.451297283
REMARK minimizedRMSD -1
REMARK  0 active torsions:
REMARK  status: ('A' for Active; 'I' for Inactive)
ROOT
ATOM      1  N1  IND d   1       1.456  -0.372  -0.599  0.00  0.00    -0.196 N 
ATOM      2  C2  IND d   1       2.279  -1.018  -1.480  0.00  0.00     0.054 A 
ATOM      3  C3  IND d   1       2.847  -0.133  -2.329  0.00  0.00    -0.031 A 
ATOM      4  C4  IND d   1       2.648   2.433  -2.391  0.00  0.00     0.051 A 
ATOM      5  C5  IND d   1       1.984   3.476  -1.809  0.00  0.00    -0.031 A 
ATOM      6  C6  IND d   1       1.094   3.287  -0.772  0.00  0.00     0.015 A 
ATOM      7  C7  IND d   1       0.843   2.042  -0.267  0.00  0.00    -0.016 A 
ATOM      8  C8  IND d   1       1.510   0.980  -0.860  0.00  0.00    -0.047 A 
ATOM      9  C9  IND d   1       2.382   1.161  -1.942  0.00  0.00    -0.096 A 
ATOM     10  HN1 IND d   1       0.985  -0.747   0.015  0.00  0.00     0.298 HD
ENDROOT
TORSDOF 0
ENDMDL
