MODEL 1
REMARK minimizedAffinity 9.89045334
REMARK minimizedRMSD -1
REMARK  0 active torsions:
REMARK  status: ('A' for Active; 'I' for Inactive)
ROOT
ATOM      1  N1  IND d   1      -5.192   2.640   3.954  0.00  0.00    -0.196 N 
ATOM      2  C2  IND d   1      -5.606   3.377   5.028  0.00  0.00     0.054 A 
ATOM      3  C3  IND d   1      -4.666   3.360   6.000  0.00  0.00    -0.031 A 
ATOM      4  C4  IND d   1      -2.333   2.271   6.000  0.00  0.00     0.051 A 
ATOM      5  C5  IND d   1      -1.523   1.461   5.255  0.00  0.00    -0.031 A 
ATOM      6  C6  IND d   1      -1.901   0.994   4.013  0.00  0.00     0.015 A 
ATOM      7  C7  IND d   1      -3.104   1.332   3.461  0.00  0.00    -0.016 A 
ATOM      8  C8  IND d   1      -3.932   2.150   4.217  0.00  0.00    -0.047 A 
ATOM      9  C9  IND d   1      -3.572   2.591   5.497  0.00  0.00    -0.096 A 
ATOM     10  HN1 IND d   1      -5.644   2.505   3.234  0.00  0.00     0.298 HD
ENDROOT
TORSDOF 0
ENDMDL
