MODEL 1
REMARK minimizedAffinity 8.87736034
REMARK minimizedRMSD -1
REMARK  0 active torsions:
REMARK  status: ('A' for Active; 'I' for Inactive)
ROOT
ATOM      1  N1  IND d   1       0.097  -2.078  -2.598  0.00  0.00    -0.196 N 
ATOM      2  C2  IND d   1       0.077  -2.909  -1.513  0.00  0.00     0.054 A 
ATOM      3  C3  IND d   1       0.969  -2.494  -0.586  0.00  0.00    -0.031 A 
ATOM      4  C4  IND d   1       2.495  -0.421  -0.597  0.00  0.00     0.051 A 
ATOM      5  C5  IND d   1       2.893   0.620  -1.389  0.00  0.00    -0.031 A 
ATOM      6  C6  IND d   1       2.366   0.820  -2.649  0.00  0.00     0.015 A 
ATOM      7  C7  IND d   1       1.410  -0.010  -3.161  0.00  0.00    -0.016 A 
ATOM      8  C8  IND d   1       1.009  -1.072  -2.363  0.00  0.00    -0.047 A 
ATOM      9  C9  IND d   1       1.570  -1.305  -1.101  0.00  0.00    -0.096 A 
ATOM     10  HN1 IND d   1      -0.379  -2.168  -3.308  0.00  0.00     0.298 HD
ENDROOT
TORSDOF 0
ENDMDL
