MODEL 1
REMARK minimizedAffinity -0.268910468
REMARK minimizedRMSD -1
REMARK  0 active torsions:
REMARK  status: ('A' for Active; 'I' for Inactive)
ROOT
ATOM      1  N1  IND d   1       1.048   1.940  -0.469  0.00  0.00    -0.196 N 
ATOM      2  C2  IND d   1       2.235   1.763  -1.124  0.00  0.00     0.054 A 
ATOM      3  C3  IND d   1       2.746   2.957  -1.502  0.00  0.00    -0.031 A 
ATOM      4  C4  IND d   1       1.854   5.331  -1.060  0.00  0.00     0.051 A 
ATOM      5  C5  IND d   1       0.785   5.999  -0.534  0.00  0.00    -0.031 A 
ATOM      6  C6  IND d   1      -0.272   5.335   0.055  0.00  0.00     0.015 A 
ATOM      7  C7  IND d   1      -0.293   3.972   0.151  0.00  0.00    -0.016 A 
ATOM      8  C8  IND d   1       0.788   3.290  -0.389  0.00  0.00    -0.047 A 
ATOM      9  C9  IND d   1       1.843   3.956  -1.026  0.00  0.00    -0.096 A 
ATOM     10  HN1 IND d   1       0.548   1.313  -0.160  0.00  0.00     0.298 HD
ENDROOT
TORSDOF 0
ENDMDL
