MODEL 1
REMARK minimizedAffinity 22.5387478
REMARK minimizedRMSD -1
REMARK  0 active torsions:
REMARK  status: ('A' for Active; 'I' for Inactive)
ROOT
ATOM      1  N1  IND d   1       3.245  -0.125   1.200  0.00  0.00    -0.196 N 
ATOM      2  C2  IND d   1       2.855   1.171   1.390  0.00  0.00     0.054 A 
ATOM      3  C3  IND d   1       2.034   1.567   0.392  0.00  0.00    -0.031 A 
ATOM      4  C4  IND d   1       1.117   0.221  -1.602  0.00  0.00     0.051 A 
ATOM      5  C5  IND d   1       1.219  -0.994  -2.219  0.00  0.00    -0.031 A 
ATOM      6  C6  IND d   1       2.015  -2.003  -1.717  0.00  0.00     0.015 A 
ATOM      7  C7  IND d   1       2.734  -1.837  -0.567  0.00  0.00    -0.016 A 
ATOM      8  C8  IND d   1       2.638  -0.602   0.059  0.00  0.00    -0.047 A 
ATOM      9  C9  IND d   1       1.865   0.439  -0.469  0.00  0.00    -0.096 A 
ATOM     10  HN1 IND d   1       3.779  -0.568   1.708  0.00  0.00     0.298 HD
ENDROOT
TORSDOF 0
ENDMDL
