MODEL 1
REMARK minimizedAffinity 6.80639553
REMARK minimizedRMSD -1
REMARK  0 active torsions:
REMARK  status: ('A' for Active; 'I' for Inactive)
ROOT
ATOM      1  N1  IND d   1      -0.694  -3.419  -2.900  0.00  0.00    -0.196 N 
ATOM      2  C2  IND d   1      -1.020  -4.399  -2.003  0.00  0.00     0.054 A 
ATOM      3  C3  IND d   1      -2.089  -5.101  -2.442  0.00  0.00    -0.031 A 
ATOM      4  C4  IND d   1      -3.395  -4.882  -4.650  0.00  0.00     0.051 A 
ATOM      5  C5  IND d   1      -3.492  -4.108  -5.772  0.00  0.00    -0.031 A 
ATOM      6  C6  IND d   1      -2.642  -3.045  -6.000  0.00  0.00     0.015 A 
ATOM      7  C7  IND d   1      -1.652  -2.722  -5.115  0.00  0.00    -0.016 A 
ATOM      8  C8  IND d   1      -1.555  -3.502  -3.971  0.00  0.00    -0.047 A 
ATOM      9  C9  IND d   1      -2.442  -4.555  -3.714  0.00  0.00    -0.096 A 
ATOM     10  HN1 IND d   1      -0.058  -2.848  -2.809  0.00  0.00     0.298 HD
ENDROOT
TORSDOF 0
ENDMDL
