MODEL 1
REMARK minimizedAffinity 9.54554462
REMARK minimizedRMSD -1
REMARK  0 active torsions:
REMARK  status: ('A' for Active; 'I' for Inactive)
ROOT
ATOM      1  N1  IND d   1       0.979   2.376  -2.852  0.00  0.00    -0.196 N 
ATOM      2  C2  IND d   1       1.353   3.458  -2.106  0.00  0.00     0.054 A 
ATOM      3  C3  IND d   1       2.164   3.075  -1.095  0.00  0.00    -0.031 A 
ATOM      4  C4  IND d   1       3.090   0.739  -0.537  0.00  0.00     0.051 A 
ATOM      5  C5  IND d   1       3.001  -0.573  -0.911  0.00  0.00    -0.031 A 
ATOM      6  C6  IND d   1       2.220  -0.976  -1.975  0.00  0.00     0.015 A 
ATOM      7  C7  IND d   1       1.504  -0.078  -2.714  0.00  0.00    -0.016 A 
ATOM      8  C8  IND d   1       1.586   1.254  -2.332  0.00  0.00    -0.047 A 
ATOM      9  C9  IND d   1       2.344   1.664  -1.228  0.00  0.00    -0.096 A 
ATOM     10  HN1 IND d   1       0.452   2.392  -3.532  0.00  0.00     0.298 HD
ENDROOT
TORSDOF 0
ENDMDL
