MODEL 1
REMARK minimizedAffinity 12.2989683
REMARK minimizedRMSD -1
REMARK  0 active torsions:
REMARK  status: ('A' for Active; 'I' for Inactive)
ROOT
ATOM      1  N1  IND d   1      -1.466  -5.760  -2.259  0.00  0.00    -0.196 N 
ATOM      2  C2  IND d   1      -1.371  -5.237  -0.999  0.00  0.00     0.054 A 
ATOM      3  C3  IND d   1      -1.537  -3.896  -1.033  0.00  0.00    -0.031 A 
ATOM      4  C4  IND d   1      -2.075  -2.364  -3.030  0.00  0.00     0.051 A 
ATOM      5  C5  IND d   1      -2.222  -2.377  -4.389  0.00  0.00    -0.031 A 
ATOM      6  C6  IND d   1      -2.125  -3.543  -5.122  0.00  0.00     0.015 A 
ATOM      7  C7  IND d   1      -1.888  -4.745  -4.519  0.00  0.00    -0.016 A 
ATOM      8  C8  IND d   1      -1.731  -4.735  -3.140  0.00  0.00    -0.047 A 
ATOM      9  C9  IND d   1      -1.787  -3.549  -2.396  0.00  0.00    -0.096 A 
ATOM     10  HN1 IND d   1      -1.376  -6.589  -2.466  0.00  0.00     0.298 HD
ENDROOT
TORSDOF 0
ENDMDL
