MODEL 1
REMARK minimizedAffinity 13.1441507
REMARK minimizedRMSD -1
REMARK  0 active torsions:
REMARK  status: ('A' for Active; 'I' for Inactive)
ROOT
ATOM      1  N1  IND d   1       0.427  -1.921   3.765  0.00  0.00    -0.196 N 
ATOM      2  C2  IND d   1      -0.030  -0.974   4.638  0.00  0.00     0.054 A 
ATOM      3  C3  IND d   1      -1.375  -1.049   4.752  0.00  0.00    -0.031 A 
ATOM      4  C4  IND d   1      -3.017  -2.714   3.676  0.00  0.00     0.051 A 
ATOM      5  C5  IND d   1      -3.075  -3.740   2.775  0.00  0.00    -0.031 A 
ATOM      6  C6  IND d   1      -1.945  -4.224   2.147  0.00  0.00     0.015 A 
ATOM      7  C7  IND d   1      -0.709  -3.705   2.407  0.00  0.00    -0.016 A 
ATOM      8  C8  IND d   1      -0.647  -2.658   3.316  0.00  0.00    -0.047 A 
ATOM      9  C9  IND d   1      -1.795  -2.135   3.924  0.00  0.00    -0.096 A 
ATOM     10  HN1 IND d   1       1.248  -2.038   3.535  0.00  0.00     0.298 HD
ENDROOT
TORSDOF 0
ENDMDL
