MODEL 1
REMARK minimizedAffinity 8.56934738
REMARK minimizedRMSD -1
REMARK  0 active torsions:
REMARK  status: ('A' for Active; 'I' for Inactive)
ROOT
ATOM      1  N1  IND d   1       1.697   3.086  -2.781  0.00  0.00    -0.196 N 
ATOM      2  C2  IND d   1       1.602   1.818  -2.278  0.00  0.00     0.054 A 
ATOM      3  C3  IND d   1       1.548   1.851  -0.927  0.00  0.00    -0.031 A 
ATOM      4  C4  IND d   1       1.499   3.878   0.659  0.00  0.00     0.051 A 
ATOM      5  C5  IND d   1       1.600   5.241   0.669  0.00  0.00    -0.031 A 
ATOM      6  C6  IND d   1       1.739   5.970  -0.495  0.00  0.00     0.015 A 
ATOM      7  C7  IND d   1       1.771   5.361  -1.717  0.00  0.00    -0.016 A 
ATOM      8  C8  IND d   1       1.675   3.977  -1.731  0.00  0.00    -0.047 A 
ATOM      9  C9  IND d   1       1.576   3.229  -0.551  0.00  0.00    -0.096 A 
ATOM     10  HN1 IND d   1       1.760   3.292  -3.613  0.00  0.00     0.298 HD
ENDROOT
TORSDOF 0
ENDMDL
