MODEL 1
REMARK minimizedAffinity 5.31456327
REMARK minimizedRMSD -1
REMARK  0 active torsions:
REMARK  status: ('A' for Active; 'I' for Inactive)
ROOT
ATOM      1  N1  IND d   1      -2.876  -3.570   2.002  0.00  0.00    -0.196 N 
ATOM      2  C2  IND d   1      -2.394  -3.096   3.190  0.00  0.00     0.054 A 
ATOM      3  C3  IND d   1      -1.087  -2.771   3.072  0.00  0.00    -0.031 A 
ATOM      4  C4  IND d   1       0.433  -2.841   0.996  0.00  0.00     0.051 A 
ATOM      5  C5  IND d   1       0.453  -3.236  -0.312  0.00  0.00    -0.031 A 
ATOM      6  C6  IND d   1      -0.660  -3.770  -0.929  0.00  0.00     0.015 A 
ATOM      7  C7  IND d   1      -1.842  -3.920  -0.261  0.00  0.00    -0.016 A 
ATOM      8  C8  IND d   1      -1.863  -3.527   1.070  0.00  0.00    -0.047 A 
ATOM      9  C9  IND d   1      -0.725  -3.023   1.713  0.00  0.00    -0.096 A 
ATOM     10  HN1 IND d   1      -3.678  -3.848   1.861  0.00  0.00     0.298 HD
ENDROOT
TORSDOF 0
ENDMDL
