MODEL 1
REMARK minimizedAffinity 8.16753387
REMARK minimizedRMSD -1
REMARK  0 active torsions:
REMARK  status: ('A' for Active; 'I' for Inactive)
ROOT
ATOM      1  C   UNL d   1       0.592   5.950  -0.971  0.00  0.00     0.023 A 
ATOM      2  C1  UNL d   1       1.881   5.563  -0.605  0.00  0.00     0.003 A 
ATOM      3  C2  UNL d   1       2.103   4.298  -0.055  0.00  0.00     0.048 A 
ATOM      4  C3  UNL d   1       1.030   3.426   0.126  0.00  0.00     0.023 A 
ATOM      5  C4  UNL d   1      -0.262   3.808  -0.240  0.00  0.00     0.048 A 
ATOM      6  C5  UNL d   1      -0.478   5.074  -0.788  0.00  0.00     0.003 A 
ATOM      7  I   UNL d   1       1.357   1.543   0.944  0.00  0.00    -0.146 I 
ENDROOT
TORSDOF 0
ENDMDL
