MODEL 1
REMARK minimizedAffinity 10.2372274
REMARK minimizedRMSD -1
REMARK  0 active torsions:
REMARK  status: ('A' for Active; 'I' for Inactive)
ROOT
ATOM      1  C   UNL d   1       4.585  -1.879  -0.997  0.00  0.00     0.023 A 
ATOM      2  C1  UNL d   1       3.565  -2.373  -0.184  0.00  0.00     0.003 A 
ATOM      3  C2  UNL d   1       3.754  -3.556   0.534  0.00  0.00     0.048 A 
ATOM      4  C3  UNL d   1       4.966  -4.239   0.434  0.00  0.00     0.023 A 
ATOM      5  C4  UNL d   1       5.989  -3.748  -0.378  0.00  0.00     0.048 A 
ATOM      6  C5  UNL d   1       5.795  -2.565  -1.094  0.00  0.00     0.003 A 
ATOM      7  I   UNL d   1       5.250  -5.999   1.502  0.00  0.00    -0.146 I 
ENDROOT
TORSDOF 0
ENDMDL
