MODEL 1
REMARK minimizedAffinity 6.54565191
REMARK minimizedRMSD -1
REMARK  0 active torsions:
REMARK  status: ('A' for Active; 'I' for Inactive)
ROOT
ATOM      1  C   UNL d   1       5.721  -3.446  -1.558  0.00  0.00     0.023 A 
ATOM      2  C1  UNL d   1       5.083  -2.374  -2.182  0.00  0.00     0.003 A 
ATOM      3  C2  UNL d   1       4.185  -1.581  -1.465  0.00  0.00     0.048 A 
ATOM      4  C3  UNL d   1       3.929  -1.866  -0.124  0.00  0.00     0.023 A 
ATOM      5  C4  UNL d   1       4.565  -2.937   0.504  0.00  0.00     0.048 A 
ATOM      6  C5  UNL d   1       5.462  -3.728  -0.217  0.00  0.00     0.003 A 
ATOM      7  I   UNL d   1       2.592  -0.687   0.945  0.00  0.00    -0.146 I 
ENDROOT
TORSDOF 0
ENDMDL
