MODEL 1
REMARK minimizedAffinity 10.6817026
REMARK minimizedRMSD -1
REMARK  0 active torsions:
REMARK  status: ('A' for Active; 'I' for Inactive)
ROOT
ATOM      1  C   UNL d   1       1.801  -1.880   0.692  0.00  0.00     0.023 A 
ATOM      2  C1  UNL d   1       0.876  -1.286   1.551  0.00  0.00     0.003 A 
ATOM      3  C2  UNL d   1       0.315  -0.048   1.227  0.00  0.00     0.048 A 
ATOM      4  C3  UNL d   1       0.684   0.589   0.042  0.00  0.00     0.023 A 
ATOM      5  C4  UNL d   1       1.608  -0.003  -0.820  0.00  0.00     0.048 A 
ATOM      6  C5  UNL d   1       2.166  -1.239  -0.492  0.00  0.00     0.003 A 
ATOM      7  I   UNL d   1      -0.149   2.430  -0.442  0.00  0.00    -0.146 I 
ENDROOT
TORSDOF 0
ENDMDL
