MODEL 1
REMARK minimizedAffinity 7.98917103
REMARK minimizedRMSD -1
REMARK  0 active torsions:
REMARK  status: ('A' for Active; 'I' for Inactive)
ROOT
ATOM      1  C   UNL d   1      -0.504   0.523  -3.543  0.00  0.00     0.023 A 
ATOM      2  C1  UNL d   1      -1.419   1.425  -3.000  0.00  0.00     0.003 A 
ATOM      3  C2  UNL d   1      -1.093   2.143  -1.847  0.00  0.00     0.048 A 
ATOM      4  C3  UNL d   1       0.150   1.954  -1.243  0.00  0.00     0.023 A 
ATOM      5  C4  UNL d   1       1.069   1.053  -1.784  0.00  0.00     0.048 A 
ATOM      6  C5  UNL d   1       0.738   0.337  -2.936  0.00  0.00     0.003 A 
ATOM      7  I   UNL d   1       0.637   3.021   0.472  0.00  0.00    -0.146 I 
ENDROOT
TORSDOF 0
ENDMDL
