MODEL 1
REMARK minimizedAffinity 10.9639359
REMARK minimizedRMSD -1
REMARK  0 active torsions:
REMARK  status: ('A' for Active; 'I' for Inactive)
ROOT
ATOM      1  C   UNL d   1      -5.085   5.123  -5.256  0.00  0.00     0.023 A 
ATOM      2  C1  UNL d   1      -6.000   4.071  -5.207  0.00  0.00     0.003 A 
ATOM      3  C2  UNL d   1      -5.708   2.925  -4.465  0.00  0.00     0.048 A 
ATOM      4  C3  UNL d   1      -4.500   2.837  -3.774  0.00  0.00     0.023 A 
ATOM      5  C4  UNL d   1      -3.582   3.888  -3.819  0.00  0.00     0.048 A 
ATOM      6  C5  UNL d   1      -3.878   5.032  -4.563  0.00  0.00     0.003 A 
ATOM      7  I   UNL d   1      -4.064   1.132  -2.669  0.00  0.00    -0.146 I 
ENDROOT
TORSDOF 0
ENDMDL
