MODEL 1
REMARK minimizedAffinity 8.67351818
REMARK minimizedRMSD -1
REMARK  0 active torsions:
REMARK  status: ('A' for Active; 'I' for Inactive)
ROOT
ATOM      1  O1  BZF d   1       0.511   1.129  -0.823  0.00  0.00    -0.204 OA
ATOM      2  C2  BZF d   1       0.652   2.013  -1.876  0.00  0.00     0.174 A 
ATOM      3  C3  BZF d   1       0.092   3.204  -1.578  0.00  0.00    -0.012 A 
ATOM      4  C3A BZF d   1      -0.350   3.084  -0.223  0.00  0.00    -0.107 A 
ATOM      5  C4  BZF d   1      -0.970   3.940   0.642  0.00  0.00     0.055 A 
ATOM      6  C5  BZF d   1      -1.331   3.489   1.872  0.00  0.00    -0.016 A 
ATOM      7  C6  BZF d   1      -1.093   2.189   2.268  0.00  0.00     0.022 A 
ATOM      8  C7  BZF d   1      -0.476   1.305   1.447  0.00  0.00     0.029 A 
ATOM      9  C7A BZF d   1      -0.080   1.767   0.216  0.00  0.00     0.058 A 
ENDROOT
TORSDOF 0
ENDMDL
