MODEL 1
REMARK minimizedAffinity 4.97431231
REMARK minimizedRMSD -1
REMARK  0 active torsions:
REMARK  status: ('A' for Active; 'I' for Inactive)
ROOT
ATOM      1  O1  BZF d   1      -1.778   1.187  -0.890  0.00  0.00    -0.204 OA
ATOM      2  C2  BZF d   1      -0.954   2.056  -0.201  0.00  0.00     0.174 A 
ATOM      3  C3  BZF d   1       0.225   2.205  -0.839  0.00  0.00    -0.012 A 
ATOM      4  C3A BZF d   1       0.096   1.450  -2.047  0.00  0.00    -0.107 A 
ATOM      5  C4  BZF d   1       0.929   1.223  -3.105  0.00  0.00     0.055 A 
ATOM      6  C5  BZF d   1       0.529   0.379  -4.092  0.00  0.00    -0.016 A 
ATOM      7  C6  BZF d   1      -0.693  -0.259  -4.050  0.00  0.00     0.022 A 
ATOM      8  C7  BZF d   1      -1.556  -0.061  -3.023  0.00  0.00     0.029 A 
ATOM      9  C7A BZF d   1      -1.168   0.817  -2.041  0.00  0.00     0.058 A 
ENDROOT
TORSDOF 0
ENDMDL
