MODEL 1
REMARK minimizedAffinity 7.79527187
REMARK minimizedRMSD -1
REMARK  0 active torsions:
REMARK  status: ('A' for Active; 'I' for Inactive)
ROOT
ATOM      1  O1  BZF d   1       0.884   3.209   0.950  0.00  0.00    -0.204 OA
ATOM      2  C2  BZF d   1       0.050   3.517  -0.107  0.00  0.00     0.174 A 
ATOM      3  C3  BZF d   1      -1.186   3.019   0.098  0.00  0.00    -0.012 A 
ATOM      4  C3A BZF d   1      -1.146   2.438   1.404  0.00  0.00    -0.107 A 
ATOM      5  C4  BZF d   1      -2.074   1.799   2.177  0.00  0.00     0.055 A 
ATOM      6  C5  BZF d   1      -1.694   1.286   3.376  0.00  0.00    -0.016 A 
ATOM      7  C6  BZF d   1      -0.396   1.388   3.832  0.00  0.00     0.022 A 
ATOM      8  C7  BZF d   1       0.558   2.017   3.103  0.00  0.00     0.029 A 
ATOM      9  C7A BZF d   1       0.170   2.566   1.905  0.00  0.00     0.058 A 
ENDROOT
TORSDOF 0
ENDMDL
