MODEL 1
REMARK minimizedAffinity 16.230547
REMARK minimizedRMSD -1
REMARK  0 active torsions:
REMARK  status: ('A' for Active; 'I' for Inactive)
ROOT
ATOM      1  O1  BZF d   1      -1.861   2.096  -3.267  0.00  0.00    -0.204 OA
ATOM      2  C2  BZF d   1      -2.859   1.190  -2.964  0.00  0.00     0.174 A 
ATOM      3  C3  BZF d   1      -2.740   0.756  -1.692  0.00  0.00    -0.012 A 
ATOM      4  C3A BZF d   1      -1.652   1.503  -1.140  0.00  0.00    -0.107 A 
ATOM      5  C4  BZF d   1      -1.063   1.532   0.092  0.00  0.00     0.055 A 
ATOM      6  C5  BZF d   1       0.027   2.321   0.284  0.00  0.00    -0.016 A 
ATOM      7  C6  BZF d   1       0.556   3.089  -0.732  0.00  0.00     0.022 A 
ATOM      8  C7  BZF d   1       0.003   3.097  -1.969  0.00  0.00     0.029 A 
ATOM      9  C7A BZF d   1      -1.118   2.326  -2.158  0.00  0.00     0.058 A 
ENDROOT
TORSDOF 0
ENDMDL
