MODEL 1
REMARK minimizedAffinity 5.52835941
REMARK minimizedRMSD -1
REMARK  0 active torsions:
REMARK  status: ('A' for Active; 'I' for Inactive)
ROOT
ATOM      1  O1  BZF d   1       0.927   3.045  -0.495  0.00  0.00    -0.204 OA
ATOM      2  C2  BZF d   1       0.085   3.499  -1.491  0.00  0.00     0.174 A 
ATOM      3  C3  BZF d   1      -1.206   3.372  -1.122  0.00  0.00    -0.012 A 
ATOM      4  C3A BZF d   1      -1.166   2.888   0.224  0.00  0.00    -0.107 A 
ATOM      5  C4  BZF d   1      -2.131   2.579   1.140  0.00  0.00     0.055 A 
ATOM      6  C5  BZF d   1      -1.761   2.061   2.340  0.00  0.00    -0.016 A 
ATOM      7  C6  BZF d   1      -0.437   1.835   2.656  0.00  0.00     0.022 A 
ATOM      8  C7  BZF d   1       0.556   2.131   1.783  0.00  0.00     0.029 A 
ATOM      9  C7A BZF d   1       0.187   2.685   0.581  0.00  0.00     0.058 A 
ENDROOT
TORSDOF 0
ENDMDL
