MODEL 1
REMARK minimizedAffinity 9.29828262
REMARK minimizedRMSD -1
REMARK  0 active torsions:
REMARK  status: ('A' for Active; 'I' for Inactive)
ROOT
ATOM      1  O1  BZF d   1       1.038  -3.020  -0.558  0.00  0.00    -0.204 OA
ATOM      2  C2  BZF d   1       1.812  -2.357   0.375  0.00  0.00     0.174 A 
ATOM      3  C3  BZF d   1       2.987  -2.994   0.562  0.00  0.00    -0.012 A 
ATOM      4  C3A BZF d   1       2.982  -4.074  -0.377  0.00  0.00    -0.107 A 
ATOM      5  C4  BZF d   1       3.882  -5.055  -0.683  0.00  0.00     0.055 A 
ATOM      6  C5  BZF d   1       3.542  -6.000  -1.599  0.00  0.00    -0.016 A 
ATOM      7  C6  BZF d   1       2.311  -5.997  -2.222  0.00  0.00     0.022 A 
ATOM      8  C7  BZF d   1       1.388  -5.041  -1.955  0.00  0.00     0.029 A 
ATOM      9  C7A BZF d   1       1.741  -4.066  -1.054  0.00  0.00     0.058 A 
ENDROOT
TORSDOF 0
ENDMDL
