MODEL 1
REMARK minimizedAffinity 6.67567921
REMARK minimizedRMSD -1
REMARK  0 active torsions:
REMARK  status: ('A' for Active; 'I' for Inactive)
ROOT
ATOM      1  O1  BZF d   1      -1.864   3.033   1.496  0.00  0.00    -0.204 OA
ATOM      2  C2  BZF d   1      -1.135   1.867   1.362  0.00  0.00     0.174 A 
ATOM      3  C3  BZF d   1      -0.157   2.017   0.446  0.00  0.00    -0.012 A 
ATOM      4  C3A BZF d   1      -0.225   3.389   0.044  0.00  0.00    -0.107 A 
ATOM      5  C4  BZF d   1       0.498   4.148  -0.831  0.00  0.00     0.055 A 
ATOM      6  C5  BZF d   1       0.130   5.438  -1.048  0.00  0.00    -0.016 A 
ATOM      7  C6  BZF d   1      -0.958   5.999  -0.411  0.00  0.00     0.022 A 
ATOM      8  C7  BZF d   1      -1.703   5.287   0.469  0.00  0.00     0.029 A 
ATOM      9  C7A BZF d   1      -1.313   3.993   0.715  0.00  0.00     0.058 A 
ENDROOT
TORSDOF 0
ENDMDL
