MODEL 1
REMARK minimizedAffinity 5.34485531
REMARK minimizedRMSD -1
REMARK  0 active torsions:
REMARK  status: ('A' for Active; 'I' for Inactive)
ROOT
ATOM      1  O1  BZF d   1       1.224   2.884   0.992  0.00  0.00    -0.204 OA
ATOM      2  C2  BZF d   1       1.514   3.276   2.285  0.00  0.00     0.174 A 
ATOM      3  C3  BZF d   1       0.442   3.109   3.087  0.00  0.00    -0.012 A 
ATOM      4  C3A BZF d   1      -0.552   2.493   2.262  0.00  0.00    -0.107 A 
ATOM      5  C4  BZF d   1      -1.829   2.065   2.491  0.00  0.00     0.055 A 
ATOM      6  C5  BZF d   1      -2.557   1.575   1.454  0.00  0.00    -0.016 A 
ATOM      7  C6  BZF d   1      -2.044   1.504   0.176  0.00  0.00     0.022 A 
ATOM      8  C7  BZF d   1      -0.781   1.912  -0.100  0.00  0.00     0.029 A 
ATOM      9  C7A BZF d   1      -0.031   2.377   0.953  0.00  0.00     0.058 A 
ENDROOT
TORSDOF 0
ENDMDL
