MODEL 1
REMARK minimizedAffinity -4.75708103
REMARK minimizedRMSD -1
REMARK  0 active torsions:
REMARK  status: ('A' for Active; 'I' for Inactive)
ROOT
ATOM      1  O1  BZF d   1      -0.429   2.873   3.048  0.00  0.00    -0.204 OA
ATOM      2  C2  BZF d   1      -1.173   1.747   3.341  0.00  0.00     0.174 A 
ATOM      3  C3  BZF d   1      -1.559   1.121   2.210  0.00  0.00    -0.012 A 
ATOM      4  C3A BZF d   1      -0.945   1.855   1.146  0.00  0.00    -0.107 A 
ATOM      5  C4  BZF d   1      -0.941   1.712  -0.212  0.00  0.00     0.055 A 
ATOM      6  C5  BZF d   1      -0.303   2.641  -0.971  0.00  0.00    -0.016 A 
ATOM      7  C6  BZF d   1       0.336   3.726  -0.407  0.00  0.00     0.022 A 
ATOM      8  C7  BZF d   1       0.363   3.907   0.936  0.00  0.00     0.029 A 
ATOM      9  C7A BZF d   1      -0.253   2.952   1.708  0.00  0.00     0.058 A 
ENDROOT
TORSDOF 0
ENDMDL
