MODEL 1
REMARK minimizedAffinity 19.7785854
REMARK minimizedRMSD -1
REMARK  0 active torsions:
REMARK  status: ('A' for Active; 'I' for Inactive)
ROOT
ATOM      1  O1  BZF d   1       3.823  -5.393   2.045  0.00  0.00    -0.204 OA
ATOM      2  C2  BZF d   1       5.116  -5.852   2.209  0.00  0.00     0.174 A 
ATOM      3  C3  BZF d   1       5.999  -4.837   2.120  0.00  0.00    -0.012 A 
ATOM      4  C3A BZF d   1       5.202  -3.657   1.978  0.00  0.00    -0.107 A 
ATOM      5  C4  BZF d   1       5.503  -2.330   1.858  0.00  0.00     0.055 A 
ATOM      6  C5  BZF d   1       4.496  -1.440   1.662  0.00  0.00    -0.016 A 
ATOM      7  C6  BZF d   1       3.179  -1.841   1.575  0.00  0.00     0.022 A 
ATOM      8  C7  BZF d   1       2.831  -3.146   1.693  0.00  0.00     0.029 A 
ATOM      9  C7A BZF d   1       3.843  -4.044   1.924  0.00  0.00     0.058 A 
ENDROOT
TORSDOF 0
ENDMDL
