MODEL 1
REMARK minimizedAffinity 10.1220427
REMARK minimizedRMSD -1
REMARK  0 active torsions:
REMARK  status: ('A' for Active; 'I' for Inactive)
ROOT
ATOM      1  O1  BZF d   1      -1.940   2.111  -2.554  0.00  0.00    -0.204 OA
ATOM      2  C2  BZF d   1      -1.860   3.084  -3.531  0.00  0.00     0.174 A 
ATOM      3  C3  BZF d   1      -0.946   4.019  -3.201  0.00  0.00    -0.012 A 
ATOM      4  C3A BZF d   1      -0.356   3.555  -1.983  0.00  0.00    -0.107 A 
ATOM      5  C4  BZF d   1       0.627   4.043  -1.170  0.00  0.00     0.055 A 
ATOM      6  C5  BZF d   1       0.917   3.386  -0.016  0.00  0.00    -0.016 A 
ATOM      7  C6  BZF d   1       0.241   2.243   0.358  0.00  0.00     0.022 A 
ATOM      8  C7  BZF d   1      -0.738   1.718  -0.418  0.00  0.00     0.029 A 
ATOM      9  C7A BZF d   1      -1.011   2.361  -1.601  0.00  0.00     0.058 A 
ENDROOT
TORSDOF 0
ENDMDL
