MODEL 1
REMARK minimizedAffinity 8.27301502
REMARK minimizedRMSD -1
REMARK  0 active torsions:
REMARK  status: ('A' for Active; 'I' for Inactive)
ROOT
ATOM      1  O1  BZF d   1      -2.393   1.818  -1.896  0.00  0.00    -0.204 OA
ATOM      2  C2  BZF d   1      -2.349   2.174  -3.230  0.00  0.00     0.174 A 
ATOM      3  C3  BZF d   1      -1.289   2.969  -3.479  0.00  0.00    -0.012 A 
ATOM      4  C3A BZF d   1      -0.576   3.045  -2.240  0.00  0.00    -0.107 A 
ATOM      5  C4  BZF d   1       0.572   3.674  -1.855  0.00  0.00     0.055 A 
ATOM      6  C5  BZF d   1       0.957   3.608  -0.553  0.00  0.00    -0.016 A 
ATOM      7  C6  BZF d   1       0.215   2.927   0.390  0.00  0.00     0.022 A 
ATOM      8  C7  BZF d   1      -0.929   2.283   0.054  0.00  0.00     0.029 A 
ATOM      9  C7A BZF d   1      -1.303   2.320  -1.267  0.00  0.00     0.058 A 
ENDROOT
TORSDOF 0
ENDMDL
