MODEL 1
REMARK minimizedAffinity 2.10314798
REMARK minimizedRMSD -1
REMARK  2 active torsions:
REMARK  status: ('A' for Active; 'I' for Inactive)
REMARK    1  A    between atoms: C1_2  and  C2_3 
REMARK    2  A    between atoms: C2_3  and  C3_4 
ROOT
ATOM      1  C3  UNL d   1       3.680  -4.375  -4.932  0.00  0.00    -0.075 A 
ATOM      2  C4  UNL d   1       4.587  -4.325  -6.000  0.00  0.00     0.002 A 
ATOM      3  C5  UNL d   1       5.737  -5.115  -5.990  0.00  0.00     0.002 A 
ATOM      4  C6  UNL d   1       6.000  -5.955  -4.910  0.00  0.00    -0.004 A 
ATOM      5  C7  UNL d   1       5.114  -6.000  -3.835  0.00  0.00     0.002 A 
ATOM      6  C8  UNL d   1       3.960  -5.214  -3.845  0.00  0.00     0.002 A 
ENDROOT
BRANCH   1   7
ATOM      7  C2  UNL d   1       2.419  -3.545  -4.950  0.00  0.00     0.056 C 
BRANCH   7   8
ATOM      8  C1  UNL d   1       2.367  -2.464  -3.866  0.00  0.00     0.007 C 
ATOM      9  C   UNL d   1       1.387  -2.784  -2.745  0.00  0.00     0.009 C 
ENDBRANCH   7   8
ENDBRANCH   1   7
TORSDOF 2
ENDMDL
