MODEL 1
REMARK minimizedAffinity -2.99819779
REMARK minimizedRMSD -1
REMARK  2 active torsions:
REMARK  status: ('A' for Active; 'I' for Inactive)
REMARK    1  A    between atoms: C1_2  and  C2_3 
REMARK    2  A    between atoms: C2_3  and  C3_4 
ROOT
ATOM      1  C3  UNL d   1       2.399   4.493  -5.983  0.00  0.00    -0.075 A 
ATOM      2  C4  UNL d   1       3.230   5.622  -5.965  0.00  0.00     0.002 A 
ATOM      3  C5  UNL d   1       4.618   5.480  -5.977  0.00  0.00     0.002 A 
ATOM      4  C6  UNL d   1       5.191   4.211  -5.998  0.00  0.00    -0.004 A 
ATOM      5  C7  UNL d   1       4.375   3.082  -5.999  0.00  0.00     0.002 A 
ATOM      6  C8  UNL d   1       2.986   3.220  -5.991  0.00  0.00     0.002 A 
ENDROOT
BRANCH   1   7
ATOM      7  C2  UNL d   1       0.896   4.640  -6.000  0.00  0.00     0.056 C 
BRANCH   7   8
ATOM      8  C1  UNL d   1       0.139   3.308  -5.962  0.00  0.00     0.007 C 
ATOM      9  C   UNL d   1      -1.371   3.479  -5.861  0.00  0.00     0.009 C 
ENDBRANCH   7   8
ENDBRANCH   1   7
TORSDOF 2
ENDMDL
