MODEL 1
REMARK minimizedAffinity 0.0406184234
REMARK minimizedRMSD -1
REMARK  2 active torsions:
REMARK  status: ('A' for Active; 'I' for Inactive)
REMARK    1  A    between atoms: C1_2  and  C2_3 
REMARK    2  A    between atoms: C2_3  and  C3_4 
ROOT
ATOM      1  C3  UNL d   1       0.661   3.740  -5.968  0.00  0.00    -0.075 A 
ATOM      2  C4  UNL d   1       0.022   2.492  -5.988  0.00  0.00     0.002 A 
ATOM      3  C5  UNL d   1      -1.371   2.409  -5.986  0.00  0.00     0.002 A 
ATOM      4  C6  UNL d   1      -2.141   3.570  -5.954  0.00  0.00    -0.004 A 
ATOM      5  C7  UNL d   1      -1.516   4.815  -5.917  0.00  0.00     0.002 A 
ATOM      6  C8  UNL d   1      -0.123   4.901  -5.923  0.00  0.00     0.002 A 
ENDROOT
BRANCH   1   7
ATOM      7  C2  UNL d   1       2.167   3.837  -6.000  0.00  0.00     0.056 C 
BRANCH   7   8
ATOM      8  C1  UNL d   1       2.700   5.274  -5.995  0.00  0.00     0.007 C 
ATOM      9  C   UNL d   1       4.206   5.356  -5.781  0.00  0.00     0.009 C 
ENDBRANCH   7   8
ENDBRANCH   1   7
TORSDOF 2
ENDMDL
