MODEL 1
REMARK minimizedAffinity -3.34460235
REMARK minimizedRMSD -1
REMARK  2 active torsions:
REMARK  status: ('A' for Active; 'I' for Inactive)
REMARK    1  A    between atoms: C1_2  and  C2_3 
REMARK    2  A    between atoms: C2_3  and  C3_4 
ROOT
ATOM      1  C3  UNL d   1      -1.121   3.738  -5.990  0.00  0.00    -0.075 A 
ATOM      2  C4  UNL d   1      -0.545   2.459  -5.999  0.00  0.00     0.002 A 
ATOM      3  C5  UNL d   1       0.841   2.306  -5.994  0.00  0.00     0.002 A 
ATOM      4  C6  UNL d   1       1.669   3.427  -5.991  0.00  0.00    -0.004 A 
ATOM      5  C7  UNL d   1       1.108   4.702  -5.999  0.00  0.00     0.002 A 
ATOM      6  C8  UNL d   1      -0.279   4.858  -6.000  0.00  0.00     0.002 A 
ENDROOT
BRANCH   1   7
ATOM      7  C2  UNL d   1      -2.621   3.910  -5.966  0.00  0.00     0.056 C 
BRANCH   7   8
ATOM      8  C1  UNL d   1      -3.081   5.371  -5.917  0.00  0.00     0.007 C 
ATOM      9  C   UNL d   1      -3.032   5.968  -4.517  0.00  0.00     0.009 C 
ENDBRANCH   7   8
ENDBRANCH   1   7
TORSDOF 2
ENDMDL
