MODEL 1
REMARK minimizedAffinity 1.07847989
REMARK minimizedRMSD -1
REMARK  2 active torsions:
REMARK  status: ('A' for Active; 'I' for Inactive)
REMARK    1  A    between atoms: C1_2  and  C2_3 
REMARK    2  A    between atoms: C2_3  and  C3_4 
ROOT
ATOM      1  C3  UNL d   1      -1.075   3.650  -5.961  0.00  0.00    -0.075 A 
ATOM      2  C4  UNL d   1      -1.649   4.928  -5.999  0.00  0.00     0.002 A 
ATOM      3  C5  UNL d   1      -3.036   5.083  -5.994  0.00  0.00     0.002 A 
ATOM      4  C6  UNL d   1      -3.864   3.963  -5.960  0.00  0.00    -0.004 A 
ATOM      5  C7  UNL d   1      -3.305   2.687  -5.939  0.00  0.00     0.002 A 
ATOM      6  C8  UNL d   1      -1.918   2.530  -5.940  0.00  0.00     0.002 A 
ENDROOT
BRANCH   1   7
ATOM      7  C2  UNL d   1       0.425   3.477  -5.937  0.00  0.00     0.056 C 
BRANCH   7   8
ATOM      8  C1  UNL d   1       1.206   4.794  -5.993  0.00  0.00     0.007 C 
ATOM      9  C   UNL d   1       2.715   4.601  -5.924  0.00  0.00     0.009 C 
ENDBRANCH   7   8
ENDBRANCH   1   7
TORSDOF 2
ENDMDL
