MODEL 1
REMARK minimizedAffinity 5.01611471
REMARK minimizedRMSD -1
REMARK  2 active torsions:
REMARK  status: ('A' for Active; 'I' for Inactive)
REMARK    1  A    between atoms: C1_2  and  C2_3 
REMARK    2  A    between atoms: C2_3  and  C3_4 
ROOT
ATOM      1  C3  UNL d   1       3.076  -1.772  -2.273  0.00  0.00    -0.075 A 
ATOM      2  C4  UNL d   1       2.119  -2.678  -1.793  0.00  0.00     0.002 A 
ATOM      3  C5  UNL d   1       1.545  -3.621  -2.646  0.00  0.00     0.002 A 
ATOM      4  C6  UNL d   1       1.911  -3.663  -3.990  0.00  0.00    -0.004 A 
ATOM      5  C7  UNL d   1       2.848  -2.757  -4.482  0.00  0.00     0.002 A 
ATOM      6  C8  UNL d   1       3.427  -1.816  -3.629  0.00  0.00     0.002 A 
ENDROOT
BRANCH   1   7
ATOM      7  C2  UNL d   1       3.723  -0.769  -1.349  0.00  0.00     0.056 C 
BRANCH   7   8
ATOM      8  C1  UNL d   1       4.488   0.344  -2.073  0.00  0.00     0.007 C 
ATOM      9  C   UNL d   1       5.992   0.285  -1.843  0.00  0.00     0.009 C 
ENDBRANCH   7   8
ENDBRANCH   1   7
TORSDOF 2
ENDMDL
