MODEL 1
REMARK minimizedAffinity 6.73941517
REMARK minimizedRMSD -1
REMARK  2 active torsions:
REMARK  status: ('A' for Active; 'I' for Inactive)
REMARK    1  A    between atoms: C1_2  and  C2_3 
REMARK    2  A    between atoms: C2_3  and  C3_4 
ROOT
ATOM      1  C3  UNL d   1       0.339   1.963  -5.960  0.00  0.00    -0.075 A 
ATOM      2  C4  UNL d   1       1.679   2.377  -5.998  0.00  0.00     0.002 A 
ATOM      3  C5  UNL d   1       2.001   3.734  -6.000  0.00  0.00     0.002 A 
ATOM      4  C6  UNL d   1       0.991   4.693  -5.974  0.00  0.00    -0.004 A 
ATOM      5  C7  UNL d   1      -0.344   4.294  -5.954  0.00  0.00     0.002 A 
ATOM      6  C8  UNL d   1      -0.669   2.936  -5.947  0.00  0.00     0.002 A 
ENDROOT
BRANCH   1   7
ATOM      7  C2  UNL d   1      -0.016   0.496  -5.928  0.00  0.00     0.056 C 
BRANCH   7   8
ATOM      8  C1  UNL d   1      -0.389  -0.025  -4.536  0.00  0.00     0.007 C 
ATOM      9  C   UNL d   1       0.823  -0.383  -3.685  0.00  0.00     0.009 C 
ENDBRANCH   7   8
ENDBRANCH   1   7
TORSDOF 2
ENDMDL
