MODEL 1
REMARK minimizedAffinity 0.757764637
REMARK minimizedRMSD -1
REMARK  2 active torsions:
REMARK  status: ('A' for Active; 'I' for Inactive)
REMARK    1  A    between atoms: C1_2  and  C2_3 
REMARK    2  A    between atoms: C2_3  and  C3_4 
ROOT
ATOM      1  C3  UNL d   1      -0.348   4.183  -3.711  0.00  0.00    -0.075 A 
ATOM      2  C4  UNL d   1       0.474   4.188  -4.848  0.00  0.00     0.002 A 
ATOM      3  C5  UNL d   1       0.116   4.924  -5.978  0.00  0.00     0.002 A 
ATOM      4  C6  UNL d   1      -1.070   5.654  -5.990  0.00  0.00    -0.004 A 
ATOM      5  C7  UNL d   1      -1.902   5.644  -4.873  0.00  0.00     0.002 A 
ATOM      6  C8  UNL d   1      -1.544   4.912  -3.739  0.00  0.00     0.002 A 
ENDROOT
BRANCH   1   7
ATOM      7  C2  UNL d   1       0.048   3.413  -2.474  0.00  0.00     0.056 C 
BRANCH   7   8
ATOM      8  C1  UNL d   1       1.536   3.052  -2.414  0.00  0.00     0.007 C 
ATOM      9  C   UNL d   1       2.195   3.438  -1.097  0.00  0.00     0.009 C 
ENDBRANCH   7   8
ENDBRANCH   1   7
TORSDOF 2
ENDMDL
