MODEL 1
REMARK minimizedAffinity 1.42462206
REMARK minimizedRMSD -1
REMARK  2 active torsions:
REMARK  status: ('A' for Active; 'I' for Inactive)
REMARK    1  A    between atoms: C1_2  and  C2_3 
REMARK    2  A    between atoms: C2_3  and  C3_4 
ROOT
ATOM      1  C3  UNL d   1      -3.588  -4.932  -1.391  0.00  0.00    -0.075 A 
ATOM      2  C4  UNL d   1      -4.138  -3.780  -1.972  0.00  0.00     0.002 A 
ATOM      3  C5  UNL d   1      -4.338  -3.708  -3.351  0.00  0.00     0.002 A 
ATOM      4  C6  UNL d   1      -3.983  -4.781  -4.166  0.00  0.00    -0.004 A 
ATOM      5  C7  UNL d   1      -3.421  -5.924  -3.601  0.00  0.00     0.002 A 
ATOM      6  C8  UNL d   1      -3.223  -6.000  -2.221  0.00  0.00     0.002 A 
ENDROOT
BRANCH   1   7
ATOM      7  C2  UNL d   1      -3.396  -5.027   0.104  0.00  0.00     0.056 C 
BRANCH   7   8
ATOM      8  C1  UNL d   1      -4.360  -5.997   0.796  0.00  0.00     0.007 C 
ATOM      9  C   UNL d   1      -5.824  -5.700   0.504  0.00  0.00     0.009 C 
ENDBRANCH   7   8
ENDBRANCH   1   7
TORSDOF 2
ENDMDL
