MODEL 1
REMARK minimizedAffinity 2.18377709
REMARK minimizedRMSD -1
REMARK  2 active torsions:
REMARK  status: ('A' for Active; 'I' for Inactive)
REMARK    1  A    between atoms: C1_2  and  C2_3 
REMARK    2  A    between atoms: C2_3  and  C3_4 
ROOT
ATOM      1  C3  UNL d   1      -1.439  -0.743   1.654  0.00  0.00    -0.075 A 
ATOM      2  C4  UNL d   1      -2.626  -0.018   1.835  0.00  0.00     0.002 A 
ATOM      3  C5  UNL d   1      -3.704  -0.583   2.517  0.00  0.00     0.002 A 
ATOM      4  C6  UNL d   1      -3.614  -1.880   3.017  0.00  0.00    -0.004 A 
ATOM      5  C7  UNL d   1      -2.446  -2.615   2.829  0.00  0.00     0.002 A 
ATOM      6  C8  UNL d   1      -1.364  -2.052   2.151  0.00  0.00     0.002 A 
ENDROOT
BRANCH   1   7
ATOM      7  C2  UNL d   1      -0.258  -0.127   0.943  0.00  0.00     0.056 C 
BRANCH   7   8
ATOM      8  C1  UNL d   1      -0.227  -0.400  -0.565  0.00  0.00     0.007 C 
ATOM      9  C   UNL d   1       1.062   0.063  -1.231  0.00  0.00     0.009 C 
ENDBRANCH   7   8
ENDBRANCH   1   7
TORSDOF 2
ENDMDL
