MODEL 1
REMARK minimizedAffinity 4.96591663
REMARK minimizedRMSD -1
REMARK  2 active torsions:
REMARK  status: ('A' for Active; 'I' for Inactive)
REMARK    1  A    between atoms: C1_2  and  C2_3 
REMARK    2  A    between atoms: C2_3  and  C3_4 
ROOT
ATOM      1  C3  UNL d   1       1.572  -0.923  -2.300  0.00  0.00    -0.075 A 
ATOM      2  C4  UNL d   1       1.925  -1.532  -3.513  0.00  0.00     0.002 A 
ATOM      3  C5  UNL d   1       3.037  -2.372  -3.587  0.00  0.00     0.002 A 
ATOM      4  C6  UNL d   1       3.814  -2.604  -2.454  0.00  0.00    -0.004 A 
ATOM      5  C7  UNL d   1       3.482  -1.992  -1.248  0.00  0.00     0.002 A 
ATOM      6  C8  UNL d   1       2.367  -1.155  -1.170  0.00  0.00     0.002 A 
ENDROOT
BRANCH   1   7
ATOM      7  C2  UNL d   1       0.353  -0.037  -2.207  0.00  0.00     0.056 C 
BRANCH   7   8
ATOM      8  C1  UNL d   1      -0.906  -0.758  -1.711  0.00  0.00     0.007 C 
ATOM      9  C   UNL d   1      -1.653  -1.490  -2.818  0.00  0.00     0.009 C 
ENDBRANCH   7   8
ENDBRANCH   1   7
TORSDOF 2
ENDMDL
