MODEL 1
REMARK minimizedAffinity 3.57120132
REMARK minimizedRMSD -1
REMARK  2 active torsions:
REMARK  status: ('A' for Active; 'I' for Inactive)
REMARK    1  A    between atoms: C1_2  and  C2_3 
REMARK    2  A    between atoms: C2_3  and  C3_4 
ROOT
ATOM      1  C3  UNL d   1      -2.659   4.518  -5.615  0.00  0.00    -0.075 A 
ATOM      2  C4  UNL d   1      -3.174   5.765  -6.000  0.00  0.00     0.002 A 
ATOM      3  C5  UNL d   1      -4.549   5.999  -5.983  0.00  0.00     0.002 A 
ATOM      4  C6  UNL d   1      -5.426   4.989  -5.593  0.00  0.00    -0.004 A 
ATOM      5  C7  UNL d   1      -4.927   3.742  -5.225  0.00  0.00     0.002 A 
ATOM      6  C8  UNL d   1      -3.552   3.506  -5.236  0.00  0.00     0.002 A 
ENDROOT
BRANCH   1   7
ATOM      7  C2  UNL d   1      -1.170   4.267  -5.602  0.00  0.00     0.056 C 
BRANCH   7   8
ATOM      8  C1  UNL d   1      -0.325   5.521  -5.847  0.00  0.00     0.007 C 
ATOM      9  C   UNL d   1       1.161   5.223  -5.999  0.00  0.00     0.009 C 
ENDBRANCH   7   8
ENDBRANCH   1   7
TORSDOF 2
ENDMDL
