MODEL 1
REMARK minimizedAffinity -2.69907951
REMARK minimizedRMSD -1
REMARK  1 active torsions:
REMARK  status: ('A' for Active; 'I' for Inactive)
REMARK    1  A    between atoms: C1_2  and  C2_3 
ROOT
ATOM      1  C2  UNL d   1       0.128  -0.017   0.685  0.00  0.00    -0.076 A 
ATOM      2  C3  UNL d   1      -0.534   0.735   1.671  0.00  0.00     0.004 A 
ATOM      3  C4  UNL d   1      -0.047   1.978   2.074  0.00  0.00    -0.003 A 
ATOM      4  C5  UNL d   1       1.109   2.489   1.496  0.00  0.00     0.000 A 
ATOM      5  C6  UNL d   1       1.769   1.765   0.503  0.00  0.00     0.000 A 
ATOM      6  C7  UNL d   1       1.283   0.518   0.075  0.00  0.00    -0.073 A 
ATOM      7  C8  UNL d   1       2.038  -0.222  -0.995  0.00  0.00     0.078 C 
ENDROOT
BRANCH   1   8
ATOM      8  C1  UNL d   1      -0.431  -1.370   0.309  0.00  0.00     0.053 C 
ATOM      9  C   UNL d   1      -0.908  -2.160   1.518  0.00  0.00     0.018 C 
ENDBRANCH   1   8
TORSDOF 1
ENDMDL
