MODEL 1
REMARK minimizedAffinity -1.5310111
REMARK minimizedRMSD -1
REMARK  1 active torsions:
REMARK  status: ('A' for Active; 'I' for Inactive)
REMARK    1  A    between atoms: C1_2  and  C2_3 
ROOT
ATOM      1  C2  UNL d   1       0.988   1.428   0.229  0.00  0.00    -0.076 A 
ATOM      2  C3  UNL d   1      -0.330   1.017   0.495  0.00  0.00     0.004 A 
ATOM      3  C4  UNL d   1      -0.853  -0.136  -0.086  0.00  0.00    -0.003 A 
ATOM      4  C5  UNL d   1      -0.067  -0.898  -0.944  0.00  0.00     0.000 A 
ATOM      5  C6  UNL d   1       1.248  -0.515  -1.205  0.00  0.00     0.000 A 
ATOM      6  C7  UNL d   1       1.797   0.636  -0.615  0.00  0.00    -0.073 A 
ATOM      7  C8  UNL d   1       3.219   1.005  -0.937  0.00  0.00     0.078 C 
ENDROOT
BRANCH   1   8
ATOM      8  C1  UNL d   1       1.493   2.703   0.867  0.00  0.00     0.053 C 
ATOM      9  C   UNL d   1       1.524   2.622   2.385  0.00  0.00     0.018 C 
ENDBRANCH   1   8
TORSDOF 1
ENDMDL
