MODEL 1
REMARK minimizedAffinity -4.04295778
REMARK minimizedRMSD -1
REMARK  1 active torsions:
REMARK  status: ('A' for Active; 'I' for Inactive)
REMARK    1  A    between atoms: C1_2  and  C2_3 
ROOT
ATOM      1  C2  UNL d   1       0.080  -0.745   0.427  0.00  0.00    -0.076 A 
ATOM      2  C3  UNL d   1      -0.522   0.335   1.097  0.00  0.00     0.004 A 
ATOM      3  C4  UNL d   1       0.148   1.547   1.251  0.00  0.00    -0.003 A 
ATOM      4  C5  UNL d   1       1.432   1.699   0.738  0.00  0.00     0.000 A 
ATOM      5  C6  UNL d   1       2.037   0.645   0.056  0.00  0.00     0.000 A 
ATOM      6  C7  UNL d   1       1.369  -0.579  -0.123  0.00  0.00    -0.073 A 
ATOM      7  C8  UNL d   1       2.072  -1.684  -0.862  0.00  0.00     0.078 C 
ENDROOT
BRANCH   1   8
ATOM      8  C1  UNL d   1      -0.685  -2.044   0.314  0.00  0.00     0.053 C 
ATOM      9  C   UNL d   1      -0.702  -2.826   1.619  0.00  0.00     0.018 C 
ENDBRANCH   1   8
TORSDOF 1
ENDMDL
