MODEL 1
REMARK minimizedAffinity -3.75721574
REMARK minimizedRMSD -1
REMARK  1 active torsions:
REMARK  status: ('A' for Active; 'I' for Inactive)
REMARK    1  A    between atoms: C1_2  and  C2_3 
ROOT
ATOM      1  C2  UNL d   1      -0.289  -0.055   0.853  0.00  0.00    -0.076 A 
ATOM      2  C3  UNL d   1      -0.636   1.058   1.639  0.00  0.00     0.004 A 
ATOM      3  C4  UNL d   1       0.058   2.262   1.523  0.00  0.00    -0.003 A 
ATOM      4  C5  UNL d   1       1.110   2.372   0.620  0.00  0.00     0.000 A 
ATOM      5  C6  UNL d   1       1.455   1.283  -0.180  0.00  0.00     0.000 A 
ATOM      6  C7  UNL d   1       0.756   0.068  -0.088  0.00  0.00    -0.073 A 
ATOM      7  C8  UNL d   1       1.175  -1.076  -0.970  0.00  0.00     0.078 C 
ENDROOT
BRANCH   1   8
ATOM      8  C1  UNL d   1      -1.060  -1.342   1.042  0.00  0.00     0.053 C 
ATOM      9  C   UNL d   1      -1.050  -1.821   2.485  0.00  0.00     0.018 C 
ENDBRANCH   1   8
TORSDOF 1
ENDMDL
