MODEL 1
REMARK minimizedAffinity -2.46934819
REMARK minimizedRMSD -1
REMARK  1 active torsions:
REMARK  status: ('A' for Active; 'I' for Inactive)
REMARK    1  A    between atoms: C1_2  and  C2_3 
ROOT
ATOM      1  C2  UNL d   1      -1.562  -3.041  -1.860  0.00  0.00    -0.076 A 
ATOM      2  C3  UNL d   1      -1.936  -4.392  -1.960  0.00  0.00     0.004 A 
ATOM      3  C4  UNL d   1      -1.239  -5.382  -1.271  0.00  0.00    -0.003 A 
ATOM      4  C5  UNL d   1      -0.157  -5.038  -0.468  0.00  0.00     0.000 A 
ATOM      5  C6  UNL d   1       0.217  -3.700  -0.343  0.00  0.00     0.000 A 
ATOM      6  C7  UNL d   1      -0.485  -2.687  -1.018  0.00  0.00    -0.073 A 
ATOM      7  C8  UNL d   1      -0.035  -1.262  -0.851  0.00  0.00     0.078 C 
ENDROOT
BRANCH   1   8
ATOM      8  C1  UNL d   1      -2.338  -2.013  -2.652  0.00  0.00     0.053 C 
ATOM      9  C   UNL d   1      -1.763  -1.794  -4.043  0.00  0.00     0.018 C 
ENDBRANCH   1   8
TORSDOF 1
ENDMDL
