MODEL 1
REMARK minimizedAffinity -3.47172236
REMARK minimizedRMSD -1
REMARK  1 active torsions:
REMARK  status: ('A' for Active; 'I' for Inactive)
REMARK    1  A    between atoms: C1_2  and  C2_3 
ROOT
ATOM      1  C2  UNL d   1       0.318   0.085   0.158  0.00  0.00    -0.076 A 
ATOM      2  C3  UNL d   1      -0.548   0.708   1.073  0.00  0.00     0.004 A 
ATOM      3  C4  UNL d   1      -0.226   1.939   1.641  0.00  0.00    -0.003 A 
ATOM      4  C5  UNL d   1       0.967   2.568   1.303  0.00  0.00     0.000 A 
ATOM      5  C6  UNL d   1       1.830   1.972   0.383  0.00  0.00     0.000 A 
ATOM      6  C7  UNL d   1       1.513   0.739  -0.211  0.00  0.00    -0.073 A 
ATOM      7  C8  UNL d   1       2.483   0.140  -1.192  0.00  0.00     0.078 C 
ENDROOT
BRANCH   1   8
ATOM      8  C1  UNL d   1      -0.072  -1.263  -0.405  0.00  0.00     0.053 C 
ATOM      9  C   UNL d   1      -1.026  -1.149  -1.584  0.00  0.00     0.018 C 
ENDBRANCH   1   8
TORSDOF 1
ENDMDL
