MODEL 1
REMARK minimizedAffinity -2.65578079
REMARK minimizedRMSD -1
REMARK  1 active torsions:
REMARK  status: ('A' for Active; 'I' for Inactive)
REMARK    1  A    between atoms: C1_2  and  C2_3 
ROOT
ATOM      1  C2  UNL d   1       0.329   0.250  -0.016  0.00  0.00    -0.076 A 
ATOM      2  C3  UNL d   1       1.352   0.648  -0.894  0.00  0.00     0.004 A 
ATOM      3  C4  UNL d   1       2.020   1.858  -0.716  0.00  0.00    -0.003 A 
ATOM      4  C5  UNL d   1       1.677   2.690   0.344  0.00  0.00     0.000 A 
ATOM      5  C6  UNL d   1       0.677   2.303   1.235  0.00  0.00     0.000 A 
ATOM      6  C7  UNL d   1       0.005   1.079   1.080  0.00  0.00    -0.073 A 
ATOM      7  C8  UNL d   1      -1.070   0.714   2.067  0.00  0.00     0.078 C 
ENDROOT
BRANCH   1   8
ATOM      8  C1  UNL d   1      -0.378  -1.061  -0.274  0.00  0.00     0.053 C 
ATOM      9  C   UNL d   1      -1.005  -1.121  -1.658  0.00  0.00     0.018 C 
ENDBRANCH   1   8
TORSDOF 1
ENDMDL
