MODEL 1
REMARK minimizedAffinity -5.1312933
REMARK minimizedRMSD -1
REMARK  1 active torsions:
REMARK  status: ('A' for Active; 'I' for Inactive)
REMARK    1  A    between atoms: C1_2  and  C2_3 
ROOT
ATOM      1  C2  UNL d   1       0.255  -0.131   0.360  0.00  0.00    -0.076 A 
ATOM      2  C3  UNL d   1      -0.679   0.606   1.110  0.00  0.00     0.004 A 
ATOM      3  C4  UNL d   1      -0.406   1.913   1.509  0.00  0.00    -0.003 A 
ATOM      4  C5  UNL d   1       0.804   2.505   1.164  0.00  0.00     0.000 A 
ATOM      5  C6  UNL d   1       1.734   1.795   0.406  0.00  0.00     0.000 A 
ATOM      6  C7  UNL d   1       1.468   0.482  -0.018  0.00  0.00    -0.073 A 
ATOM      7  C8  UNL d   1       2.510  -0.240  -0.829  0.00  0.00     0.078 C 
ENDROOT
BRANCH   1   8
ATOM      8  C1  UNL d   1      -0.085  -1.555  -0.021  0.00  0.00     0.053 C 
ATOM      9  C   UNL d   1      -0.667  -2.346   1.140  0.00  0.00     0.018 C 
ENDBRANCH   1   8
TORSDOF 1
ENDMDL
