MODEL 1
REMARK minimizedAffinity -4.8398118
REMARK minimizedRMSD -1
REMARK  1 active torsions:
REMARK  status: ('A' for Active; 'I' for Inactive)
REMARK    1  A    between atoms: C1_2  and  C2_3 
ROOT
ATOM      1  C2  UNL d   1       0.466   0.123   0.214  0.00  0.00    -0.076 A 
ATOM      2  C3  UNL d   1      -0.559   0.618   1.040  0.00  0.00     0.004 A 
ATOM      3  C4  UNL d   1      -0.407   1.820   1.729  0.00  0.00    -0.003 A 
ATOM      4  C5  UNL d   1       0.772   2.547   1.604  0.00  0.00     0.000 A 
ATOM      5  C6  UNL d   1       1.792   2.079   0.776  0.00  0.00     0.000 A 
ATOM      6  C7  UNL d   1       1.648   0.878   0.061  0.00  0.00    -0.073 A 
ATOM      7  C8  UNL d   1       2.783   0.418  -0.814  0.00  0.00     0.078 C 
ENDROOT
BRANCH   1   8
ATOM      8  C1  UNL d   1       0.255  -1.199  -0.488  0.00  0.00     0.053 C 
ATOM      9  C   UNL d   1      -0.862  -1.140  -1.519  0.00  0.00     0.018 C 
ENDBRANCH   1   8
TORSDOF 1
ENDMDL
