MODEL 1
REMARK minimizedAffinity -3.91503835
REMARK minimizedRMSD -1
REMARK  1 active torsions:
REMARK  status: ('A' for Active; 'I' for Inactive)
REMARK    1  A    between atoms: C1_2  and  C2_3 
ROOT
ATOM      1  C2  UNL d   1       0.937   1.284   0.240  0.00  0.00    -0.076 A 
ATOM      2  C3  UNL d   1      -0.257   0.979   0.915  0.00  0.00     0.004 A 
ATOM      3  C4  UNL d   1      -0.769  -0.317   0.918  0.00  0.00    -0.003 A 
ATOM      4  C5  UNL d   1      -0.094  -1.330   0.245  0.00  0.00     0.000 A 
ATOM      5  C6  UNL d   1       1.102  -1.049  -0.415  0.00  0.00     0.000 A 
ATOM      6  C7  UNL d   1       1.640   0.249  -0.414  0.00  0.00    -0.073 A 
ATOM      7  C8  UNL d   1       2.929   0.497  -1.147  0.00  0.00     0.078 C 
ENDROOT
BRANCH   1   8
ATOM      8  C1  UNL d   1       1.429   2.714   0.249  0.00  0.00     0.053 C 
ATOM      9  C   UNL d   1       1.928   3.150   1.618  0.00  0.00     0.018 C 
ENDBRANCH   1   8
TORSDOF 1
ENDMDL
