MODEL 1
REMARK minimizedAffinity -4.17495203
REMARK minimizedRMSD -1
REMARK  1 active torsions:
REMARK  status: ('A' for Active; 'I' for Inactive)
REMARK    1  A    between atoms: C1_2  and  C2_3 
ROOT
ATOM      1  C2  UNL d   1       1.038   0.904   0.031  0.00  0.00    -0.076 A 
ATOM      2  C3  UNL d   1       2.232   0.532  -0.611  0.00  0.00     0.004 A 
ATOM      3  C4  UNL d   1       2.376  -0.730  -1.183  0.00  0.00    -0.003 A 
ATOM      4  C5  UNL d   1       1.328  -1.642  -1.122  0.00  0.00     0.000 A 
ATOM      5  C6  UNL d   1       0.130  -1.284  -0.505  0.00  0.00     0.000 A 
ATOM      6  C7  UNL d   1      -0.038  -0.009   0.062  0.00  0.00    -0.073 A 
ATOM      7  C8  UNL d   1      -1.349   0.322   0.721  0.00  0.00     0.078 C 
ENDROOT
BRANCH   1   8
ATOM      8  C1  UNL d   1       0.949   2.278   0.657  0.00  0.00     0.053 C 
ATOM      9  C   UNL d   1       1.127   2.243   2.167  0.00  0.00     0.018 C 
ENDBRANCH   1   8
TORSDOF 1
ENDMDL
