MODEL 1
REMARK minimizedAffinity -1.48811424
REMARK minimizedRMSD -1
REMARK  1 active torsions:
REMARK  status: ('A' for Active; 'I' for Inactive)
REMARK    1  A    between atoms: C1_2  and  C2_3 
ROOT
ATOM      1  C2  UNL d   1      -1.001  -1.496  -0.989  0.00  0.00    -0.076 A 
ATOM      2  C3  UNL d   1      -1.556  -1.055  -2.202  0.00  0.00     0.004 A 
ATOM      3  C4  UNL d   1      -2.719  -1.631  -2.711  0.00  0.00    -0.003 A 
ATOM      4  C5  UNL d   1      -3.346  -2.658  -2.014  0.00  0.00     0.000 A 
ATOM      5  C6  UNL d   1      -2.820  -3.096  -0.799  0.00  0.00     0.000 A 
ATOM      6  C7  UNL d   1      -1.657  -2.515  -0.264  0.00  0.00    -0.073 A 
ATOM      7  C8  UNL d   1      -1.130  -3.031   1.046  0.00  0.00     0.078 C 
ENDROOT
BRANCH   1   8
ATOM      8  C1  UNL d   1       0.276  -0.852  -0.500  0.00  0.00     0.053 C 
ATOM      9  C   UNL d   1       0.043   0.529   0.092  0.00  0.00     0.018 C 
ENDBRANCH   1   8
TORSDOF 1
ENDMDL
