MODEL 1
REMARK minimizedAffinity -5.45315361
REMARK minimizedRMSD -1
REMARK  1 active torsions:
REMARK  status: ('A' for Active; 'I' for Inactive)
REMARK    1  A    between atoms: C1_2  and  C2_3 
ROOT
ATOM      1  C2  UNL d   1       0.915   0.097  -0.063  0.00  0.00    -0.076 A 
ATOM      2  C3  UNL d   1       2.208   0.397  -0.525  0.00  0.00     0.004 A 
ATOM      3  C4  UNL d   1       2.861   1.561  -0.124  0.00  0.00    -0.003 A 
ATOM      4  C5  UNL d   1       2.232   2.444   0.746  0.00  0.00     0.000 A 
ATOM      5  C6  UNL d   1       0.956   2.154   1.228  0.00  0.00     0.000 A 
ATOM      6  C7  UNL d   1       0.290   0.977   0.847  0.00  0.00    -0.073 A 
ATOM      7  C8  UNL d   1      -1.087   0.718   1.392  0.00  0.00     0.078 C 
ENDROOT
BRANCH   1   8
ATOM      8  C1  UNL d   1       0.245  -1.166  -0.554  0.00  0.00     0.053 C 
ATOM      9  C   UNL d   1      -0.676  -0.915  -1.738  0.00  0.00     0.018 C 
ENDBRANCH   1   8
TORSDOF 1
ENDMDL
