MODEL 1
REMARK minimizedAffinity -3.37333465
REMARK minimizedRMSD -1
REMARK  1 active torsions:
REMARK  status: ('A' for Active; 'I' for Inactive)
REMARK    1  A    between atoms: C1_2  and  C2_3 
ROOT
ATOM      1  C2  UNL d   1      -0.654  -1.566  -1.420  0.00  0.00    -0.076 A 
ATOM      2  C3  UNL d   1      -1.089  -1.165  -2.695  0.00  0.00     0.004 A 
ATOM      3  C4  UNL d   1      -2.234  -1.715  -3.268  0.00  0.00    -0.003 A 
ATOM      4  C5  UNL d   1      -2.963  -2.675  -2.576  0.00  0.00     0.000 A 
ATOM      5  C6  UNL d   1      -2.556  -3.072  -1.303  0.00  0.00     0.000 A 
ATOM      6  C7  UNL d   1      -1.413  -2.516  -0.703  0.00  0.00    -0.073 A 
ATOM      7  C8  UNL d   1      -1.016  -2.985   0.669  0.00  0.00     0.078 C 
ENDROOT
BRANCH   1   8
ATOM      8  C1  UNL d   1       0.611  -0.955  -0.861  0.00  0.00     0.053 C 
ATOM      9  C   UNL d   1       0.368   0.405  -0.223  0.00  0.00     0.018 C 
ENDBRANCH   1   8
TORSDOF 1
ENDMDL
