MODEL 1
REMARK minimizedAffinity -4.94982672
REMARK minimizedRMSD -1
REMARK  1 active torsions:
REMARK  status: ('A' for Active; 'I' for Inactive)
REMARK    1  A    between atoms: C1_2  and  C2_3 
ROOT
ATOM      1  C2  UNL d   1       0.416   0.149   0.189  0.00  0.00    -0.076 A 
ATOM      2  C3  UNL d   1       1.462   0.829  -0.460  0.00  0.00     0.004 A 
ATOM      3  C4  UNL d   1       1.831   2.116  -0.071  0.00  0.00    -0.003 A 
ATOM      4  C5  UNL d   1       1.161   2.743   0.974  0.00  0.00     0.000 A 
ATOM      5  C6  UNL d   1       0.133   2.077   1.640  0.00  0.00     0.000 A 
ATOM      6  C7  UNL d   1      -0.241   0.773   1.271  0.00  0.00    -0.073 A 
ATOM      7  C8  UNL d   1      -1.360   0.104   2.021  0.00  0.00     0.078 C 
ENDROOT
BRANCH   1   8
ATOM      8  C1  UNL d   1       0.042  -1.234  -0.294  0.00  0.00     0.053 C 
ATOM      9  C   UNL d   1      -0.694  -1.206  -1.625  0.00  0.00     0.018 C 
ENDBRANCH   1   8
TORSDOF 1
ENDMDL
