MODEL 1
REMARK minimizedAffinity -3.17696905
REMARK minimizedRMSD -1
REMARK  1 active torsions:
REMARK  status: ('A' for Active; 'I' for Inactive)
REMARK    1  A    between atoms: C1_2  and  C2_3 
ROOT
ATOM      1  C2  UNL d   1      -0.211  -1.540  -1.558  0.00  0.00    -0.076 A 
ATOM      2  C3  UNL d   1      -0.600  -1.058  -2.820  0.00  0.00     0.004 A 
ATOM      3  C4  UNL d   1      -1.830  -1.409  -3.374  0.00  0.00    -0.003 A 
ATOM      4  C5  UNL d   1      -2.691  -2.247  -2.675  0.00  0.00     0.000 A 
ATOM      5  C6  UNL d   1      -2.329  -2.721  -1.415  0.00  0.00     0.000 A 
ATOM      6  C7  UNL d   1      -1.100  -2.364  -0.834  0.00  0.00    -0.073 A 
ATOM      7  C8  UNL d   1      -0.758  -2.909   0.525  0.00  0.00     0.078 C 
ENDROOT
BRANCH   1   8
ATOM      8  C1  UNL d   1       1.146  -1.148  -1.020  0.00  0.00     0.053 C 
ATOM      9  C   UNL d   1       1.126   0.201  -0.317  0.00  0.00     0.018 C 
ENDBRANCH   1   8
TORSDOF 1
ENDMDL
