MODEL 1
REMARK minimizedAffinity -5.54252291
REMARK minimizedRMSD -1
REMARK  1 active torsions:
REMARK  status: ('A' for Active; 'I' for Inactive)
REMARK    1  A    between atoms: C1_2  and  C2_3 
ROOT
ATOM      1  C2  UNL d   1      -0.697  -0.993   0.584  0.00  0.00    -0.073 A 
ATOM      2  C3  UNL d   1      -0.794  -2.294   1.091  0.00  0.00    -0.002 A 
ATOM      3  C4  UNL d   1      -0.310  -3.376   0.354  0.00  0.00     0.004 A 
ATOM      4  C5  UNL d   1       0.282  -3.167  -0.892  0.00  0.00    -0.004 A 
ATOM      5  C6  UNL d   1       0.399  -1.873  -1.410  0.00  0.00    -0.075 A 
ATOM      6  C7  UNL d   1       1.032  -1.632  -2.749  0.00  0.00     0.076 C 
ATOM      7  C8  UNL d   1      -0.092  -0.793  -0.665  0.00  0.00     0.001 A 
ENDROOT
BRANCH   1   8
ATOM      8  C1  UNL d   1      -1.213   0.178   1.380  0.00  0.00     0.053 C 
ATOM      9  C   UNL d   1      -2.315  -0.229   2.345  0.00  0.00     0.018 C 
ENDBRANCH   1   8
TORSDOF 1
ENDMDL
