MODEL 1
REMARK minimizedAffinity -3.26973057
REMARK minimizedRMSD -1
REMARK  1 active torsions:
REMARK  status: ('A' for Active; 'I' for Inactive)
REMARK    1  A    between atoms: C1_2  and  C2_3 
ROOT
ATOM      1  C2  UNL d   1      -0.170   0.439   0.389  0.00  0.00    -0.073 A 
ATOM      2  C3  UNL d   1      -0.379   0.949  -0.897  0.00  0.00    -0.002 A 
ATOM      3  C4  UNL d   1       0.271   2.113  -1.308  0.00  0.00     0.004 A 
ATOM      4  C5  UNL d   1       1.141   2.775  -0.442  0.00  0.00    -0.004 A 
ATOM      5  C6  UNL d   1       1.373   2.274   0.843  0.00  0.00    -0.075 A 
ATOM      6  C7  UNL d   1       2.304   2.975   1.788  0.00  0.00     0.076 C 
ATOM      7  C8  UNL d   1       0.714   1.106   1.250  0.00  0.00     0.001 A 
ENDROOT
BRANCH   1   8
ATOM      8  C1  UNL d   1      -0.865  -0.821   0.835  0.00  0.00     0.053 C 
ATOM      9  C   UNL d   1      -1.253  -0.768   2.304  0.00  0.00     0.018 C 
ENDBRANCH   1   8
TORSDOF 1
ENDMDL
