MODEL 1
REMARK minimizedAffinity 8.53915691
REMARK minimizedRMSD -1
REMARK  1 active torsions:
REMARK  status: ('A' for Active; 'I' for Inactive)
REMARK    1  A    between atoms: C1_2  and  C2_3 
ROOT
ATOM      1  C2  UNL d   1       0.555   0.299   0.104  0.00  0.00    -0.073 A 
ATOM      2  C3  UNL d   1      -0.824   0.082  -0.004  0.00  0.00    -0.002 A 
ATOM      3  C4  UNL d   1      -1.549  -0.399   1.087  0.00  0.00     0.004 A 
ATOM      4  C5  UNL d   1      -0.906  -0.661   2.297  0.00  0.00    -0.004 A 
ATOM      5  C6  UNL d   1       0.468  -0.439   2.428  0.00  0.00    -0.075 A 
ATOM      6  C7  UNL d   1       1.175  -0.718   3.722  0.00  0.00     0.076 C 
ATOM      7  C8  UNL d   1       1.190   0.042   1.328  0.00  0.00     0.001 A 
ENDROOT
BRANCH   1   8
ATOM      8  C1  UNL d   1       1.341   0.825  -1.069  0.00  0.00     0.053 C 
ATOM      9  C   UNL d   1       2.838   0.641  -0.880  0.00  0.00     0.018 C 
ENDBRANCH   1   8
TORSDOF 1
ENDMDL
