MODEL 1
REMARK minimizedAffinity -6.29375648
REMARK minimizedRMSD -1
REMARK  1 active torsions:
REMARK  status: ('A' for Active; 'I' for Inactive)
REMARK    1  A    between atoms: C1_2  and  C2_3 
ROOT
ATOM      1  C2  UNL d   1       0.369   3.794   2.053  0.00  0.00    -0.073 A 
ATOM      2  C3  UNL d   1       1.681   4.198   1.779  0.00  0.00    -0.002 A 
ATOM      3  C4  UNL d   1       2.318   3.778   0.611  0.00  0.00     0.004 A 
ATOM      4  C5  UNL d   1       1.650   2.957  -0.297  0.00  0.00    -0.004 A 
ATOM      5  C6  UNL d   1       0.334   2.553  -0.047  0.00  0.00    -0.075 A 
ATOM      6  C7  UNL d   1      -0.398   1.668  -1.013  0.00  0.00     0.076 C 
ATOM      7  C8  UNL d   1      -0.298   2.976   1.130  0.00  0.00     0.001 A 
ENDROOT
BRANCH   1   8
ATOM      8  C1  UNL d   1      -0.325   4.250   3.311  0.00  0.00     0.053 C 
ATOM      9  C   UNL d   1      -1.150   5.506   3.082  0.00  0.00     0.018 C 
ENDBRANCH   1   8
TORSDOF 1
ENDMDL
