MODEL 1
REMARK minimizedAffinity -5.31848955
REMARK minimizedRMSD -1
REMARK  1 active torsions:
REMARK  status: ('A' for Active; 'I' for Inactive)
REMARK    1  A    between atoms: C1_2  and  C2_3 
ROOT
ATOM      1  C2  UNL d   1      -0.376  -2.173   0.326  0.00  0.00    -0.073 A 
ATOM      2  C3  UNL d   1      -1.490  -2.222   1.172  0.00  0.00    -0.002 A 
ATOM      3  C4  UNL d   1      -2.057  -1.043   1.659  0.00  0.00     0.004 A 
ATOM      4  C5  UNL d   1      -1.521   0.194   1.301  0.00  0.00    -0.004 A 
ATOM      5  C6  UNL d   1      -0.416   0.263   0.447  0.00  0.00    -0.075 A 
ATOM      6  C7  UNL d   1       0.174   1.586   0.053  0.00  0.00     0.076 C 
ATOM      7  C8  UNL d   1       0.150  -0.925  -0.036  0.00  0.00     0.001 A 
ENDROOT
BRANCH   1   8
ATOM      8  C1  UNL d   1       0.235  -3.443  -0.207  0.00  0.00     0.053 C 
ATOM      9  C   UNL d   1       0.389  -3.410  -1.720  0.00  0.00     0.018 C 
ENDBRANCH   1   8
TORSDOF 1
ENDMDL
