MODEL 1
REMARK minimizedAffinity -1.87943327
REMARK minimizedRMSD -1
REMARK  1 active torsions:
REMARK  status: ('A' for Active; 'I' for Inactive)
REMARK    1  A    between atoms: C1_2  and  C2_3 
ROOT
ATOM      1  C2  UNL d   1      -1.751   0.142   0.782  0.00  0.00    -0.073 A 
ATOM      2  C3  UNL d   1      -1.053   1.196   1.383  0.00  0.00    -0.002 A 
ATOM      3  C4  UNL d   1       0.026   1.792   0.729  0.00  0.00     0.004 A 
ATOM      4  C5  UNL d   1       0.414   1.346  -0.535  0.00  0.00    -0.004 A 
ATOM      5  C6  UNL d   1      -0.279   0.302  -1.157  0.00  0.00    -0.075 A 
ATOM      6  C7  UNL d   1       0.127  -0.191  -2.515  0.00  0.00     0.076 C 
ATOM      7  C8  UNL d   1      -1.359  -0.293  -0.492  0.00  0.00     0.001 A 
ENDROOT
BRANCH   1   8
ATOM      8  C1  UNL d   1      -2.920  -0.500   1.482  0.00  0.00     0.053 C 
ATOM      9  C   UNL d   1      -3.576   0.444   2.478  0.00  0.00     0.018 C 
ENDBRANCH   1   8
TORSDOF 1
ENDMDL
