MODEL 1
REMARK minimizedAffinity 3.28553009
REMARK minimizedRMSD -1
REMARK  1 active torsions:
REMARK  status: ('A' for Active; 'I' for Inactive)
REMARK    1  A    between atoms: C1_2  and  C2_3 
ROOT
ATOM      1  C2  UNL d   1       0.992   5.252   2.286  0.00  0.00    -0.073 A 
ATOM      2  C3  UNL d   1       1.805   4.129   2.480  0.00  0.00    -0.002 A 
ATOM      3  C4  UNL d   1       2.362   3.464   1.386  0.00  0.00     0.004 A 
ATOM      4  C5  UNL d   1       2.118   3.919   0.090  0.00  0.00    -0.004 A 
ATOM      5  C6  UNL d   1       1.318   5.046  -0.124  0.00  0.00    -0.075 A 
ATOM      6  C7  UNL d   1       1.044   5.546  -1.512  0.00  0.00     0.076 C 
ATOM      7  C8  UNL d   1       0.760   5.706   0.980  0.00  0.00     0.001 A 
ENDROOT
BRANCH   1   8
ATOM      8  C1  UNL d   1       0.394   5.976   3.464  0.00  0.00     0.053 C 
ATOM      9  C   UNL d   1      -1.125   5.999   3.408  0.00  0.00     0.018 C 
ENDBRANCH   1   8
TORSDOF 1
ENDMDL
