MODEL 1
REMARK minimizedAffinity -2.11609149
REMARK minimizedRMSD -1
REMARK  1 active torsions:
REMARK  status: ('A' for Active; 'I' for Inactive)
REMARK    1  A    between atoms: C1_2  and  C2_3 
ROOT
ATOM      1  C2  UNL d   1      -0.310   0.114  -0.070  0.00  0.00    -0.073 A 
ATOM      2  C3  UNL d   1       0.080  -1.066  -0.713  0.00  0.00    -0.002 A 
ATOM      3  C4  UNL d   1      -0.234  -2.308  -0.159  0.00  0.00     0.004 A 
ATOM      4  C5  UNL d   1      -0.946  -2.383   1.038  0.00  0.00    -0.004 A 
ATOM      5  C6  UNL d   1      -1.355  -1.215   1.689  0.00  0.00    -0.075 A 
ATOM      6  C7  UNL d   1      -2.120  -1.278   2.979  0.00  0.00     0.076 C 
ATOM      7  C8  UNL d   1      -1.034   0.029   1.128  0.00  0.00     0.001 A 
ENDROOT
BRANCH   1   8
ATOM      8  C1  UNL d   1       0.021   1.457  -0.668  0.00  0.00     0.053 C 
ATOM      9  C   UNL d   1       0.093   2.549   0.387  0.00  0.00     0.018 C 
ENDBRANCH   1   8
TORSDOF 1
ENDMDL
