MODEL 1
REMARK minimizedAffinity -5.41398954
REMARK minimizedRMSD -1
REMARK  1 active torsions:
REMARK  status: ('A' for Active; 'I' for Inactive)
REMARK    1  A    between atoms: C1_2  and  C2_3 
ROOT
ATOM      1  C2  UNL d   1      -0.058  -2.093  -0.337  0.00  0.00    -0.073 A 
ATOM      2  C3  UNL d   1      -0.804  -2.540   0.759  0.00  0.00    -0.002 A 
ATOM      3  C4  UNL d   1      -1.374  -1.624   1.645  0.00  0.00     0.004 A 
ATOM      4  C5  UNL d   1      -1.210  -0.255   1.440  0.00  0.00    -0.004 A 
ATOM      5  C6  UNL d   1      -0.478   0.212   0.344  0.00  0.00    -0.075 A 
ATOM      6  C7  UNL d   1      -0.291   1.683   0.111  0.00  0.00     0.076 C 
ATOM      7  C8  UNL d   1       0.093  -0.713  -0.539  0.00  0.00     0.001 A 
ENDROOT
BRANCH   1   8
ATOM      8  C1  UNL d   1       0.554  -3.077  -1.299  0.00  0.00     0.053 C 
ATOM      9  C   UNL d   1       0.704  -2.492  -2.695  0.00  0.00     0.018 C 
ENDBRANCH   1   8
TORSDOF 1
ENDMDL
