MODEL 1
REMARK minimizedAffinity -0.591985047
REMARK minimizedRMSD -1
REMARK  1 active torsions:
REMARK  status: ('A' for Active; 'I' for Inactive)
REMARK    1  A    between atoms: C1_2  and  C2_3 
ROOT
ATOM      1  C2  UNL d   1      -1.327  -1.519   0.439  0.00  0.00    -0.073 A 
ATOM      2  C3  UNL d   1      -0.578  -0.501  -0.162  0.00  0.00    -0.002 A 
ATOM      3  C4  UNL d   1      -0.829   0.836   0.149  0.00  0.00     0.004 A 
ATOM      4  C5  UNL d   1      -1.826   1.168   1.067  0.00  0.00    -0.004 A 
ATOM      5  C6  UNL d   1      -2.577   0.165   1.687  0.00  0.00    -0.075 A 
ATOM      6  C7  UNL d   1      -3.653   0.505   2.675  0.00  0.00     0.076 C 
ATOM      7  C8  UNL d   1      -2.320  -1.176   1.368  0.00  0.00     0.001 A 
ENDROOT
BRANCH   1   8
ATOM      8  C1  UNL d   1      -1.055  -2.964   0.112  0.00  0.00     0.053 C 
ATOM      9  C   UNL d   1      -1.346  -3.283  -1.346  0.00  0.00     0.018 C 
ENDBRANCH   1   8
TORSDOF 1
ENDMDL
