MODEL 1
REMARK minimizedAffinity -3.81798887
REMARK minimizedRMSD -1
REMARK  1 active torsions:
REMARK  status: ('A' for Active; 'I' for Inactive)
REMARK    1  A    between atoms: C1_2  and  C2_3 
ROOT
ATOM      1  C2  UNL d   1       0.599   2.456  -0.037  0.00  0.00    -0.073 A 
ATOM      2  C3  UNL d   1       1.981   2.596  -0.206  0.00  0.00    -0.002 A 
ATOM      3  C4  UNL d   1       2.740   3.290   0.737  0.00  0.00     0.004 A 
ATOM      4  C5  UNL d   1       2.128   3.844   1.861  0.00  0.00    -0.004 A 
ATOM      5  C6  UNL d   1       0.750   3.705   2.054  0.00  0.00    -0.075 A 
ATOM      6  C7  UNL d   1       0.076   4.297   3.257  0.00  0.00     0.076 C 
ATOM      7  C8  UNL d   1      -0.006   3.009   1.101  0.00  0.00     0.001 A 
ENDROOT
BRANCH   1   8
ATOM      8  C1  UNL d   1      -0.224   1.702  -1.049  0.00  0.00     0.053 C 
ATOM      9  C   UNL d   1      -0.160   0.199  -0.830  0.00  0.00     0.018 C 
ENDBRANCH   1   8
TORSDOF 1
ENDMDL
