MODEL 1
REMARK minimizedAffinity 4.88931704
REMARK minimizedRMSD -1
REMARK  1 active torsions:
REMARK  status: ('A' for Active; 'I' for Inactive)
REMARK    1  A    between atoms: C1_2  and  C2_3 
ROOT
ATOM      1  C2  UNL d   1      -0.928  -0.251   0.143  0.00  0.00    -0.073 A 
ATOM      2  C3  UNL d   1      -0.795  -1.643   0.192  0.00  0.00    -0.002 A 
ATOM      3  C4  UNL d   1      -1.390  -2.372   1.223  0.00  0.00     0.004 A 
ATOM      4  C5  UNL d   1      -2.127  -1.718   2.211  0.00  0.00    -0.004 A 
ATOM      5  C6  UNL d   1      -2.281  -0.329   2.172  0.00  0.00    -0.075 A 
ATOM      6  C7  UNL d   1      -3.069   0.390   3.228  0.00  0.00     0.076 C 
ATOM      7  C8  UNL d   1      -1.679   0.396   1.135  0.00  0.00     0.001 A 
ENDROOT
BRANCH   1   8
ATOM      8  C1  UNL d   1      -0.294   0.540  -0.972  0.00  0.00     0.053 C 
ATOM      9  C   UNL d   1       0.436  -0.355  -1.961  0.00  0.00     0.018 C 
ENDBRANCH   1   8
TORSDOF 1
ENDMDL
