MODEL 1
REMARK minimizedAffinity -6.43260813
REMARK minimizedRMSD -1
REMARK  1 active torsions:
REMARK  status: ('A' for Active; 'I' for Inactive)
REMARK    1  A    between atoms: C1_2  and  C2_3 
ROOT
ATOM      1  C2  UNL d   1      -0.482  -1.802   0.678  0.00  0.00    -0.073 A 
ATOM      2  C3  UNL d   1       0.372  -0.848   0.115  0.00  0.00    -0.002 A 
ATOM      3  C4  UNL d   1       0.118   0.514   0.286  0.00  0.00     0.004 A 
ATOM      4  C5  UNL d   1      -0.987   0.934   1.025  0.00  0.00    -0.004 A 
ATOM      5  C6  UNL d   1      -1.846  -0.004   1.606  0.00  0.00    -0.075 A 
ATOM      6  C7  UNL d   1      -3.041   0.432   2.402  0.00  0.00     0.076 C 
ATOM      7  C8  UNL d   1      -1.586  -1.370   1.427  0.00  0.00     0.001 A 
ENDROOT
BRANCH   1   8
ATOM      8  C1  UNL d   1      -0.209  -3.274   0.502  0.00  0.00     0.053 C 
ATOM      9  C   UNL d   1      -0.047  -3.652  -0.962  0.00  0.00     0.018 C 
ENDBRANCH   1   8
TORSDOF 1
ENDMDL
