MODEL 1
REMARK minimizedAffinity 5.83062887
REMARK minimizedRMSD -1
REMARK  0 active torsions:
REMARK  status: ('A' for Active; 'I' for Inactive)
ROOT
ATOM      1  O1  BZF d   1       2.920  -2.530  -0.397  0.00  0.00    -0.204 OA
ATOM      2  C2  BZF d   1       2.255  -1.567  -1.131  0.00  0.00     0.174 A 
ATOM      3  C3  BZF d   1       1.715  -2.103  -2.245  0.00  0.00    -0.012 A 
ATOM      4  C3A BZF d   1       1.985  -3.505  -2.157  0.00  0.00    -0.107 A 
ATOM      5  C4  BZF d   1       1.687  -4.571  -2.958  0.00  0.00     0.055 A 
ATOM      6  C5  BZF d   1       2.160  -5.800  -2.624  0.00  0.00    -0.016 A 
ATOM      7  C6  BZF d   1       2.937  -5.999  -1.502  0.00  0.00     0.022 A 
ATOM      8  C7  BZF d   1       3.255  -4.974  -0.674  0.00  0.00     0.029 A 
ATOM      9  C7A BZF d   1       2.751  -3.736  -0.991  0.00  0.00     0.058 A 
ENDROOT
TORSDOF 0
ENDMDL
