MODEL 1
REMARK minimizedAffinity 13.8248138
REMARK minimizedRMSD -1
REMARK  0 active torsions:
REMARK  status: ('A' for Active; 'I' for Inactive)
ROOT
ATOM      1  O1  BZF d   1       3.359  -4.795   0.205  0.00  0.00    -0.204 OA
ATOM      2  C2  BZF d   1       3.043  -6.000  -0.392  0.00  0.00     0.174 A 
ATOM      3  C3  BZF d   1       2.327  -5.803  -1.518  0.00  0.00    -0.012 A 
ATOM      4  C3A BZF d   1       2.266  -4.382  -1.681  0.00  0.00    -0.107 A 
ATOM      5  C4  BZF d   1       1.705  -3.569  -2.624  0.00  0.00     0.055 A 
ATOM      6  C5  BZF d   1       1.762  -2.222  -2.452  0.00  0.00    -0.016 A 
ATOM      7  C6  BZF d   1       2.367  -1.656  -1.349  0.00  0.00     0.022 A 
ATOM      8  C7  BZF d   1       2.942  -2.421  -0.390  0.00  0.00     0.029 A 
ATOM      9  C7A BZF d   1       2.915  -3.782  -0.577  0.00  0.00     0.058 A 
ENDROOT
TORSDOF 0
ENDMDL
