MODEL 1
REMARK minimizedAffinity 8.64182663
REMARK minimizedRMSD -1
REMARK  0 active torsions:
REMARK  status: ('A' for Active; 'I' for Inactive)
ROOT
ATOM      1  O1  BZF d   1      -4.313  -2.247  -4.505  0.00  0.00    -0.204 OA
ATOM      2  C2  BZF d   1      -5.059  -2.714  -5.569  0.00  0.00     0.174 A 
ATOM      3  C3  BZF d   1      -4.587  -3.901  -6.000  0.00  0.00    -0.012 A 
ATOM      4  C3A BZF d   1      -3.534  -4.239  -5.092  0.00  0.00    -0.107 A 
ATOM      5  C4  BZF d   1      -2.692  -5.310  -4.988  0.00  0.00     0.055 A 
ATOM      6  C5  BZF d   1      -1.726  -5.299  -4.032  0.00  0.00    -0.016 A 
ATOM      7  C6  BZF d   1      -1.571  -4.234  -3.169  0.00  0.00     0.022 A 
ATOM      8  C7  BZF d   1      -2.385  -3.153  -3.231  0.00  0.00     0.029 A 
ATOM      9  C7A BZF d   1      -3.383  -3.175  -4.174  0.00  0.00     0.058 A 
ENDROOT
TORSDOF 0
ENDMDL
