MODEL 1
REMARK minimizedAffinity 12.7960339
REMARK minimizedRMSD -1
REMARK  0 active torsions:
REMARK  status: ('A' for Active; 'I' for Inactive)
ROOT
ATOM      1  O1  BZF d   1       4.747  -0.709   0.893  0.00  0.00    -0.204 OA
ATOM      2  C2  BZF d   1       4.619   0.666   0.839  0.00  0.00     0.174 A 
ATOM      3  C3  BZF d   1       3.731   1.027  -0.110  0.00  0.00    -0.012 A 
ATOM      4  C3A BZF d   1       3.207  -0.202  -0.621  0.00  0.00    -0.107 A 
ATOM      5  C4  BZF d   1       2.274  -0.501  -1.573  0.00  0.00     0.055 A 
ATOM      6  C5  BZF d   1       2.045  -1.803  -1.887  0.00  0.00    -0.016 A 
ATOM      7  C6  BZF d   1       2.732  -2.830  -1.274  0.00  0.00     0.022 A 
ATOM      8  C7  BZF d   1       3.662  -2.583  -0.320  0.00  0.00     0.029 A 
ATOM      9  C7A BZF d   1       3.873  -1.270   0.023  0.00  0.00     0.058 A 
ENDROOT
TORSDOF 0
ENDMDL
