MODEL 1
REMARK minimizedAffinity 17.6250248
REMARK minimizedRMSD -1
REMARK  0 active torsions:
REMARK  status: ('A' for Active; 'I' for Inactive)
ROOT
ATOM      1  O1  BZF d   1       2.649  -4.192   0.143  0.00  0.00    -0.204 OA
ATOM      2  C2  BZF d   1       3.269  -3.014   0.513  0.00  0.00     0.174 A 
ATOM      3  C3  BZF d   1       3.097  -2.066  -0.431  0.00  0.00    -0.012 A 
ATOM      4  C3A BZF d   1       2.243  -2.663  -1.412  0.00  0.00    -0.107 A 
ATOM      5  C4  BZF d   1       1.702  -2.215  -2.583  0.00  0.00     0.055 A 
ATOM      6  C5  BZF d   1       0.971  -3.072  -3.343  0.00  0.00    -0.016 A 
ATOM      7  C6  BZF d   1       0.766  -4.383  -2.967  0.00  0.00     0.022 A 
ATOM      8  C7  BZF d   1       1.279  -4.872  -1.812  0.00  0.00     0.029 A 
ATOM      9  C7A BZF d   1       1.991  -3.999  -1.025  0.00  0.00     0.058 A 
ENDROOT
TORSDOF 0
ENDMDL
