MODEL 1
REMARK minimizedAffinity 0.389264762
REMARK minimizedRMSD -1
REMARK  0 active torsions:
REMARK  status: ('A' for Active; 'I' for Inactive)
ROOT
ATOM      1  O1  BZF d   1       1.890  -2.424  -2.261  0.00  0.00    -0.204 OA
ATOM      2  C2  BZF d   1       1.189  -2.806  -3.389  0.00  0.00     0.174 A 
ATOM      3  C3  BZF d   1       1.307  -4.133  -3.599  0.00  0.00    -0.012 A 
ATOM      4  C3A BZF d   1       2.058  -4.625  -2.485  0.00  0.00    -0.107 A 
ATOM      5  C4  BZF d   1       2.487  -5.869  -2.117  0.00  0.00     0.055 A 
ATOM      6  C5  BZF d   1       3.262  -5.999  -1.008  0.00  0.00    -0.016 A 
ATOM      7  C6  BZF d   1       3.631  -4.909  -0.248  0.00  0.00     0.022 A 
ATOM      8  C7  BZF d   1       3.226  -3.656  -0.570  0.00  0.00     0.029 A 
ATOM      9  C7A BZF d   1       2.416  -3.525  -1.672  0.00  0.00     0.058 A 
ENDROOT
TORSDOF 0
ENDMDL
