MODEL 1
REMARK minimizedAffinity 17.4754505
REMARK minimizedRMSD -1
REMARK  0 active torsions:
REMARK  status: ('A' for Active; 'I' for Inactive)
ROOT
ATOM      1  O1  BZF d   1       3.366  -3.880   0.335  0.00  0.00    -0.204 OA
ATOM      2  C2  BZF d   1       2.216  -4.624   0.153  0.00  0.00     0.174 A 
ATOM      3  C3  BZF d   1       1.198  -3.839  -0.254  0.00  0.00    -0.012 A 
ATOM      4  C3A BZF d   1       1.769  -2.537  -0.420  0.00  0.00    -0.107 A 
ATOM      5  C4  BZF d   1       1.263  -1.334  -0.822  0.00  0.00     0.055 A 
ATOM      6  C5  BZF d   1       2.069  -0.240  -0.805  0.00  0.00    -0.016 A 
ATOM      7  C6  BZF d   1       3.382  -0.311  -0.388  0.00  0.00     0.022 A 
ATOM      8  C7  BZF d   1       3.930  -1.484   0.015  0.00  0.00     0.029 A 
ATOM      9  C7A BZF d   1       3.128  -2.598  -0.032  0.00  0.00     0.058 A 
ENDROOT
TORSDOF 0
ENDMDL
