MODEL 1
REMARK minimizedAffinity 6.49076748
REMARK minimizedRMSD -1
REMARK  0 active torsions:
REMARK  status: ('A' for Active; 'I' for Inactive)
ROOT
ATOM      1  O1  BZF d   1      -5.215   3.766  -5.455  0.00  0.00    -0.204 OA
ATOM      2  C2  BZF d   1      -5.787   4.902  -5.994  0.00  0.00     0.174 A 
ATOM      3  C3  BZF d   1      -4.956   5.958  -5.876  0.00  0.00    -0.012 A 
ATOM      4  C3A BZF d   1      -3.754   5.429  -5.307  0.00  0.00    -0.107 A 
ATOM      5  C4  BZF d   1      -2.554   5.984  -4.965  0.00  0.00     0.055 A 
ATOM      6  C5  BZF d   1      -1.615   5.207  -4.362  0.00  0.00    -0.016 A 
ATOM      7  C6  BZF d   1      -1.845   3.876  -4.083  0.00  0.00     0.022 A 
ATOM      8  C7  BZF d   1      -3.018   3.280  -4.408  0.00  0.00     0.029 A 
ATOM      9  C7A BZF d   1      -3.956   4.054  -5.046  0.00  0.00     0.058 A 
ENDROOT
TORSDOF 0
ENDMDL
