MODEL 1
REMARK minimizedAffinity 7.37171793
REMARK minimizedRMSD -1
REMARK  0 active torsions:
REMARK  status: ('A' for Active; 'I' for Inactive)
ROOT
ATOM      1  O1  BZF d   1      -3.458  -2.547  -3.934  0.00  0.00    -0.204 OA
ATOM      2  C2  BZF d   1      -4.265  -2.214  -5.004  0.00  0.00     0.174 A 
ATOM      3  C3  BZF d   1      -4.135  -3.115  -6.000  0.00  0.00    -0.012 A 
ATOM      4  C3A BZF d   1      -3.256  -4.120  -5.485  0.00  0.00    -0.107 A 
ATOM      5  C4  BZF d   1      -2.758  -5.283  -5.998  0.00  0.00     0.055 A 
ATOM      6  C5  BZF d   1      -1.866  -6.000  -5.265  0.00  0.00    -0.016 A 
ATOM      7  C6  BZF d   1      -1.447  -5.581  -4.020  0.00  0.00     0.022 A 
ATOM      8  C7  BZF d   1      -1.917  -4.436  -3.467  0.00  0.00     0.029 A 
ATOM      9  C7A BZF d   1      -2.843  -3.727  -4.192  0.00  0.00     0.058 A 
ENDROOT
TORSDOF 0
ENDMDL
