MODEL 1
REMARK minimizedAffinity 17.8291912
REMARK minimizedRMSD -1
REMARK  0 active torsions:
REMARK  status: ('A' for Active; 'I' for Inactive)
ROOT
ATOM      1  O1  BZF d   1      -4.499   3.135   3.804  0.00  0.00    -0.204 OA
ATOM      2  C2  BZF d   1      -5.830   2.769   3.860  0.00  0.00     0.174 A 
ATOM      3  C3  BZF d   1      -5.998   1.508   3.414  0.00  0.00    -0.012 A 
ATOM      4  C3A BZF d   1      -4.679   1.025   3.143  0.00  0.00    -0.107 A 
ATOM      5  C4  BZF d   1      -4.189  -0.167   2.691  0.00  0.00     0.055 A 
ATOM      6  C5  BZF d   1      -2.855  -0.290   2.465  0.00  0.00    -0.016 A 
ATOM      7  C6  BZF d   1      -1.983   0.758   2.676  0.00  0.00     0.022 A 
ATOM      8  C7  BZF d   1      -2.421   1.958   3.129  0.00  0.00     0.029 A 
ATOM      9  C7A BZF d   1      -3.765   2.075   3.390  0.00  0.00     0.058 A 
ENDROOT
TORSDOF 0
ENDMDL
