MODEL 1
REMARK minimizedAffinity 8.89088821
REMARK minimizedRMSD -1
REMARK  0 active torsions:
REMARK  status: ('A' for Active; 'I' for Inactive)
ROOT
ATOM      1  O1  BZF d   1       4.479  -2.686   0.033  0.00  0.00    -0.204 OA
ATOM      2  C2  BZF d   1       5.712  -2.105   0.258  0.00  0.00     0.174 A 
ATOM      3  C3  BZF d   1       5.699  -0.803  -0.095  0.00  0.00    -0.012 A 
ATOM      4  C3A BZF d   1       4.349  -0.532  -0.484  0.00  0.00    -0.107 A 
ATOM      5  C4  BZF d   1       3.705   0.590  -0.922  0.00  0.00     0.055 A 
ATOM      6  C5  BZF d   1       2.399   0.502  -1.288  0.00  0.00    -0.016 A 
ATOM      7  C6  BZF d   1       1.709  -0.692  -1.236  0.00  0.00     0.022 A 
ATOM      8  C7  BZF d   1       2.304  -1.830  -0.804  0.00  0.00     0.029 A 
ATOM      9  C7A BZF d   1       3.614  -1.738  -0.402  0.00  0.00     0.058 A 
ENDROOT
TORSDOF 0
ENDMDL
