MODEL 1
REMARK minimizedAffinity 15.3658514
REMARK minimizedRMSD -1
REMARK  0 active torsions:
REMARK  status: ('A' for Active; 'I' for Inactive)
ROOT
ATOM      1  O1  BZF d   1       4.706   0.415   1.056  0.00  0.00    -0.204 OA
ATOM      2  C2  BZF d   1       4.200   1.574   0.500  0.00  0.00     0.174 A 
ATOM      3  C3  BZF d   1       3.247   1.291  -0.411  0.00  0.00    -0.012 A 
ATOM      4  C3A BZF d   1       3.085  -0.130  -0.358  0.00  0.00    -0.107 A 
ATOM      5  C4  BZF d   1       2.273  -1.008  -1.017  0.00  0.00     0.055 A 
ATOM      6  C5  BZF d   1       2.415  -2.340  -0.787  0.00  0.00    -0.016 A 
ATOM      7  C6  BZF d   1       3.362  -2.828   0.090  0.00  0.00     0.022 A 
ATOM      8  C7  BZF d   1       4.187  -1.996   0.770  0.00  0.00     0.029 A 
ATOM      9  C7A BZF d   1       4.024  -0.647   0.565  0.00  0.00     0.058 A 
ENDROOT
TORSDOF 0
ENDMDL
