MODEL 1
REMARK minimizedAffinity 17.9277
REMARK minimizedRMSD -1
REMARK  0 active torsions:
REMARK  status: ('A' for Active; 'I' for Inactive)
ROOT
ATOM      1  O1  BZF d   1       3.190  -3.081   0.212  0.00  0.00    -0.204 OA
ATOM      2  C2  BZF d   1       2.867  -1.808  -0.217  0.00  0.00     0.174 A 
ATOM      3  C3  BZF d   1       2.122  -1.857  -1.340  0.00  0.00    -0.012 A 
ATOM      4  C3A BZF d   1       1.893  -3.248  -1.580  0.00  0.00    -0.107 A 
ATOM      5  C4  BZF d   1       1.206  -3.935  -2.540  0.00  0.00     0.055 A 
ATOM      6  C5  BZF d   1       1.238  -5.293  -2.532  0.00  0.00    -0.016 A 
ATOM      7  C6  BZF d   1       1.951  -5.997  -1.582  0.00  0.00     0.022 A 
ATOM      8  C7  BZF d   1       2.643  -5.360  -0.607  0.00  0.00     0.029 A 
ATOM      9  C7A BZF d   1       2.586  -3.987  -0.594  0.00  0.00     0.058 A 
ENDROOT
TORSDOF 0
ENDMDL
