MODEL 1
REMARK minimizedAffinity 7.97010899
REMARK minimizedRMSD -1
REMARK  0 active torsions:
REMARK  status: ('A' for Active; 'I' for Inactive)
ROOT
ATOM      1  O1  BZF d   1       4.253  -0.297   1.426  0.00  0.00    -0.204 OA
ATOM      2  C2  BZF d   1       2.954   0.141   1.259  0.00  0.00     0.174 A 
ATOM      3  C3  BZF d   1       2.179  -0.841   0.756  0.00  0.00    -0.012 A 
ATOM      4  C3A BZF d   1       3.027  -1.991   0.684  0.00  0.00    -0.107 A 
ATOM      5  C4  BZF d   1       2.829  -3.281   0.281  0.00  0.00     0.055 A 
ATOM      6  C5  BZF d   1       3.884  -4.138   0.266  0.00  0.00    -0.016 A 
ATOM      7  C6  BZF d   1       5.149  -3.738   0.643  0.00  0.00     0.022 A 
ATOM      8  C7  BZF d   1       5.394  -2.471   1.056  0.00  0.00     0.029 A 
ATOM      9  C7A BZF d   1       4.324  -1.611   1.103  0.00  0.00     0.058 A 
ENDROOT
TORSDOF 0
ENDMDL
