MODEL 1
REMARK minimizedAffinity 13.7719479
REMARK minimizedRMSD -1
REMARK  0 active torsions:
REMARK  status: ('A' for Active; 'I' for Inactive)
ROOT
ATOM      1  O1  BZF d   1      -0.434  -4.621  -1.460  0.00  0.00    -0.204 OA
ATOM      2  C2  BZF d   1      -1.063  -4.616  -2.690  0.00  0.00     0.174 A 
ATOM      3  C3  BZF d   1      -0.662  -3.560  -3.428  0.00  0.00    -0.012 A 
ATOM      4  C3A BZF d   1       0.346  -2.914  -2.643  0.00  0.00    -0.107 A 
ATOM      5  C4  BZF d   1       1.132  -1.816  -2.845  0.00  0.00     0.055 A 
ATOM      6  C5  BZF d   1       1.964  -1.407  -1.851  0.00  0.00    -0.016 A 
ATOM      7  C6  BZF d   1       2.030  -2.069  -0.642  0.00  0.00     0.022 A 
ATOM      8  C7  BZF d   1       1.272  -3.166  -0.397  0.00  0.00     0.029 A 
ATOM      9  C7A BZF d   1       0.456  -3.601  -1.412  0.00  0.00     0.058 A 
ENDROOT
TORSDOF 0
ENDMDL
