MODEL 1
REMARK minimizedAffinity 8.2859602
REMARK minimizedRMSD -1
REMARK  0 active torsions:
REMARK  status: ('A' for Active; 'I' for Inactive)
ROOT
ATOM      1  O1  BZF d   1       2.129  -1.184  -0.222  0.00  0.00    -0.204 OA
ATOM      2  C2  BZF d   1       1.482  -2.231  -0.847  0.00  0.00     0.174 A 
ATOM      3  C3  BZF d   1       1.095  -1.881  -2.091  0.00  0.00    -0.012 A 
ATOM      4  C3A BZF d   1       1.610  -0.560  -2.286  0.00  0.00    -0.107 A 
ATOM      5  C4  BZF d   1       1.568   0.319  -3.331  0.00  0.00     0.055 A 
ATOM      6  C5  BZF d   1       2.105   1.557  -3.174  0.00  0.00    -0.016 A 
ATOM      7  C6  BZF d   1       2.687   1.951  -1.986  0.00  0.00     0.022 A 
ATOM      8  C7  BZF d   1       2.756   1.113  -0.924  0.00  0.00     0.029 A 
ATOM      9  C7A BZF d   1       2.244  -0.151  -1.090  0.00  0.00     0.058 A 
ENDROOT
TORSDOF 0
ENDMDL
