MODEL 1
REMARK minimizedAffinity 20.3292599
REMARK minimizedRMSD -1
REMARK  0 active torsions:
REMARK  status: ('A' for Active; 'I' for Inactive)
ROOT
ATOM      1  O1  BZF d   1      -4.811   2.634  -5.973  0.00  0.00    -0.204 OA
ATOM      2  C2  BZF d   1      -5.688   3.701  -5.992  0.00  0.00     0.174 A 
ATOM      3  C3  BZF d   1      -5.018   4.871  -5.950  0.00  0.00    -0.012 A 
ATOM      4  C3A BZF d   1      -3.633   4.514  -5.994  0.00  0.00    -0.107 A 
ATOM      5  C4  BZF d   1      -2.476   5.239  -5.997  0.00  0.00     0.055 A 
ATOM      6  C5  BZF d   1      -1.286   4.583  -5.971  0.00  0.00    -0.016 A 
ATOM      7  C6  BZF d   1      -1.216   3.206  -5.937  0.00  0.00     0.022 A 
ATOM      8  C7  BZF d   1      -2.336   2.444  -5.938  0.00  0.00     0.029 A 
ATOM      9  C7A BZF d   1      -3.540   3.103  -5.997  0.00  0.00     0.058 A 
ENDROOT
TORSDOF 0
ENDMDL
