MODEL 1
REMARK minimizedAffinity 15.6686239
REMARK minimizedRMSD -1
REMARK  0 active torsions:
REMARK  status: ('A' for Active; 'I' for Inactive)
ROOT
ATOM      1  O1  BZF d   1      -5.045   2.992   6.000  0.00  0.00    -0.204 OA
ATOM      2  C2  BZF d   1      -5.817   3.616   5.039  0.00  0.00     0.174 A 
ATOM      3  C3  BZF d   1      -5.715   2.979   3.855  0.00  0.00    -0.012 A 
ATOM      4  C3A BZF d   1      -4.895   1.835   4.112  0.00  0.00    -0.107 A 
ATOM      5  C4  BZF d   1      -4.446   0.807   3.333  0.00  0.00     0.055 A 
ATOM      6  C5  BZF d   1      -3.602  -0.111   3.873  0.00  0.00    -0.016 A 
ATOM      7  C6  BZF d   1      -3.183  -0.029   5.185  0.00  0.00     0.022 A 
ATOM      8  C7  BZF d   1      -3.606   0.970   5.998  0.00  0.00     0.029 A 
ATOM      9  C7A BZF d   1      -4.485   1.880   5.465  0.00  0.00     0.058 A 
ENDROOT
TORSDOF 0
ENDMDL
