MODEL 1
REMARK minimizedAffinity 28.7403412
REMARK minimizedRMSD -1
REMARK  0 active torsions:
REMARK  status: ('A' for Active; 'I' for Inactive)
ROOT
ATOM      1  O1  BZF d   1      -3.385   2.021   2.592  0.00  0.00    -0.204 OA
ATOM      2  C2  BZF d   1      -3.926   1.221   3.580  0.00  0.00     0.174 A 
ATOM      3  C3  BZF d   1      -2.961   0.522   4.210  0.00  0.00    -0.012 A 
ATOM      4  C3A BZF d   1      -1.731   0.977   3.639  0.00  0.00    -0.107 A 
ATOM      5  C4  BZF d   1      -0.420   0.668   3.863  0.00  0.00     0.055 A 
ATOM      6  C5  BZF d   1       0.536   1.239   3.083  0.00  0.00    -0.016 A 
ATOM      7  C6  BZF d   1       0.216   2.118   2.070  0.00  0.00     0.022 A 
ATOM      8  C7  BZF d   1      -1.070   2.460   1.813  0.00  0.00     0.029 A 
ATOM      9  C7A BZF d   1      -2.036   1.910   2.620  0.00  0.00     0.058 A 
ENDROOT
TORSDOF 0
ENDMDL
