MODEL 1
REMARK minimizedAffinity -4.24191761
REMARK minimizedRMSD -1
REMARK  2 active torsions:
REMARK  status: ('A' for Active; 'I' for Inactive)
REMARK    1  A    between atoms: C1_2  and  C2_3 
REMARK    2  A    between atoms: C2_3  and  C3_4 
ROOT
ATOM      1  C3  UNL d   1       0.674  -1.553  -0.645  0.00  0.00    -0.075 A 
ATOM      2  C4  UNL d   1       0.754  -0.192  -0.972  0.00  0.00     0.002 A 
ATOM      3  C5  UNL d   1      -0.038   0.744  -0.305  0.00  0.00     0.002 A 
ATOM      4  C6  UNL d   1      -0.924   0.331   0.687  0.00  0.00    -0.004 A 
ATOM      5  C7  UNL d   1      -1.023  -1.021   1.008  0.00  0.00     0.002 A 
ATOM      6  C8  UNL d   1      -0.229  -1.959   0.346  0.00  0.00     0.002 A 
ENDROOT
BRANCH   1   7
ATOM      7  C2  UNL d   1       1.549  -2.567  -1.342  0.00  0.00     0.056 C 
BRANCH   7   8
ATOM      8  C1  UNL d   1       0.856  -3.906  -1.615  0.00  0.00     0.007 C 
ATOM      9  C   UNL d   1       0.505  -4.113  -3.083  0.00  0.00     0.009 C 
ENDBRANCH   7   8
ENDBRANCH   1   7
TORSDOF 2
ENDMDL
