MODEL 1
REMARK minimizedAffinity -4.57752228
REMARK minimizedRMSD -1
REMARK  2 active torsions:
REMARK  status: ('A' for Active; 'I' for Inactive)
REMARK    1  A    between atoms: C1_2  and  C2_3 
REMARK    2  A    between atoms: C2_3  and  C3_4 
ROOT
ATOM      1  C3  UNL d   1       0.595   0.097  -0.095  0.00  0.00    -0.075 A 
ATOM      2  C4  UNL d   1      -0.445   0.998  -0.361  0.00  0.00     0.002 A 
ATOM      3  C5  UNL d   1      -1.276   1.445   0.668  0.00  0.00     0.002 A 
ATOM      4  C6  UNL d   1      -1.083   0.989   1.970  0.00  0.00    -0.004 A 
ATOM      5  C7  UNL d   1      -0.062   0.081   2.243  0.00  0.00     0.002 A 
ATOM      6  C8  UNL d   1       0.773  -0.364   1.216  0.00  0.00     0.002 A 
ENDROOT
BRANCH   1   7
ATOM      7  C2  UNL d   1       1.516  -0.368  -1.198  0.00  0.00     0.056 C 
BRANCH   7   8
ATOM      8  C1  UNL d   1       1.821  -1.869  -1.166  0.00  0.00     0.007 C 
ATOM      9  C   UNL d   1       1.113  -2.649  -2.265  0.00  0.00     0.009 C 
ENDBRANCH   7   8
ENDBRANCH   1   7
TORSDOF 2
ENDMDL
