MODEL 1
REMARK minimizedAffinity -3.47707653
REMARK minimizedRMSD -1
REMARK  2 active torsions:
REMARK  status: ('A' for Active; 'I' for Inactive)
REMARK    1  A    between atoms: C1_2  and  C2_3 
REMARK    2  A    between atoms: C2_3  and  C3_4 
ROOT
ATOM      1  C3  UNL d   1      -0.416   0.413   0.665  0.00  0.00    -0.075 A 
ATOM      2  C4  UNL d   1       0.482   0.795  -0.343  0.00  0.00     0.002 A 
ATOM      3  C5  UNL d   1       0.339   2.022  -0.991  0.00  0.00     0.002 A 
ATOM      4  C6  UNL d   1      -0.706   2.877  -0.649  0.00  0.00    -0.004 A 
ATOM      5  C7  UNL d   1      -1.614   2.501   0.338  0.00  0.00     0.002 A 
ATOM      6  C8  UNL d   1      -1.471   1.275   0.992  0.00  0.00     0.002 A 
ENDROOT
BRANCH   1   7
ATOM      7  C2  UNL d   1      -0.250  -0.900   1.391  0.00  0.00     0.056 C 
BRANCH   7   8
ATOM      8  C1  UNL d   1       0.030  -0.753   2.890  0.00  0.00     0.007 C 
ATOM      9  C   UNL d   1      -0.369  -1.980   3.699  0.00  0.00     0.009 C 
ENDBRANCH   7   8
ENDBRANCH   1   7
TORSDOF 2
ENDMDL
