MODEL 1
REMARK minimizedAffinity -3.59711075
REMARK minimizedRMSD -1
REMARK  2 active torsions:
REMARK  status: ('A' for Active; 'I' for Inactive)
REMARK    1  A    between atoms: C1_2  and  C2_3 
REMARK    2  A    between atoms: C2_3  and  C3_4 
ROOT
ATOM      1  C3  UNL d   1       0.269  -0.375  -0.249  0.00  0.00    -0.075 A 
ATOM      2  C4  UNL d   1      -0.254   0.839  -0.717  0.00  0.00     0.002 A 
ATOM      3  C5  UNL d   1      -1.104   1.600   0.085  0.00  0.00     0.002 A 
ATOM      4  C6  UNL d   1      -1.450   1.154   1.358  0.00  0.00    -0.004 A 
ATOM      5  C7  UNL d   1      -0.950  -0.059   1.827  0.00  0.00     0.002 A 
ATOM      6  C8  UNL d   1      -0.095  -0.820   1.028  0.00  0.00     0.002 A 
ENDROOT
BRANCH   1   7
ATOM      7  C2  UNL d   1       1.214  -1.189  -1.101  0.00  0.00     0.056 C 
BRANCH   7   8
ATOM      8  C1  UNL d   1       0.563  -2.409  -1.762  0.00  0.00     0.007 C 
ATOM      9  C   UNL d   1       1.505  -3.599  -1.884  0.00  0.00     0.009 C 
ENDBRANCH   7   8
ENDBRANCH   1   7
TORSDOF 2
ENDMDL
