MODEL 1
REMARK minimizedAffinity -4.41913128
REMARK minimizedRMSD -1
REMARK  2 active torsions:
REMARK  status: ('A' for Active; 'I' for Inactive)
REMARK    1  A    between atoms: C1_2  and  C2_3 
REMARK    2  A    between atoms: C2_3  and  C3_4 
ROOT
ATOM      1  C3  UNL d   1       0.085  -0.410   0.021  0.00  0.00    -0.075 A 
ATOM      2  C4  UNL d   1      -0.686   0.637  -0.503  0.00  0.00     0.002 A 
ATOM      3  C5  UNL d   1      -1.371   1.507   0.346  0.00  0.00     0.002 A 
ATOM      4  C6  UNL d   1      -1.302   1.335   1.727  0.00  0.00    -0.004 A 
ATOM      5  C7  UNL d   1      -0.553   0.288   2.258  0.00  0.00     0.002 A 
ATOM      6  C8  UNL d   1       0.137  -0.581   1.411  0.00  0.00     0.002 A 
ENDROOT
BRANCH   1   7
ATOM      7  C2  UNL d   1       0.852  -1.337  -0.891  0.00  0.00     0.056 C 
BRANCH   7   8
ATOM      8  C1  UNL d   1       0.302  -1.401  -2.320  0.00  0.00     0.007 C 
ATOM      9  C   UNL d   1       0.223  -2.819  -2.871  0.00  0.00     0.009 C 
ENDBRANCH   7   8
ENDBRANCH   1   7
TORSDOF 2
ENDMDL
