MODEL 1
REMARK minimizedAffinity -5.36336946
REMARK minimizedRMSD -1
REMARK  2 active torsions:
REMARK  status: ('A' for Active; 'I' for Inactive)
REMARK    1  A    between atoms: C1_2  and  C2_3 
REMARK    2  A    between atoms: C2_3  and  C3_4 
ROOT
ATOM      1  C3  UNL d   1       0.079   1.071  -0.415  0.00  0.00    -0.075 A 
ATOM      2  C4  UNL d   1      -0.775   0.555   0.570  0.00  0.00     0.002 A 
ATOM      3  C5  UNL d   1      -1.717   1.377   1.191  0.00  0.00     0.002 A 
ATOM      4  C6  UNL d   1      -1.809   2.723   0.843  0.00  0.00    -0.004 A 
ATOM      5  C7  UNL d   1      -0.954   3.249  -0.123  0.00  0.00     0.002 A 
ATOM      6  C8  UNL d   1      -0.014   2.428  -0.748  0.00  0.00     0.002 A 
ENDROOT
BRANCH   1   7
ATOM      7  C2  UNL d   1       1.080   0.180  -1.112  0.00  0.00     0.056 C 
BRANCH   7   8
ATOM      8  C1  UNL d   1       1.448  -1.081  -0.323  0.00  0.00     0.007 C 
ATOM      9  C   UNL d   1       1.369  -2.354  -1.156  0.00  0.00     0.009 C 
ENDBRANCH   7   8
ENDBRANCH   1   7
TORSDOF 2
ENDMDL
