MODEL 1
REMARK minimizedAffinity -4.40717602
REMARK minimizedRMSD -1
REMARK  2 active torsions:
REMARK  status: ('A' for Active; 'I' for Inactive)
REMARK    1  A    between atoms: C1_2  and  C2_3 
REMARK    2  A    between atoms: C2_3  and  C3_4 
ROOT
ATOM      1  C3  UNL d   1       0.931  -0.374  -0.201  0.00  0.00    -0.075 A 
ATOM      2  C4  UNL d   1       0.221  -0.500   1.002  0.00  0.00     0.002 A 
ATOM      3  C5  UNL d   1      -0.669   0.495   1.407  0.00  0.00     0.002 A 
ATOM      4  C6  UNL d   1      -0.853   1.631   0.623  0.00  0.00    -0.004 A 
ATOM      5  C7  UNL d   1      -0.141   1.775  -0.566  0.00  0.00     0.002 A 
ATOM      6  C8  UNL d   1       0.747   0.779  -0.976  0.00  0.00     0.002 A 
ENDROOT
BRANCH   1   7
ATOM      7  C2  UNL d   1       1.873  -1.461  -0.659  0.00  0.00     0.056 C 
BRANCH   7   8
ATOM      8  C1  UNL d   1       1.169  -2.701  -1.219  0.00  0.00     0.007 C 
ATOM      9  C   UNL d   1       0.647  -2.507  -2.636  0.00  0.00     0.009 C 
ENDBRANCH   7   8
ENDBRANCH   1   7
TORSDOF 2
ENDMDL
