MODEL 1
REMARK minimizedAffinity -5.86304474
REMARK minimizedRMSD -1
REMARK  2 active torsions:
REMARK  status: ('A' for Active; 'I' for Inactive)
REMARK    1  A    between atoms: C1_2  and  C2_3 
REMARK    2  A    between atoms: C2_3  and  C3_4 
ROOT
ATOM      1  C3  UNL d   1      -0.659   0.836   0.248  0.00  0.00    -0.075 A 
ATOM      2  C4  UNL d   1      -0.199   1.799  -0.662  0.00  0.00     0.002 A 
ATOM      3  C5  UNL d   1      -0.591   3.133  -0.540  0.00  0.00     0.002 A 
ATOM      4  C6  UNL d   1      -1.453   3.518   0.484  0.00  0.00    -0.004 A 
ATOM      5  C7  UNL d   1      -1.929   2.567   1.384  0.00  0.00     0.002 A 
ATOM      6  C8  UNL d   1      -1.535   1.233   1.267  0.00  0.00     0.002 A 
ENDROOT
BRANCH   1   7
ATOM      7  C2  UNL d   1      -0.216  -0.603   0.139  0.00  0.00     0.056 C 
BRANCH   7   8
ATOM      8  C1  UNL d   1       1.102  -0.794  -0.619  0.00  0.00     0.007 C 
ATOM      9  C   UNL d   1       1.197  -2.138  -1.330  0.00  0.00     0.009 C 
ENDBRANCH   7   8
ENDBRANCH   1   7
TORSDOF 2
ENDMDL
