MODEL 1
REMARK minimizedAffinity -3.79386544
REMARK minimizedRMSD -1
REMARK  2 active torsions:
REMARK  status: ('A' for Active; 'I' for Inactive)
REMARK    1  A    between atoms: C1_2  and  C2_3 
REMARK    2  A    between atoms: C2_3  and  C3_4 
ROOT
ATOM      1  C3  UNL d   1       0.302  -0.628  -0.281  0.00  0.00    -0.075 A 
ATOM      2  C4  UNL d   1       0.768  -1.192   0.916  0.00  0.00     0.002 A 
ATOM      3  C5  UNL d   1       0.365  -0.674   2.147  0.00  0.00     0.002 A 
ATOM      4  C6  UNL d   1      -0.499   0.418   2.198  0.00  0.00    -0.004 A 
ATOM      5  C7  UNL d   1      -0.954   0.997   1.015  0.00  0.00     0.002 A 
ATOM      6  C8  UNL d   1      -0.556   0.478  -0.218  0.00  0.00     0.002 A 
ENDROOT
BRANCH   1   7
ATOM      7  C2  UNL d   1       0.712  -1.202  -1.616  0.00  0.00     0.056 C 
BRANCH   7   8
ATOM      8  C1  UNL d   1       0.702  -2.733  -1.666  0.00  0.00     0.007 C 
ATOM      9  C   UNL d   1       0.200  -3.288  -2.993  0.00  0.00     0.009 C 
ENDBRANCH   7   8
ENDBRANCH   1   7
TORSDOF 2
ENDMDL
