MODEL 1
REMARK minimizedAffinity -5.33947039
REMARK minimizedRMSD -1
REMARK  2 active torsions:
REMARK  status: ('A' for Active; 'I' for Inactive)
REMARK    1  A    between atoms: C1_2  and  C2_3 
REMARK    2  A    between atoms: C2_3  and  C3_4 
ROOT
ATOM      1  C3  UNL d   1       0.082   0.174   0.129  0.00  0.00    -0.075 A 
ATOM      2  C4  UNL d   1      -0.696   1.121  -0.552  0.00  0.00     0.002 A 
ATOM      3  C5  UNL d   1      -1.686   1.840   0.120  0.00  0.00     0.002 A 
ATOM      4  C6  UNL d   1      -1.916   1.613   1.475  0.00  0.00    -0.004 A 
ATOM      5  C7  UNL d   1      -1.161   0.663   2.157  0.00  0.00     0.002 A 
ATOM      6  C8  UNL d   1      -0.167  -0.055   1.489  0.00  0.00     0.002 A 
ENDROOT
BRANCH   1   7
ATOM      7  C2  UNL d   1       1.174  -0.586  -0.586  0.00  0.00     0.056 C 
BRANCH   7   8
ATOM      8  C1  UNL d   1       0.660  -1.684  -1.523  0.00  0.00     0.007 C 
ATOM      9  C   UNL d   1       1.478  -2.966  -1.451  0.00  0.00     0.009 C 
ENDBRANCH   7   8
ENDBRANCH   1   7
TORSDOF 2
ENDMDL
