MODEL 1
REMARK minimizedAffinity -4.42224598
REMARK minimizedRMSD -1
REMARK  2 active torsions:
REMARK  status: ('A' for Active; 'I' for Inactive)
REMARK    1  A    between atoms: C1_2  and  C2_3 
REMARK    2  A    between atoms: C2_3  and  C3_4 
ROOT
ATOM      1  C3  UNL d   1       0.176  -0.183   0.034  0.00  0.00    -0.075 A 
ATOM      2  C4  UNL d   1      -0.869   0.560  -0.536  0.00  0.00     0.002 A 
ATOM      3  C5  UNL d   1      -1.589   1.474   0.234  0.00  0.00     0.002 A 
ATOM      4  C6  UNL d   1      -1.282   1.651   1.581  0.00  0.00    -0.004 A 
ATOM      5  C7  UNL d   1      -0.257   0.906   2.161  0.00  0.00     0.002 A 
ATOM      6  C8  UNL d   1       0.468  -0.006   1.393  0.00  0.00     0.002 A 
ENDROOT
BRANCH   1   7
ATOM      7  C2  UNL d   1       0.978  -1.152  -0.800  0.00  0.00     0.056 C 
BRANCH   7   8
ATOM      8  C1  UNL d   1       0.175  -1.827  -1.917  0.00  0.00     0.007 C 
ATOM      9  C   UNL d   1       0.344  -3.341  -1.948  0.00  0.00     0.009 C 
ENDBRANCH   7   8
ENDBRANCH   1   7
TORSDOF 2
ENDMDL
