MODEL 1
REMARK minimizedAffinity -4.59008408
REMARK minimizedRMSD -1
REMARK  2 active torsions:
REMARK  status: ('A' for Active; 'I' for Inactive)
REMARK    1  A    between atoms: C1_2  and  C2_3 
REMARK    2  A    between atoms: C2_3  and  C3_4 
ROOT
ATOM      1  C3  UNL d   1       0.053   0.327   0.234  0.00  0.00    -0.075 A 
ATOM      2  C4  UNL d   1      -1.098   0.798  -0.414  0.00  0.00     0.002 A 
ATOM      3  C5  UNL d   1      -1.966   1.678   0.233  0.00  0.00     0.002 A 
ATOM      4  C6  UNL d   1      -1.700   2.090   1.537  0.00  0.00    -0.004 A 
ATOM      5  C7  UNL d   1      -0.568   1.616   2.197  0.00  0.00     0.002 A 
ATOM      6  C8  UNL d   1       0.304   0.739   1.550  0.00  0.00     0.002 A 
ENDROOT
BRANCH   1   7
ATOM      7  C2  UNL d   1       1.012  -0.602  -0.471  0.00  0.00     0.056 C 
BRANCH   7   8
ATOM      8  C1  UNL d   1       0.371  -1.422  -1.596  0.00  0.00     0.007 C 
ATOM      9  C   UNL d   1       0.897  -2.849  -1.673  0.00  0.00     0.009 C 
ENDBRANCH   7   8
ENDBRANCH   1   7
TORSDOF 2
ENDMDL
