MODEL 1
REMARK minimizedAffinity -4.1398015
REMARK minimizedRMSD -1
REMARK  2 active torsions:
REMARK  status: ('A' for Active; 'I' for Inactive)
REMARK    1  A    between atoms: C1_2  and  C2_3 
REMARK    2  A    between atoms: C2_3  and  C3_4 
ROOT
ATOM      1  C3  UNL d   1       0.066   0.089   0.092  0.00  0.00    -0.075 A 
ATOM      2  C4  UNL d   1       0.104  -0.250   1.452  0.00  0.00     0.002 A 
ATOM      3  C5  UNL d   1      -0.560   0.533   2.397  0.00  0.00     0.002 A 
ATOM      4  C6  UNL d   1      -1.260   1.668   1.997  0.00  0.00    -0.004 A 
ATOM      5  C7  UNL d   1      -1.292   2.024   0.650  0.00  0.00     0.002 A 
ATOM      6  C8  UNL d   1      -0.632   1.240  -0.298  0.00  0.00     0.002 A 
ENDROOT
BRANCH   1   7
ATOM      7  C2  UNL d   1       0.757  -0.771  -0.939  0.00  0.00     0.056 C 
BRANCH   7   8
ATOM      8  C1  UNL d   1      -0.123  -1.886  -1.512  0.00  0.00     0.007 C 
ATOM      9  C   UNL d   1       0.475  -2.547  -2.747  0.00  0.00     0.009 C 
ENDBRANCH   7   8
ENDBRANCH   1   7
TORSDOF 2
ENDMDL
