MODEL 1
REMARK minimizedAffinity 16.6954327
REMARK minimizedRMSD -1
REMARK  3 active torsions:
REMARK  status: ('A' for Active; 'I' for Inactive)
REMARK    1  A    between atoms: C3'_2  and  C2'_3 
REMARK    2  A    between atoms: C2'_3  and  C1'_4 
REMARK    3  A    between atoms: C1'_4  and  C1_5 
ROOT
ATOM      1  C1  N4B d   1       5.970   2.992  -0.675  0.00  0.00    -0.075 A 
ATOM      2  C2  N4B d   1       5.980   2.023  -1.703  0.00  0.00     0.002 A 
ATOM      3  C3  N4B d   1       5.996   2.418  -3.018  0.00  0.00     0.002 A 
ATOM      4  C4  N4B d   1       5.983   3.769  -3.329  0.00  0.00    -0.004 A 
ATOM      5  C5  N4B d   1       5.999   4.698  -2.331  0.00  0.00     0.002 A 
ATOM      6  C6  N4B d   1       5.987   4.316  -1.004  0.00  0.00     0.002 A 
ENDROOT
BRANCH   1   7
ATOM      7  C1' N4B d   1       5.866   2.610   0.776  0.00  0.00     0.057 C 
BRANCH   7   8
ATOM      8  C2' N4B d   1       4.819   3.490   1.452  0.00  0.00     0.009 C 
BRANCH   8   9
ATOM      9  C3' N4B d   1       5.418   4.334   2.563  0.00  0.00     0.004 C 
ATOM     10  C4' N4B d   1       4.441   5.315   3.139  0.00  0.00     0.003 C 
ENDBRANCH   8   9
ENDBRANCH   7   8
ENDBRANCH   1   7
TORSDOF 3
ENDMDL
