MODEL 1
REMARK minimizedAffinity 11.4747543
REMARK minimizedRMSD -1
REMARK  3 active torsions:
REMARK  status: ('A' for Active; 'I' for Inactive)
REMARK    1  A    between atoms: C3'_2  and  C2'_3 
REMARK    2  A    between atoms: C2'_3  and  C1'_4 
REMARK    3  A    between atoms: C1'_4  and  C1_5 
ROOT
ATOM      1  C1  N4B d   1      -1.120  -1.343  -2.363  0.00  0.00    -0.075 A 
ATOM      2  C2  N4B d   1      -1.204  -2.622  -2.956  0.00  0.00     0.002 A 
ATOM      3  C3  N4B d   1      -2.015  -2.821  -4.046  0.00  0.00     0.002 A 
ATOM      4  C4  N4B d   1      -2.763  -1.766  -4.546  0.00  0.00    -0.004 A 
ATOM      5  C5  N4B d   1      -2.657  -0.528  -3.983  0.00  0.00     0.002 A 
ATOM      6  C6  N4B d   1      -1.843  -0.312  -2.890  0.00  0.00     0.002 A 
ENDROOT
BRANCH   1   7
ATOM      7  C1' N4B d   1      -0.313  -1.097  -1.118  0.00  0.00     0.057 C 
BRANCH   7   8
ATOM      8  C2' N4B d   1       1.123  -0.758  -1.510  0.00  0.00     0.009 C 
BRANCH   8   9
ATOM      9  C3' N4B d   1       1.910  -0.185  -0.345  0.00  0.00     0.004 C 
ATOM     10  C4' N4B d   1       2.273   1.256  -0.542  0.00  0.00     0.003 C 
ENDBRANCH   8   9
ENDBRANCH   7   8
ENDBRANCH   1   7
TORSDOF 3
ENDMDL
