MODEL 1
REMARK minimizedAffinity 3.07707548
REMARK minimizedRMSD -1
REMARK  3 active torsions:
REMARK  status: ('A' for Active; 'I' for Inactive)
REMARK    1  A    between atoms: C3'_2  and  C2'_3 
REMARK    2  A    between atoms: C2'_3  and  C1'_4 
REMARK    3  A    between atoms: C1'_4  and  C1_5 
ROOT
ATOM      1  C1  N4B d   1       1.514   2.846   1.418  0.00  0.00    -0.075 A 
ATOM      2  C2  N4B d   1       0.548   2.767   0.390  0.00  0.00     0.002 A 
ATOM      3  C3  N4B d   1       0.726   1.894  -0.654  0.00  0.00     0.002 A 
ATOM      4  C4  N4B d   1       1.866   1.105  -0.702  0.00  0.00    -0.004 A 
ATOM      5  C5  N4B d   1       2.782   1.169   0.307  0.00  0.00     0.002 A 
ATOM      6  C6  N4B d   1       2.614   2.040   1.365  0.00  0.00     0.002 A 
ENDROOT
BRANCH   1   7
ATOM      7  C1' N4B d   1       1.405   3.847   2.535  0.00  0.00     0.057 C 
BRANCH   7   8
ATOM      8  C2' N4B d   1       2.046   3.266   3.792  0.00  0.00     0.009 C 
BRANCH   8   9
ATOM      9  C3' N4B d   1       1.058   2.451   4.608  0.00  0.00     0.004 C 
ATOM     10  C4' N4B d   1       1.730   1.522   5.575  0.00  0.00     0.003 C 
ENDBRANCH   8   9
ENDBRANCH   7   8
ENDBRANCH   1   7
TORSDOF 3
ENDMDL
