MODEL 1
REMARK minimizedAffinity 4.36640692
REMARK minimizedRMSD -1
REMARK  3 active torsions:
REMARK  status: ('A' for Active; 'I' for Inactive)
REMARK    1  A    between atoms: C3'_2  and  C2'_3 
REMARK    2  A    between atoms: C2'_3  and  C1'_4 
REMARK    3  A    between atoms: C1'_4  and  C1_5 
ROOT
ATOM      1  C1  N4B d   1       0.968   3.369   2.145  0.00  0.00    -0.075 A 
ATOM      2  C2  N4B d   1       0.190   3.029   3.274  0.00  0.00     0.002 A 
ATOM      3  C3  N4B d   1       0.805   2.641   4.439  0.00  0.00     0.002 A 
ATOM      4  C4  N4B d   1       2.189   2.568   4.494  0.00  0.00    -0.004 A 
ATOM      5  C5  N4B d   1       2.933   2.923   3.407  0.00  0.00     0.002 A 
ATOM      6  C6  N4B d   1       2.329   3.319   2.230  0.00  0.00     0.002 A 
ENDROOT
BRANCH   1   7
ATOM      7  C1' N4B d   1       0.339   3.717   0.824  0.00  0.00     0.057 C 
BRANCH   7   8
ATOM      8  C2' N4B d   1       0.238   2.456  -0.030  0.00  0.00     0.009 C 
BRANCH   8   9
ATOM      9  C3' N4B d   1      -1.155   2.273  -0.609  0.00  0.00     0.004 C 
ATOM     10  C4' N4B d   1      -1.694   0.889  -0.397  0.00  0.00     0.003 C 
ENDBRANCH   8   9
ENDBRANCH   7   8
ENDBRANCH   1   7
TORSDOF 3
ENDMDL
