MODEL 1
REMARK minimizedAffinity 7.96404314
REMARK minimizedRMSD -1
REMARK  0 active torsions:
REMARK  status: ('A' for Active; 'I' for Inactive)
ROOT
ATOM      1  C2' OXE d   1       1.528  -3.589  -0.673  0.00  0.00     0.078 C 
ATOM      2  C1' OXE d   1       3.178  -1.454   0.100  0.00  0.00     0.078 C 
ATOM      3  C1  OXE d   1       1.698  -1.328   0.360  0.00  0.00    -0.078 A 
ATOM      4  C2  OXE d   1       0.892  -2.358  -0.064  0.00  0.00    -0.078 A 
ATOM      5  C3  OXE d   1      -0.474  -2.318   0.200  0.00  0.00     0.003 A 
ATOM      6  C4  OXE d   1      -1.055  -1.171   0.754  0.00  0.00    -0.002 A 
ATOM      7  C5  OXE d   1      -0.258  -0.094   1.157  0.00  0.00    -0.002 A 
ATOM      8  C6  OXE d   1       1.122  -0.175   1.006  0.00  0.00     0.003 A 
ENDROOT
TORSDOF 0
ENDMDL
