MODEL 1
REMARK minimizedAffinity 3.85839248
REMARK minimizedRMSD -1
REMARK  0 active torsions:
REMARK  status: ('A' for Active; 'I' for Inactive)
ROOT
ATOM      1  C2' OXE d   1       3.902  -1.563   0.374  0.00  0.00     0.078 C 
ATOM      2  C1' OXE d   1       2.579  -0.024   2.313  0.00  0.00     0.078 C 
ATOM      3  C1  OXE d   1       1.749  -0.965   1.476  0.00  0.00    -0.078 A 
ATOM      4  C2  OXE d   1       2.398  -1.680   0.498  0.00  0.00    -0.078 A 
ATOM      5  C3  OXE d   1       1.689  -2.602  -0.267  0.00  0.00     0.003 A 
ATOM      6  C4  OXE d   1       0.297  -2.696  -0.153  0.00  0.00    -0.002 A 
ATOM      7  C5  OXE d   1      -0.389  -1.948   0.810  0.00  0.00    -0.002 A 
ATOM      8  C6  OXE d   1       0.326  -1.111   1.659  0.00  0.00     0.003 A 
ENDROOT
TORSDOF 0
ENDMDL
