MODEL 1
REMARK minimizedAffinity 4.52487183
REMARK minimizedRMSD -1
REMARK  0 active torsions:
REMARK  status: ('A' for Active; 'I' for Inactive)
ROOT
ATOM      1  C2' OXE d   1       3.675  -1.406   0.898  0.00  0.00     0.078 C 
ATOM      2  C1' OXE d   1       2.230   0.694   2.075  0.00  0.00     0.078 C 
ATOM      3  C1  OXE d   1       1.450  -0.458   1.492  0.00  0.00    -0.078 A 
ATOM      4  C2  OXE d   1       2.163  -1.458   0.877  0.00  0.00    -0.078 A 
ATOM      5  C3  OXE d   1       1.495  -2.570   0.371  0.00  0.00     0.003 A 
ATOM      6  C4  OXE d   1       0.095  -2.606   0.347  0.00  0.00    -0.002 A 
ATOM      7  C5  OXE d   1      -0.651  -1.579   0.933  0.00  0.00    -0.002 A 
ATOM      8  C6  OXE d   1       0.010  -0.520   1.546  0.00  0.00     0.003 A 
ENDROOT
TORSDOF 0
ENDMDL
