MODEL 1
REMARK minimizedAffinity 1.87871826
REMARK minimizedRMSD -1
REMARK  0 active torsions:
REMARK  status: ('A' for Active; 'I' for Inactive)
ROOT
ATOM      1  C2' OXE d   1       2.244  -3.317  -0.392  0.00  0.00     0.078 C 
ATOM      2  C1' OXE d   1      -0.317  -3.915  -1.376  0.00  0.00     0.078 C 
ATOM      3  C1  OXE d   1      -0.207  -2.888  -0.277  0.00  0.00    -0.078 A 
ATOM      4  C2  OXE d   1       1.045  -2.636   0.231  0.00  0.00    -0.078 A 
ATOM      5  C3  OXE d   1       1.209  -1.658   1.208  0.00  0.00     0.003 A 
ATOM      6  C4  OXE d   1       0.094  -1.039   1.786  0.00  0.00    -0.002 A 
ATOM      7  C5  OXE d   1      -1.194  -1.310   1.311  0.00  0.00    -0.002 A 
ATOM      8  C6  OXE d   1      -1.358  -2.199   0.254  0.00  0.00     0.003 A 
ENDROOT
TORSDOF 0
ENDMDL
