MODEL 1
REMARK minimizedAffinity 0.363301784
REMARK minimizedRMSD -1
REMARK  0 active torsions:
REMARK  status: ('A' for Active; 'I' for Inactive)
ROOT
ATOM      1  C2' OXE d   1       1.475  -3.738  -1.031  0.00  0.00     0.078 C 
ATOM      2  C1' OXE d   1       3.275  -1.681  -0.390  0.00  0.00     0.078 C 
ATOM      3  C1  OXE d   1       1.854  -1.551   0.100  0.00  0.00    -0.078 A 
ATOM      4  C2  OXE d   1       0.969  -2.539  -0.258  0.00  0.00    -0.078 A 
ATOM      5  C3  OXE d   1      -0.340  -2.496   0.213  0.00  0.00     0.003 A 
ATOM      6  C4  OXE d   1      -0.803  -1.379   0.919  0.00  0.00    -0.002 A 
ATOM      7  C5  OXE d   1       0.073  -0.342   1.260  0.00  0.00    -0.002 A 
ATOM      8  C6  OXE d   1       1.412  -0.433   0.896  0.00  0.00     0.003 A 
ENDROOT
TORSDOF 0
ENDMDL
