MODEL 1
REMARK minimizedAffinity 0.396525472
REMARK minimizedRMSD -1
REMARK  0 active torsions:
REMARK  status: ('A' for Active; 'I' for Inactive)
ROOT
ATOM      1  C2' OXE d   1      -6.000  -6.000   4.299  0.00  0.00     0.078 C 
ATOM      2  C1' OXE d   1      -4.744  -3.747   5.406  0.00  0.00     0.078 C 
ATOM      3  C1  OXE d   1      -5.036  -3.733   3.927  0.00  0.00    -0.078 A 
ATOM      4  C2  OXE d   1      -5.608  -4.859   3.385  0.00  0.00    -0.078 A 
ATOM      5  C3  OXE d   1      -5.949  -4.878   2.035  0.00  0.00     0.003 A 
ATOM      6  C4  OXE d   1      -5.574  -3.823   1.195  0.00  0.00    -0.002 A 
ATOM      7  C5  OXE d   1      -4.954  -2.683   1.719  0.00  0.00    -0.002 A 
ATOM      8  C6  OXE d   1      -4.717  -2.605   3.087  0.00  0.00     0.003 A 
ENDROOT
TORSDOF 0
ENDMDL
