MODEL 1
REMARK minimizedAffinity 4.45993614
REMARK minimizedRMSD -1
REMARK  0 active torsions:
REMARK  status: ('A' for Active; 'I' for Inactive)
ROOT
ATOM      1  C2' OXE d   1       3.341  -3.835  -0.470  0.00  0.00     0.078 C 
ATOM      2  C1' OXE d   1       2.947  -1.212   0.447  0.00  0.00     0.078 C 
ATOM      3  C1  OXE d   1       1.732  -2.092   0.291  0.00  0.00    -0.078 A 
ATOM      4  C2  OXE d   1       1.929  -3.359  -0.203  0.00  0.00    -0.078 A 
ATOM      5  C3  OXE d   1       0.850  -4.231  -0.315  0.00  0.00     0.003 A 
ATOM      6  C4  OXE d   1      -0.454  -3.780  -0.075  0.00  0.00    -0.002 A 
ATOM      7  C5  OXE d   1      -0.681  -2.480   0.391  0.00  0.00    -0.002 A 
ATOM      8  C6  OXE d   1       0.403  -1.639   0.620  0.00  0.00     0.003 A 
ENDROOT
TORSDOF 0
ENDMDL
