MODEL 1
REMARK minimizedAffinity -4.58088589
REMARK minimizedRMSD -1
REMARK  0 active torsions:
REMARK  status: ('A' for Active; 'I' for Inactive)
ROOT
ATOM      1  C2' OXE d   1       2.545  -1.928  -0.173  0.00  0.00     0.078 C 
ATOM      2  C1' OXE d   1       1.073   0.211   0.894  0.00  0.00     0.078 C 
ATOM      3  C1  OXE d   1       0.348  -1.088   0.648  0.00  0.00    -0.078 A 
ATOM      4  C2  OXE d   1       1.065  -2.115   0.082  0.00  0.00    -0.078 A 
ATOM      5  C3  OXE d   1       0.458  -3.352  -0.116  0.00  0.00     0.003 A 
ATOM      6  C4  OXE d   1      -0.913  -3.514   0.114  0.00  0.00    -0.002 A 
ATOM      7  C5  OXE d   1      -1.671  -2.468   0.652  0.00  0.00    -0.002 A 
ATOM      8  C6  OXE d   1      -1.048  -1.265   0.964  0.00  0.00     0.003 A 
ENDROOT
TORSDOF 0
ENDMDL
