MODEL 1
REMARK minimizedAffinity 1.02358568
REMARK minimizedRMSD -1
REMARK  0 active torsions:
REMARK  status: ('A' for Active; 'I' for Inactive)
ROOT
ATOM      1  C2' OXE d   1      -5.277  -3.365   1.901  0.00  0.00     0.078 C 
ATOM      2  C1' OXE d   1      -4.561  -6.000   2.551  0.00  0.00     0.078 C 
ATOM      3  C1  OXE d   1      -5.078  -5.118   3.659  0.00  0.00    -0.078 A 
ATOM      4  C2  OXE d   1      -5.382  -3.816   3.341  0.00  0.00    -0.078 A 
ATOM      5  C3  OXE d   1      -5.915  -2.975   4.315  0.00  0.00     0.003 A 
ATOM      6  C4  OXE d   1      -5.999  -3.397   5.647  0.00  0.00    -0.002 A 
ATOM      7  C5  OXE d   1      -5.657  -4.706   6.000  0.00  0.00    -0.002 A 
ATOM      8  C6  OXE d   1      -5.237  -5.590   5.012  0.00  0.00     0.003 A 
ENDROOT
TORSDOF 0
ENDMDL
