MODEL 1
REMARK minimizedAffinity -3.89786816
REMARK minimizedRMSD -1
REMARK  0 active torsions:
REMARK  status: ('A' for Active; 'I' for Inactive)
ROOT
ATOM      1  C2' OXE d   1       2.273  -0.390   1.289  0.00  0.00     0.078 C 
ATOM      2  C1' OXE d   1       2.209  -2.971   0.187  0.00  0.00     0.078 C 
ATOM      3  C1  OXE d   1       0.908  -2.214   0.281  0.00  0.00    -0.078 A 
ATOM      4  C2  OXE d   1       0.941  -0.971   0.865  0.00  0.00    -0.078 A 
ATOM      5  C3  OXE d   1      -0.222  -0.208   0.927  0.00  0.00     0.003 A 
ATOM      6  C4  OXE d   1      -1.451  -0.756   0.542  0.00  0.00    -0.002 A 
ATOM      7  C5  OXE d   1      -1.513  -2.036  -0.018  0.00  0.00    -0.002 A 
ATOM      8  C6  OXE d   1      -0.339  -2.761  -0.194  0.00  0.00     0.003 A 
ENDROOT
TORSDOF 0
ENDMDL
