MODEL 1
REMARK minimizedAffinity 2.85050344
REMARK minimizedRMSD -1
REMARK  0 active torsions:
REMARK  status: ('A' for Active; 'I' for Inactive)
ROOT
ATOM      1  C2' OXE d   1      -1.466  -1.524   0.438  0.00  0.00     0.078 C 
ATOM      2  C1' OXE d   1       0.540  -2.655  -1.168  0.00  0.00     0.078 C 
ATOM      3  C1  OXE d   1       0.964  -1.701  -0.080  0.00  0.00    -0.078 A 
ATOM      4  C2  OXE d   1      -0.027  -1.116   0.670  0.00  0.00    -0.078 A 
ATOM      5  C3  OXE d   1       0.313  -0.270   1.722  0.00  0.00     0.003 A 
ATOM      6  C4  OXE d   1       1.645   0.110   1.924  0.00  0.00    -0.002 A 
ATOM      7  C5  OXE d   1       2.667  -0.443   1.145  0.00  0.00    -0.002 A 
ATOM      8  C6  OXE d   1       2.348  -1.380   0.169  0.00  0.00     0.003 A 
ENDROOT
TORSDOF 0
ENDMDL
