MODEL 1
REMARK minimizedAffinity 1.80025816
REMARK minimizedRMSD -1
REMARK  0 active torsions:
REMARK  status: ('A' for Active; 'I' for Inactive)
ROOT
ATOM      1  C2' OXE d   1       1.317  -3.633  -0.278  0.00  0.00     0.078 C 
ATOM      2  C1' OXE d   1       3.088  -1.520   0.251  0.00  0.00     0.078 C 
ATOM      3  C1  OXE d   1       1.618  -1.283   0.492  0.00  0.00    -0.078 A 
ATOM      4  C2  OXE d   1       0.754  -2.307   0.186  0.00  0.00    -0.078 A 
ATOM      5  C3  OXE d   1      -0.607  -2.160   0.440  0.00  0.00     0.003 A 
ATOM      6  C4  OXE d   1      -1.120  -0.927   0.860  0.00  0.00    -0.002 A 
ATOM      7  C5  OXE d   1      -0.262   0.142   1.139  0.00  0.00    -0.002 A 
ATOM      8  C6  OXE d   1       1.111  -0.033   1.001  0.00  0.00     0.003 A 
ENDROOT
TORSDOF 0
ENDMDL
