MODEL 1
REMARK minimizedAffinity 10.1274796
REMARK minimizedRMSD -1
REMARK  0 active torsions:
REMARK  status: ('A' for Active; 'I' for Inactive)
ROOT
ATOM      1  C2' OXE d   1      -1.127  -2.123   0.502  0.00  0.00     0.078 C 
ATOM      2  C1' OXE d   1       1.376  -1.366   1.522  0.00  0.00     0.078 C 
ATOM      3  C1  OXE d   1       1.335  -2.498   0.526  0.00  0.00    -0.078 A 
ATOM      4  C2  OXE d   1       0.101  -2.893   0.068  0.00  0.00    -0.078 A 
ATOM      5  C3  OXE d   1       0.012  -3.896  -0.893  0.00  0.00     0.003 A 
ATOM      6  C4  OXE d   1       1.152  -4.609  -1.282  0.00  0.00    -0.002 A 
ATOM      7  C5  OXE d   1       2.414  -4.250  -0.797  0.00  0.00    -0.002 A 
ATOM      8  C6  OXE d   1       2.528  -3.171   0.073  0.00  0.00     0.003 A 
ENDROOT
TORSDOF 0
ENDMDL
