MODEL 1
REMARK minimizedAffinity -2.94752955
REMARK minimizedRMSD -1
REMARK  0 active torsions:
REMARK  status: ('A' for Active; 'I' for Inactive)
ROOT
ATOM      1  C2' OXE d   1      -1.610   0.431   2.537  0.00  0.00     0.078 C 
ATOM      2  C1' OXE d   1      -3.370  -0.599   0.607  0.00  0.00     0.078 C 
ATOM      3  C1  OXE d   1      -2.014  -1.245   0.738  0.00  0.00    -0.078 A 
ATOM      4  C2  OXE d   1      -1.142  -0.705   1.653  0.00  0.00    -0.078 A 
ATOM      5  C3  OXE d   1       0.102  -1.296   1.852  0.00  0.00     0.003 A 
ATOM      6  C4  OXE d   1       0.532  -2.340   1.023  0.00  0.00    -0.002 A 
ATOM      7  C5  OXE d   1      -0.326  -2.879   0.059  0.00  0.00    -0.002 A 
ATOM      8  C6  OXE d   1      -1.614  -2.373  -0.067  0.00  0.00     0.003 A 
ENDROOT
TORSDOF 0
ENDMDL
