MODEL 1
REMARK minimizedAffinity -3.31691432
REMARK minimizedRMSD -1
REMARK  0 active torsions:
REMARK  status: ('A' for Active; 'I' for Inactive)
ROOT
ATOM      1  C   UNL d   1       0.134  -1.281  -4.931  0.00  0.00     0.077 C 
ATOM      2  C1  UNL d   1      -0.118  -1.829  -3.558  0.00  0.00    -0.074 A 
ATOM      3  C2  UNL d   1      -0.340  -3.195  -3.359  0.00  0.00    -0.005 A 
ATOM      4  C3  UNL d   1      -0.564  -3.692  -2.074  0.00  0.00     0.006 A 
ATOM      5  C4  UNL d   1      -0.568  -2.828  -0.978  0.00  0.00    -0.005 A 
ATOM      6  C5  UNL d   1      -0.347  -1.459  -1.158  0.00  0.00    -0.074 A 
ATOM      7  C6  UNL d   1      -0.338  -0.519   0.010  0.00  0.00     0.077 C 
ATOM      8  C7  UNL d   1      -0.116  -0.969  -2.451  0.00  0.00    -0.001 A 
ENDROOT
TORSDOF 0
ENDMDL
