MODEL 1
REMARK minimizedAffinity -3.7348547
REMARK minimizedRMSD -1
REMARK  0 active torsions:
REMARK  status: ('A' for Active; 'I' for Inactive)
ROOT
ATOM      1  C   UNL d   1       0.850   2.709  -0.786  0.00  0.00     0.077 C 
ATOM      2  C1  UNL d   1       0.171   1.466  -0.291  0.00  0.00    -0.074 A 
ATOM      3  C2  UNL d   1      -0.559   1.472   0.902  0.00  0.00    -0.005 A 
ATOM      4  C3  UNL d   1      -1.193   0.311   1.344  0.00  0.00     0.006 A 
ATOM      5  C4  UNL d   1      -1.102  -0.866   0.600  0.00  0.00    -0.005 A 
ATOM      6  C5  UNL d   1      -0.377  -0.891  -0.595  0.00  0.00    -0.074 A 
ATOM      7  C6  UNL d   1      -0.278  -2.145  -1.412  0.00  0.00     0.077 C 
ATOM      8  C7  UNL d   1       0.251   0.281  -1.037  0.00  0.00    -0.001 A 
ENDROOT
TORSDOF 0
ENDMDL
