MODEL 1
REMARK minimizedAffinity -2.92914319
REMARK minimizedRMSD -1
REMARK  0 active torsions:
REMARK  status: ('A' for Active; 'I' for Inactive)
ROOT
ATOM      1  C   UNL d   1      -2.972   0.121   1.100  0.00  0.00     0.077 C 
ATOM      2  C1  UNL d   1      -1.562   0.320   0.629  0.00  0.00    -0.074 A 
ATOM      3  C2  UNL d   1      -0.708  -0.771   0.436  0.00  0.00    -0.005 A 
ATOM      4  C3  UNL d   1       0.597  -0.572  -0.012  0.00  0.00     0.006 A 
ATOM      5  C4  UNL d   1       1.062   0.718  -0.271  0.00  0.00    -0.005 A 
ATOM      6  C5  UNL d   1       0.223   1.821  -0.084  0.00  0.00    -0.074 A 
ATOM      7  C6  UNL d   1       0.704   3.213  -0.366  0.00  0.00     0.077 C 
ATOM      8  C7  UNL d   1      -1.090   1.612   0.360  0.00  0.00    -0.001 A 
ENDROOT
TORSDOF 0
ENDMDL
