MODEL 1
REMARK minimizedAffinity -5.64296579
REMARK minimizedRMSD -1
REMARK  0 active torsions:
REMARK  status: ('A' for Active; 'I' for Inactive)
ROOT
ATOM      1  C   UNL d   1      -0.375  -1.077  -0.000  0.00  0.00     0.077 C 
ATOM      2  C1  UNL d   1       0.091   0.348   0.055  0.00  0.00    -0.074 A 
ATOM      3  C2  UNL d   1      -0.822   1.405  -0.001  0.00  0.00    -0.005 A 
ATOM      4  C3  UNL d   1      -0.375   2.725   0.061  0.00  0.00     0.006 A 
ATOM      5  C4  UNL d   1       0.988   3.000   0.180  0.00  0.00    -0.005 A 
ATOM      6  C5  UNL d   1       1.916   1.955   0.238  0.00  0.00    -0.074 A 
ATOM      7  C6  UNL d   1       3.383   2.233   0.375  0.00  0.00     0.077 C 
ATOM      8  C7  UNL d   1       1.458   0.632   0.182  0.00  0.00    -0.001 A 
ENDROOT
TORSDOF 0
ENDMDL
