MODEL 1
REMARK minimizedAffinity -1.53432238
REMARK minimizedRMSD -1
REMARK  0 active torsions:
REMARK  status: ('A' for Active; 'I' for Inactive)
ROOT
ATOM      1  C   UNL d   1      -0.405  -1.584  -0.710  0.00  0.00     0.077 C 
ATOM      2  C1  UNL d   1      -0.172  -0.259  -0.046  0.00  0.00    -0.074 A 
ATOM      3  C2  UNL d   1      -1.237   0.604   0.229  0.00  0.00    -0.005 A 
ATOM      4  C3  UNL d   1      -1.006   1.829   0.855  0.00  0.00     0.006 A 
ATOM      5  C4  UNL d   1       0.291   2.203   1.211  0.00  0.00    -0.005 A 
ATOM      6  C5  UNL d   1       1.368   1.353   0.944  0.00  0.00    -0.074 A 
ATOM      7  C6  UNL d   1       2.767   1.735   1.329  0.00  0.00     0.077 C 
ATOM      8  C7  UNL d   1       1.127   0.120   0.321  0.00  0.00    -0.001 A 
ENDROOT
TORSDOF 0
ENDMDL
