MODEL 1
REMARK minimizedAffinity -2.78132701
REMARK minimizedRMSD -1
REMARK  0 active torsions:
REMARK  status: ('A' for Active; 'I' for Inactive)
ROOT
ATOM      1  C   UNL d   1       0.233   3.013  -0.375  0.00  0.00     0.077 C 
ATOM      2  C1  UNL d   1      -0.216   1.656   0.079  0.00  0.00    -0.074 A 
ATOM      3  C2  UNL d   1      -1.481   1.471   0.647  0.00  0.00    -0.005 A 
ATOM      4  C3  UNL d   1      -1.889   0.201   1.056  0.00  0.00     0.006 A 
ATOM      5  C4  UNL d   1      -1.038  -0.894   0.902  0.00  0.00    -0.005 A 
ATOM      6  C5  UNL d   1       0.230  -0.728   0.336  0.00  0.00    -0.074 A 
ATOM      7  C6  UNL d   1       1.153  -1.896   0.154  0.00  0.00     0.077 C 
ATOM      8  C7  UNL d   1       0.630   0.550  -0.079  0.00  0.00    -0.001 A 
ENDROOT
TORSDOF 0
ENDMDL
