MODEL 1
REMARK minimizedAffinity -4.13409901
REMARK minimizedRMSD -1
REMARK  0 active torsions:
REMARK  status: ('A' for Active; 'I' for Inactive)
ROOT
ATOM      1  C   UNL d   1       0.203  -1.309  -0.020  0.00  0.00     0.077 C 
ATOM      2  C1  UNL d   1      -0.259   0.088   0.269  0.00  0.00    -0.074 A 
ATOM      3  C2  UNL d   1      -1.570   0.340   0.687  0.00  0.00    -0.005 A 
ATOM      4  C3  UNL d   1      -1.982   1.644   0.961  0.00  0.00     0.006 A 
ATOM      5  C4  UNL d   1      -1.090   2.707   0.819  0.00  0.00    -0.005 A 
ATOM      6  C5  UNL d   1       0.225   2.475   0.403  0.00  0.00    -0.074 A 
ATOM      7  C6  UNL d   1       1.199   3.605   0.255  0.00  0.00     0.077 C 
ATOM      8  C7  UNL d   1       0.634   1.161   0.137  0.00  0.00    -0.001 A 
ENDROOT
TORSDOF 0
ENDMDL
