MODEL 1
REMARK minimizedAffinity -3.10756063
REMARK minimizedRMSD -1
REMARK  0 active torsions:
REMARK  status: ('A' for Active; 'I' for Inactive)
ROOT
ATOM      1  C   UNL d   1      -3.686  -5.092  -0.518  0.00  0.00     0.077 C 
ATOM      2  C1  UNL d   1      -2.381  -4.432  -0.850  0.00  0.00    -0.074 A 
ATOM      3  C2  UNL d   1      -1.425  -5.083  -1.636  0.00  0.00    -0.005 A 
ATOM      4  C3  UNL d   1      -0.220  -4.453  -1.944  0.00  0.00     0.006 A 
ATOM      5  C4  UNL d   1       0.042  -3.167  -1.470  0.00  0.00    -0.005 A 
ATOM      6  C5  UNL d   1      -0.903  -2.499  -0.684  0.00  0.00    -0.074 A 
ATOM      7  C6  UNL d   1      -0.642  -1.113  -0.175  0.00  0.00     0.077 C 
ATOM      8  C7  UNL d   1      -2.114  -3.137  -0.384  0.00  0.00    -0.001 A 
ENDROOT
TORSDOF 0
ENDMDL
