MODEL 1
REMARK minimizedAffinity -4.46624327
REMARK minimizedRMSD -1
REMARK  0 active torsions:
REMARK  status: ('A' for Active; 'I' for Inactive)
ROOT
ATOM      1  C   UNL d   1       0.675  -1.336   0.786  0.00  0.00     0.077 C 
ATOM      2  C1  UNL d   1      -0.165  -0.098   0.681  0.00  0.00    -0.074 A 
ATOM      3  C2  UNL d   1      -1.498  -0.096   1.105  0.00  0.00    -0.005 A 
ATOM      4  C3  UNL d   1      -2.265   1.066   1.010  0.00  0.00     0.006 A 
ATOM      5  C4  UNL d   1      -1.707   2.235   0.491  0.00  0.00    -0.005 A 
ATOM      6  C5  UNL d   1      -0.376   2.252   0.063  0.00  0.00    -0.074 A 
ATOM      7  C6  UNL d   1       0.242   3.503  -0.488  0.00  0.00     0.077 C 
ATOM      8  C7  UNL d   1       0.390   1.083   0.168  0.00  0.00    -0.001 A 
ENDROOT
TORSDOF 0
ENDMDL
