MODEL 1
REMARK minimizedAffinity 2.61332679
REMARK minimizedRMSD -1
REMARK  0 active torsions:
REMARK  status: ('A' for Active; 'I' for Inactive)
ROOT
ATOM      1  C   UNL d   1      -1.129  -1.634  -0.436  0.00  0.00     0.077 C 
ATOM      2  C1  UNL d   1      -1.725  -2.907  -0.958  0.00  0.00    -0.074 A 
ATOM      3  C2  UNL d   1      -1.377  -3.399  -2.220  0.00  0.00    -0.005 A 
ATOM      4  C3  UNL d   1      -1.933  -4.589  -2.689  0.00  0.00     0.006 A 
ATOM      5  C4  UNL d   1      -2.841  -5.298  -1.902  0.00  0.00    -0.005 A 
ATOM      6  C5  UNL d   1      -3.201  -4.822  -0.637  0.00  0.00    -0.074 A 
ATOM      7  C6  UNL d   1      -4.168  -5.577   0.226  0.00  0.00     0.077 C 
ATOM      8  C7  UNL d   1      -2.632  -3.629  -0.170  0.00  0.00    -0.001 A 
ENDROOT
TORSDOF 0
ENDMDL
