MODEL 1
REMARK minimizedAffinity -4.30769205
REMARK minimizedRMSD -1
REMARK  0 active torsions:
REMARK  status: ('A' for Active; 'I' for Inactive)
ROOT
ATOM      1  C   UNL d   1      -3.231  -4.662  -1.127  0.00  0.00     0.077 C 
ATOM      2  C1  UNL d   1      -2.026  -3.780  -1.276  0.00  0.00    -0.074 A 
ATOM      3  C2  UNL d   1      -1.189  -3.890  -2.391  0.00  0.00    -0.005 A 
ATOM      4  C3  UNL d   1      -0.078  -3.057  -2.520  0.00  0.00     0.006 A 
ATOM      5  C4  UNL d   1       0.207  -2.107  -1.538  0.00  0.00    -0.005 A 
ATOM      6  C5  UNL d   1      -0.620  -1.982  -0.417  0.00  0.00    -0.074 A 
ATOM      7  C6  UNL d   1      -0.334  -0.960   0.642  0.00  0.00     0.077 C 
ATOM      8  C7  UNL d   1      -1.738  -2.818  -0.298  0.00  0.00    -0.001 A 
ENDROOT
TORSDOF 0
ENDMDL
