MODEL 1
REMARK minimizedAffinity -3.72423005
REMARK minimizedRMSD -1
REMARK  0 active torsions:
REMARK  status: ('A' for Active; 'I' for Inactive)
ROOT
ATOM      1  C   UNL d   1       0.356   3.464  -0.189  0.00  0.00     0.077 C 
ATOM      2  C1  UNL d   1      -0.292   2.144   0.105  0.00  0.00    -0.074 A 
ATOM      3  C2  UNL d   1      -1.565   2.080   0.681  0.00  0.00    -0.005 A 
ATOM      4  C3  UNL d   1      -2.159   0.845   0.940  0.00  0.00     0.006 A 
ATOM      5  C4  UNL d   1      -1.487  -0.337   0.625  0.00  0.00    -0.005 A 
ATOM      6  C5  UNL d   1      -0.214  -0.293   0.048  0.00  0.00    -0.074 A 
ATOM      7  C6  UNL d   1       0.517  -1.554  -0.305  0.00  0.00     0.077 C 
ATOM      8  C7  UNL d   1       0.373   0.952  -0.215  0.00  0.00    -0.001 A 
ENDROOT
TORSDOF 0
ENDMDL
