MODEL 1
REMARK minimizedAffinity -5.82969141
REMARK minimizedRMSD -1
REMARK  0 active torsions:
REMARK  status: ('A' for Active; 'I' for Inactive)
ROOT
ATOM      1  C   UNL d   1      -0.248  -1.153  -0.122  0.00  0.00     0.077 C 
ATOM      2  C1  UNL d   1       0.231   0.252   0.089  0.00  0.00    -0.074 A 
ATOM      3  C2  UNL d   1      -0.673   1.316   0.170  0.00  0.00    -0.005 A 
ATOM      4  C3  UNL d   1      -0.213   2.616   0.375  0.00  0.00     0.006 A 
ATOM      5  C4  UNL d   1       1.154   2.866   0.502  0.00  0.00    -0.005 A 
ATOM      6  C5  UNL d   1       2.074   1.815   0.425  0.00  0.00    -0.074 A 
ATOM      7  C6  UNL d   1       3.546   2.065   0.568  0.00  0.00     0.077 C 
ATOM      8  C7  UNL d   1       1.603   0.510   0.225  0.00  0.00    -0.001 A 
ENDROOT
TORSDOF 0
ENDMDL
