MODEL 1
REMARK minimizedAffinity -4.16309929
REMARK minimizedRMSD -1
REMARK  0 active torsions:
REMARK  status: ('A' for Active; 'I' for Inactive)
ROOT
ATOM      1  C   UNL d   1       2.632   0.614   0.039  0.00  0.00     0.077 C 
ATOM      2  C1  UNL d   1       2.028   1.898   0.527  0.00  0.00    -0.074 A 
ATOM      3  C2  UNL d   1       1.364   2.760  -0.351  0.00  0.00    -0.005 A 
ATOM      4  C3  UNL d   1       0.799   3.945   0.119  0.00  0.00     0.006 A 
ATOM      5  C4  UNL d   1       0.893   4.280   1.471  0.00  0.00    -0.005 A 
ATOM      6  C5  UNL d   1       1.553   3.430   2.364  0.00  0.00    -0.074 A 
ATOM      7  C6  UNL d   1       1.654   3.771   3.821  0.00  0.00     0.077 C 
ATOM      8  C7  UNL d   1       2.111   2.238   1.885  0.00  0.00    -0.001 A 
ENDROOT
TORSDOF 0
ENDMDL
