MODEL 1
REMARK minimizedAffinity -5.05979252
REMARK minimizedRMSD -1
REMARK  0 active torsions:
REMARK  status: ('A' for Active; 'I' for Inactive)
ROOT
ATOM      1  C   UNL d   1      -0.061  -1.659  -0.142  0.00  0.00     0.077 C 
ATOM      2  C1  UNL d   1       0.643  -0.348   0.047  0.00  0.00    -0.074 A 
ATOM      3  C2  UNL d   1       2.001  -0.302   0.376  0.00  0.00    -0.005 A 
ATOM      4  C3  UNL d   1       2.644   0.925   0.539  0.00  0.00     0.006 A 
ATOM      5  C4  UNL d   1       1.936   2.117   0.376  0.00  0.00    -0.005 A 
ATOM      6  C5  UNL d   1       0.577   2.090   0.046  0.00  0.00    -0.074 A 
ATOM      7  C6  UNL d   1      -0.196   3.361  -0.142  0.00  0.00     0.077 C 
ATOM      8  C7  UNL d   1      -0.060   0.853  -0.123  0.00  0.00    -0.001 A 
ENDROOT
TORSDOF 0
ENDMDL
