MODEL 1
REMARK minimizedAffinity -4.24735928
REMARK minimizedRMSD -1
REMARK  0 active torsions:
REMARK  status: ('A' for Active; 'I' for Inactive)
ROOT
ATOM      1  C   UNL d   1       0.720   3.244   0.404  0.00  0.00     0.077 C 
ATOM      2  C1  UNL d   1       0.105   1.878   0.321  0.00  0.00    -0.074 A 
ATOM      3  C2  UNL d   1      -1.262   1.719   0.069  0.00  0.00    -0.005 A 
ATOM      4  C3  UNL d   1      -1.817   0.442  -0.015  0.00  0.00     0.006 A 
ATOM      5  C4  UNL d   1      -1.014  -0.686   0.151  0.00  0.00    -0.005 A 
ATOM      6  C5  UNL d   1       0.355  -0.547   0.402  0.00  0.00    -0.074 A 
ATOM      7  C6  UNL d   1       1.235  -1.749   0.573  0.00  0.00     0.077 C 
ATOM      8  C7  UNL d   1       0.907   0.739   0.478  0.00  0.00    -0.001 A 
ENDROOT
TORSDOF 0
ENDMDL
