MODEL 1
REMARK minimizedAffinity -3.05836415
REMARK minimizedRMSD -1
REMARK  0 active torsions:
REMARK  status: ('A' for Active; 'I' for Inactive)
ROOT
ATOM      1  C   UNL d   1      -0.698  -1.640   0.133  0.00  0.00     0.077 C 
ATOM      2  C1  UNL d   1       0.113  -0.382   0.034  0.00  0.00    -0.074 A 
ATOM      3  C2  UNL d   1       1.494  -0.432  -0.184  0.00  0.00    -0.005 A 
ATOM      4  C3  UNL d   1       2.234   0.746  -0.284  0.00  0.00     0.006 A 
ATOM      5  C4  UNL d   1       1.601   1.984  -0.167  0.00  0.00    -0.005 A 
ATOM      6  C5  UNL d   1       0.222   2.054   0.050  0.00  0.00    -0.074 A 
ATOM      7  C6  UNL d   1      -0.475   3.377   0.168  0.00  0.00     0.077 C 
ATOM      8  C7  UNL d   1      -0.516   0.866   0.142  0.00  0.00    -0.001 A 
ENDROOT
TORSDOF 0
ENDMDL
