MODEL 1
REMARK minimizedAffinity -4.16588593
REMARK minimizedRMSD -1
REMARK  0 active torsions:
REMARK  status: ('A' for Active; 'I' for Inactive)
ROOT
ATOM      1  C   UNL d   1       0.491   2.778  -1.315  0.00  0.00     0.077 C 
ATOM      2  C1  UNL d   1       0.357   1.474  -0.586  0.00  0.00    -0.074 A 
ATOM      3  C2  UNL d   1       1.395   0.536  -0.594  0.00  0.00    -0.005 A 
ATOM      4  C3  UNL d   1       1.259  -0.668   0.096  0.00  0.00     0.006 A 
ATOM      5  C4  UNL d   1       0.088  -0.946   0.801  0.00  0.00    -0.005 A 
ATOM      6  C5  UNL d   1      -0.960  -0.020   0.822  0.00  0.00    -0.074 A 
ATOM      7  C6  UNL d   1      -2.222  -0.299   1.582  0.00  0.00     0.077 C 
ATOM      8  C7  UNL d   1      -0.814   1.191   0.131  0.00  0.00    -0.001 A 
ENDROOT
TORSDOF 0
ENDMDL
