MODEL 1
REMARK minimizedAffinity 9.68848801
REMARK minimizedRMSD -1
REMARK  0 active torsions:
REMARK  status: ('A' for Active; 'I' for Inactive)
ROOT
ATOM      1  C4' PXY d   1       1.628  -2.266   0.763  0.00  0.00     0.077 C 
ATOM      2  C1' PXY d   1       5.979  -6.000   1.494  0.00  0.00     0.077 C 
ATOM      3  C1  PXY d   1       4.840  -5.021   1.290  0.00  0.00    -0.082 A 
ATOM      4  C2  PXY d   1       4.529  -4.168   2.252  0.00  0.00     0.003 A 
ATOM      5  C3  PXY d   1       3.481  -3.298   2.096  0.00  0.00     0.003 A 
ATOM      6  C4  PXY d   1       2.777  -3.265   0.922  0.00  0.00    -0.082 A 
ATOM      7  C5  PXY d   1       3.095  -4.125  -0.069  0.00  0.00     0.003 A 
ATOM      8  C6  PXY d   1       4.136  -5.028   0.125  0.00  0.00     0.003 A 
ENDROOT
TORSDOF 0
ENDMDL
