MODEL 1
REMARK minimizedAffinity -1.21038496
REMARK minimizedRMSD -1
REMARK  0 active torsions:
REMARK  status: ('A' for Active; 'I' for Inactive)
ROOT
ATOM      1  C4' PXY d   1       1.032   5.801  -5.933  0.00  0.00     0.077 C 
ATOM      2  C1' PXY d   1       5.264   1.864  -5.995  0.00  0.00     0.077 C 
ATOM      3  C1  PXY d   1       4.162   2.905  -5.973  0.00  0.00    -0.082 A 
ATOM      4  C2  PXY d   1       2.897   2.518  -5.986  0.00  0.00     0.003 A 
ATOM      5  C3  PXY d   1       1.888   3.447  -5.999  0.00  0.00     0.003 A 
ATOM      6  C4  PXY d   1       2.177   4.784  -5.945  0.00  0.00    -0.082 A 
ATOM      7  C5  PXY d   1       3.466   5.186  -5.920  0.00  0.00     0.003 A 
ATOM      8  C6  PXY d   1       4.475   4.229  -5.949  0.00  0.00     0.003 A 
ENDROOT
TORSDOF 0
ENDMDL
