MODEL 1
REMARK minimizedAffinity 1.26716483
REMARK minimizedRMSD -1
REMARK  0 active torsions:
REMARK  status: ('A' for Active; 'I' for Inactive)
ROOT
ATOM      1  C4' PXY d   1       5.398   5.971   2.255  0.00  0.00     0.077 C 
ATOM      2  C1' PXY d   1       0.387   6.000   5.136  0.00  0.00     0.077 C 
ATOM      3  C1  PXY d   1       1.707   5.998   4.391  0.00  0.00    -0.082 A 
ATOM      4  C2  PXY d   1       1.711   5.993   3.068  0.00  0.00     0.003 A 
ATOM      5  C3  PXY d   1       2.896   5.958   2.378  0.00  0.00     0.003 A 
ATOM      6  C4  PXY d   1       4.089   5.983   3.049  0.00  0.00    -0.082 A 
ATOM      7  C5  PXY d   1       4.093   5.999   4.399  0.00  0.00     0.003 A 
ATOM      8  C6  PXY d   1       2.880   5.992   5.080  0.00  0.00     0.003 A 
ENDROOT
TORSDOF 0
ENDMDL
