MODEL 1
REMARK minimizedAffinity 4.97255659
REMARK minimizedRMSD -1
REMARK  0 active torsions:
REMARK  status: ('A' for Active; 'I' for Inactive)
ROOT
ATOM      1  C4' PXY d   1       3.400  -3.379   0.220  0.00  0.00     0.077 C 
ATOM      2  C1' PXY d   1      -1.198   0.094   0.679  0.00  0.00     0.077 C 
ATOM      3  C1  PXY d   1       0.007  -0.815   0.546  0.00  0.00    -0.082 A 
ATOM      4  C2  PXY d   1       0.266  -1.702   1.493  0.00  0.00     0.003 A 
ATOM      5  C3  PXY d   1       1.370  -2.510   1.404  0.00  0.00     0.003 A 
ATOM      6  C4  PXY d   1       2.188  -2.447   0.308  0.00  0.00    -0.082 A 
ATOM      7  C5  PXY d   1       1.925  -1.552  -0.668  0.00  0.00     0.003 A 
ATOM      8  C6  PXY d   1       0.823  -0.712  -0.539  0.00  0.00     0.003 A 
ENDROOT
TORSDOF 0
ENDMDL
