MODEL 1
REMARK minimizedAffinity 5.65176725
REMARK minimizedRMSD -1
REMARK  0 active torsions:
REMARK  status: ('A' for Active; 'I' for Inactive)
ROOT
ATOM      1  C4' PXY d   1       3.042  -1.368   1.270  0.00  0.00     0.077 C 
ATOM      2  C1' PXY d   1      -2.508  -0.144   0.215  0.00  0.00     0.077 C 
ATOM      3  C1  PXY d   1      -1.054  -0.460   0.504  0.00  0.00    -0.082 A 
ATOM      4  C2  PXY d   1      -0.185  -0.509  -0.492  0.00  0.00     0.003 A 
ATOM      5  C3  PXY d   1       1.128  -0.825  -0.253  0.00  0.00     0.003 A 
ATOM      6  C4  PXY d   1       1.566  -1.042   1.026  0.00  0.00    -0.082 A 
ATOM      7  C5  PXY d   1       0.687  -0.985   2.049  0.00  0.00     0.003 A 
ATOM      8  C6  PXY d   1      -0.649  -0.702   1.780  0.00  0.00     0.003 A 
ENDROOT
TORSDOF 0
ENDMDL
