MODEL 1
REMARK minimizedAffinity 4.80151463
REMARK minimizedRMSD -1
REMARK  0 active torsions:
REMARK  status: ('A' for Active; 'I' for Inactive)
ROOT
ATOM      1  C4' PXY d   1       3.006  -2.742   0.663  0.00  0.00     0.077 C 
ATOM      2  C1' PXY d   1      -1.860   0.238   1.589  0.00  0.00     0.077 C 
ATOM      3  C1  PXY d   1      -0.586  -0.543   1.333  0.00  0.00    -0.082 A 
ATOM      4  C2  PXY d   1      -0.109  -1.343   2.273  0.00  0.00     0.003 A 
ATOM      5  C3  PXY d   1       1.059  -2.031   2.071  0.00  0.00     0.003 A 
ATOM      6  C4  PXY d   1       1.717  -1.942   0.874  0.00  0.00    -0.082 A 
ATOM      7  C5  PXY d   1       1.231  -1.136  -0.095  0.00  0.00     0.003 A 
ATOM      8  C6  PXY d   1       0.066  -0.414   0.146  0.00  0.00     0.003 A 
ENDROOT
TORSDOF 0
ENDMDL
