MODEL 1
REMARK minimizedAffinity -2.58188438
REMARK minimizedRMSD -1
REMARK  0 active torsions:
REMARK  status: ('A' for Active; 'I' for Inactive)
ROOT
ATOM      1  C4' PXY d   1       1.065   1.342  -2.864  0.00  0.00     0.077 C 
ATOM      2  C1' PXY d   1      -4.437   3.080  -3.219  0.00  0.00     0.077 C 
ATOM      3  C1  PXY d   1      -2.997   2.616  -3.117  0.00  0.00    -0.082 A 
ATOM      4  C2  PXY d   1      -2.018   3.446  -3.436  0.00  0.00     0.003 A 
ATOM      5  C3  PXY d   1      -0.712   3.032  -3.380  0.00  0.00     0.003 A 
ATOM      6  C4  PXY d   1      -0.403   1.772  -2.943  0.00  0.00    -0.082 A 
ATOM      7  C5  PXY d   1      -1.396   0.922  -2.606  0.00  0.00     0.003 A 
ATOM      8  C6  PXY d   1      -2.717   1.348  -2.708  0.00  0.00     0.003 A 
ENDROOT
TORSDOF 0
ENDMDL
