MODEL 1
REMARK minimizedAffinity 6.71761084
REMARK minimizedRMSD -1
REMARK  0 active torsions:
REMARK  status: ('A' for Active; 'I' for Inactive)
ROOT
ATOM      1  C4' PXY d   1       4.915   5.975   1.524  0.00  0.00     0.077 C 
ATOM      2  C1' PXY d   1       0.727   5.995   5.509  0.00  0.00     0.077 C 
ATOM      3  C1  PXY d   1       1.833   5.995   4.473  0.00  0.00    -0.082 A 
ATOM      4  C2  PXY d   1       1.525   5.996   3.186  0.00  0.00     0.003 A 
ATOM      5  C3  PXY d   1       2.512   5.963   2.236  0.00  0.00     0.003 A 
ATOM      6  C4  PXY d   1       3.831   5.984   2.606  0.00  0.00    -0.082 A 
ATOM      7  C5  PXY d   1       4.154   5.994   3.916  0.00  0.00     0.003 A 
ATOM      8  C6  PXY d   1       3.136   5.985   4.866  0.00  0.00     0.003 A 
ENDROOT
TORSDOF 0
ENDMDL
