MODEL 1
REMARK minimizedAffinity -0.174104884
REMARK minimizedRMSD -1
REMARK  0 active torsions:
REMARK  status: ('A' for Active; 'I' for Inactive)
ROOT
ATOM      1  C4' PXY d   1      -2.997  -3.345   4.149  0.00  0.00     0.077 C 
ATOM      2  C1' PXY d   1      -1.437   0.754   0.383  0.00  0.00     0.077 C 
ATOM      3  C1  PXY d   1      -1.834  -0.326   1.370  0.00  0.00    -0.082 A 
ATOM      4  C2  PXY d   1      -3.111  -0.646   1.512  0.00  0.00     0.003 A 
ATOM      5  C3  PXY d   1      -3.490  -1.598   2.422  0.00  0.00     0.003 A 
ATOM      6  C4  PXY d   1      -2.549  -2.267   3.158  0.00  0.00    -0.082 A 
ATOM      7  C5  PXY d   1      -1.244  -1.955   3.012  0.00  0.00     0.003 A 
ATOM      8  C6  PXY d   1      -0.883  -0.956   2.111  0.00  0.00     0.003 A 
ENDROOT
TORSDOF 0
ENDMDL
