MODEL 1
REMARK minimizedAffinity 7.0341177
REMARK minimizedRMSD -1
REMARK  0 active torsions:
REMARK  status: ('A' for Active; 'I' for Inactive)
ROOT
ATOM      1  C4' PXY d   1       2.950   1.339  -1.159  0.00  0.00     0.077 C 
ATOM      2  C1' PXY d   1      -1.835  -0.430   1.560  0.00  0.00     0.077 C 
ATOM      3  C1  PXY d   1      -0.575   0.022   0.848  0.00  0.00    -0.082 A 
ATOM      4  C2  PXY d   1      -0.261   1.307   0.827  0.00  0.00     0.003 A 
ATOM      5  C3  PXY d   1       0.858   1.737   0.160  0.00  0.00     0.003 A 
ATOM      6  C4  PXY d   1       1.692   0.836  -0.445  0.00  0.00    -0.082 A 
ATOM      7  C5  PXY d   1       1.385  -0.478  -0.418  0.00  0.00     0.003 A 
ATOM      8  C6  PXY d   1       0.223  -0.889   0.228  0.00  0.00     0.003 A 
ENDROOT
TORSDOF 0
ENDMDL
