MODEL 1
REMARK minimizedAffinity 5.56503391
REMARK minimizedRMSD -1
REMARK  0 active torsions:
REMARK  status: ('A' for Active; 'I' for Inactive)
ROOT
ATOM      1  C4' PXY d   1       1.602  -1.357   0.009  0.00  0.00     0.077 C 
ATOM      2  C1' PXY d   1      -3.797  -0.185   1.711  0.00  0.00     0.077 C 
ATOM      3  C1  PXY d   1      -2.376  -0.490   1.276  0.00  0.00    -0.082 A 
ATOM      4  C2  PXY d   1      -2.053  -0.411  -0.004  0.00  0.00     0.003 A 
ATOM      5  C3  PXY d   1      -0.781  -0.714  -0.418  0.00  0.00     0.003 A 
ATOM      6  C4  PXY d   1       0.183  -1.050   0.494  0.00  0.00    -0.082 A 
ATOM      7  C5  PXY d   1      -0.137  -1.122   1.804  0.00  0.00     0.003 A 
ATOM      8  C6  PXY d   1      -1.443  -0.850   2.199  0.00  0.00     0.003 A 
ENDROOT
TORSDOF 0
ENDMDL
