MODEL 1
REMARK minimizedAffinity 0.659474194
REMARK minimizedRMSD -1
REMARK  0 active torsions:
REMARK  status: ('A' for Active; 'I' for Inactive)
ROOT
ATOM      1  C4' PXY d   1       2.504  -1.828   0.610  0.00  0.00     0.077 C 
ATOM      2  C1' PXY d   1      -2.853   0.028   1.741  0.00  0.00     0.077 C 
ATOM      3  C1  PXY d   1      -1.452  -0.462   1.432  0.00  0.00    -0.082 A 
ATOM      4  C2  PXY d   1      -0.655  -0.830   2.422  0.00  0.00     0.003 A 
ATOM      5  C3  PXY d   1       0.626  -1.245   2.163  0.00  0.00     0.003 A 
ATOM      6  C4  PXY d   1       1.078  -1.336   0.874  0.00  0.00    -0.082 A 
ATOM      7  C5  PXY d   1       0.267  -0.972  -0.142  0.00  0.00     0.003 A 
ATOM      8  C6  PXY d   1      -1.016  -0.514   0.144  0.00  0.00     0.003 A 
ENDROOT
TORSDOF 0
ENDMDL
