MODEL 1
REMARK minimizedAffinity -3.2129364
REMARK minimizedRMSD -1
REMARK  0 active torsions:
REMARK  status: ('A' for Active; 'I' for Inactive)
ROOT
ATOM      1  C   UNL d   1       2.444  -0.114   1.323  0.00  0.00     0.020 A 
ATOM      2  C1  UNL d   1       2.203  -0.543   0.018  0.00  0.00     0.020 A 
ATOM      3  C2  UNL d   1       0.901  -0.541  -0.488  0.00  0.00     0.034 A 
ATOM      4  C3  UNL d   1      -0.164  -0.110   0.310  0.00  0.00     0.017 A 
ATOM      5  C4  UNL d   1       0.079   0.320   1.620  0.00  0.00     0.017 A 
ATOM      6  C5  UNL d   1       1.384   0.316   2.122  0.00  0.00     0.034 A 
ATOM      7 Cl   UNL d   1      -1.185   0.866   2.665  0.00  0.00    -0.070 Cl
ATOM      8 Cl1  UNL d   1      -1.747  -0.134  -0.381  0.00  0.00    -0.070 Cl
ENDROOT
TORSDOF 0
ENDMDL
