MODEL 1
REMARK minimizedAffinity -1.99361658
REMARK minimizedRMSD -1
REMARK  0 active torsions:
REMARK  status: ('A' for Active; 'I' for Inactive)
ROOT
ATOM      1  C   UNL d   1       1.455   0.187  -1.213  0.00  0.00     0.020 A 
ATOM      2  C1  UNL d   1       1.834   0.666   0.040  0.00  0.00     0.020 A 
ATOM      3  C2  UNL d   1       0.893   0.751   1.068  0.00  0.00     0.034 A 
ATOM      4  C3  UNL d   1      -0.432   0.358   0.845  0.00  0.00     0.017 A 
ATOM      5  C4  UNL d   1      -0.811  -0.121  -0.414  0.00  0.00     0.017 A 
ATOM      6  C5  UNL d   1       0.135  -0.205  -1.440  0.00  0.00     0.034 A 
ATOM      7 Cl   UNL d   1      -2.427  -0.625  -0.766  0.00  0.00    -0.070 Cl
ATOM      8 Cl1  UNL d   1      -1.543   0.491   2.162  0.00  0.00    -0.070 Cl
ENDROOT
TORSDOF 0
ENDMDL
