MODEL 1
REMARK minimizedAffinity -3.41904712
REMARK minimizedRMSD -1
REMARK  0 active torsions:
REMARK  status: ('A' for Active; 'I' for Inactive)
ROOT
ATOM      1  C   UNL d   1      -1.657   1.311  -0.294  0.00  0.00     0.020 A 
ATOM      2  C1  UNL d   1      -0.317   1.014  -0.540  0.00  0.00     0.020 A 
ATOM      3  C2  UNL d   1       0.407   0.243   0.372  0.00  0.00     0.034 A 
ATOM      4  C3  UNL d   1      -0.209  -0.234   1.535  0.00  0.00     0.017 A 
ATOM      5  C4  UNL d   1      -1.554   0.064   1.781  0.00  0.00     0.017 A 
ATOM      6  C5  UNL d   1      -2.274   0.837   0.864  0.00  0.00     0.034 A 
ATOM      7 Cl   UNL d   1      -2.383  -0.489   3.194  0.00  0.00    -0.070 Cl
ATOM      8 Cl1  UNL d   1       0.746  -1.181   2.619  0.00  0.00    -0.070 Cl
ENDROOT
TORSDOF 0
ENDMDL
