MODEL 1
REMARK minimizedAffinity 0.838846147
REMARK minimizedRMSD -1
REMARK  0 active torsions:
REMARK  status: ('A' for Active; 'I' for Inactive)
ROOT
ATOM      1  C   UNL d   1      -2.287   0.256   0.030  0.00  0.00     0.020 A 
ATOM      2  C1  UNL d   1      -3.016   0.287   1.218  0.00  0.00     0.020 A 
ATOM      3  C2  UNL d   1      -2.390  -0.014   2.429  0.00  0.00     0.034 A 
ATOM      4  C3  UNL d   1      -1.031  -0.348   2.456  0.00  0.00     0.017 A 
ATOM      5  C4  UNL d   1      -0.300  -0.379   1.263  0.00  0.00     0.017 A 
ATOM      6  C5  UNL d   1      -0.932  -0.076   0.052  0.00  0.00     0.034 A 
ATOM      7 Cl   UNL d   1       1.380  -0.782   1.215  0.00  0.00    -0.070 Cl
ATOM      8 Cl1  UNL d   1      -0.322  -0.710   3.989  0.00  0.00    -0.070 Cl
ENDROOT
TORSDOF 0
ENDMDL
