MODEL 1
REMARK minimizedAffinity -4.11090708
REMARK minimizedRMSD -1
REMARK  0 active torsions:
REMARK  status: ('A' for Active; 'I' for Inactive)
ROOT
ATOM      1  C   UNL d   1      -0.702  -0.304   3.770  0.00  0.00     0.020 A 
ATOM      2  C1  UNL d   1      -1.789   0.028   2.962  0.00  0.00     0.020 A 
ATOM      3  C2  UNL d   1      -1.619   0.161   1.583  0.00  0.00     0.034 A 
ATOM      4  C3  UNL d   1      -0.359  -0.037   1.007  0.00  0.00     0.017 A 
ATOM      5  C4  UNL d   1       0.732  -0.370   1.819  0.00  0.00     0.017 A 
ATOM      6  C5  UNL d   1       0.555  -0.502   3.199  0.00  0.00     0.034 A 
ATOM      7 Cl   UNL d   1       2.317  -0.629   1.181  0.00  0.00    -0.070 Cl
ATOM      8 Cl1  UNL d   1      -0.220   0.145  -0.706  0.00  0.00    -0.070 Cl
ENDROOT
TORSDOF 0
ENDMDL
