MODEL 1
REMARK minimizedAffinity 3.96169233
REMARK minimizedRMSD -1
REMARK  0 active torsions:
REMARK  status: ('A' for Active; 'I' for Inactive)
ROOT
ATOM      1  C   UNL d   1      -1.427   0.058  -0.782  0.00  0.00     0.020 A 
ATOM      2  C1  UNL d   1      -1.364  -0.940   0.189  0.00  0.00     0.020 A 
ATOM      3  C2  UNL d   1      -0.129  -1.326   0.714  0.00  0.00     0.034 A 
ATOM      4  C3  UNL d   1       1.048  -0.713   0.268  0.00  0.00     0.017 A 
ATOM      5  C4  UNL d   1       0.984   0.289  -0.706  0.00  0.00     0.017 A 
ATOM      6  C5  UNL d   1      -0.256   0.671  -1.229  0.00  0.00     0.034 A 
ATOM      7 Cl   UNL d   1       2.393   1.091  -1.306  0.00  0.00    -0.070 Cl
ATOM      8 Cl1  UNL d   1       2.541  -1.240   0.962  0.00  0.00    -0.070 Cl
ENDROOT
TORSDOF 0
ENDMDL
