MODEL 1
REMARK minimizedAffinity -0.319764435
REMARK minimizedRMSD -1
REMARK  0 active torsions:
REMARK  status: ('A' for Active; 'I' for Inactive)
ROOT
ATOM      1  C   UNL d   1       2.238  -0.669  -0.199  0.00  0.00     0.020 A 
ATOM      2  C1  UNL d   1       2.504  -0.627   1.169  0.00  0.00     0.020 A 
ATOM      3  C2  UNL d   1       1.454  -0.494   2.081  0.00  0.00     0.034 A 
ATOM      4  C3  UNL d   1       0.134  -0.402   1.626  0.00  0.00     0.017 A 
ATOM      5  C4  UNL d   1      -0.132  -0.445   0.252  0.00  0.00     0.017 A 
ATOM      6  C5  UNL d   1       0.922  -0.578  -0.656  0.00  0.00     0.034 A 
ATOM      7 Cl   UNL d   1      -1.735  -0.338  -0.385  0.00  0.00    -0.070 Cl
ATOM      8 Cl1  UNL d   1      -1.115  -0.240   2.809  0.00  0.00    -0.070 Cl
ENDROOT
TORSDOF 0
ENDMDL
