MODEL 1
REMARK minimizedAffinity 2.75753474
REMARK minimizedRMSD -1
REMARK  0 active torsions:
REMARK  status: ('A' for Active; 'I' for Inactive)
ROOT
ATOM      1  C   UNL d   1       4.482   0.438  -3.412  0.00  0.00     0.020 A 
ATOM      2  C1  UNL d   1       3.265   1.091  -3.221  0.00  0.00     0.020 A 
ATOM      3  C2  UNL d   1       2.781   1.303  -1.928  0.00  0.00     0.034 A 
ATOM      4  C3  UNL d   1       3.516   0.862  -0.821  0.00  0.00     0.017 A 
ATOM      5  C4  UNL d   1       4.737   0.207  -1.013  0.00  0.00     0.017 A 
ATOM      6  C5  UNL d   1       5.217  -0.003  -2.310  0.00  0.00     0.034 A 
ATOM      7 Cl   UNL d   1       5.700  -0.366   0.303  0.00  0.00    -0.070 Cl
ATOM      8 Cl1  UNL d   1       2.858   1.158   0.749  0.00  0.00    -0.070 Cl
ENDROOT
TORSDOF 0
ENDMDL
