MODEL 1
REMARK minimizedAffinity 2.41438389
REMARK minimizedRMSD -1
REMARK  0 active torsions:
REMARK  status: ('A' for Active; 'I' for Inactive)
ROOT
ATOM      1  C   UNL d   1       4.747   1.761  -0.696  0.00  0.00     0.020 A 
ATOM      2  C1  UNL d   1       4.673   2.201  -2.017  0.00  0.00     0.020 A 
ATOM      3  C2  UNL d   1       3.588   1.835  -2.815  0.00  0.00     0.034 A 
ATOM      4  C3  UNL d   1       2.572   1.026  -2.294  0.00  0.00     0.017 A 
ATOM      5  C4  UNL d   1       2.646   0.585  -0.968  0.00  0.00     0.017 A 
ATOM      6  C5  UNL d   1       3.736   0.955  -0.173  0.00  0.00     0.034 A 
ATOM      7 Cl   UNL d   1       1.431  -0.415  -0.254  0.00  0.00    -0.070 Cl
ATOM      8 Cl1  UNL d   1       1.259   0.612  -3.338  0.00  0.00    -0.070 Cl
ENDROOT
TORSDOF 0
ENDMDL
