MODEL 1
REMARK minimizedAffinity 0.11365965
REMARK minimizedRMSD -1
REMARK  0 active torsions:
REMARK  status: ('A' for Active; 'I' for Inactive)
ROOT
ATOM      1  C   UNL d   1      -2.958  -0.038   1.497  0.00  0.00     0.020 A 
ATOM      2  C1  UNL d   1      -2.417  -0.137   0.216  0.00  0.00     0.020 A 
ATOM      3  C2  UNL d   1      -1.041  -0.314   0.051  0.00  0.00     0.034 A 
ATOM      4  C3  UNL d   1      -0.203  -0.392   1.169  0.00  0.00     0.017 A 
ATOM      5  C4  UNL d   1      -0.747  -0.293   2.454  0.00  0.00     0.017 A 
ATOM      6  C5  UNL d   1      -2.125  -0.116   2.614  0.00  0.00     0.034 A 
ATOM      7 Cl   UNL d   1       0.224  -0.381   3.881  0.00  0.00    -0.070 Cl
ATOM      8 Cl1  UNL d   1       1.488  -0.612   0.890  0.00  0.00    -0.070 Cl
ENDROOT
TORSDOF 0
ENDMDL
