MODEL 1
REMARK minimizedAffinity -2.4378407
REMARK minimizedRMSD -1
REMARK  0 active torsions:
REMARK  status: ('A' for Active; 'I' for Inactive)
ROOT
ATOM      1  C   UNL d   1       1.046  -1.358  -0.920  0.00  0.00     0.020 A 
ATOM      2  C1  UNL d   1       1.645  -0.997   0.286  0.00  0.00     0.020 A 
ATOM      3  C2  UNL d   1       0.865  -0.497   1.331  0.00  0.00     0.034 A 
ATOM      4  C3  UNL d   1      -0.519  -0.356   1.171  0.00  0.00     0.017 A 
ATOM      5  C4  UNL d   1      -1.119  -0.719  -0.040  0.00  0.00     0.017 A 
ATOM      6  C5  UNL d   1      -0.333  -1.220  -1.083  0.00  0.00     0.034 A 
ATOM      7 Cl   UNL d   1      -2.820  -0.575  -0.311  0.00  0.00    -0.070 Cl
ATOM      8 Cl1  UNL d   1      -1.422   0.269   2.505  0.00  0.00    -0.070 Cl
ENDROOT
TORSDOF 0
ENDMDL
