MODEL 1
REMARK minimizedAffinity -2.53466415
REMARK minimizedRMSD -1
REMARK  0 active torsions:
REMARK  status: ('A' for Active; 'I' for Inactive)
ROOT
ATOM      1  C   UNL d   1       0.771   0.149   4.064  0.00  0.00     0.020 A 
ATOM      2  C1  UNL d   1       0.498   1.167   3.151  0.00  0.00     0.020 A 
ATOM      3  C2  UNL d   1      -0.587   1.051   2.280  0.00  0.00     0.034 A 
ATOM      4  C3  UNL d   1      -1.402  -0.086   2.319  0.00  0.00     0.017 A 
ATOM      5  C4  UNL d   1      -1.127  -1.107   3.235  0.00  0.00     0.017 A 
ATOM      6  C5  UNL d   1      -0.040  -0.986   4.106  0.00  0.00     0.034 A 
ATOM      7 Cl   UNL d   1      -2.088  -2.540   3.343  0.00  0.00    -0.070 Cl
ATOM      8 Cl1  UNL d   1      -2.727  -0.162   1.212  0.00  0.00    -0.070 Cl
ENDROOT
TORSDOF 0
ENDMDL
