MODEL 1
REMARK minimizedAffinity -2.6676023
REMARK minimizedRMSD -1
REMARK  0 active torsions:
REMARK  status: ('A' for Active; 'I' for Inactive)
ROOT
ATOM      1  C   UNL d   1      -1.097   0.225   2.072  0.00  0.00     0.020 A 
ATOM      2  C1  UNL d   1       0.227   0.217   1.634  0.00  0.00     0.020 A 
ATOM      3  C2  UNL d   1       1.209  -0.426   2.390  0.00  0.00     0.034 A 
ATOM      4  C3  UNL d   1       0.869  -1.065   3.588  0.00  0.00     0.017 A 
ATOM      5  C4  UNL d   1      -0.460  -1.057   4.027  0.00  0.00     0.017 A 
ATOM      6  C5  UNL d   1      -1.440  -0.411   3.266  0.00  0.00     0.034 A 
ATOM      7 Cl   UNL d   1      -0.956  -1.824   5.494  0.00  0.00    -0.070 Cl
ATOM      8 Cl1  UNL d   1       2.134  -1.842   4.471  0.00  0.00    -0.070 Cl
ENDROOT
TORSDOF 0
ENDMDL
