MODEL 1
REMARK minimizedAffinity -2.65462065
REMARK minimizedRMSD -1
REMARK  0 active torsions:
REMARK  status: ('A' for Active; 'I' for Inactive)
ROOT
ATOM      1  C   UNL d   1       0.754  -1.227  -0.167  0.00  0.00     0.020 A 
ATOM      2  C1  UNL d   1       0.984  -0.743   1.120  0.00  0.00     0.020 A 
ATOM      3  C2  UNL d   1      -0.085  -0.296   1.900  0.00  0.00     0.034 A 
ATOM      4  C3  UNL d   1      -1.389  -0.332   1.393  0.00  0.00     0.017 A 
ATOM      5  C4  UNL d   1      -1.619  -0.818   0.101  0.00  0.00     0.017 A 
ATOM      6  C5  UNL d   1      -0.545  -1.264  -0.675  0.00  0.00     0.034 A 
ATOM      7 Cl   UNL d   1      -3.200  -0.894  -0.593  0.00  0.00    -0.070 Cl
ATOM      8 Cl1  UNL d   1      -2.663   0.237   2.412  0.00  0.00    -0.070 Cl
ENDROOT
TORSDOF 0
ENDMDL
