MODEL 1
REMARK minimizedAffinity 7.36578465
REMARK minimizedRMSD -1
REMARK  0 active torsions:
REMARK  status: ('A' for Active; 'I' for Inactive)
ROOT
ATOM      1  C   UNL d   1       1.426   0.907   2.630  0.00  0.00     0.020 A 
ATOM      2  C1  UNL d   1       0.079   0.564   2.523  0.00  0.00     0.020 A 
ATOM      3  C2  UNL d   1      -0.419   0.057   1.321  0.00  0.00     0.034 A 
ATOM      4  C3  UNL d   1       0.430  -0.109   0.222  0.00  0.00     0.017 A 
ATOM      5  C4  UNL d   1       1.782   0.236   0.330  0.00  0.00     0.017 A 
ATOM      6  C5  UNL d   1       2.276   0.743   1.536  0.00  0.00     0.034 A 
ATOM      7 Cl   UNL d   1       2.892   0.059  -0.984  0.00  0.00    -0.070 Cl
ATOM      8 Cl1  UNL d   1      -0.254  -0.742  -1.233  0.00  0.00    -0.070 Cl
ENDROOT
TORSDOF 0
ENDMDL
