MODEL 1
REMARK minimizedAffinity 9.60736847
REMARK minimizedRMSD -1
REMARK  0 active torsions:
REMARK  status: ('A' for Active; 'I' for Inactive)
ROOT
ATOM      1  C   UNL d   1       1.828   0.002   0.896  0.00  0.00     0.020 A 
ATOM      2  C1  UNL d   1       0.964   0.700   1.739  0.00  0.00     0.020 A 
ATOM      3  C2  UNL d   1      -0.406   0.727   1.467  0.00  0.00     0.034 A 
ATOM      4  C3  UNL d   1      -0.915   0.053   0.351  0.00  0.00     0.017 A 
ATOM      5  C4  UNL d   1      -0.047  -0.648  -0.494  0.00  0.00     0.017 A 
ATOM      6  C5  UNL d   1       1.323  -0.671  -0.217  0.00  0.00     0.034 A 
ATOM      7 Cl   UNL d   1      -0.602  -1.503  -1.890  0.00  0.00    -0.070 Cl
ATOM      8 Cl1  UNL d   1      -2.620   0.128   0.077  0.00  0.00    -0.070 Cl
ENDROOT
TORSDOF 0
ENDMDL
