MODEL 1
REMARK minimizedAffinity -2.3842721
REMARK minimizedRMSD -1
REMARK  0 active torsions:
REMARK  status: ('A' for Active; 'I' for Inactive)
ROOT
ATOM      1  C   UNL d   1       0.964  -2.295  -1.458  0.00  0.00     0.020 A 
ATOM      2  C1  UNL d   1       0.003  -2.972  -0.709  0.00  0.00     0.020 A 
ATOM      3  C2  UNL d   1      -0.762  -2.281   0.234  0.00  0.00     0.034 A 
ATOM      4  C3  UNL d   1      -0.566  -0.909   0.429  0.00  0.00     0.017 A 
ATOM      5  C4  UNL d   1       0.399  -0.230  -0.324  0.00  0.00     0.017 A 
ATOM      6  C5  UNL d   1       1.162  -0.927  -1.266  0.00  0.00     0.034 A 
ATOM      7 Cl   UNL d   1       0.698   1.462  -0.140  0.00  0.00    -0.070 Cl
ATOM      8 Cl1  UNL d   1      -1.547  -0.117   1.610  0.00  0.00    -0.070 Cl
ENDROOT
TORSDOF 0
ENDMDL
