MODEL 1
REMARK minimizedAffinity 4.23102427
REMARK minimizedRMSD -1
REMARK  0 active torsions:
REMARK  status: ('A' for Active; 'I' for Inactive)
ROOT
ATOM      1  C   UNL d   1      -1.622  -4.656  -4.036  0.00  0.00     0.020 A 
ATOM      2  C1  UNL d   1      -0.594  -3.714  -4.058  0.00  0.00     0.020 A 
ATOM      3  C2  UNL d   1      -0.574  -2.681  -3.118  0.00  0.00     0.034 A 
ATOM      4  C3  UNL d   1      -1.583  -2.588  -2.152  0.00  0.00     0.017 A 
ATOM      5  C4  UNL d   1      -2.614  -3.534  -2.132  0.00  0.00     0.017 A 
ATOM      6  C5  UNL d   1      -2.630  -4.566  -3.075  0.00  0.00     0.034 A 
ATOM      7 Cl   UNL d   1      -3.894  -3.485  -0.971  0.00  0.00    -0.070 Cl
ATOM      8 Cl1  UNL d   1      -1.495  -1.286  -1.021  0.00  0.00    -0.070 Cl
ENDROOT
TORSDOF 0
ENDMDL
