MODEL 1
REMARK minimizedAffinity -4.71484661
REMARK minimizedRMSD -1
REMARK  0 active torsions:
REMARK  status: ('A' for Active; 'I' for Inactive)
ROOT
ATOM      1  C   UNL d   1       0.575  -3.399  -1.689  0.00  0.00     0.020 A 
ATOM      2  C1  UNL d   1      -0.161  -3.778  -0.567  0.00  0.00     0.020 A 
ATOM      3  C2  UNL d   1      -0.624  -2.807   0.323  0.00  0.00     0.034 A 
ATOM      4  C3  UNL d   1      -0.352  -1.454   0.094  0.00  0.00     0.017 A 
ATOM      5  C4  UNL d   1       0.387  -1.075  -1.032  0.00  0.00     0.017 A 
ATOM      6  C5  UNL d   1       0.849  -2.050  -1.921  0.00  0.00     0.034 A 
ATOM      7 Cl   UNL d   1       0.762   0.576  -1.382  0.00  0.00    -0.070 Cl
ATOM      8 Cl1  UNL d   1      -0.957  -0.308   1.237  0.00  0.00    -0.070 Cl
ENDROOT
TORSDOF 0
ENDMDL
