MODEL 1
REMARK minimizedAffinity 1.09430397
REMARK minimizedRMSD -1
REMARK  0 active torsions:
REMARK  status: ('A' for Active; 'I' for Inactive)
ROOT
ATOM      1  C   UNL d   1      -0.806  -0.835   1.793  0.00  0.00     0.020 A 
ATOM      2  C1  UNL d   1      -0.988  -1.697   0.712  0.00  0.00     0.020 A 
ATOM      3  C2  UNL d   1      -0.663  -1.276  -0.579  0.00  0.00     0.034 A 
ATOM      4  C3  UNL d   1      -0.154   0.011  -0.792  0.00  0.00     0.017 A 
ATOM      5  C4  UNL d   1       0.029   0.875   0.293  0.00  0.00     0.017 A 
ATOM      6  C5  UNL d   1      -0.299   0.448   1.584  0.00  0.00     0.034 A 
ATOM      7 Cl   UNL d   1       0.652   2.476   0.109  0.00  0.00    -0.070 Cl
ATOM      8 Cl1  UNL d   1       0.228   0.464  -2.415  0.00  0.00    -0.070 Cl
ENDROOT
TORSDOF 0
ENDMDL
