MODEL 1
REMARK minimizedAffinity -5.49952364
REMARK minimizedRMSD -1
REMARK  0 active torsions:
REMARK  status: ('A' for Active; 'I' for Inactive)
ROOT
ATOM      1  C   UNL d   1      -0.386  -3.487  -0.115  0.00  0.00     0.020 A 
ATOM      2  C1  UNL d   1       0.508  -3.084  -1.106  0.00  0.00     0.020 A 
ATOM      3  C2  UNL d   1       0.830  -1.733  -1.247  0.00  0.00     0.034 A 
ATOM      4  C3  UNL d   1       0.259  -0.780  -0.397  0.00  0.00     0.017 A 
ATOM      5  C4  UNL d   1      -0.639  -1.186   0.598  0.00  0.00     0.017 A 
ATOM      6  C5  UNL d   1      -0.958  -2.540   0.735  0.00  0.00     0.034 A 
ATOM      7 Cl   UNL d   1      -1.385  -0.068   1.685  0.00  0.00    -0.070 Cl
ATOM      8 Cl1  UNL d   1       0.703   0.874  -0.628  0.00  0.00    -0.070 Cl
ENDROOT
TORSDOF 0
ENDMDL
