MODEL 1
REMARK minimizedAffinity -5.87567377
REMARK minimizedRMSD -1
REMARK  0 active torsions:
REMARK  status: ('A' for Active; 'I' for Inactive)
ROOT
ATOM      1  C   UNL d   1       0.448  -2.173  -2.279  0.00  0.00     0.020 A 
ATOM      2  C1  UNL d   1      -0.007  -3.122  -1.364  0.00  0.00     0.020 A 
ATOM      3  C2  UNL d   1      -0.418  -2.723  -0.091  0.00  0.00     0.034 A 
ATOM      4  C3  UNL d   1      -0.376  -1.372   0.272  0.00  0.00     0.017 A 
ATOM      5  C4  UNL d   1       0.080  -0.420  -0.647  0.00  0.00     0.017 A 
ATOM      6  C5  UNL d   1       0.492  -0.825  -1.921  0.00  0.00     0.034 A 
ATOM      7 Cl   UNL d   1       0.161   1.265  -0.272  0.00  0.00    -0.070 Cl
ATOM      8 Cl1  UNL d   1      -0.901  -0.951   1.863  0.00  0.00    -0.070 Cl
ENDROOT
TORSDOF 0
ENDMDL
