MODEL 1
REMARK minimizedAffinity -4.56418991
REMARK minimizedRMSD -1
REMARK  0 active torsions:
REMARK  status: ('A' for Active; 'I' for Inactive)
ROOT
ATOM      1  C   UNL d   1      -0.531  -2.615   1.304  0.00  0.00     0.020 A 
ATOM      2  C1  UNL d   1      -0.346  -3.390   0.160  0.00  0.00     0.020 A 
ATOM      3  C2  UNL d   1      -0.120  -2.774  -1.072  0.00  0.00     0.034 A 
ATOM      4  C3  UNL d   1      -0.079  -1.378  -1.163  0.00  0.00     0.017 A 
ATOM      5  C4  UNL d   1      -0.264  -0.600  -0.015  0.00  0.00     0.017 A 
ATOM      6  C5  UNL d   1      -0.490  -1.223   1.217  0.00  0.00     0.034 A 
ATOM      7 Cl   UNL d   1      -0.227   1.127  -0.049  0.00  0.00    -0.070 Cl
ATOM      8 Cl1  UNL d   1       0.205  -0.683  -2.720  0.00  0.00    -0.070 Cl
ENDROOT
TORSDOF 0
ENDMDL
