MODEL 1
REMARK minimizedAffinity -0.0515763201
REMARK minimizedRMSD -1
REMARK  0 active torsions:
REMARK  status: ('A' for Active; 'I' for Inactive)
ROOT
ATOM      1  C   UNL d   1      -0.907  -0.014   1.119  0.00  0.00     0.020 A 
ATOM      2  C1  UNL d   1      -0.306   0.985   0.353  0.00  0.00     0.020 A 
ATOM      3  C2  UNL d   1       0.186   0.688  -0.919  0.00  0.00     0.034 A 
ATOM      4  C3  UNL d   1       0.079  -0.610  -1.431  0.00  0.00     0.017 A 
ATOM      5  C4  UNL d   1      -0.525  -1.612  -0.661  0.00  0.00     0.017 A 
ATOM      6  C5  UNL d   1      -1.016  -1.309   0.612  0.00  0.00     0.034 A 
ATOM      7 Cl   UNL d   1      -0.694  -3.237  -1.224  0.00  0.00    -0.070 Cl
ATOM      8 Cl1  UNL d   1       0.709  -0.906  -3.012  0.00  0.00    -0.070 Cl
ENDROOT
TORSDOF 0
ENDMDL
