MODEL 1
REMARK minimizedAffinity -4.91326046
REMARK minimizedRMSD -1
REMARK  0 active torsions:
REMARK  status: ('A' for Active; 'I' for Inactive)
ROOT
ATOM      1  C   UNL d   1       0.415  -2.743  -2.305  0.00  0.00     0.020 A 
ATOM      2  C1  UNL d   1       0.183  -3.513  -1.166  0.00  0.00     0.020 A 
ATOM      3  C2  UNL d   1      -0.237  -2.900   0.017  0.00  0.00     0.034 A 
ATOM      4  C3  UNL d   1      -0.427  -1.514   0.063  0.00  0.00     0.017 A 
ATOM      5  C4  UNL d   1      -0.194  -0.743  -1.080  0.00  0.00     0.017 A 
ATOM      6  C5  UNL d   1       0.227  -1.361  -2.262  0.00  0.00     0.034 A 
ATOM      7 Cl   UNL d   1      -0.406   0.973  -1.100  0.00  0.00    -0.070 Cl
ATOM      8 Cl1  UNL d   1      -0.948  -0.824   1.559  0.00  0.00    -0.070 Cl
ENDROOT
TORSDOF 0
ENDMDL
