MODEL 1
REMARK minimizedAffinity -0.359449714
REMARK minimizedRMSD -1
REMARK  0 active torsions:
REMARK  status: ('A' for Active; 'I' for Inactive)
ROOT
ATOM      1  C   UNL d   1       0.542   0.254  -2.026  0.00  0.00     0.020 A 
ATOM      2  C1  UNL d   1       0.530   1.219  -1.020  0.00  0.00     0.020 A 
ATOM      3  C2  UNL d   1      -0.140   0.969   0.179  0.00  0.00     0.034 A 
ATOM      4  C3  UNL d   1      -0.801  -0.249   0.376  0.00  0.00     0.017 A 
ATOM      5  C4  UNL d   1      -0.788  -1.217  -0.635  0.00  0.00     0.017 A 
ATOM      6  C5  UNL d   1      -0.115  -0.961  -1.834  0.00  0.00     0.034 A 
ATOM      7 Cl   UNL d   1      -1.580  -2.744  -0.467  0.00  0.00    -0.070 Cl
ATOM      8 Cl1  UNL d   1      -1.609  -0.492   1.883  0.00  0.00    -0.070 Cl
ENDROOT
TORSDOF 0
ENDMDL
