MODEL 1
REMARK minimizedAffinity -4.61489582
REMARK minimizedRMSD -1
REMARK  0 active torsions:
REMARK  status: ('A' for Active; 'I' for Inactive)
ROOT
ATOM      1  C   UNL d   1       0.306  -3.404  -1.323  0.00  0.00     0.020 A 
ATOM      2  C1  UNL d   1      -0.220  -3.768  -0.084  0.00  0.00     0.020 A 
ATOM      3  C2  UNL d   1      -0.711  -2.788   0.781  0.00  0.00     0.034 A 
ATOM      4  C3  UNL d   1      -0.677  -1.440   0.409  0.00  0.00     0.017 A 
ATOM      5  C4  UNL d   1      -0.150  -1.075  -0.835  0.00  0.00     0.017 A 
ATOM      6  C5  UNL d   1       0.341  -2.060  -1.698  0.00  0.00     0.034 A 
ATOM      7 Cl   UNL d   1      -0.074   0.569  -1.364  0.00  0.00    -0.070 Cl
ATOM      8 Cl1  UNL d   1      -1.302  -0.281   1.529  0.00  0.00    -0.070 Cl
ENDROOT
TORSDOF 0
ENDMDL
