MODEL 1
REMARK minimizedAffinity -5.28097582
REMARK minimizedRMSD -1
REMARK  0 active torsions:
REMARK  status: ('A' for Active; 'I' for Inactive)
ROOT
ATOM      1  C   UNL d   1      -0.397   1.077  -0.381  0.00  0.00     0.020 A 
ATOM      2  C1  UNL d   1      -0.683   0.281   0.727  0.00  0.00     0.020 A 
ATOM      3  C2  UNL d   1      -0.428  -1.091   0.686  0.00  0.00     0.034 A 
ATOM      4  C3  UNL d   1       0.115  -1.672  -0.466  0.00  0.00     0.017 A 
ATOM      5  C4  UNL d   1       0.402  -0.873  -1.578  0.00  0.00     0.017 A 
ATOM      6  C5  UNL d   1       0.145   0.501  -1.531  0.00  0.00     0.034 A 
ATOM      7 Cl   UNL d   1       1.072  -1.517  -3.035  0.00  0.00    -0.070 Cl
ATOM      8 Cl1  UNL d   1       0.405  -3.375  -0.446  0.00  0.00    -0.070 Cl
ENDROOT
TORSDOF 0
ENDMDL
