MODEL 1
REMARK minimizedAffinity -3.99198723
REMARK minimizedRMSD -1
REMARK  0 active torsions:
REMARK  status: ('A' for Active; 'I' for Inactive)
ROOT
ATOM      1  C   UNL d   1       0.864  -3.188  -1.893  0.00  0.00     0.020 A 
ATOM      2  C1  UNL d   1       0.510  -3.903  -0.750  0.00  0.00     0.020 A 
ATOM      3  C2  UNL d   1      -0.121  -3.253   0.313  0.00  0.00     0.034 A 
ATOM      4  C3  UNL d   1      -0.400  -1.884   0.235  0.00  0.00     0.017 A 
ATOM      5  C4  UNL d   1      -0.045  -1.167  -0.914  0.00  0.00     0.017 A 
ATOM      6  C5  UNL d   1       0.587  -1.823  -1.975  0.00  0.00     0.034 A 
ATOM      7 Cl   UNL d   1      -0.357   0.525  -1.084  0.00  0.00    -0.070 Cl
ATOM      8 Cl1  UNL d   1      -1.182  -1.145   1.586  0.00  0.00    -0.070 Cl
ENDROOT
TORSDOF 0
ENDMDL
