MODEL 1
REMARK minimizedAffinity -3.79366469
REMARK minimizedRMSD -1
REMARK  0 active torsions:
REMARK  status: ('A' for Active; 'I' for Inactive)
ROOT
ATOM      1  C   UNL d   1       0.421   0.705   0.995  0.00  0.00     0.020 A 
ATOM      2  C1  UNL d   1       0.274   1.424  -0.192  0.00  0.00     0.020 A 
ATOM      3  C2  UNL d   1       0.128   0.747  -1.404  0.00  0.00     0.034 A 
ATOM      4  C3  UNL d   1       0.127  -0.653  -1.433  0.00  0.00     0.017 A 
ATOM      5  C4  UNL d   1       0.274  -1.373  -0.242  0.00  0.00     0.017 A 
ATOM      6  C5  UNL d   1       0.421  -0.690   0.969  0.00  0.00     0.034 A 
ATOM      7 Cl   UNL d   1       0.283  -3.101  -0.199  0.00  0.00    -0.070 Cl
ATOM      8 Cl1  UNL d   1      -0.059  -1.424  -2.968  0.00  0.00    -0.070 Cl
ENDROOT
TORSDOF 0
ENDMDL
