MODEL 1
REMARK minimizedAffinity -3.36167765
REMARK minimizedRMSD -1
REMARK  0 active torsions:
REMARK  status: ('A' for Active; 'I' for Inactive)
ROOT
ATOM      1  C   UNL d   1      -0.246   0.345   0.454  0.00  0.00     0.020 A 
ATOM      2  C1  UNL d   1       0.261   0.735  -0.785  0.00  0.00     0.020 A 
ATOM      3  C2  UNL d   1       0.566  -0.229  -1.748  0.00  0.00     0.034 A 
ATOM      4  C3  UNL d   1       0.366  -1.586  -1.475  0.00  0.00     0.017 A 
ATOM      5  C4  UNL d   1      -0.143  -1.977  -0.231  0.00  0.00     0.017 A 
ATOM      6  C5  UNL d   1      -0.448  -1.008   0.730  0.00  0.00     0.034 A 
ATOM      7 Cl   UNL d   1      -0.418  -3.633   0.180  0.00  0.00    -0.070 Cl
ATOM      8 Cl1  UNL d   1       0.765  -2.723  -2.713  0.00  0.00    -0.070 Cl
ENDROOT
TORSDOF 0
ENDMDL
