MODEL 1
REMARK minimizedAffinity -4.70560789
REMARK minimizedRMSD -1
REMARK  0 active torsions:
REMARK  status: ('A' for Active; 'I' for Inactive)
ROOT
ATOM      1  C   UNL d   1      -0.458  -3.340  -0.950  0.00  0.00     0.020 A 
ATOM      2  C1  UNL d   1       0.142  -2.788  -2.081  0.00  0.00     0.020 A 
ATOM      3  C2  UNL d   1       0.445  -1.425  -2.115  0.00  0.00     0.034 A 
ATOM      4  C3  UNL d   1       0.147  -0.610  -1.016  0.00  0.00     0.017 A 
ATOM      5  C4  UNL d   1      -0.455  -1.166   0.118  0.00  0.00     0.017 A 
ATOM      6  C5  UNL d   1      -0.756  -2.531   0.147  0.00  0.00     0.034 A 
ATOM      7 Cl   UNL d   1      -0.852  -0.224   1.512  0.00  0.00    -0.070 Cl
ATOM      8 Cl1  UNL d   1       0.550   1.067  -1.127  0.00  0.00    -0.070 Cl
ENDROOT
TORSDOF 0
ENDMDL
