MODEL 1
REMARK minimizedAffinity -2.60298681
REMARK minimizedRMSD -1
REMARK  0 active torsions:
REMARK  status: ('A' for Active; 'I' for Inactive)
ROOT
ATOM      1  C   UNL d   1       0.726  -2.841  -1.519  0.00  0.00     0.020 A 
ATOM      2  C1  UNL d   1      -0.177  -3.380  -0.603  0.00  0.00     0.020 A 
ATOM      3  C2  UNL d   1      -0.799  -2.552   0.334  0.00  0.00     0.034 A 
ATOM      4  C3  UNL d   1      -0.519  -1.181   0.358  0.00  0.00     0.017 A 
ATOM      5  C4  UNL d   1       0.388  -0.641  -0.561  0.00  0.00     0.017 A 
ATOM      6  C5  UNL d   1       1.008  -1.474  -1.497  0.00  0.00     0.034 A 
ATOM      7 Cl   UNL d   1       0.785   1.041  -0.592  0.00  0.00    -0.070 Cl
ATOM      8 Cl1  UNL d   1      -1.324  -0.217   1.544  0.00  0.00    -0.070 Cl
ENDROOT
TORSDOF 0
ENDMDL
