MODEL 1
REMARK minimizedAffinity 9.5077486
REMARK minimizedRMSD -1
REMARK  0 active torsions:
REMARK  status: ('A' for Active; 'I' for Inactive)
ROOT
ATOM      1  N1  IND d   1      -6.000   2.623   1.257  0.00  0.00    -0.196 N 
ATOM      2  C2  IND d   1      -5.444   3.436   0.309  0.00  0.00     0.054 A 
ATOM      3  C3  IND d   1      -4.095   3.350   0.348  0.00  0.00    -0.031 A 
ATOM      4  C4  IND d   1      -2.593   1.863   1.818  0.00  0.00     0.051 A 
ATOM      5  C5  IND d   1      -2.641   0.979   2.859  0.00  0.00    -0.031 A 
ATOM      6  C6  IND d   1      -3.835   0.587   3.429  0.00  0.00     0.015 A 
ATOM      7  C7  IND d   1      -5.032   1.059   2.969  0.00  0.00    -0.016 A 
ATOM      8  C8  IND d   1      -4.987   1.963   1.917  0.00  0.00    -0.047 A 
ATOM      9  C9  IND d   1      -3.776   2.396   1.362  0.00  0.00    -0.096 A 
ATOM     10  HN1 IND d   1      -6.841   2.539   1.415  0.00  0.00     0.298 HD
ENDROOT
TORSDOF 0
ENDMDL
