MODEL 1
REMARK minimizedAffinity 5.99541473
REMARK minimizedRMSD -1
REMARK  0 active torsions:
REMARK  status: ('A' for Active; 'I' for Inactive)
ROOT
ATOM      1  N1  IND d   1       3.933  -2.637  -1.454  0.00  0.00    -0.196 N 
ATOM      2  C2  IND d   1       2.769  -2.429  -0.769  0.00  0.00     0.054 A 
ATOM      3  C3  IND d   1       2.485  -1.109  -0.713  0.00  0.00    -0.031 A 
ATOM      4  C4  IND d   1       3.737   0.880  -1.765  0.00  0.00     0.051 A 
ATOM      5  C5  IND d   1       4.875   1.193  -2.454  0.00  0.00    -0.031 A 
ATOM      6  C6  IND d   1       5.774   0.226  -2.856  0.00  0.00     0.015 A 
ATOM      7  C7  IND d   1       5.562  -1.097  -2.592  0.00  0.00    -0.016 A 
ATOM      8  C8  IND d   1       4.411  -1.419  -1.886  0.00  0.00    -0.047 A 
ATOM      9  C9  IND d   1       3.516  -0.438  -1.439  0.00  0.00    -0.096 A 
ATOM     10  HN1 IND d   1       4.305  -3.400  -1.592  0.00  0.00     0.298 HD
ENDROOT
TORSDOF 0
ENDMDL
