MODEL 1
REMARK minimizedAffinity 10.9730139
REMARK minimizedRMSD -1
REMARK  0 active torsions:
REMARK  status: ('A' for Active; 'I' for Inactive)
ROOT
ATOM      1  N1  IND d   1      -4.594  -1.430   1.148  0.00  0.00    -0.196 N 
ATOM      2  C2  IND d   1      -3.495  -2.195   1.423  0.00  0.00     0.054 A 
ATOM      3  C3  IND d   1      -2.473  -1.415   1.842  0.00  0.00    -0.031 A 
ATOM      4  C4  IND d   1      -2.414   1.126   2.248  0.00  0.00     0.051 A 
ATOM      5  C5  IND d   1      -3.167   2.258   2.102  0.00  0.00    -0.031 A 
ATOM      6  C6  IND d   1      -4.461   2.217   1.624  0.00  0.00     0.015 A 
ATOM      7  C7  IND d   1      -5.057   1.036   1.283  0.00  0.00    -0.016 A 
ATOM      8  C8  IND d   1      -4.293  -0.115   1.422  0.00  0.00    -0.047 A 
ATOM      9  C9  IND d   1      -2.965  -0.074   1.867  0.00  0.00    -0.096 A 
ATOM     10  HN1 IND d   1      -5.347  -1.722   0.852  0.00  0.00     0.298 HD
ENDROOT
TORSDOF 0
ENDMDL
