MODEL 1
REMARK minimizedAffinity 9.84497166
REMARK minimizedRMSD -1
REMARK  0 active torsions:
REMARK  status: ('A' for Active; 'I' for Inactive)
ROOT
ATOM      1  N1  IND d   1      -0.577   5.796  -0.879  0.00  0.00    -0.196 N 
ATOM      2  C2  IND d   1      -1.860   6.000  -0.451  0.00  0.00     0.054 A 
ATOM      3  C3  IND d   1      -2.718   5.227  -1.154  0.00  0.00    -0.031 A 
ATOM      4  C4  IND d   1      -2.226   3.479  -2.979  0.00  0.00     0.051 A 
ATOM      5  C5  IND d   1      -1.208   2.966  -3.732  0.00  0.00    -0.031 A 
ATOM      6  C6  IND d   1       0.099   3.376  -3.568  0.00  0.00     0.015 A 
ATOM      7  C7  IND d   1       0.440   4.311  -2.632  0.00  0.00    -0.016 A 
ATOM      8  C8  IND d   1      -0.592   4.840  -1.870  0.00  0.00    -0.047 A 
ATOM      9  C9  IND d   1      -1.926   4.458  -2.061  0.00  0.00    -0.096 A 
ATOM     10  HN1 IND d   1       0.121   6.198  -0.579  0.00  0.00     0.298 HD
ENDROOT
TORSDOF 0
ENDMDL
