MODEL 1
REMARK minimizedAffinity 4.23813057
REMARK minimizedRMSD -1
REMARK  0 active torsions:
REMARK  status: ('A' for Active; 'I' for Inactive)
ROOT
ATOM      1  N1  IND d   1      -0.372   5.259  -1.895  0.00  0.00    -0.196 N 
ATOM      2  C2  IND d   1      -1.377   5.318  -2.819  0.00  0.00     0.054 A 
ATOM      3  C3  IND d   1      -2.561   5.558  -2.212  0.00  0.00    -0.031 A 
ATOM      4  C4  IND d   1      -3.065   5.988   0.276  0.00  0.00     0.051 A 
ATOM      5  C5  IND d   1      -2.475   6.000   1.508  0.00  0.00    -0.031 A 
ATOM      6  C6  IND d   1      -1.125   5.763   1.672  0.00  0.00     0.015 A 
ATOM      7  C7  IND d   1      -0.310   5.516   0.604  0.00  0.00    -0.016 A 
ATOM      8  C8  IND d   1      -0.908   5.496  -0.648  0.00  0.00    -0.047 A 
ATOM      9  C9  IND d   1      -2.284   5.693  -0.817  0.00  0.00    -0.096 A 
ATOM     10  HN1 IND d   1       0.456   5.100  -2.064  0.00  0.00     0.298 HD
ENDROOT
TORSDOF 0
ENDMDL
