MODEL 1
REMARK minimizedAffinity 10.491313
REMARK minimizedRMSD -1
REMARK  0 active torsions:
REMARK  status: ('A' for Active; 'I' for Inactive)
ROOT
ATOM      1  N1  IND d   1      -4.517  -2.617   2.464  0.00  0.00    -0.196 N 
ATOM      2  C2  IND d   1      -3.976  -1.539   1.821  0.00  0.00     0.054 A 
ATOM      3  C3  IND d   1      -3.312  -1.938   0.712  0.00  0.00    -0.031 A 
ATOM      4  C4  IND d   1      -3.072  -4.297  -0.290  0.00  0.00     0.051 A 
ATOM      5  C5  IND d   1      -3.363  -5.609  -0.040  0.00  0.00    -0.031 A 
ATOM      6  C6  IND d   1      -4.070  -5.998   1.080  0.00  0.00     0.015 A 
ATOM      7  C7  IND d   1      -4.524  -5.084   1.988  0.00  0.00    -0.016 A 
ATOM      8  C8  IND d   1      -4.225  -3.752   1.741  0.00  0.00    -0.047 A 
ATOM      9  C9  IND d   1      -3.471  -3.355   0.629  0.00  0.00    -0.096 A 
ATOM     10  HN1 IND d   1      -4.965  -2.590   3.198  0.00  0.00     0.298 HD
ENDROOT
TORSDOF 0
ENDMDL
