MODEL 1
REMARK minimizedAffinity -1.74846756
REMARK minimizedRMSD -1
REMARK  0 active torsions:
REMARK  status: ('A' for Active; 'I' for Inactive)
ROOT
ATOM      1  N1  IND d   1      -4.531   2.599   0.089  0.00  0.00    -0.196 N 
ATOM      2  C2  IND d   1      -4.014   1.682   0.960  0.00  0.00     0.054 A 
ATOM      3  C3  IND d   1      -2.992   2.223   1.661  0.00  0.00    -0.031 A 
ATOM      4  C4  IND d   1      -2.067   4.625   1.613  0.00  0.00     0.051 A 
ATOM      5  C5  IND d   1      -2.192   5.814   0.951  0.00  0.00    -0.031 A 
ATOM      6  C6  IND d   1      -3.123   5.997  -0.051  0.00  0.00     0.015 A 
ATOM      7  C7  IND d   1      -3.977   4.996  -0.421  0.00  0.00    -0.016 A 
ATOM      8  C8  IND d   1      -3.848   3.785   0.244  0.00  0.00    -0.047 A 
ATOM      9  C9  IND d   1      -2.876   3.581   1.231  0.00  0.00    -0.096 A 
ATOM     10  HN1 IND d   1      -5.175   2.459  -0.464  0.00  0.00     0.298 HD
ENDROOT
TORSDOF 0
ENDMDL
