MODEL 1
REMARK minimizedAffinity 9.38878727
REMARK minimizedRMSD -1
REMARK  0 active torsions:
REMARK  status: ('A' for Active; 'I' for Inactive)
ROOT
ATOM      1  N1  IND d   1      -2.061   4.229  -0.087  0.00  0.00    -0.196 N 
ATOM      2  C2  IND d   1      -1.455   5.167   0.701  0.00  0.00     0.054 A 
ATOM      3  C3  IND d   1      -0.670   5.974  -0.047  0.00  0.00    -0.031 A 
ATOM      4  C4  IND d   1      -0.310   6.000  -2.596  0.00  0.00     0.051 A 
ATOM      5  C5  IND d   1      -0.622   5.312  -3.735  0.00  0.00    -0.031 A 
ATOM      6  C6  IND d   1      -1.449   4.207  -3.716  0.00  0.00     0.015 A 
ATOM      7  C7  IND d   1      -2.005   3.754  -2.554  0.00  0.00    -0.016 A 
ATOM      8  C8  IND d   1      -1.685   4.446  -1.395  0.00  0.00    -0.047 A 
ATOM      9  C9  IND d   1      -0.813   5.542  -1.401  0.00  0.00    -0.096 A 
ATOM     10  HN1 IND d   1      -2.588   3.608   0.188  0.00  0.00     0.298 HD
ENDROOT
TORSDOF 0
ENDMDL
