MODEL 1
REMARK minimizedAffinity 6.62327003
REMARK minimizedRMSD -1
REMARK  0 active torsions:
REMARK  status: ('A' for Active; 'I' for Inactive)
ROOT
ATOM      1  N1  IND d   1      -2.699   2.489  -4.118  0.00  0.00    -0.196 N 
ATOM      2  C2  IND d   1      -2.143   1.344  -4.616  0.00  0.00     0.054 A 
ATOM      3  C3  IND d   1      -0.794   1.418  -4.570  0.00  0.00    -0.031 A 
ATOM      4  C4  IND d   1       0.711   3.280  -3.624  0.00  0.00     0.051 A 
ATOM      5  C5  IND d   1       0.664   4.539  -3.095  0.00  0.00    -0.031 A 
ATOM      6  C6  IND d   1      -0.532   5.191  -2.872  0.00  0.00     0.015 A 
ATOM      7  C7  IND d   1      -1.730   4.601  -3.162  0.00  0.00    -0.016 A 
ATOM      8  C8  IND d   1      -1.685   3.326  -3.706  0.00  0.00    -0.047 A 
ATOM      9  C9  IND d   1      -0.473   2.676  -3.973  0.00  0.00    -0.096 A 
ATOM     10  HN1 IND d   1      -3.541   2.659  -4.069  0.00  0.00     0.298 HD
ENDROOT
TORSDOF 0
ENDMDL
