MODEL 1
REMARK minimizedAffinity 6.24424553
REMARK minimizedRMSD -1
REMARK  0 active torsions:
REMARK  status: ('A' for Active; 'I' for Inactive)
ROOT
ATOM      1  N1  IND d   1      -3.021   4.948  -2.410  0.00  0.00    -0.196 N 
ATOM      2  C2  IND d   1      -2.302   5.997  -1.908  0.00  0.00     0.054 A 
ATOM      3  C3  IND d   1      -0.987   5.839  -2.180  0.00  0.00    -0.031 A 
ATOM      4  C4  IND d   1       0.194   3.987  -3.523  0.00  0.00     0.051 A 
ATOM      5  C5  IND d   1      -0.039   2.795  -4.148  0.00  0.00    -0.031 A 
ATOM      6  C6  IND d   1      -1.304   2.249  -4.230  0.00  0.00     0.015 A 
ATOM      7  C7  IND d   1      -2.390   2.885  -3.697  0.00  0.00    -0.016 A 
ATOM      8  C8  IND d   1      -2.156   4.093  -3.055  0.00  0.00    -0.047 A 
ATOM      9  C9  IND d   1      -0.868   4.630  -2.932  0.00  0.00    -0.096 A 
ATOM     10  HN1 IND d   1      -3.871   4.841  -2.334  0.00  0.00     0.298 HD
ENDROOT
TORSDOF 0
ENDMDL
