MODEL 1
REMARK minimizedAffinity 5.27557659
REMARK minimizedRMSD -1
REMARK  0 active torsions:
REMARK  status: ('A' for Active; 'I' for Inactive)
ROOT
ATOM      1  N1  IND d   1       4.012  -1.117  -2.589  0.00  0.00    -0.196 N 
ATOM      2  C2  IND d   1       4.398   0.194  -2.625  0.00  0.00     0.054 A 
ATOM      3  C3  IND d   1       4.135   0.794  -1.443  0.00  0.00    -0.031 A 
ATOM      4  C4  IND d   1       3.165  -0.209   0.721  0.00  0.00     0.051 A 
ATOM      5  C5  IND d   1       2.626  -1.358   1.229  0.00  0.00    -0.031 A 
ATOM      6  C6  IND d   1       2.522  -2.509   0.475  0.00  0.00     0.015 A 
ATOM      7  C7  IND d   1       2.965  -2.558  -0.816  0.00  0.00    -0.016 A 
ATOM      8  C8  IND d   1       3.506  -1.391  -1.337  0.00  0.00    -0.047 A 
ATOM      9  C9  IND d   1       3.576  -0.207  -0.591  0.00  0.00    -0.096 A 
ATOM     10  HN1 IND d   1       4.073  -1.676  -3.239  0.00  0.00     0.298 HD
ENDROOT
TORSDOF 0
ENDMDL
