MODEL 1
REMARK minimizedAffinity 3.56008554
REMARK minimizedRMSD -1
REMARK  0 active torsions:
REMARK  status: ('A' for Active; 'I' for Inactive)
ROOT
ATOM      1  N1  IND d   1       5.815  -1.132  -2.225  0.00  0.00    -0.196 N 
ATOM      2  C2  IND d   1       5.999   0.003  -2.964  0.00  0.00     0.054 A 
ATOM      3  C3  IND d   1       4.930   0.822  -2.843  0.00  0.00    -0.031 A 
ATOM      4  C4  IND d   1       2.812   0.545  -1.406  0.00  0.00     0.051 A 
ATOM      5  C5  IND d   1       2.175  -0.345  -0.588  0.00  0.00    -0.031 A 
ATOM      6  C6  IND d   1       2.731  -1.565  -0.264  0.00  0.00     0.015 A 
ATOM      7  C7  IND d   1       3.955  -1.939  -0.740  0.00  0.00    -0.016 A 
ATOM      8  C8  IND d   1       4.602  -1.042  -1.577  0.00  0.00    -0.047 A 
ATOM      9  C9  IND d   1       4.024   0.181  -1.944  0.00  0.00    -0.096 A 
ATOM     10  HN1 IND d   1       6.364  -1.792  -2.173  0.00  0.00     0.298 HD
ENDROOT
TORSDOF 0
ENDMDL
