MODEL 1
REMARK minimizedAffinity 11.0021868
REMARK minimizedRMSD -1
REMARK  0 active torsions:
REMARK  status: ('A' for Active; 'I' for Inactive)
ROOT
ATOM      1  N1  IND d   1      -4.479  -3.366   2.625  0.00  0.00    -0.196 N 
ATOM      2  C2  IND d   1      -4.126  -2.093   2.274  0.00  0.00     0.054 A 
ATOM      3  C3  IND d   1      -3.869  -2.025   0.949  0.00  0.00    -0.031 A 
ATOM      4  C4  IND d   1      -4.064  -3.855  -0.851  0.00  0.00     0.051 A 
ATOM      5  C5  IND d   1      -4.315  -5.189  -1.008  0.00  0.00    -0.031 A 
ATOM      6  C6  IND d   1      -4.644  -6.000   0.059  0.00  0.00     0.015 A 
ATOM      7  C7  IND d   1      -4.744  -5.502   1.327  0.00  0.00    -0.016 A 
ATOM      8  C8  IND d   1      -4.483  -4.149   1.491  0.00  0.00    -0.047 A 
ATOM      9  C9  IND d   1      -4.108  -3.330   0.418  0.00  0.00    -0.096 A 
ATOM     10  HN1 IND d   1      -4.668  -3.633   3.421  0.00  0.00     0.298 HD
ENDROOT
TORSDOF 0
ENDMDL
