MODEL 1
REMARK minimizedAffinity 9.05191422
REMARK minimizedRMSD -1
REMARK  0 active torsions:
REMARK  status: ('A' for Active; 'I' for Inactive)
ROOT
ATOM      1  N1  IND d   1      -1.341   2.876  -3.449  0.00  0.00    -0.196 N 
ATOM      2  C2  IND d   1      -0.667   2.116  -4.363  0.00  0.00     0.054 A 
ATOM      3  C3  IND d   1       0.569   1.816  -3.904  0.00  0.00    -0.031 A 
ATOM      4  C4  IND d   1       1.655   2.380  -1.640  0.00  0.00     0.051 A 
ATOM      5  C5  IND d   1       1.443   3.087  -0.489  0.00  0.00    -0.031 A 
ATOM      6  C6  IND d   1       0.267   3.771  -0.261  0.00  0.00     0.015 A 
ATOM      7  C7  IND d   1      -0.750   3.765  -1.174  0.00  0.00    -0.016 A 
ATOM      8  C8  IND d   1      -0.535   3.054  -2.346  0.00  0.00    -0.047 A 
ATOM      9  C9  IND d   1       0.673   2.392  -2.602  0.00  0.00    -0.096 A 
ATOM     10  HN1 IND d   1      -2.136   3.191  -3.546  0.00  0.00     0.298 HD
ENDROOT
TORSDOF 0
ENDMDL
