MODEL 1
REMARK minimizedAffinity 10.5607948
REMARK minimizedRMSD -1
REMARK  0 active torsions:
REMARK  status: ('A' for Active; 'I' for Inactive)
ROOT
ATOM      1  N1  IND d   1       5.015  -2.075  -2.622  0.00  0.00    -0.196 N 
ATOM      2  C2  IND d   1       6.000  -1.330  -3.207  0.00  0.00     0.054 A 
ATOM      3  C3  IND d   1       5.856  -0.025  -2.885  0.00  0.00    -0.031 A 
ATOM      4  C4  IND d   1       4.139   1.096  -1.329  0.00  0.00     0.051 A 
ATOM      5  C5  IND d   1       3.019   0.831  -0.592  0.00  0.00    -0.031 A 
ATOM      6  C6  IND d   1       2.498  -0.443  -0.490  0.00  0.00     0.015 A 
ATOM      7  C7  IND d   1       3.087  -1.506  -1.114  0.00  0.00    -0.016 A 
ATOM      8  C8  IND d   1       4.221  -1.239  -1.869  0.00  0.00    -0.047 A 
ATOM      9  C9  IND d   1       4.729   0.059  -2.011  0.00  0.00    -0.096 A 
ATOM     10  HN1 IND d   1       4.910  -2.924  -2.709  0.00  0.00     0.298 HD
ENDROOT
TORSDOF 0
ENDMDL
