MODEL 1
REMARK minimizedAffinity 4.80860138
REMARK minimizedRMSD -1
REMARK  0 active torsions:
REMARK  status: ('A' for Active; 'I' for Inactive)
ROOT
ATOM      1  N1  IND d   1       5.109  -1.732  -3.835  0.00  0.00    -0.196 N 
ATOM      2  C2  IND d   1       5.995  -0.731  -3.551  0.00  0.00     0.054 A 
ATOM      3  C3  IND d   1       5.664  -0.125  -2.388  0.00  0.00    -0.031 A 
ATOM      4  C4  IND d   1       3.769  -0.680  -0.737  0.00  0.00     0.051 A 
ATOM      5  C5  IND d   1       2.677  -1.488  -0.582  0.00  0.00    -0.031 A 
ATOM      6  C6  IND d   1       2.335  -2.440  -1.521  0.00  0.00     0.015 A 
ATOM      7  C7  IND d   1       3.082  -2.627  -2.650  0.00  0.00    -0.016 A 
ATOM      8  C8  IND d   1       4.187  -1.804  -2.814  0.00  0.00    -0.047 A 
ATOM      9  C9  IND d   1       4.514  -0.807  -1.885  0.00  0.00    -0.096 A 
ATOM     10  HN1 IND d   1       5.124  -2.232  -4.534  0.00  0.00     0.298 HD
ENDROOT
TORSDOF 0
ENDMDL
