MODEL 1
REMARK minimizedAffinity 16.6644859
REMARK minimizedRMSD -1
REMARK  0 active torsions:
REMARK  status: ('A' for Active; 'I' for Inactive)
ROOT
ATOM      1  N1  IND d   1       1.179   2.178  -5.071  0.00  0.00    -0.196 N 
ATOM      2  C2  IND d   1       2.068   3.153  -4.711  0.00  0.00     0.054 A 
ATOM      3  C3  IND d   1       1.571   3.890  -3.693  0.00  0.00    -0.031 A 
ATOM      4  C4  IND d   1      -0.635   3.611  -2.395  0.00  0.00     0.051 A 
ATOM      5  C5  IND d   1      -1.792   2.884  -2.382  0.00  0.00    -0.031 A 
ATOM      6  C6  IND d   1      -2.022   1.862  -3.281  0.00  0.00     0.015 A 
ATOM      7  C7  IND d   1      -1.093   1.521  -4.224  0.00  0.00    -0.016 A 
ATOM      8  C8  IND d   1       0.080   2.261  -4.244  0.00  0.00    -0.047 A 
ATOM      9  C9  IND d   1       0.301   3.327  -3.362  0.00  0.00    -0.096 A 
ATOM     10  HN1 IND d   1       1.288   1.610  -5.706  0.00  0.00     0.298 HD
ENDROOT
TORSDOF 0
ENDMDL
