MODEL 1
REMARK minimizedAffinity 19.0717983
REMARK minimizedRMSD -1
REMARK  0 active torsions:
REMARK  status: ('A' for Active; 'I' for Inactive)
ROOT
ATOM      1  N1  IND d   1       1.799   4.904  -3.982  0.00  0.00    -0.196 N 
ATOM      2  C2  IND d   1       2.776   4.297  -4.720  0.00  0.00     0.054 A 
ATOM      3  C3  IND d   1       2.481   2.991  -4.909  0.00  0.00    -0.031 A 
ATOM      4  C4  IND d   1       0.397   1.664  -4.183  0.00  0.00     0.051 A 
ATOM      5  C5  IND d   1      -0.753   1.779  -3.454  0.00  0.00    -0.031 A 
ATOM      6  C6  IND d   1      -1.121   2.966  -2.854  0.00  0.00     0.015 A 
ATOM      7  C7  IND d   1      -0.353   4.091  -2.971  0.00  0.00    -0.016 A 
ATOM      8  C8  IND d   1       0.819   3.976  -3.704  0.00  0.00    -0.047 A 
ATOM      9  C9  IND d   1       1.218   2.763  -4.280  0.00  0.00    -0.096 A 
ATOM     10  HN1 IND d   1       1.796   5.727  -3.733  0.00  0.00     0.298 HD
ENDROOT
TORSDOF 0
ENDMDL
