MODEL 1
REMARK minimizedAffinity 12.54772
REMARK minimizedRMSD -1
REMARK  0 active torsions:
REMARK  status: ('A' for Active; 'I' for Inactive)
ROOT
ATOM      1  N1  IND d   1      -0.477   2.549  -1.724  0.00  0.00    -0.196 N 
ATOM      2  C2  IND d   1      -0.366   3.035  -2.997  0.00  0.00     0.054 A 
ATOM      3  C3  IND d   1      -0.564   4.373  -3.009  0.00  0.00    -0.031 A 
ATOM      4  C4  IND d   1      -0.984   5.981  -1.043  0.00  0.00     0.051 A 
ATOM      5  C5  IND d   1      -1.205   5.999   0.306  0.00  0.00    -0.031 A 
ATOM      6  C6  IND d   1      -1.191   4.845   1.062  0.00  0.00     0.015 A 
ATOM      7  C7  IND d   1      -0.944   3.626   0.498  0.00  0.00    -0.016 A 
ATOM      8  C8  IND d   1      -0.726   3.603  -0.873  0.00  0.00    -0.047 A 
ATOM      9  C9  IND d   1      -0.781   4.765  -1.652  0.00  0.00    -0.096 A 
ATOM     10  HN1 IND d   1      -0.404   1.724  -1.494  0.00  0.00     0.298 HD
ENDROOT
TORSDOF 0
ENDMDL
