MODEL 1
REMARK minimizedAffinity 4.96045589
REMARK minimizedRMSD -1
REMARK  0 active torsions:
REMARK  status: ('A' for Active; 'I' for Inactive)
ROOT
ATOM      1  C   UNL d   1       5.832   5.998  -4.512  0.00  0.00     0.023 A 
ATOM      2  C1  UNL d   1       4.550   5.954  -5.061  0.00  0.00     0.003 A 
ATOM      3  C2  UNL d   1       3.433   5.903  -4.224  0.00  0.00     0.048 A 
ATOM      4  C3  UNL d   1       3.605   5.898  -2.841  0.00  0.00     0.023 A 
ATOM      5  C4  UNL d   1       4.885   5.943  -2.287  0.00  0.00     0.048 A 
ATOM      6  C5  UNL d   1       5.999   5.992  -3.127  0.00  0.00     0.003 A 
ATOM      7  I   UNL d   1       1.943   5.823  -1.594  0.00  0.00    -0.146 I 
ENDROOT
TORSDOF 0
ENDMDL
