MODEL 1
REMARK minimizedAffinity 7.45397806
REMARK minimizedRMSD -1
REMARK  0 active torsions:
REMARK  status: ('A' for Active; 'I' for Inactive)
ROOT
ATOM      1  C   UNL d   1      -5.217  -5.976  -5.591  0.00  0.00     0.023 A 
ATOM      2  C1  UNL d   1      -4.431  -5.877  -4.442  0.00  0.00     0.003 A 
ATOM      3  C2  UNL d   1      -4.427  -4.696  -3.697  0.00  0.00     0.048 A 
ATOM      4  C3  UNL d   1      -5.212  -3.618  -4.105  0.00  0.00     0.023 A 
ATOM      5  C4  UNL d   1      -6.000  -3.713  -5.254  0.00  0.00     0.048 A 
ATOM      6  C5  UNL d   1      -6.000  -4.895  -5.996  0.00  0.00     0.003 A 
ATOM      7  I   UNL d   1      -5.208  -1.860  -2.998  0.00  0.00    -0.146 I 
ENDROOT
TORSDOF 0
ENDMDL
