MODEL 1
REMARK minimizedAffinity 9.95476627
REMARK minimizedRMSD -1
REMARK  0 active torsions:
REMARK  status: ('A' for Active; 'I' for Inactive)
ROOT
ATOM      1  C   UNL d   1       0.799  -2.315   2.286  0.00  0.00     0.023 A 
ATOM      2  C1  UNL d   1       1.938  -1.811   2.914  0.00  0.00     0.003 A 
ATOM      3  C2  UNL d   1       2.415  -0.541   2.584  0.00  0.00     0.048 A 
ATOM      4  C3  UNL d   1       1.746   0.221   1.627  0.00  0.00     0.023 A 
ATOM      5  C4  UNL d   1       0.605  -0.279   0.997  0.00  0.00     0.048 A 
ATOM      6  C5  UNL d   1       0.133  -1.550   1.329  0.00  0.00     0.003 A 
ATOM      7  I   UNL d   1       2.453   2.113   1.134  0.00  0.00    -0.146 I 
ENDROOT
TORSDOF 0
ENDMDL
