MODEL 1
REMARK minimizedAffinity 9.69615746
REMARK minimizedRMSD -1
REMARK  0 active torsions:
REMARK  status: ('A' for Active; 'I' for Inactive)
ROOT
ATOM      1  C   UNL d   1       1.504  -4.041   3.280  0.00  0.00     0.023 A 
ATOM      2  C1  UNL d   1       2.569  -4.878   2.945  0.00  0.00     0.003 A 
ATOM      3  C2  UNL d   1       3.860  -4.577   3.385  0.00  0.00     0.048 A 
ATOM      4  C3  UNL d   1       4.079  -3.440   4.162  0.00  0.00     0.023 A 
ATOM      5  C4  UNL d   1       3.016  -2.601   4.501  0.00  0.00     0.048 A 
ATOM      6  C5  UNL d   1       1.727  -2.905   4.058  0.00  0.00     0.003 A 
ATOM      7  I   UNL d   1       5.999  -2.991   4.818  0.00  0.00    -0.146 I 
ENDROOT
TORSDOF 0
ENDMDL
