MODEL 1
REMARK minimizedAffinity 7.50333309
REMARK minimizedRMSD -1
REMARK  0 active torsions:
REMARK  status: ('A' for Active; 'I' for Inactive)
ROOT
ATOM      1  C   UNL d   1       2.187   1.417  -0.060  0.00  0.00     0.023 A 
ATOM      2  C1  UNL d   1       1.877   0.100  -0.401  0.00  0.00     0.003 A 
ATOM      3  C2  UNL d   1       1.870  -0.894   0.580  0.00  0.00     0.048 A 
ATOM      4  C3  UNL d   1       2.174  -0.564   1.901  0.00  0.00     0.023 A 
ATOM      5  C4  UNL d   1       2.484   0.753   2.247  0.00  0.00     0.048 A 
ATOM      6  C5  UNL d   1       2.490   1.742   1.262  0.00  0.00     0.003 A 
ATOM      7  I   UNL d   1       2.165  -2.041   3.363  0.00  0.00    -0.146 I 
ENDROOT
TORSDOF 0
ENDMDL
