MODEL 1
REMARK minimizedAffinity 9.98648739
REMARK minimizedRMSD -1
REMARK  0 active torsions:
REMARK  status: ('A' for Active; 'I' for Inactive)
ROOT
ATOM      1  C   UNL d   1       1.065  -2.579   3.379  0.00  0.00     0.023 A 
ATOM      2  C1  UNL d   1       1.478  -3.751   4.012  0.00  0.00     0.003 A 
ATOM      3  C2  UNL d   1       2.838  -3.993   4.217  0.00  0.00     0.048 A 
ATOM      4  C3  UNL d   1       3.779  -3.058   3.788  0.00  0.00     0.023 A 
ATOM      5  C4  UNL d   1       3.370  -1.883   3.156  0.00  0.00     0.048 A 
ATOM      6  C5  UNL d   1       2.010  -1.646   2.952  0.00  0.00     0.003 A 
ATOM      7  I   UNL d   1       5.804  -3.415   4.093  0.00  0.00    -0.146 I 
ENDROOT
TORSDOF 0
ENDMDL
