MODEL 1
REMARK minimizedAffinity -1.83931267
REMARK minimizedRMSD -1
REMARK  0 active torsions:
REMARK  status: ('A' for Active; 'I' for Inactive)
ROOT
ATOM      1  C   UNL d   1      -2.325   2.430   0.396  0.00  0.00    -0.002 A 
ATOM      2  C1  UNL d   1      -1.578   2.333  -0.769  0.00  0.00     0.010 A 
ATOM      3  C2  UNL d   1      -0.547   1.397  -0.877  0.00  0.00     0.041 A 
ATOM      4  C3  UNL d   1      -0.280   0.550   0.217  0.00  0.00    -0.075 A 
ATOM      5  S   UNL d   1       0.932  -0.673   0.312  0.00  0.00     0.015 SA
ATOM      6  C4  UNL d   1       0.485  -1.097   1.901  0.00  0.00     0.022 A 
ATOM      7  C5  UNL d   1      -0.561  -0.334   2.363  0.00  0.00     0.026 A 
ATOM      8  C6  UNL d   1      -1.020   0.627   1.400  0.00  0.00    -0.082 A 
ATOM      9  C7  UNL d   1      -2.057   1.587   1.478  0.00  0.00     0.045 A 
ENDROOT
TORSDOF 0
ENDMDL
