MODEL 1
REMARK minimizedAffinity -1.65584099
REMARK minimizedRMSD -1
REMARK  0 active torsions:
REMARK  status: ('A' for Active; 'I' for Inactive)
ROOT
ATOM      1  C   UNL d   1      -0.955   0.860  -1.374  0.00  0.00    -0.002 A 
ATOM      2  C1  UNL d   1      -0.076  -0.207  -1.251  0.00  0.00     0.010 A 
ATOM      3  C2  UNL d   1       0.378  -0.612   0.006  0.00  0.00     0.041 A 
ATOM      4  C3  UNL d   1      -0.073   0.077   1.148  0.00  0.00    -0.075 A 
ATOM      5  S   UNL d   1       0.347  -0.243   2.789  0.00  0.00     0.015 SA
ATOM      6  C4  UNL d   1      -0.632   1.028   3.366  0.00  0.00     0.022 A 
ATOM      7  C5  UNL d   1      -1.271   1.691   2.345  0.00  0.00     0.026 A 
ATOM      8  C6  UNL d   1      -0.960   1.154   1.050  0.00  0.00    -0.082 A 
ATOM      9  C7  UNL d   1      -1.400   1.541  -0.238  0.00  0.00     0.045 A 
ENDROOT
TORSDOF 0
ENDMDL
