MODEL 1
REMARK minimizedAffinity -3.49978995
REMARK minimizedRMSD -1
REMARK  0 active torsions:
REMARK  status: ('A' for Active; 'I' for Inactive)
ROOT
ATOM      1  C   UNL d   1      -1.499   1.373   1.552  0.00  0.00    -0.002 A 
ATOM      2  C1  UNL d   1      -0.722   0.501   2.301  0.00  0.00     0.010 A 
ATOM      3  C2  UNL d   1       0.011  -0.511   1.678  0.00  0.00     0.041 A 
ATOM      4  C3  UNL d   1      -0.049  -0.632   0.276  0.00  0.00    -0.075 A 
ATOM      5  S   UNL d   1       0.765  -1.795  -0.703  0.00  0.00     0.015 SA
ATOM      6  C4  UNL d   1       0.101  -1.160  -2.139  0.00  0.00     0.022 A 
ATOM      7  C5  UNL d   1      -0.724  -0.088  -1.896  0.00  0.00     0.026 A 
ATOM      8  C6  UNL d   1      -0.823   0.235  -0.500  0.00  0.00    -0.082 A 
ATOM      9  C7  UNL d   1      -1.556   1.250   0.161  0.00  0.00     0.045 A 
ENDROOT
TORSDOF 0
ENDMDL
