MODEL 1
REMARK minimizedAffinity -0.361086577
REMARK minimizedRMSD -1
REMARK  0 active torsions:
REMARK  status: ('A' for Active; 'I' for Inactive)
ROOT
ATOM      1  C   UNL d   1      -2.197   1.682   1.958  0.00  0.00    -0.002 A 
ATOM      2  C1  UNL d   1      -2.358   1.903   0.597  0.00  0.00     0.010 A 
ATOM      3  C2  UNL d   1      -1.475   1.336  -0.324  0.00  0.00     0.041 A 
ATOM      4  C3  UNL d   1      -0.418   0.535   0.150  0.00  0.00    -0.075 A 
ATOM      5  S   UNL d   1       0.786  -0.262  -0.793  0.00  0.00     0.015 SA
ATOM      6  C4  UNL d   1       1.541  -0.915   0.588  0.00  0.00     0.022 A 
ATOM      7  C5  UNL d   1       0.905  -0.544   1.749  0.00  0.00     0.026 A 
ATOM      8  C6  UNL d   1      -0.235   0.297   1.515  0.00  0.00    -0.082 A 
ATOM      9  C7  UNL d   1      -1.147   0.887   2.424  0.00  0.00     0.045 A 
ENDROOT
TORSDOF 0
ENDMDL
