MODEL 1
REMARK minimizedAffinity -1.42772555
REMARK minimizedRMSD -1
REMARK  0 active torsions:
REMARK  status: ('A' for Active; 'I' for Inactive)
ROOT
ATOM      1  C   UNL d   1      -1.953   1.991   0.884  0.00  0.00    -0.002 A 
ATOM      2  C1  UNL d   1      -1.393   2.806  -0.090  0.00  0.00     0.010 A 
ATOM      3  C2  UNL d   1      -0.414   2.311  -0.954  0.00  0.00     0.041 A 
ATOM      4  C3  UNL d   1      -0.005   0.970  -0.822  0.00  0.00    -0.075 A 
ATOM      5  S   UNL d   1       1.178   0.146  -1.769  0.00  0.00     0.015 SA
ATOM      6  C4  UNL d   1       0.968  -1.307  -0.903  0.00  0.00     0.022 A 
ATOM      7  C5  UNL d   1       0.022  -1.185   0.087  0.00  0.00     0.026 A 
ATOM      8  C6  UNL d   1      -0.554   0.129   0.150  0.00  0.00    -0.082 A 
ATOM      9  C7  UNL d   1      -1.544   0.661   1.012  0.00  0.00     0.045 A 
ENDROOT
TORSDOF 0
ENDMDL
