MODEL 1
REMARK minimizedAffinity -2.48970771
REMARK minimizedRMSD -1
REMARK  0 active torsions:
REMARK  status: ('A' for Active; 'I' for Inactive)
ROOT
ATOM      1  C   UNL d   1       0.839  -0.210  -0.847  0.00  0.00    -0.002 A 
ATOM      2  C1  UNL d   1       1.201  -0.860   0.324  0.00  0.00     0.010 A 
ATOM      3  C2  UNL d   1       0.622  -0.502   1.544  0.00  0.00     0.041 A 
ATOM      4  C3  UNL d   1      -0.337   0.530   1.566  0.00  0.00    -0.075 A 
ATOM      5  S   UNL d   1      -1.179   1.136   2.942  0.00  0.00     0.015 SA
ATOM      6  C4  UNL d   1      -2.040   2.273   2.008  0.00  0.00     0.022 A 
ATOM      7  C5  UNL d   1      -1.705   2.205   0.677  0.00  0.00     0.026 A 
ATOM      8  C6  UNL d   1      -0.718   1.199   0.399  0.00  0.00    -0.082 A 
ATOM      9  C7  UNL d   1      -0.113   0.813  -0.821  0.00  0.00     0.045 A 
ENDROOT
TORSDOF 0
ENDMDL
