MODEL 1
REMARK minimizedAffinity -2.16848373
REMARK minimizedRMSD -1
REMARK  0 active torsions:
REMARK  status: ('A' for Active; 'I' for Inactive)
ROOT
ATOM      1  C   UNL d   1      -2.185   1.500   1.816  0.00  0.00    -0.002 A 
ATOM      2  C1  UNL d   1      -2.297   2.072   0.557  0.00  0.00     0.010 A 
ATOM      3  C2  UNL d   1      -1.447   1.683  -0.479  0.00  0.00     0.041 A 
ATOM      4  C3  UNL d   1      -0.472   0.697  -0.227  0.00  0.00    -0.075 A 
ATOM      5  S   UNL d   1       0.678   0.062  -1.344  0.00  0.00     0.015 SA
ATOM      6  C4  UNL d   1       1.345  -0.985  -0.176  0.00  0.00     0.022 A 
ATOM      7  C5  UNL d   1       0.718  -0.866   1.042  0.00  0.00     0.026 A 
ATOM      8  C6  UNL d   1      -0.340   0.105   1.032  0.00  0.00    -0.082 A 
ATOM      9  C7  UNL d   1      -1.217   0.522   2.062  0.00  0.00     0.045 A 
ENDROOT
TORSDOF 0
ENDMDL
