MODEL 1
REMARK minimizedAffinity -1.52718294
REMARK minimizedRMSD -1
REMARK  0 active torsions:
REMARK  status: ('A' for Active; 'I' for Inactive)
ROOT
ATOM      1  C   UNL d   1      -1.044   0.259   2.628  0.00  0.00    -0.002 A 
ATOM      2  C1  UNL d   1      -1.829   1.110   1.864  0.00  0.00     0.010 A 
ATOM      3  C2  UNL d   1      -1.614   1.232   0.489  0.00  0.00     0.041 A 
ATOM      4  C3  UNL d   1      -0.588   0.474  -0.109  0.00  0.00    -0.075 A 
ATOM      5  S   UNL d   1      -0.143   0.460  -1.775  0.00  0.00     0.015 SA
ATOM      6  C4  UNL d   1       1.099  -0.677  -1.511  0.00  0.00     0.022 A 
ATOM      7  C5  UNL d   1       1.186  -1.047  -0.190  0.00  0.00     0.026 A 
ATOM      8  C6  UNL d   1       0.215  -0.390   0.640  0.00  0.00    -0.082 A 
ATOM      9  C7  UNL d   1      -0.027  -0.491   2.031  0.00  0.00     0.045 A 
ENDROOT
TORSDOF 0
ENDMDL
