MODEL 1
REMARK minimizedAffinity -1.63102508
REMARK minimizedRMSD -1
REMARK  0 active torsions:
REMARK  status: ('A' for Active; 'I' for Inactive)
ROOT
ATOM      1  C   UNL d   1      -1.219   0.306   2.701  0.00  0.00    -0.002 A 
ATOM      2  C1  UNL d   1      -1.606   1.318   1.833  0.00  0.00     0.010 A 
ATOM      3  C2  UNL d   1      -1.171   1.321   0.507  0.00  0.00     0.041 A 
ATOM      4  C3  UNL d   1      -0.334   0.280   0.061  0.00  0.00    -0.075 A 
ATOM      5  S   UNL d   1       0.321   0.076  -1.521  0.00  0.00     0.015 SA
ATOM      6  C4  UNL d   1       1.129  -1.359  -1.083  0.00  0.00     0.022 A 
ATOM      7  C5  UNL d   1       0.916  -1.689   0.234  0.00  0.00     0.026 A 
ATOM      8  C6  UNL d   1       0.069  -0.751   0.915  0.00  0.00    -0.082 A 
ATOM      9  C7  UNL d   1      -0.388  -0.726   2.255  0.00  0.00     0.045 A 
ENDROOT
TORSDOF 0
ENDMDL
