MODEL 1
REMARK minimizedAffinity -1.75257075
REMARK minimizedRMSD -1
REMARK  0 active torsions:
REMARK  status: ('A' for Active; 'I' for Inactive)
ROOT
ATOM      1  C   UNL d   1      -1.078   1.075   2.824  0.00  0.00    -0.002 A 
ATOM      2  C1  UNL d   1      -2.102   1.233   1.901  0.00  0.00     0.010 A 
ATOM      3  C2  UNL d   1      -1.958   0.770   0.592  0.00  0.00     0.041 A 
ATOM      4  C3  UNL d   1      -0.755   0.136   0.223  0.00  0.00    -0.075 A 
ATOM      5  S   UNL d   1      -0.354  -0.512  -1.324  0.00  0.00     0.015 SA
ATOM      6  C4  UNL d   1       1.186  -1.015  -0.797  0.00  0.00     0.022 A 
ATOM      7  C5  UNL d   1       1.406  -0.704   0.524  0.00  0.00     0.026 A 
ATOM      8  C6  UNL d   1       0.291  -0.036   1.134  0.00  0.00    -0.082 A 
ATOM      9  C7  UNL d   1       0.114   0.446   2.453  0.00  0.00     0.045 A 
ENDROOT
TORSDOF 0
ENDMDL
