MODEL 1
REMARK minimizedAffinity -3.11400461
REMARK minimizedRMSD -1
REMARK  0 active torsions:
REMARK  status: ('A' for Active; 'I' for Inactive)
ROOT
ATOM      1  C   UNL d   1       0.717   0.535  -1.296  0.00  0.00    -0.002 A 
ATOM      2  C1  UNL d   1       1.159  -0.392  -0.363  0.00  0.00     0.010 A 
ATOM      3  C2  UNL d   1       0.496  -0.542   0.857  0.00  0.00     0.041 A 
ATOM      4  C3  UNL d   1      -0.629   0.261   1.125  0.00  0.00    -0.075 A 
ATOM      5  S   UNL d   1      -1.599   0.251   2.551  0.00  0.00     0.015 SA
ATOM      6  C4  UNL d   1      -2.622   1.476   1.954  0.00  0.00     0.022 A 
ATOM      7  C5  UNL d   1      -2.248   1.894   0.699  0.00  0.00     0.026 A 
ATOM      8  C6  UNL d   1      -1.094   1.201   0.200  0.00  0.00    -0.082 A 
ATOM      9  C7  UNL d   1      -0.400   1.330  -1.027  0.00  0.00     0.045 A 
ENDROOT
TORSDOF 0
ENDMDL
