MODEL 1
REMARK minimizedAffinity 16.3677921
REMARK minimizedRMSD -1
REMARK  1 active torsions:
REMARK  status: ('A' for Active; 'I' for Inactive)
REMARK    1  A    between atoms: C1_2  and  C2_3 
ROOT
ATOM      1  C2  UNL d   1      -5.046  -1.237  -2.220  0.00  0.00    -0.081 A 
ATOM      2  C3  UNL d   1      -3.827  -1.921  -2.307  0.00  0.00     0.006 A 
ATOM      3  C4  UNL d   1      -3.108  -2.234  -1.151  0.00  0.00     0.002 A 
ATOM      4  C5  UNL d   1      -3.598  -1.876   0.109  0.00  0.00    -0.080 A 
ATOM      5  C6  UNL d   1      -2.850  -2.233   1.359  0.00  0.00     0.076 C 
ATOM      6  C7  UNL d   1      -4.807  -1.178   0.195  0.00  0.00     0.002 A 
ATOM      7  C8  UNL d   1      -5.527  -0.864  -0.960  0.00  0.00     0.006 A 
ENDROOT
BRANCH   1   8
ATOM      8  C1  UNL d   1      -5.856  -0.955  -3.460  0.00  0.00     0.054 C 
ATOM      9  C   UNL d   1      -5.956   0.540  -3.727  0.00  0.00     0.018 C 
ENDBRANCH   1   8
TORSDOF 1
ENDMDL
