MODEL 1
REMARK minimizedAffinity -2.05265045
REMARK minimizedRMSD -1
REMARK  0 active torsions:
REMARK  status: ('A' for Active; 'I' for Inactive)
ROOT
ATOM      1  C   UNL d   1       0.188  -3.109   0.855  0.00  0.00    -0.002 A 
ATOM      2  C1  UNL d   1       1.047  -3.237  -0.227  0.00  0.00     0.010 A 
ATOM      3  C2  UNL d   1       1.290  -2.154  -1.074  0.00  0.00     0.041 A 
ATOM      4  C3  UNL d   1       0.650  -0.927  -0.810  0.00  0.00    -0.075 A 
ATOM      5  S   UNL d   1       0.797   0.536  -1.711  0.00  0.00     0.015 SA
ATOM      6  C4  UNL d   1      -0.276   1.366  -0.679  0.00  0.00     0.022 A 
ATOM      7  C5  UNL d   1      -0.745   0.562   0.333  0.00  0.00     0.026 A 
ATOM      8  C6  UNL d   1      -0.218  -0.773   0.274  0.00  0.00    -0.082 A 
ATOM      9  C7  UNL d   1      -0.444  -1.890   1.113  0.00  0.00     0.045 A 
ENDROOT
TORSDOF 0
ENDMDL
