MODEL 1
REMARK minimizedAffinity 0.807240725
REMARK minimizedRMSD -1
REMARK  0 active torsions:
REMARK  status: ('A' for Active; 'I' for Inactive)
ROOT
ATOM      1  C   UNL d   1      -1.283  -1.800   1.138  0.00  0.00    -0.002 A 
ATOM      2  C1  UNL d   1      -0.533  -2.277   0.072  0.00  0.00     0.010 A 
ATOM      3  C2  UNL d   1       0.194  -1.398  -0.734  0.00  0.00     0.041 A 
ATOM      4  C3  UNL d   1       0.156  -0.020  -0.447  0.00  0.00    -0.075 A 
ATOM      5  S   UNL d   1       0.968   1.242  -1.297  0.00  0.00     0.015 SA
ATOM      6  C4  UNL d   1       0.339   2.443  -0.265  0.00  0.00     0.022 A 
ATOM      7  C5  UNL d   1      -0.473   1.913   0.710  0.00  0.00     0.026 A 
ATOM      8  C6  UNL d   1      -0.591   0.484   0.621  0.00  0.00    -0.082 A 
ATOM      9  C7  UNL d   1      -1.319  -0.431   1.419  0.00  0.00     0.045 A 
ENDROOT
TORSDOF 0
ENDMDL
