MODEL 1
REMARK minimizedAffinity -2.13894939
REMARK minimizedRMSD -1
REMARK  0 active torsions:
REMARK  status: ('A' for Active; 'I' for Inactive)
ROOT
ATOM      1  C   UNL d   1      -0.809   0.482  -0.125  0.00  0.00    -0.002 A 
ATOM      2  C1  UNL d   1       0.071  -0.222   0.684  0.00  0.00     0.010 A 
ATOM      3  C2  UNL d   1       1.245   0.377   1.145  0.00  0.00     0.041 A 
ATOM      4  C3  UNL d   1       1.521   1.708   0.778  0.00  0.00    -0.075 A 
ATOM      5  S   UNL d   1       2.897   2.646   1.225  0.00  0.00     0.015 SA
ATOM      6  C4  UNL d   1       2.348   4.004   0.353  0.00  0.00     0.022 A 
ATOM      7  C5  UNL d   1       1.146   3.765  -0.270  0.00  0.00     0.026 A 
ATOM      8  C6  UNL d   1       0.650   2.438  -0.035  0.00  0.00    -0.082 A 
ATOM      9  C7  UNL d   1      -0.532   1.803  -0.488  0.00  0.00     0.045 A 
ENDROOT
TORSDOF 0
ENDMDL
