MODEL 1
REMARK minimizedAffinity -2.09870338
REMARK minimizedRMSD -1
REMARK  0 active torsions:
REMARK  status: ('A' for Active; 'I' for Inactive)
ROOT
ATOM      1  C   UNL d   1       0.205  -3.160   0.738  0.00  0.00    -0.002 A 
ATOM      2  C1  UNL d   1      -0.422  -2.217   1.541  0.00  0.00     0.010 A 
ATOM      3  C2  UNL d   1      -0.579  -0.901   1.101  0.00  0.00     0.041 A 
ATOM      4  C3  UNL d   1      -0.092  -0.545  -0.172  0.00  0.00    -0.075 A 
ATOM      5  S   UNL d   1      -0.173   1.006  -0.919  0.00  0.00     0.015 SA
ATOM      6  C4  UNL d   1       0.621   0.455  -2.323  0.00  0.00     0.022 A 
ATOM      7  C5  UNL d   1       0.948  -0.878  -2.240  0.00  0.00     0.026 A 
ATOM      8  C6  UNL d   1       0.542  -1.477  -1.000  0.00  0.00    -0.082 A 
ATOM      9  C7  UNL d   1       0.686  -2.803  -0.525  0.00  0.00     0.045 A 
ENDROOT
TORSDOF 0
ENDMDL
