MODEL 1
REMARK minimizedAffinity -5.98856306
REMARK minimizedRMSD -1
REMARK  0 active torsions:
REMARK  status: ('A' for Active; 'I' for Inactive)
ROOT
ATOM      1  C   UNL d   1      -0.248  -2.849   1.036  0.00  0.00    -0.002 A 
ATOM      2  C1  UNL d   1      -0.590  -1.655   1.654  0.00  0.00     0.010 A 
ATOM      3  C2  UNL d   1      -0.562  -0.453   0.943  0.00  0.00     0.041 A 
ATOM      4  C3  UNL d   1      -0.183  -0.473  -0.413  0.00  0.00    -0.075 A 
ATOM      5  S   UNL d   1      -0.077   0.875  -1.483  0.00  0.00     0.015 SA
ATOM      6  C4  UNL d   1       0.424  -0.102  -2.786  0.00  0.00     0.022 A 
ATOM      7  C5  UNL d   1       0.514  -1.428  -2.431  0.00  0.00     0.026 A 
ATOM      8  C6  UNL d   1       0.165  -1.663  -1.058  0.00  0.00    -0.082 A 
ATOM      9  C7  UNL d   1       0.128  -2.864  -0.310  0.00  0.00     0.045 A 
ENDROOT
TORSDOF 0
ENDMDL
