MODEL 1
REMARK minimizedAffinity -2.49253511
REMARK minimizedRMSD -1
REMARK  0 active torsions:
REMARK  status: ('A' for Active; 'I' for Inactive)
ROOT
ATOM      1  C   UNL d   1      -0.466  -2.792   0.711  0.00  0.00    -0.002 A 
ATOM      2  C1  UNL d   1      -1.339  -1.991   1.435  0.00  0.00     0.010 A 
ATOM      3  C2  UNL d   1      -1.242  -0.600   1.375  0.00  0.00     0.041 A 
ATOM      4  C3  UNL d   1      -0.245  -0.020   0.565  0.00  0.00    -0.075 A 
ATOM      5  S   UNL d   1       0.060   1.661   0.336  0.00  0.00     0.015 SA
ATOM      6  C4  UNL d   1       1.356   1.356  -0.729  0.00  0.00     0.022 A 
ATOM      7  C5  UNL d   1       1.564   0.010  -0.916  0.00  0.00     0.026 A 
ATOM      8  C6  UNL d   1       0.644  -0.805  -0.174  0.00  0.00    -0.082 A 
ATOM      9  C7  UNL d   1       0.521  -2.213  -0.091  0.00  0.00     0.045 A 
ENDROOT
TORSDOF 0
ENDMDL
