MODEL 1
REMARK minimizedAffinity -2.1817553
REMARK minimizedRMSD -1
REMARK  0 active torsions:
REMARK  status: ('A' for Active; 'I' for Inactive)
ROOT
ATOM      1  C   UNL d   1      -1.133  -2.881   0.501  0.00  0.00    -0.002 A 
ATOM      2  C1  UNL d   1      -0.093  -3.008  -0.409  0.00  0.00     0.010 A 
ATOM      3  C2  UNL d   1       0.599  -1.882  -0.859  0.00  0.00     0.041 A 
ATOM      4  C3  UNL d   1       0.226  -0.613  -0.372  0.00  0.00    -0.075 A 
ATOM      5  S   UNL d   1       0.932   0.906  -0.781  0.00  0.00     0.015 SA
ATOM      6  C4  UNL d   1      -0.129   1.759   0.244  0.00  0.00     0.022 A 
ATOM      7  C5  UNL d   1      -1.007   0.921   0.890  0.00  0.00     0.026 A 
ATOM      8  C6  UNL d   1      -0.816  -0.460   0.546  0.00  0.00    -0.082 A 
ATOM      9  C7  UNL d   1      -1.499  -1.621   0.982  0.00  0.00     0.045 A 
ENDROOT
TORSDOF 0
ENDMDL
