MODEL 1
REMARK minimizedAffinity -0.705735326
REMARK minimizedRMSD -1
REMARK  0 active torsions:
REMARK  status: ('A' for Active; 'I' for Inactive)
ROOT
ATOM      1  C   UNL d   1       0.586  -2.984  -0.957  0.00  0.00    -0.002 A 
ATOM      2  C1  UNL d   1      -0.383  -3.377  -0.044  0.00  0.00     0.010 A 
ATOM      3  C2  UNL d   1      -1.115  -2.425   0.668  0.00  0.00     0.041 A 
ATOM      4  C3  UNL d   1      -0.857  -1.059   0.444  0.00  0.00    -0.075 A 
ATOM      5  S   UNL d   1      -1.631   0.283   1.201  0.00  0.00     0.015 SA
ATOM      6  C4  UNL d   1      -0.694   1.410   0.330  0.00  0.00     0.022 A 
ATOM      7  C5  UNL d   1       0.192   0.795  -0.522  0.00  0.00     0.026 A 
ATOM      8  C6  UNL d   1       0.113  -0.638  -0.470  0.00  0.00    -0.082 A 
ATOM      9  C7  UNL d   1       0.840  -1.627  -1.176  0.00  0.00     0.045 A 
ENDROOT
TORSDOF 0
ENDMDL
