MODEL 1
REMARK minimizedAffinity 1.26326764
REMARK minimizedRMSD -1
REMARK  0 active torsions:
REMARK  status: ('A' for Active; 'I' for Inactive)
ROOT
ATOM      1  C   UNL d   1      -0.129  -3.694   0.700  0.00  0.00    -0.002 A 
ATOM      2  C1  UNL d   1       1.060  -3.398   0.049  0.00  0.00     0.010 A 
ATOM      3  C2  UNL d   1       1.340  -2.093  -0.358  0.00  0.00     0.041 A 
ATOM      4  C3  UNL d   1       0.398  -1.079  -0.096  0.00  0.00    -0.075 A 
ATOM      5  S   UNL d   1       0.527   0.591  -0.501  0.00  0.00     0.015 SA
ATOM      6  C4  UNL d   1      -0.992   0.952   0.181  0.00  0.00     0.022 A 
ATOM      7  C5  UNL d   1      -1.598  -0.164   0.710  0.00  0.00     0.026 A 
ATOM      8  C6  UNL d   1      -0.806  -1.353   0.559  0.00  0.00    -0.082 A 
ATOM      9  C7  UNL d   1      -1.062  -2.686   0.959  0.00  0.00     0.045 A 
ENDROOT
TORSDOF 0
ENDMDL
