MODEL 1
REMARK minimizedAffinity -2.72744107
REMARK minimizedRMSD -1
REMARK  0 active torsions:
REMARK  status: ('A' for Active; 'I' for Inactive)
ROOT
ATOM      1  C   UNL d   1      -0.856  -2.629   1.343  0.00  0.00    -0.002 A 
ATOM      2  C1  UNL d   1       0.041  -2.912   0.322  0.00  0.00     0.010 A 
ATOM      3  C2  UNL d   1       0.508  -1.896  -0.515  0.00  0.00     0.041 A 
ATOM      4  C3  UNL d   1       0.056  -0.578  -0.305  0.00  0.00    -0.075 A 
ATOM      5  S   UNL d   1       0.492   0.826  -1.204  0.00  0.00     0.015 SA
ATOM      6  C4  UNL d   1      -0.500   1.835  -0.254  0.00  0.00     0.022 A 
ATOM      7  C5  UNL d   1      -1.155   1.133   0.730  0.00  0.00     0.026 A 
ATOM      8  C6  UNL d   1      -0.846  -0.269   0.717  0.00  0.00    -0.082 A 
ATOM      9  C7  UNL d   1      -1.301  -1.321   1.548  0.00  0.00     0.045 A 
ENDROOT
TORSDOF 0
ENDMDL
