MODEL 1
REMARK minimizedAffinity -1.43029928
REMARK minimizedRMSD -1
REMARK  0 active torsions:
REMARK  status: ('A' for Active; 'I' for Inactive)
ROOT
ATOM      1  C   UNL d   1      -0.456  -2.922   0.685  0.00  0.00    -0.002 A 
ATOM      2  C1  UNL d   1       0.505  -3.061  -0.305  0.00  0.00     0.010 A 
ATOM      3  C2  UNL d   1       1.056  -1.937  -0.924  0.00  0.00     0.041 A 
ATOM      4  C3  UNL d   1       0.621  -0.658  -0.525  0.00  0.00    -0.075 A 
ATOM      5  S   UNL d   1       1.155   0.861  -1.141  0.00  0.00     0.015 SA
ATOM      6  C4  UNL d   1       0.120   1.730  -0.103  0.00  0.00     0.022 A 
ATOM      7  C5  UNL d   1      -0.622   0.898   0.701  0.00  0.00     0.026 A 
ATOM      8  C6  UNL d   1      -0.346  -0.492   0.472  0.00  0.00    -0.082 A 
ATOM      9  C7  UNL d   1      -0.885  -1.652   1.079  0.00  0.00     0.045 A 
ENDROOT
TORSDOF 0
ENDMDL
