MODEL 1
REMARK minimizedAffinity -3.80347872
REMARK minimizedRMSD -1
REMARK  0 active torsions:
REMARK  status: ('A' for Active; 'I' for Inactive)
ROOT
ATOM      1  C   UNL d   1       1.128   0.367   0.983  0.00  0.00     0.077 C 
ATOM      2  C1  UNL d   1       1.299   1.377  -0.112  0.00  0.00    -0.074 A 
ATOM      3  C2  UNL d   1       1.431   0.976  -1.445  0.00  0.00    -0.005 A 
ATOM      4  C3  UNL d   1       1.580   1.928  -2.454  0.00  0.00     0.006 A 
ATOM      5  C4  UNL d   1       1.598   3.287  -2.140  0.00  0.00    -0.005 A 
ATOM      6  C5  UNL d   1       1.467   3.707  -0.813  0.00  0.00    -0.074 A 
ATOM      7  C6  UNL d   1       1.475   5.165  -0.460  0.00  0.00     0.077 C 
ATOM      8  C7  UNL d   1       1.311   2.745   0.194  0.00  0.00    -0.001 A 
ENDROOT
TORSDOF 0
ENDMDL
