MODEL 1
REMARK minimizedAffinity 0.50848937
REMARK minimizedRMSD -1
REMARK  0 active torsions:
REMARK  status: ('A' for Active; 'I' for Inactive)
ROOT
ATOM      1  C   UNL d   1       1.762  -0.235  -3.542  0.00  0.00     0.077 C 
ATOM      2  C1  UNL d   1       1.470   0.604  -2.333  0.00  0.00    -0.074 A 
ATOM      3  C2  UNL d   1       1.196   0.012  -1.096  0.00  0.00    -0.005 A 
ATOM      4  C3  UNL d   1       0.936   0.805   0.021  0.00  0.00     0.006 A 
ATOM      5  C4  UNL d   1       0.947   2.196  -0.087  0.00  0.00    -0.005 A 
ATOM      6  C5  UNL d   1       1.220   2.806  -1.316  0.00  0.00    -0.074 A 
ATOM      7  C6  UNL d   1       1.245   4.300  -1.447  0.00  0.00     0.077 C 
ATOM      8  C7  UNL d   1       1.487   2.002  -2.432  0.00  0.00    -0.001 A 
ENDROOT
TORSDOF 0
ENDMDL
