MODEL 1
REMARK minimizedAffinity -3.39148879
REMARK minimizedRMSD -1
REMARK  0 active torsions:
REMARK  status: ('A' for Active; 'I' for Inactive)
ROOT
ATOM      1  C   UNL d   1       1.312   1.346   2.251  0.00  0.00     0.077 C 
ATOM      2  C1  UNL d   1       1.343   1.492   0.759  0.00  0.00    -0.074 A 
ATOM      3  C2  UNL d   1       1.031   0.414  -0.076  0.00  0.00    -0.005 A 
ATOM      4  C3  UNL d   1       1.055   0.568  -1.462  0.00  0.00     0.006 A 
ATOM      5  C4  UNL d   1       1.391   1.798  -2.027  0.00  0.00    -0.005 A 
ATOM      6  C5  UNL d   1       1.705   2.888  -1.208  0.00  0.00    -0.074 A 
ATOM      7  C6  UNL d   1       2.059   4.220  -1.799  0.00  0.00     0.077 C 
ATOM      8  C7  UNL d   1       1.672   2.728   0.184  0.00  0.00    -0.001 A 
ENDROOT
TORSDOF 0
ENDMDL
