MODEL 1
REMARK minimizedAffinity -2.66196489
REMARK minimizedRMSD -1
REMARK  0 active torsions:
REMARK  status: ('A' for Active; 'I' for Inactive)
ROOT
ATOM      1  C   UNL d   1       0.793  -0.144  -1.507  0.00  0.00     0.077 C 
ATOM      2  C1  UNL d   1       1.067   1.096  -0.709  0.00  0.00    -0.074 A 
ATOM      3  C2  UNL d   1       1.144   1.051   0.687  0.00  0.00    -0.005 A 
ATOM      4  C3  UNL d   1       1.408   2.210   1.415  0.00  0.00     0.006 A 
ATOM      5  C4  UNL d   1       1.598   3.426   0.756  0.00  0.00    -0.005 A 
ATOM      6  C5  UNL d   1       1.525   3.491  -0.639  0.00  0.00    -0.074 A 
ATOM      7  C6  UNL d   1       1.736   4.787  -1.364  0.00  0.00     0.077 C 
ATOM      8  C7  UNL d   1       1.266   2.320  -1.364  0.00  0.00    -0.001 A 
ENDROOT
TORSDOF 0
ENDMDL
