MODEL 1
REMARK minimizedAffinity -0.52331692
REMARK minimizedRMSD -1
REMARK  0 active torsions:
REMARK  status: ('A' for Active; 'I' for Inactive)
ROOT
ATOM      1  C   UNL d   1       0.972   3.177  -2.611  0.00  0.00     0.077 C 
ATOM      2  C1  UNL d   1       1.177   2.111  -1.577  0.00  0.00    -0.074 A 
ATOM      3  C2  UNL d   1       1.069   0.757  -1.910  0.00  0.00    -0.005 A 
ATOM      4  C3  UNL d   1       1.272  -0.225  -0.940  0.00  0.00     0.006 A 
ATOM      5  C4  UNL d   1       1.585   0.138   0.371  0.00  0.00    -0.005 A 
ATOM      6  C5  UNL d   1       1.699   1.487   0.722  0.00  0.00    -0.074 A 
ATOM      7  C6  UNL d   1       2.045   1.893   2.124  0.00  0.00     0.077 C 
ATOM      8  C7  UNL d   1       1.500   2.466  -0.260  0.00  0.00    -0.001 A 
ENDROOT
TORSDOF 0
ENDMDL
