MODEL 1
REMARK minimizedAffinity -3.21481919
REMARK minimizedRMSD -1
REMARK  0 active torsions:
REMARK  status: ('A' for Active; 'I' for Inactive)
ROOT
ATOM      1  C   UNL d   1       2.358   3.867  -1.838  0.00  0.00     0.077 C 
ATOM      2  C1  UNL d   1       1.782   2.517  -1.529  0.00  0.00    -0.074 A 
ATOM      3  C2  UNL d   1       1.421   1.638  -2.554  0.00  0.00    -0.005 A 
ATOM      4  C3  UNL d   1       0.895   0.382  -2.251  0.00  0.00     0.006 A 
ATOM      5  C4  UNL d   1       0.725  -0.007  -0.922  0.00  0.00    -0.005 A 
ATOM      6  C5  UNL d   1       1.082   0.859   0.117  0.00  0.00    -0.074 A 
ATOM      7  C6  UNL d   1       0.915   0.453   1.551  0.00  0.00     0.077 C 
ATOM      8  C7  UNL d   1       1.616   2.116  -0.195  0.00  0.00    -0.001 A 
ENDROOT
TORSDOF 0
ENDMDL
