MODEL 1
REMARK minimizedAffinity 8.06617641
REMARK minimizedRMSD -1
REMARK  0 active torsions:
REMARK  status: ('A' for Active; 'I' for Inactive)
ROOT
ATOM      1  C   UNL d   1       2.460  -0.419   5.984  0.00  0.00     0.077 C 
ATOM      2  C1  UNL d   1       0.996  -0.742   5.980  0.00  0.00    -0.074 A 
ATOM      3  C2  UNL d   1       0.552  -2.068   5.992  0.00  0.00    -0.005 A 
ATOM      4  C3  UNL d   1      -0.813  -2.353   5.999  0.00  0.00     0.006 A 
ATOM      5  C4  UNL d   1      -1.747  -1.316   5.993  0.00  0.00    -0.005 A 
ATOM      6  C5  UNL d   1      -1.322   0.016   5.982  0.00  0.00    -0.074 A 
ATOM      7  C6  UNL d   1      -2.313   1.143   5.985  0.00  0.00     0.077 C 
ATOM      8  C7  UNL d   1       0.051   0.294   5.982  0.00  0.00    -0.001 A 
ENDROOT
TORSDOF 0
ENDMDL
