MODEL 1
REMARK minimizedAffinity 1.96092451
REMARK minimizedRMSD -1
REMARK  0 active torsions:
REMARK  status: ('A' for Active; 'I' for Inactive)
ROOT
ATOM      1  C   UNL d   1       1.376   4.323   1.404  0.00  0.00     0.077 C 
ATOM      2  C1  UNL d   1       1.365   3.323   0.287  0.00  0.00    -0.074 A 
ATOM      3  C2  UNL d   1       1.473   3.733  -1.046  0.00  0.00    -0.005 A 
ATOM      4  C3  UNL d   1       1.471   2.791  -2.074  0.00  0.00     0.006 A 
ATOM      5  C4  UNL d   1       1.362   1.431  -1.781  0.00  0.00    -0.005 A 
ATOM      6  C5  UNL d   1       1.254   1.002  -0.454  0.00  0.00    -0.074 A 
ATOM      7  C6  UNL d   1       1.145  -0.456  -0.121  0.00  0.00     0.077 C 
ATOM      8  C7  UNL d   1       1.264   1.955   0.574  0.00  0.00    -0.001 A 
ENDROOT
TORSDOF 0
ENDMDL
