MODEL 1
REMARK minimizedAffinity -4.15145254
REMARK minimizedRMSD -1
REMARK  0 active torsions:
REMARK  status: ('A' for Active; 'I' for Inactive)
ROOT
ATOM      1  C   UNL d   1       0.809  -1.201  -0.929  0.00  0.00     0.077 C 
ATOM      2  C1  UNL d   1       0.853   0.205  -0.409  0.00  0.00    -0.074 A 
ATOM      3  C2  UNL d   1       0.728   0.470   0.959  0.00  0.00    -0.005 A 
ATOM      4  C3  UNL d   1       0.781   1.783   1.429  0.00  0.00     0.006 A 
ATOM      5  C4  UNL d   1       0.959   2.841   0.537  0.00  0.00    -0.005 A 
ATOM      6  C5  UNL d   1       1.086   2.596  -0.833  0.00  0.00    -0.074 A 
ATOM      7  C6  UNL d   1       1.287   3.722  -1.804  0.00  0.00     0.077 C 
ATOM      8  C7  UNL d   1       1.039   1.274  -1.297  0.00  0.00    -0.001 A 
ENDROOT
TORSDOF 0
ENDMDL
