MODEL 1
REMARK minimizedAffinity -5.69115496
REMARK minimizedRMSD -1
REMARK  0 active torsions:
REMARK  status: ('A' for Active; 'I' for Inactive)
ROOT
ATOM      1  C   UNL d   1       1.970   4.805  -0.962  0.00  0.00     0.077 C 
ATOM      2  C1  UNL d   1       1.558   3.568  -0.220  0.00  0.00    -0.074 A 
ATOM      3  C2  UNL d   1       1.445   3.571   1.174  0.00  0.00    -0.005 A 
ATOM      4  C3  UNL d   1       1.051   2.416   1.850  0.00  0.00     0.006 A 
ATOM      5  C4  UNL d   1       0.766   1.249   1.139  0.00  0.00    -0.005 A 
ATOM      6  C5  UNL d   1       0.873   1.228  -0.255  0.00  0.00    -0.074 A 
ATOM      7  C6  UNL d   1       0.561  -0.015  -1.034  0.00  0.00     0.077 C 
ATOM      8  C7  UNL d   1       1.262   2.394  -0.927  0.00  0.00    -0.001 A 
ENDROOT
TORSDOF 0
ENDMDL
