MODEL 1
REMARK minimizedAffinity -1.64087689
REMARK minimizedRMSD -1
REMARK  0 active torsions:
REMARK  status: ('A' for Active; 'I' for Inactive)
ROOT
ATOM      1  C   UNL d   1       2.128   5.999  -1.246  0.00  0.00     0.077 C 
ATOM      2  C1  UNL d   1       1.749   4.652  -0.706  0.00  0.00    -0.074 A 
ATOM      3  C2  UNL d   1       1.492   4.470   0.657  0.00  0.00    -0.005 A 
ATOM      4  C3  UNL d   1       1.132   3.213   1.143  0.00  0.00     0.006 A 
ATOM      5  C4  UNL d   1       1.025   2.127   0.272  0.00  0.00    -0.005 A 
ATOM      6  C5  UNL d   1       1.277   2.291  -1.093  0.00  0.00    -0.074 A 
ATOM      7  C6  UNL d   1       1.157   1.137  -2.044  0.00  0.00     0.077 C 
ATOM      8  C7  UNL d   1       1.632   3.558  -1.575  0.00  0.00    -0.001 A 
ENDROOT
TORSDOF 0
ENDMDL
