MODEL 1
REMARK minimizedAffinity -2.46121478
REMARK minimizedRMSD -1
REMARK  0 active torsions:
REMARK  status: ('A' for Active; 'I' for Inactive)
ROOT
ATOM      1  C   UNL d   1       1.483   4.031  -1.277  0.00  0.00     0.077 C 
ATOM      2  C1  UNL d   1       1.353   2.572  -0.955  0.00  0.00    -0.074 A 
ATOM      3  C2  UNL d   1       1.258   2.134   0.370  0.00  0.00    -0.005 A 
ATOM      4  C3  UNL d   1       1.129   0.774   0.653  0.00  0.00     0.006 A 
ATOM      5  C4  UNL d   1       1.093  -0.159  -0.383  0.00  0.00    -0.005 A 
ATOM      6  C5  UNL d   1       1.185   0.260  -1.714  0.00  0.00    -0.074 A 
ATOM      7  C6  UNL d   1       1.139  -0.729  -2.840  0.00  0.00     0.077 C 
ATOM      8  C7  UNL d   1       1.308   1.629  -1.991  0.00  0.00    -0.001 A 
ENDROOT
TORSDOF 0
ENDMDL
