MODEL 1
REMARK minimizedAffinity -3.82774496
REMARK minimizedRMSD -1
REMARK  0 active torsions:
REMARK  status: ('A' for Active; 'I' for Inactive)
ROOT
ATOM      1  C   UNL d   1       1.869   4.105  -1.668  0.00  0.00     0.077 C 
ATOM      2  C1  UNL d   1       1.549   2.741  -1.132  0.00  0.00    -0.074 A 
ATOM      3  C2  UNL d   1       1.445   1.639  -1.987  0.00  0.00    -0.005 A 
ATOM      4  C3  UNL d   1       1.156   0.375  -1.474  0.00  0.00     0.006 A 
ATOM      5  C4  UNL d   1       0.970   0.199  -0.102  0.00  0.00    -0.005 A 
ATOM      6  C5  UNL d   1       1.071   1.289   0.769  0.00  0.00    -0.074 A 
ATOM      7  C6  UNL d   1       0.884   1.116   2.247  0.00  0.00     0.077 C 
ATOM      8  C7  UNL d   1       1.368   2.555   0.246  0.00  0.00    -0.001 A 
ENDROOT
TORSDOF 0
ENDMDL
