MODEL 1
REMARK minimizedAffinity -2.16053247
REMARK minimizedRMSD -1
REMARK  0 active torsions:
REMARK  status: ('A' for Active; 'I' for Inactive)
ROOT
ATOM      1  C   UNL d   1       1.654  -0.313  -2.265  0.00  0.00     0.077 C 
ATOM      2  C1  UNL d   1       1.368   0.781  -1.280  0.00  0.00    -0.074 A 
ATOM      3  C2  UNL d   1       0.878   0.489  -0.003  0.00  0.00    -0.005 A 
ATOM      4  C3  UNL d   1       0.626   1.517   0.906  0.00  0.00     0.006 A 
ATOM      5  C4  UNL d   1       0.861   2.845   0.547  0.00  0.00    -0.005 A 
ATOM      6  C5  UNL d   1       1.351   3.156  -0.725  0.00  0.00    -0.074 A 
ATOM      7  C6  UNL d   1       1.618   4.577  -1.123  0.00  0.00     0.077 C 
ATOM      8  C7  UNL d   1       1.609   2.117  -1.630  0.00  0.00    -0.001 A 
ENDROOT
TORSDOF 0
ENDMDL
