MODEL 1
REMARK minimizedAffinity -3.47833514
REMARK minimizedRMSD -1
REMARK  0 active torsions:
REMARK  status: ('A' for Active; 'I' for Inactive)
ROOT
ATOM      1  C   UNL d   1       1.755   5.288  -1.077  0.00  0.00     0.077 C 
ATOM      2  C1  UNL d   1       1.388   3.834  -1.091  0.00  0.00    -0.074 A 
ATOM      3  C2  UNL d   1       0.617   3.297  -2.127  0.00  0.00    -0.005 A 
ATOM      4  C3  UNL d   1       0.292   1.941  -2.131  0.00  0.00     0.006 A 
ATOM      5  C4  UNL d   1       0.734   1.109  -1.102  0.00  0.00    -0.005 A 
ATOM      6  C5  UNL d   1       1.507   1.628  -0.058  0.00  0.00    -0.074 A 
ATOM      7  C6  UNL d   1       1.998   0.745   1.050  0.00  0.00     0.077 C 
ATOM      8  C7  UNL d   1       1.835   2.990  -0.065  0.00  0.00    -0.001 A 
ENDROOT
TORSDOF 0
ENDMDL
