MODEL 1
REMARK minimizedAffinity 0.900209069
REMARK minimizedRMSD -1
REMARK  0 active torsions:
REMARK  status: ('A' for Active; 'I' for Inactive)
ROOT
ATOM      1  C   UNL d   1      -5.575  -1.723   3.040  0.00  0.00     0.077 C 
ATOM      2  C1  UNL d   1      -4.843  -0.490   3.478  0.00  0.00    -0.074 A 
ATOM      3  C2  UNL d   1      -5.445   0.770   3.398  0.00  0.00    -0.005 A 
ATOM      4  C3  UNL d   1      -4.756   1.907   3.818  0.00  0.00     0.006 A 
ATOM      5  C4  UNL d   1      -3.459   1.797   4.322  0.00  0.00    -0.005 A 
ATOM      6  C5  UNL d   1      -2.841   0.545   4.411  0.00  0.00    -0.074 A 
ATOM      7  C6  UNL d   1      -1.452   0.407   4.959  0.00  0.00     0.077 C 
ATOM      8  C7  UNL d   1      -3.543  -0.594   3.993  0.00  0.00    -0.001 A 
ENDROOT
TORSDOF 0
ENDMDL
