MODEL 1
REMARK minimizedAffinity 8.23817253
REMARK minimizedRMSD -1
REMARK  0 active torsions:
REMARK  status: ('A' for Active; 'I' for Inactive)
ROOT
ATOM      1  C   UNL d   1      -0.251   5.336   5.219  0.00  0.00    -0.002 A 
ATOM      2  C1  UNL d   1      -0.107   4.931   3.899  0.00  0.00     0.010 A 
ATOM      3  C2  UNL d   1       1.157   4.861   3.312  0.00  0.00     0.041 A 
ATOM      4  C3  UNL d   1       2.286   5.207   4.081  0.00  0.00    -0.075 A 
ATOM      5  S   UNL d   1       3.933   5.196   3.572  0.00  0.00     0.015 SA
ATOM      6  C4  UNL d   1       4.485   5.729   5.094  0.00  0.00     0.022 A 
ATOM      7  C5  UNL d   1       3.451   5.915   5.981  0.00  0.00     0.026 A 
ATOM      8  C6  UNL d   1       2.166   5.617   5.411  0.00  0.00    -0.082 A 
ATOM      9  C7  UNL d   1       0.870   5.678   5.978  0.00  0.00     0.045 A 
ENDROOT
TORSDOF 0
ENDMDL
