MODEL 1
REMARK minimizedAffinity 9.69815159
REMARK minimizedRMSD -1
REMARK  0 active torsions:
REMARK  status: ('A' for Active; 'I' for Inactive)
ROOT
ATOM      1  C   UNL d   1       2.571   5.179   4.094  0.00  0.00    -0.002 A 
ATOM      2  C1  UNL d   1       2.515   5.820   5.324  0.00  0.00     0.010 A 
ATOM      3  C2  UNL d   1       1.296   5.990   5.981  0.00  0.00     0.041 A 
ATOM      4  C3  UNL d   1       0.121   5.499   5.377  0.00  0.00    -0.075 A 
ATOM      5  S   UNL d   1      -1.484   5.593   5.998  0.00  0.00     0.015 SA
ATOM      6  C4  UNL d   1      -2.134   4.783   4.646  0.00  0.00     0.022 A 
ATOM      7  C5  UNL d   1      -1.164   4.443   3.734  0.00  0.00     0.026 A 
ATOM      8  C6  UNL d   1       0.152   4.849   4.140  0.00  0.00    -0.082 A 
ATOM      9  C7  UNL d   1       1.404   4.693   3.498  0.00  0.00     0.045 A 
ENDROOT
TORSDOF 0
ENDMDL
