MODEL 1
REMARK minimizedAffinity 5.36183023
REMARK minimizedRMSD -1
REMARK  0 active torsions:
REMARK  status: ('A' for Active; 'I' for Inactive)
ROOT
ATOM      1  C   UNL d   1       2.310   5.172   4.045  0.00  0.00    -0.002 A 
ATOM      2  C1  UNL d   1       2.328   5.732   5.314  0.00  0.00     0.010 A 
ATOM      3  C2  UNL d   1       1.136   6.000   5.990  0.00  0.00     0.041 A 
ATOM      4  C3  UNL d   1      -0.087   5.690   5.363  0.00  0.00    -0.075 A 
ATOM      5  S   UNL d   1      -1.671   5.929   6.000  0.00  0.00     0.015 SA
ATOM      6  C4  UNL d   1      -2.410   5.292   4.602  0.00  0.00     0.022 A 
ATOM      7  C5  UNL d   1      -1.485   4.902   3.663  0.00  0.00     0.026 A 
ATOM      8  C6  UNL d   1      -0.131   5.124   4.086  0.00  0.00    -0.082 A 
ATOM      9  C7  UNL d   1       1.095   4.866   3.427  0.00  0.00     0.045 A 
ENDROOT
TORSDOF 0
ENDMDL
