MODEL 1
REMARK minimizedAffinity 14.0800781
REMARK minimizedRMSD -1
REMARK  0 active torsions:
REMARK  status: ('A' for Active; 'I' for Inactive)
ROOT
ATOM      1  C   UNL d   1       2.161  -1.510   1.005  0.00  0.00    -0.002 A 
ATOM      2  C1  UNL d   1       1.039  -0.834   1.465  0.00  0.00     0.010 A 
ATOM      3  C2  UNL d   1       0.035  -1.514   2.158  0.00  0.00     0.041 A 
ATOM      4  C3  UNL d   1       0.180  -2.897   2.386  0.00  0.00    -0.075 A 
ATOM      5  S   UNL d   1      -0.920  -3.935   3.212  0.00  0.00     0.015 SA
ATOM      6  C4  UNL d   1       0.073  -5.300   2.975  0.00  0.00     0.022 A 
ATOM      7  C5  UNL d   1       1.220  -4.988   2.284  0.00  0.00     0.026 A 
ATOM      8  C6  UNL d   1       1.301  -3.598   1.934  0.00  0.00    -0.082 A 
ATOM      9  C7  UNL d   1       2.301  -2.881   1.233  0.00  0.00     0.045 A 
ENDROOT
TORSDOF 0
ENDMDL
