MODEL 1
REMARK minimizedAffinity 9.89452076
REMARK minimizedRMSD -1
REMARK  0 active torsions:
REMARK  status: ('A' for Active; 'I' for Inactive)
ROOT
ATOM      1  C   UNL d   1      -3.503   4.209   5.309  0.00  0.00    -0.002 A 
ATOM      2  C1  UNL d   1      -3.202   3.665   4.068  0.00  0.00     0.010 A 
ATOM      3  C2  UNL d   1      -1.946   3.862   3.492  0.00  0.00     0.041 A 
ATOM      4  C3  UNL d   1      -0.986   4.620   4.192  0.00  0.00    -0.075 A 
ATOM      5  S   UNL d   1       0.619   4.991   3.683  0.00  0.00     0.015 SA
ATOM      6  C4  UNL d   1       0.943   5.879   5.101  0.00  0.00     0.022 A 
ATOM      7  C5  UNL d   1      -0.136   5.902   5.953  0.00  0.00     0.026 A 
ATOM      8  C6  UNL d   1      -1.265   5.177   5.443  0.00  0.00    -0.082 A 
ATOM      9  C7  UNL d   1      -2.549   4.960   6.000  0.00  0.00     0.045 A 
ENDROOT
TORSDOF 0
ENDMDL
