MODEL 1
REMARK minimizedAffinity 12.7713432
REMARK minimizedRMSD -1
REMARK  0 active torsions:
REMARK  status: ('A' for Active; 'I' for Inactive)
ROOT
ATOM      1  C   UNL d   1       0.779  -1.783   2.065  0.00  0.00    -0.002 A 
ATOM      2  C1  UNL d   1       0.875  -1.605   0.692  0.00  0.00     0.010 A 
ATOM      3  C2  UNL d   1       1.895  -2.221  -0.035  0.00  0.00     0.041 A 
ATOM      4  C3  UNL d   1       2.825  -3.030   0.648  0.00  0.00    -0.075 A 
ATOM      5  S   UNL d   1       4.157  -3.884  -0.036  0.00  0.00     0.015 SA
ATOM      6  C4  UNL d   1       4.630  -4.507   1.479  0.00  0.00     0.022 A 
ATOM      7  C5  UNL d   1       3.804  -4.083   2.492  0.00  0.00     0.026 A 
ATOM      8  C6  UNL d   1       2.749  -3.225   2.030  0.00  0.00    -0.082 A 
ATOM      9  C7  UNL d   1       1.704  -2.586   2.739  0.00  0.00     0.045 A 
ENDROOT
TORSDOF 0
ENDMDL
