MODEL 1
REMARK minimizedAffinity 3.08286524
REMARK minimizedRMSD -1
REMARK  0 active torsions:
REMARK  status: ('A' for Active; 'I' for Inactive)
ROOT
ATOM      1  C   UNL d   1       2.774  -1.467   1.351  0.00  0.00    -0.002 A 
ATOM      2  C1  UNL d   1       1.898  -2.471   0.963  0.00  0.00     0.010 A 
ATOM      3  C2  UNL d   1       2.310  -3.805   0.946  0.00  0.00     0.041 A 
ATOM      4  C3  UNL d   1       3.629  -4.116   1.331  0.00  0.00    -0.075 A 
ATOM      5  S   UNL d   1       4.354  -5.679   1.390  0.00  0.00     0.015 SA
ATOM      6  C4  UNL d   1       5.843  -5.051   1.932  0.00  0.00     0.022 A 
ATOM      7  C5  UNL d   1       5.806  -3.683   2.070  0.00  0.00     0.026 A 
ATOM      8  C6  UNL d   1       4.529  -3.122   1.727  0.00  0.00    -0.082 A 
ATOM      9  C7  UNL d   1       4.081  -1.779   1.732  0.00  0.00     0.045 A 
ENDROOT
TORSDOF 0
ENDMDL
