MODEL 1
REMARK minimizedAffinity -2.38080215
REMARK minimizedRMSD -1
REMARK  1 active torsions:
REMARK  status: ('A' for Active; 'I' for Inactive)
REMARK    1  A    between atoms: C1_2  and  C2_3 
ROOT
ATOM      1  C2  UNL d   1      -0.297   0.605   0.282  0.00  0.00    -0.077 A 
ATOM      2  C3  UNL d   1       0.222  -0.696   0.323  0.00  0.00     0.002 A 
ATOM      3  C4  UNL d   1       1.261  -1.070  -0.532  0.00  0.00     0.002 A 
ATOM      4  C5  UNL d   1       1.792  -0.147  -1.430  0.00  0.00    -0.004 A 
ATOM      5  C6  UNL d   1       1.281   1.149  -1.481  0.00  0.00     0.002 A 
ATOM      6  C7  UNL d   1       0.241   1.524  -0.628  0.00  0.00     0.002 A 
ENDROOT
BRANCH   1   7
ATOM      7  C1  UNL d   1      -1.384   1.024   1.237  0.00  0.00     0.055 C 
ATOM      8  C   UNL d   1      -1.868  -0.150   2.075  0.00  0.00     0.019 C 
ENDBRANCH   1   7
TORSDOF 1
ENDMDL
