MODEL 1
REMARK minimizedAffinity -2.88013363
REMARK minimizedRMSD -1
REMARK  1 active torsions:
REMARK  status: ('A' for Active; 'I' for Inactive)
REMARK    1  A    between atoms: C1_2  and  C2_3 
ROOT
ATOM      1  C2  UNL d   1      -0.333   0.446   0.761  0.00  0.00    -0.077 A 
ATOM      2  C3  UNL d   1       0.461   1.599   0.849  0.00  0.00     0.002 A 
ATOM      3  C4  UNL d   1       1.299   1.961  -0.207  0.00  0.00     0.002 A 
ATOM      4  C5  UNL d   1       1.348   1.180  -1.360  0.00  0.00    -0.004 A 
ATOM      5  C6  UNL d   1       0.564   0.031  -1.456  0.00  0.00     0.002 A 
ATOM      6  C7  UNL d   1      -0.274  -0.334  -0.401  0.00  0.00     0.002 A 
ENDROOT
BRANCH   1   7
ATOM      7  C1  UNL d   1      -1.274   0.080   1.879  0.00  0.00     0.055 C 
ATOM      8  C   UNL d   1      -2.144   1.263   2.280  0.00  0.00     0.019 C 
ENDBRANCH   1   7
TORSDOF 1
ENDMDL
