MODEL 1
REMARK minimizedAffinity -3.4409337
REMARK minimizedRMSD -1
REMARK  1 active torsions:
REMARK  status: ('A' for Active; 'I' for Inactive)
REMARK    1  A    between atoms: C1_2  and  C2_3 
ROOT
ATOM      1  C2  UNL d   1      -0.890   0.748   0.197  0.00  0.00    -0.077 A 
ATOM      2  C3  UNL d   1       0.096  -0.216   0.454  0.00  0.00     0.002 A 
ATOM      3  C4  UNL d   1       1.316  -0.176  -0.223  0.00  0.00     0.002 A 
ATOM      4  C5  UNL d   1       1.564   0.827  -1.158  0.00  0.00    -0.004 A 
ATOM      5  C6  UNL d   1       0.589   1.788  -1.423  0.00  0.00     0.002 A 
ATOM      6  C7  UNL d   1      -0.631   1.749  -0.748  0.00  0.00     0.002 A 
ENDROOT
BRANCH   1   7
ATOM      7  C1  UNL d   1      -2.187   0.736   0.961  0.00  0.00     0.055 C 
ATOM      8  C   UNL d   1      -1.978   0.283   2.399  0.00  0.00     0.019 C 
ENDBRANCH   1   7
TORSDOF 1
ENDMDL
