MODEL 1
REMARK minimizedAffinity -3.34109306
REMARK minimizedRMSD -1
REMARK  1 active torsions:
REMARK  status: ('A' for Active; 'I' for Inactive)
REMARK    1  A    between atoms: C1_2  and  C2_3 
ROOT
ATOM      1  C2  UNL d   1       0.209   0.077   0.438  0.00  0.00    -0.077 A 
ATOM      2  C3  UNL d   1       0.798  -1.134   0.051  0.00  0.00     0.002 A 
ATOM      3  C4  UNL d   1       1.815  -1.152  -0.906  0.00  0.00     0.002 A 
ATOM      4  C5  UNL d   1       2.253   0.039  -1.481  0.00  0.00    -0.004 A 
ATOM      5  C6  UNL d   1       1.673   1.249  -1.104  0.00  0.00     0.002 A 
ATOM      6  C7  UNL d   1       0.656   1.269  -0.148  0.00  0.00     0.002 A 
ENDROOT
BRANCH   1   7
ATOM      7  C1  UNL d   1      -0.853   0.104   1.506  0.00  0.00     0.055 C 
ATOM      8  C   UNL d   1      -2.248   0.103   0.899  0.00  0.00     0.019 C 
ENDBRANCH   1   7
TORSDOF 1
ENDMDL
