MODEL 1
REMARK minimizedAffinity -3.58293033
REMARK minimizedRMSD -1
REMARK  1 active torsions:
REMARK  status: ('A' for Active; 'I' for Inactive)
REMARK    1  A    between atoms: C1_2  and  C2_3 
ROOT
ATOM      1  C2  UNL d   1       1.042  -0.231  -0.788  0.00  0.00    -0.077 A 
ATOM      2  C3  UNL d   1       2.032   0.174  -1.695  0.00  0.00     0.002 A 
ATOM      3  C4  UNL d   1       2.862  -0.771  -2.302  0.00  0.00     0.002 A 
ATOM      4  C5  UNL d   1       2.709  -2.125  -2.012  0.00  0.00    -0.004 A 
ATOM      5  C6  UNL d   1       1.729  -2.537  -1.109  0.00  0.00     0.002 A 
ATOM      6  C7  UNL d   1       0.899  -1.595  -0.501  0.00  0.00     0.002 A 
ENDROOT
BRANCH   1   7
ATOM      7  C1  UNL d   1       0.113   0.781  -0.170  0.00  0.00     0.055 C 
ATOM      8  C   UNL d   1      -1.259   0.181   0.099  0.00  0.00     0.019 C 
ENDBRANCH   1   7
TORSDOF 1
ENDMDL
