MODEL 1
REMARK minimizedAffinity -2.85580945
REMARK minimizedRMSD -1
REMARK  1 active torsions:
REMARK  status: ('A' for Active; 'I' for Inactive)
REMARK    1  A    between atoms: C1_2  and  C2_3 
ROOT
ATOM      1  C2  UNL d   1      -1.077   0.547   0.933  0.00  0.00    -0.077 A 
ATOM      2  C3  UNL d   1      -1.471   0.583   2.278  0.00  0.00     0.002 A 
ATOM      3  C4  UNL d   1      -2.807   0.805   2.618  0.00  0.00     0.002 A 
ATOM      4  C5  UNL d   1      -3.760   0.987   1.618  0.00  0.00    -0.004 A 
ATOM      5  C6  UNL d   1      -3.378   0.954   0.277  0.00  0.00     0.002 A 
ATOM      6  C7  UNL d   1      -2.043   0.735  -0.063  0.00  0.00     0.002 A 
ENDROOT
BRANCH   1   7
ATOM      7  C1  UNL d   1       0.355   0.260   0.564  0.00  0.00     0.055 C 
ATOM      8  C   UNL d   1       0.755   0.989  -0.710  0.00  0.00     0.019 C 
ENDBRANCH   1   7
TORSDOF 1
ENDMDL
