MODEL 1
REMARK minimizedAffinity -2.67477965
REMARK minimizedRMSD -1
REMARK  1 active torsions:
REMARK  status: ('A' for Active; 'I' for Inactive)
REMARK    1  A    between atoms: C1_2  and  C2_3 
ROOT
ATOM      1  C2  UNL d   1      -1.839   0.631   1.110  0.00  0.00    -0.077 A 
ATOM      2  C3  UNL d   1      -1.090  -0.528   1.356  0.00  0.00     0.002 A 
ATOM      3  C4  UNL d   1       0.085  -0.774   0.643  0.00  0.00     0.002 A 
ATOM      4  C5  UNL d   1       0.523   0.136  -0.317  0.00  0.00    -0.004 A 
ATOM      5  C6  UNL d   1      -0.217   1.291  -0.570  0.00  0.00     0.002 A 
ATOM      6  C7  UNL d   1      -1.392   1.537   0.141  0.00  0.00     0.002 A 
ENDROOT
BRANCH   1   7
ATOM      7  C1  UNL d   1      -3.081   0.921   1.913  0.00  0.00     0.055 C 
ATOM      8  C   UNL d   1      -4.277   0.145   1.382  0.00  0.00     0.019 C 
ENDBRANCH   1   7
TORSDOF 1
ENDMDL
