MODEL 1
REMARK minimizedAffinity -2.69012809
REMARK minimizedRMSD -1
REMARK  1 active torsions:
REMARK  status: ('A' for Active; 'I' for Inactive)
REMARK    1  A    between atoms: C1_2  and  C2_3 
ROOT
ATOM      1  C2  UNL d   1      -1.451   0.700   0.988  0.00  0.00    -0.077 A 
ATOM      2  C3  UNL d   1      -0.145   0.193   1.044  0.00  0.00     0.002 A 
ATOM      3  C4  UNL d   1       0.816   0.616   0.123  0.00  0.00     0.002 A 
ATOM      4  C5  UNL d   1       0.483   1.549  -0.856  0.00  0.00    -0.004 A 
ATOM      5  C6  UNL d   1      -0.814   2.057  -0.921  0.00  0.00     0.002 A 
ATOM      6  C7  UNL d   1      -1.776   1.635  -0.002  0.00  0.00     0.002 A 
ENDROOT
BRANCH   1   7
ATOM      7  C1  UNL d   1      -2.476   0.283   2.010  0.00  0.00     0.055 C 
ATOM      8  C   UNL d   1      -3.852   0.125   1.381  0.00  0.00     0.019 C 
ENDBRANCH   1   7
TORSDOF 1
ENDMDL
