MODEL 1
REMARK minimizedAffinity -1.17578244
REMARK minimizedRMSD -1
REMARK  1 active torsions:
REMARK  status: ('A' for Active; 'I' for Inactive)
REMARK    1  A    between atoms: C1_2  and  C2_3 
ROOT
ATOM      1  C2  UNL d   1      -1.204   0.173   1.054  0.00  0.00    -0.077 A 
ATOM      2  C3  UNL d   1      -0.866   1.273   0.253  0.00  0.00     0.002 A 
ATOM      3  C4  UNL d   1       0.194   1.189  -0.652  0.00  0.00     0.002 A 
ATOM      4  C5  UNL d   1       0.920   0.006  -0.768  0.00  0.00    -0.004 A 
ATOM      5  C6  UNL d   1       0.593  -1.093   0.025  0.00  0.00     0.002 A 
ATOM      6  C7  UNL d   1      -0.465  -1.011   0.931  0.00  0.00     0.002 A 
ENDROOT
BRANCH   1   7
ATOM      7  C1  UNL d   1      -2.378   0.246   1.995  0.00  0.00     0.055 C 
ATOM      8  C   UNL d   1      -3.493  -0.696   1.564  0.00  0.00     0.019 C 
ENDBRANCH   1   7
TORSDOF 1
ENDMDL
