MODEL 1
REMARK minimizedAffinity -3.3374505
REMARK minimizedRMSD -1
REMARK  1 active torsions:
REMARK  status: ('A' for Active; 'I' for Inactive)
REMARK    1  A    between atoms: C1_2  and  C2_3 
ROOT
ATOM      1  C2  UNL d   1      -1.027   0.129   0.461  0.00  0.00    -0.077 A 
ATOM      2  C3  UNL d   1       0.066  -0.748   0.432  0.00  0.00     0.002 A 
ATOM      3  C4  UNL d   1       1.218  -0.417  -0.284  0.00  0.00     0.002 A 
ATOM      4  C5  UNL d   1       1.289   0.792  -0.973  0.00  0.00    -0.004 A 
ATOM      5  C6  UNL d   1       0.206   1.670  -0.952  0.00  0.00     0.002 A 
ATOM      6  C7  UNL d   1      -0.947   1.340  -0.238  0.00  0.00     0.002 A 
ENDROOT
BRANCH   1   7
ATOM      7  C1  UNL d   1      -2.252  -0.205   1.272  0.00  0.00     0.055 C 
ATOM      8  C   UNL d   1      -2.612   0.929   2.222  0.00  0.00     0.019 C 
ENDBRANCH   1   7
TORSDOF 1
ENDMDL
