MODEL 1
REMARK minimizedAffinity -3.61654544
REMARK minimizedRMSD -1
REMARK  1 active torsions:
REMARK  status: ('A' for Active; 'I' for Inactive)
REMARK    1  A    between atoms: C1_2  and  C2_3 
ROOT
ATOM      1  C2  UNL d   1       0.768   0.670  -0.897  0.00  0.00    -0.077 A 
ATOM      2  C3  UNL d   1       1.008  -0.048   0.283  0.00  0.00     0.002 A 
ATOM      3  C4  UNL d   1      -0.057  -0.465   1.085  0.00  0.00     0.002 A 
ATOM      4  C5  UNL d   1      -1.367  -0.173   0.713  0.00  0.00    -0.004 A 
ATOM      5  C6  UNL d   1      -1.616   0.542  -0.458  0.00  0.00     0.002 A 
ATOM      6  C7  UNL d   1      -0.554   0.961  -1.260  0.00  0.00     0.002 A 
ENDROOT
BRANCH   1   7
ATOM      7  C1  UNL d   1       1.912   1.079  -1.788  0.00  0.00     0.055 C 
ATOM      8  C   UNL d   1       2.298  -0.043  -2.742  0.00  0.00     0.019 C 
ENDBRANCH   1   7
TORSDOF 1
ENDMDL
