MODEL 1
REMARK minimizedAffinity -1.97622561
REMARK minimizedRMSD -1
REMARK  1 active torsions:
REMARK  status: ('A' for Active; 'I' for Inactive)
REMARK    1  A    between atoms: C1_2  and  C2_3 
ROOT
ATOM      1  C2  UNL d   1      -0.043   0.442   0.378  0.00  0.00    -0.077 A 
ATOM      2  C3  UNL d   1       1.347   0.290   0.271  0.00  0.00     0.002 A 
ATOM      3  C4  UNL d   1       2.069   1.034  -0.663  0.00  0.00     0.002 A 
ATOM      4  C5  UNL d   1       1.412   1.939  -1.494  0.00  0.00    -0.004 A 
ATOM      5  C6  UNL d   1       0.030   2.096  -1.398  0.00  0.00     0.002 A 
ATOM      6  C7  UNL d   1      -0.694   1.352  -0.465  0.00  0.00     0.002 A 
ENDROOT
BRANCH   1   7
ATOM      7  C1  UNL d   1      -0.818  -0.324   1.418  0.00  0.00     0.055 C 
ATOM      8  C   UNL d   1      -2.046   0.450   1.874  0.00  0.00     0.019 C 
ENDBRANCH   1   7
TORSDOF 1
ENDMDL
