MODEL 1
REMARK minimizedAffinity -4.11748791
REMARK minimizedRMSD -1
REMARK  1 active torsions:
REMARK  status: ('A' for Active; 'I' for Inactive)
REMARK    1  A    between atoms: C1_2  and  C2_3 
ROOT
ATOM      1  C2  UNL d   1      -1.370   0.561   0.719  0.00  0.00    -0.077 A 
ATOM      2  C3  UNL d   1      -1.646   1.560  -0.225  0.00  0.00     0.002 A 
ATOM      3  C4  UNL d   1      -0.616   2.120  -0.983  0.00  0.00     0.002 A 
ATOM      4  C5  UNL d   1       0.696   1.684  -0.809  0.00  0.00    -0.004 A 
ATOM      5  C6  UNL d   1       0.981   0.693   0.129  0.00  0.00     0.002 A 
ATOM      6  C7  UNL d   1      -0.047   0.133   0.889  0.00  0.00     0.002 A 
ENDROOT
BRANCH   1   7
ATOM      7  C1  UNL d   1      -2.486  -0.078   1.504  0.00  0.00     0.055 C 
ATOM      8  C   UNL d   1      -3.710   0.823   1.559  0.00  0.00     0.019 C 
ENDBRANCH   1   7
TORSDOF 1
ENDMDL
