MODEL 1
REMARK minimizedAffinity -1.43753088
REMARK minimizedRMSD -1
REMARK  0 active torsions:
REMARK  status: ('A' for Active; 'I' for Inactive)
ROOT
ATOM      1  C   UNL d   1       1.440  -1.010   2.417  0.00  0.00     0.124 A 
ATOM      2  C1  UNL d   1       0.083  -0.934   2.133  0.00  0.00     0.062 A 
ATOM      3  C2  UNL d   1      -0.351  -0.380   0.932  0.00  0.00     0.162 A 
ATOM      4  C3  UNL d   1       0.573   0.102   0.005  0.00  0.00    -0.034 A 
ATOM      5  C4  UNL d   1       1.935   0.023   0.298  0.00  0.00     0.162 A 
ATOM      6  C5  UNL d   1       2.364  -0.532   1.499  0.00  0.00     0.062 A 
ATOM      7  F   UNL d   1       3.675  -0.604   1.772  0.00  0.00    -0.097 F 
ATOM      8  F1  UNL d   1       2.850   0.477  -0.572  0.00  0.00    -0.096 F 
ATOM      9  I   UNL d   1      -0.072   0.931  -1.792  0.00  0.00    -0.060 I 
ATOM     10  F2  UNL d   1      -1.668  -0.320   0.685  0.00  0.00    -0.096 F 
ATOM     11  F3  UNL d   1      -0.812  -1.395   3.019  0.00  0.00    -0.097 F 
ATOM     12  F4  UNL d   1       1.854  -1.542   3.574  0.00  0.00    -0.092 F 
ENDROOT
TORSDOF 0
ENDMDL
