MODEL 1
REMARK minimizedAffinity -0.499410689
REMARK minimizedRMSD -1
REMARK  0 active torsions:
REMARK  status: ('A' for Active; 'I' for Inactive)
ROOT
ATOM      1  C   UNL d   1       2.242  -1.096   1.035  0.00  0.00     0.124 A 
ATOM      2  C1  UNL d   1       1.845  -1.005  -0.291  0.00  0.00     0.062 A 
ATOM      3  C2  UNL d   1       0.494  -0.909  -0.612  0.00  0.00     0.162 A 
ATOM      4  C3  UNL d   1      -0.470  -0.903   0.396  0.00  0.00    -0.034 A 
ATOM      5  C4  UNL d   1      -0.063  -0.996   1.728  0.00  0.00     0.162 A 
ATOM      6  C5  UNL d   1       1.289  -1.092   2.043  0.00  0.00     0.062 A 
ATOM      7  F   UNL d   1       1.671  -1.180   3.326  0.00  0.00    -0.097 F 
ATOM      8  F1  UNL d   1      -0.963  -0.994   2.722  0.00  0.00    -0.096 F 
ATOM      9  I   UNL d   1      -2.491  -0.760  -0.080  0.00  0.00    -0.060 I 
ATOM     10  F2  UNL d   1       0.138  -0.822  -1.903  0.00  0.00    -0.096 F 
ATOM     11  F3  UNL d   1       2.764  -1.010  -1.267  0.00  0.00    -0.097 F 
ATOM     12  F4  UNL d   1       3.543  -1.189   1.341  0.00  0.00    -0.092 F 
ENDROOT
TORSDOF 0
ENDMDL
