MODEL 1
REMARK minimizedAffinity -0.781455696
REMARK minimizedRMSD -1
REMARK  0 active torsions:
REMARK  status: ('A' for Active; 'I' for Inactive)
ROOT
ATOM      1  C   UNL d   1       1.165  -0.672   1.598  0.00  0.00     0.124 A 
ATOM      2  C1  UNL d   1       1.461  -0.742   0.243  0.00  0.00     0.062 A 
ATOM      3  C2  UNL d   1       0.435  -0.780  -0.696  0.00  0.00     0.162 A 
ATOM      4  C3  UNL d   1      -0.898  -0.747  -0.285  0.00  0.00    -0.034 A 
ATOM      5  C4  UNL d   1      -1.188  -0.677   1.079  0.00  0.00     0.162 A 
ATOM      6  C5  UNL d   1      -0.159  -0.640   2.014  0.00  0.00     0.062 A 
ATOM      7  F   UNL d   1      -0.447  -0.572   3.322  0.00  0.00    -0.097 F 
ATOM      8  F1  UNL d   1      -2.458  -0.644   1.508  0.00  0.00    -0.096 F 
ATOM      9  I   UNL d   1      -2.435  -0.804  -1.687  0.00  0.00    -0.060 I 
ATOM     10  F2  UNL d   1       0.750  -0.847  -1.998  0.00  0.00    -0.096 F 
ATOM     11  F3  UNL d   1       2.739  -0.774  -0.161  0.00  0.00    -0.097 F 
ATOM     12  F4  UNL d   1       2.154  -0.636   2.500  0.00  0.00    -0.092 F 
ENDROOT
TORSDOF 0
ENDMDL
