MODEL 1
REMARK minimizedAffinity 3.44475126
REMARK minimizedRMSD -1
REMARK  0 active torsions:
REMARK  status: ('A' for Active; 'I' for Inactive)
ROOT
ATOM      1  C   UNL d   1      -0.033  -4.529   3.144  0.00  0.00     0.124 A 
ATOM      2  C1  UNL d   1      -1.069  -3.643   2.878  0.00  0.00     0.062 A 
ATOM      3  C2  UNL d   1      -0.828  -2.484   2.148  0.00  0.00     0.162 A 
ATOM      4  C3  UNL d   1       0.455  -2.203   1.676  0.00  0.00    -0.034 A 
ATOM      5  C4  UNL d   1       1.491  -3.098   1.947  0.00  0.00     0.162 A 
ATOM      6  C5  UNL d   1       1.245  -4.256   2.678  0.00  0.00     0.062 A 
ATOM      7  F   UNL d   1       2.246  -5.110   2.934  0.00  0.00    -0.097 F 
ATOM      8  F1  UNL d   1       2.736  -2.859   1.508  0.00  0.00    -0.096 F 
ATOM      9  I   UNL d   1       0.819  -0.470   0.582  0.00  0.00    -0.060 I 
ATOM     10  F2  UNL d   1      -1.847  -1.646   1.906  0.00  0.00    -0.096 F 
ATOM     11  F3  UNL d   1      -2.304  -3.905   3.328  0.00  0.00    -0.097 F 
ATOM     12  F4  UNL d   1      -0.268  -5.644   3.848  0.00  0.00    -0.092 F 
ENDROOT
TORSDOF 0
ENDMDL
