MODEL 1
REMARK minimizedAffinity -1.02973247
REMARK minimizedRMSD -1
REMARK  0 active torsions:
REMARK  status: ('A' for Active; 'I' for Inactive)
ROOT
ATOM      1  C   UNL d   1       1.152  -0.788   1.981  0.00  0.00     0.124 A 
ATOM      2  C1  UNL d   1       0.728  -0.025   0.903  0.00  0.00     0.062 A 
ATOM      3  C2  UNL d   1      -0.570  -0.159   0.417  0.00  0.00     0.162 A 
ATOM      4  C3  UNL d   1      -1.454  -1.060   1.010  0.00  0.00    -0.034 A 
ATOM      5  C4  UNL d   1      -1.020  -1.826   2.094  0.00  0.00     0.162 A 
ATOM      6  C5  UNL d   1       0.278  -1.688   2.576  0.00  0.00     0.062 A 
ATOM      7  F   UNL d   1       0.686  -2.427   3.618  0.00  0.00    -0.097 F 
ATOM      8  F1  UNL d   1      -1.843  -2.702   2.688  0.00  0.00    -0.096 F 
ATOM      9  I   UNL d   1      -3.395  -1.264   0.287  0.00  0.00    -0.060 I 
ATOM     10  F2  UNL d   1      -0.953   0.592  -0.627  0.00  0.00    -0.096 F 
ATOM     11  F3  UNL d   1       1.570   0.845   0.326  0.00  0.00    -0.097 F 
ATOM     12  F4  UNL d   1       2.401  -0.658   2.446  0.00  0.00    -0.092 F 
ENDROOT
TORSDOF 0
ENDMDL
