MODEL 1
REMARK minimizedAffinity 0.342416853
REMARK minimizedRMSD -1
REMARK  0 active torsions:
REMARK  status: ('A' for Active; 'I' for Inactive)
ROOT
ATOM      1  C   UNL d   1       1.622  -0.661   1.771  0.00  0.00     0.124 A 
ATOM      2  C1  UNL d   1       1.585  -1.020   0.430  0.00  0.00     0.062 A 
ATOM      3  C2  UNL d   1       0.365  -1.129  -0.231  0.00  0.00     0.162 A 
ATOM      4  C3  UNL d   1      -0.828  -0.878   0.446  0.00  0.00    -0.034 A 
ATOM      5  C4  UNL d   1      -0.783  -0.518   1.794  0.00  0.00     0.162 A 
ATOM      6  C5  UNL d   1       0.439  -0.411   2.451  0.00  0.00     0.062 A 
ATOM      7  F   UNL d   1       0.473  -0.064   3.746  0.00  0.00    -0.097 F 
ATOM      8  F1  UNL d   1      -1.911  -0.270   2.476  0.00  0.00    -0.096 F 
ATOM      9  I   UNL d   1      -2.654  -1.039  -0.540  0.00  0.00    -0.060 I 
ATOM     10  F2  UNL d   1       0.359  -1.477  -1.527  0.00  0.00    -0.096 F 
ATOM     11  F3  UNL d   1       2.726  -1.263  -0.229  0.00  0.00    -0.097 F 
ATOM     12  F4  UNL d   1       2.797  -0.558   2.405  0.00  0.00    -0.092 F 
ENDROOT
TORSDOF 0
ENDMDL
