MODEL 1
REMARK minimizedAffinity -2.84529281
REMARK minimizedRMSD -1
REMARK  0 active torsions:
REMARK  status: ('A' for Active; 'I' for Inactive)
ROOT
ATOM      1  C   UNL d   1       1.029  -0.297   0.791  0.00  0.00     0.124 A 
ATOM      2  C1  UNL d   1       0.471  -1.004   1.847  0.00  0.00     0.062 A 
ATOM      3  C2  UNL d   1      -0.834  -1.478   1.761  0.00  0.00     0.162 A 
ATOM      4  C3  UNL d   1      -1.592  -1.248   0.613  0.00  0.00    -0.034 A 
ATOM      5  C4  UNL d   1      -1.025  -0.536  -0.445  0.00  0.00     0.162 A 
ATOM      6  C5  UNL d   1       0.280  -0.064  -0.354  0.00  0.00     0.062 A 
ATOM      7  F   UNL d   1       0.817   0.618  -1.377  0.00  0.00    -0.097 F 
ATOM      8  F1  UNL d   1      -1.726  -0.297  -1.564  0.00  0.00    -0.096 F 
ATOM      9  I   UNL d   1      -3.545  -1.955   0.480  0.00  0.00    -0.060 I 
ATOM     10  F2  UNL d   1      -1.347  -2.157   2.798  0.00  0.00    -0.096 F 
ATOM     11  F3  UNL d   1       1.192  -1.229   2.955  0.00  0.00    -0.097 F 
ATOM     12  F4  UNL d   1       2.285   0.159   0.876  0.00  0.00    -0.092 F 
ENDROOT
TORSDOF 0
ENDMDL
