MODEL 1
REMARK minimizedAffinity -5.54597569
REMARK minimizedRMSD -1
REMARK  1 active torsions:
REMARK  status: ('A' for Active; 'I' for Inactive)
REMARK    1  A    between atoms: C1_2  and  C2_3 
ROOT
ATOM      1  C2  UNL d   1      -1.705   0.060   1.860  0.00  0.00    -0.081 A 
ATOM      2  C3  UNL d   1      -0.864   0.078   2.980  0.00  0.00     0.006 A 
ATOM      3  C4  UNL d   1       0.523   0.139   2.822  0.00  0.00     0.002 A 
ATOM      4  C5  UNL d   1       1.091   0.190   1.545  0.00  0.00    -0.080 A 
ATOM      5  C6  UNL d   1       2.576   0.285   1.363  0.00  0.00     0.076 C 
ATOM      6  C7  UNL d   1       0.251   0.153   0.426  0.00  0.00     0.002 A 
ATOM      7  C8  UNL d   1      -1.135   0.092   0.583  0.00  0.00     0.006 A 
ENDROOT
BRANCH   1   8
ATOM      8  C1  UNL d   1      -3.203   0.060   2.027  0.00  0.00     0.054 C 
ATOM      9  C   UNL d   1      -3.907   0.365   0.712  0.00  0.00     0.018 C 
ENDBRANCH   1   8
TORSDOF 1
ENDMDL
