MODEL 1
REMARK minimizedAffinity -5.11346579
REMARK minimizedRMSD -1
REMARK  1 active torsions:
REMARK  status: ('A' for Active; 'I' for Inactive)
REMARK    1  A    between atoms: C1_2  and  C2_3 
ROOT
ATOM      1  C2  UNL d   1       1.273   0.228  -1.346  0.00  0.00    -0.081 A 
ATOM      2  C3  UNL d   1      -0.068   0.412  -0.985  0.00  0.00     0.006 A 
ATOM      3  C4  UNL d   1      -0.423   0.583   0.355  0.00  0.00     0.002 A 
ATOM      4  C5  UNL d   1       0.556   0.581   1.355  0.00  0.00    -0.080 A 
ATOM      5  C6  UNL d   1       0.192   0.793   2.794  0.00  0.00     0.076 C 
ATOM      6  C7  UNL d   1       1.894   0.380   0.996  0.00  0.00     0.002 A 
ATOM      7  C8  UNL d   1       2.249   0.209  -0.344  0.00  0.00     0.006 A 
ENDROOT
BRANCH   1   8
ATOM      8  C1  UNL d   1       1.666   0.109  -2.797  0.00  0.00     0.054 C 
ATOM      9  C   UNL d   1       1.261  -1.242  -3.370  0.00  0.00     0.018 C 
ENDBRANCH   1   8
TORSDOF 1
ENDMDL
