MODEL 1
REMARK minimizedAffinity -3.10003567
REMARK minimizedRMSD -1
REMARK  1 active torsions:
REMARK  status: ('A' for Active; 'I' for Inactive)
REMARK    1  A    between atoms: C1_2  and  C2_3 
ROOT
ATOM      1  C2  UNL d   1      -1.840   0.159   1.661  0.00  0.00    -0.081 A 
ATOM      2  C3  UNL d   1      -1.171   0.287   2.885  0.00  0.00     0.006 A 
ATOM      3  C4  UNL d   1       0.223   0.372   2.924  0.00  0.00     0.002 A 
ATOM      4  C5  UNL d   1       0.970   0.338   1.742  0.00  0.00    -0.080 A 
ATOM      5  C6  UNL d   1       2.465   0.459   1.768  0.00  0.00     0.076 C 
ATOM      6  C7  UNL d   1       0.303   0.192   0.521  0.00  0.00     0.002 A 
ATOM      7  C8  UNL d   1      -1.090   0.106   0.481  0.00  0.00     0.006 A 
ENDROOT
BRANCH   1   8
ATOM      8  C1  UNL d   1      -3.346   0.132   1.610  0.00  0.00     0.054 C 
ATOM      9  C   UNL d   1      -3.872   0.899   0.405  0.00  0.00     0.018 C 
ENDBRANCH   1   8
TORSDOF 1
ENDMDL
