MODEL 1
REMARK minimizedAffinity -6.33144331
REMARK minimizedRMSD -1
REMARK  1 active torsions:
REMARK  status: ('A' for Active; 'I' for Inactive)
REMARK    1  A    between atoms: C1_2  and  C2_3 
ROOT
ATOM      1  C2  UNL d   1      -1.423   0.110   1.861  0.00  0.00    -0.081 A 
ATOM      2  C3  UNL d   1      -0.516  -0.037   2.918  0.00  0.00     0.006 A 
ATOM      3  C4  UNL d   1       0.859   0.057   2.689  0.00  0.00     0.002 A 
ATOM      4  C5  UNL d   1       1.349   0.309   1.403  0.00  0.00    -0.080 A 
ATOM      5  C6  UNL d   1       2.821   0.443   1.150  0.00  0.00     0.076 C 
ATOM      6  C7  UNL d   1       0.443   0.439   0.345  0.00  0.00     0.002 A 
ATOM      7  C8  UNL d   1      -0.931   0.343   0.573  0.00  0.00     0.006 A 
ENDROOT
BRANCH   1   8
ATOM      8  C1  UNL d   1      -2.909   0.073   2.116  0.00  0.00     0.054 C 
ATOM      9  C   UNL d   1      -3.684   0.676   0.954  0.00  0.00     0.018 C 
ENDBRANCH   1   8
TORSDOF 1
ENDMDL
