MODEL 1
REMARK minimizedAffinity -2.56236386
REMARK minimizedRMSD -1
REMARK  1 active torsions:
REMARK  status: ('A' for Active; 'I' for Inactive)
REMARK    1  A    between atoms: C1_2  and  C2_3 
ROOT
ATOM      1  C2  UNL d   1       2.077  -0.640  -3.079  0.00  0.00    -0.081 A 
ATOM      2  C3  UNL d   1       0.954  -0.925  -3.865  0.00  0.00     0.006 A 
ATOM      3  C4  UNL d   1      -0.289  -0.369  -3.554  0.00  0.00     0.002 A 
ATOM      4  C5  UNL d   1      -0.428   0.488  -2.457  0.00  0.00    -0.080 A 
ATOM      5  C6  UNL d   1      -1.750   1.116  -2.130  0.00  0.00     0.076 C 
ATOM      6  C7  UNL d   1       0.690   0.759  -1.661  0.00  0.00     0.002 A 
ATOM      7  C8  UNL d   1       1.933   0.203  -1.971  0.00  0.00     0.006 A 
ENDROOT
BRANCH   1   8
ATOM      8  C1  UNL d   1       3.432  -1.187  -3.450  0.00  0.00     0.054 C 
ATOM      9  C   UNL d   1       4.469  -0.077  -3.547  0.00  0.00     0.018 C 
ENDBRANCH   1   8
TORSDOF 1
ENDMDL
