MODEL 1
REMARK minimizedAffinity -5.73418903
REMARK minimizedRMSD -1
REMARK  1 active torsions:
REMARK  status: ('A' for Active; 'I' for Inactive)
REMARK    1  A    between atoms: C1_2  and  C2_3 
ROOT
ATOM      1  C2  UNL d   1      -1.101  -0.189   2.094  0.00  0.00    -0.081 A 
ATOM      2  C3  UNL d   1      -0.385   0.392   3.148  0.00  0.00     0.006 A 
ATOM      3  C4  UNL d   1       0.910   0.873   2.943  0.00  0.00     0.002 A 
ATOM      4  C5  UNL d   1       1.508   0.788   1.681  0.00  0.00    -0.080 A 
ATOM      5  C6  UNL d   1       2.886   1.328   1.441  0.00  0.00     0.076 C 
ATOM      6  C7  UNL d   1       0.799   0.192   0.633  0.00  0.00     0.002 A 
ATOM      7  C8  UNL d   1      -0.496  -0.290   0.837  0.00  0.00     0.006 A 
ENDROOT
BRANCH   1   8
ATOM      8  C1  UNL d   1      -2.522  -0.650   2.296  0.00  0.00     0.054 C 
ATOM      9  C   UNL d   1      -3.430  -0.149   1.181  0.00  0.00     0.018 C 
ENDBRANCH   1   8
TORSDOF 1
ENDMDL
