MODEL 1
REMARK minimizedAffinity -3.58672285
REMARK minimizedRMSD -1
REMARK  1 active torsions:
REMARK  status: ('A' for Active; 'I' for Inactive)
REMARK    1  A    between atoms: C1_2  and  C2_3 
ROOT
ATOM      1  C2  UNL d   1       0.173  -0.640   0.327  0.00  0.00    -0.081 A 
ATOM      2  C3  UNL d   1       0.601  -1.038   1.600  0.00  0.00     0.006 A 
ATOM      3  C4  UNL d   1      -0.212  -0.830   2.716  0.00  0.00     0.002 A 
ATOM      4  C5  UNL d   1      -1.468  -0.229   2.578  0.00  0.00    -0.080 A 
ATOM      5  C6  UNL d   1      -2.363  -0.027   3.765  0.00  0.00     0.076 C 
ATOM      6  C7  UNL d   1      -1.888   0.184   1.309  0.00  0.00     0.002 A 
ATOM      7  C8  UNL d   1      -1.075  -0.023   0.192  0.00  0.00     0.006 A 
ENDROOT
BRANCH   1   8
ATOM      8  C1  UNL d   1       1.020  -0.921  -0.888  0.00  0.00     0.054 C 
ATOM      9  C   UNL d   1       0.277  -0.579  -2.172  0.00  0.00     0.018 C 
ENDBRANCH   1   8
TORSDOF 1
ENDMDL
