MODEL 1
REMARK minimizedAffinity -4.35596132
REMARK minimizedRMSD -1
REMARK  1 active torsions:
REMARK  status: ('A' for Active; 'I' for Inactive)
REMARK    1  A    between atoms: C1_2  and  C2_3 
ROOT
ATOM      1  C2  UNL d   1       0.108   0.271  -0.135  0.00  0.00    -0.081 A 
ATOM      2  C3  UNL d   1      -1.057  -0.483   0.048  0.00  0.00     0.006 A 
ATOM      3  C4  UNL d   1      -1.419  -0.929   1.322  0.00  0.00     0.002 A 
ATOM      4  C5  UNL d   1      -0.627  -0.621   2.433  0.00  0.00    -0.080 A 
ATOM      5  C6  UNL d   1      -1.020  -1.068   3.810  0.00  0.00     0.076 C 
ATOM      6  C7  UNL d   1       0.546   0.117   2.247  0.00  0.00     0.002 A 
ATOM      7  C8  UNL d   1       0.909   0.563   0.974  0.00  0.00     0.006 A 
ENDROOT
BRANCH   1   8
ATOM      8  C1  UNL d   1       0.467   0.808  -1.497  0.00  0.00     0.054 C 
ATOM      9  C   UNL d   1       0.796  -0.318  -2.467  0.00  0.00     0.018 C 
ENDBRANCH   1   8
TORSDOF 1
ENDMDL
