MODEL 1
REMARK minimizedAffinity 4.07381964
REMARK minimizedRMSD -1
REMARK  1 active torsions:
REMARK  status: ('A' for Active; 'I' for Inactive)
REMARK    1  A    between atoms: C1_2  and  C2_3 
ROOT
ATOM      1  C2  UNL d   1       2.741   1.952   1.647  0.00  0.00    -0.081 A 
ATOM      2  C3  UNL d   1       1.934   1.079   0.908  0.00  0.00     0.006 A 
ATOM      3  C4  UNL d   1       0.762   0.557   1.462  0.00  0.00     0.002 A 
ATOM      4  C5  UNL d   1       0.375   0.905   2.760  0.00  0.00    -0.080 A 
ATOM      5  C6  UNL d   1      -0.895   0.376   3.357  0.00  0.00     0.076 C 
ATOM      6  C7  UNL d   1       1.191   1.764   3.505  0.00  0.00     0.002 A 
ATOM      7  C8  UNL d   1       2.362   2.286   2.952  0.00  0.00     0.006 A 
ENDROOT
BRANCH   1   8
ATOM      8  C1  UNL d   1       3.970   2.567   1.028  0.00  0.00     0.054 C 
ATOM      9  C   UNL d   1       5.214   2.266   1.852  0.00  0.00     0.018 C 
ENDBRANCH   1   8
TORSDOF 1
ENDMDL
