MODEL 1
REMARK minimizedAffinity 2.20526385
REMARK minimizedRMSD -1
REMARK  1 active torsions:
REMARK  status: ('A' for Active; 'I' for Inactive)
REMARK    1  A    between atoms: C1_2  and  C2_3 
ROOT
ATOM      1  C2  UNL d   1       1.483  -0.497  -0.945  0.00  0.00    -0.081 A 
ATOM      2  C3  UNL d   1       2.251  -0.965   0.128  0.00  0.00     0.006 A 
ATOM      3  C4  UNL d   1       2.126  -0.387   1.394  0.00  0.00     0.002 A 
ATOM      4  C5  UNL d   1       1.227   0.663   1.609  0.00  0.00    -0.080 A 
ATOM      5  C6  UNL d   1       1.061   1.272   2.969  0.00  0.00     0.076 C 
ATOM      6  C7  UNL d   1       0.472   1.142   0.533  0.00  0.00     0.002 A 
ATOM      7  C8  UNL d   1       0.597   0.565  -0.733  0.00  0.00     0.006 A 
ENDROOT
BRANCH   1   8
ATOM      8  C1  UNL d   1       1.568  -1.161  -2.296  0.00  0.00     0.054 C 
ATOM      9  C   UNL d   1       2.079  -0.196  -3.356  0.00  0.00     0.018 C 
ENDBRANCH   1   8
TORSDOF 1
ENDMDL
