MODEL 1
REMARK minimizedAffinity -5.62071085
REMARK minimizedRMSD -1
REMARK  1 active torsions:
REMARK  status: ('A' for Active; 'I' for Inactive)
REMARK    1  A    between atoms: C1_2  and  C2_3 
ROOT
ATOM      1  C2  UNL d   1       0.656  -0.161  -1.131  0.00  0.00    -0.081 A 
ATOM      2  C3  UNL d   1       1.133   1.042  -0.598  0.00  0.00     0.006 A 
ATOM      3  C4  UNL d   1       1.103   1.267   0.781  0.00  0.00     0.002 A 
ATOM      4  C5  UNL d   1       0.603   0.290   1.649  0.00  0.00    -0.080 A 
ATOM      5  C6  UNL d   1       0.594   0.506   3.133  0.00  0.00     0.076 C 
ATOM      6  C7  UNL d   1       0.110  -0.905   1.114  0.00  0.00     0.002 A 
ATOM      7  C8  UNL d   1       0.139  -1.130  -0.264  0.00  0.00     0.006 A 
ENDROOT
BRANCH   1   8
ATOM      8  C1  UNL d   1       0.746  -0.432  -2.611  0.00  0.00     0.054 C 
ATOM      9  C   UNL d   1       0.605  -1.918  -2.911  0.00  0.00     0.018 C 
ENDBRANCH   1   8
TORSDOF 1
ENDMDL
