MODEL 1
REMARK minimizedAffinity 1.59772658
REMARK minimizedRMSD -1
REMARK  0 active torsions:
REMARK  status: ('A' for Active; 'I' for Inactive)
ROOT
ATOM      1  C1  BNZ d   1      -6.000  -3.002   4.625  0.00  0.00     0.000 A 
ATOM      2  C2  BNZ d   1      -5.994  -2.356   5.833  0.00  0.00     0.000 A 
ATOM      3  C3  BNZ d   1      -6.000  -0.991   5.896  0.00  0.00     0.000 A 
ATOM      4  C4  BNZ d   1      -5.971  -0.274   4.755  0.00  0.00     0.000 A 
ATOM      5  C5  BNZ d   1      -5.966  -0.910   3.529  0.00  0.00     0.000 A 
ATOM      6  C6  BNZ d   1      -6.000  -2.285   3.469  0.00  0.00     0.000 A 
ENDROOT
TORSDOF 0
ENDMDL
