MODEL 1
REMARK minimizedAffinity 6.62270355
REMARK minimizedRMSD -1
REMARK  0 active torsions:
REMARK  status: ('A' for Active; 'I' for Inactive)
ROOT
ATOM      1  C1  BNZ d   1       1.543   4.933   1.851  0.00  0.00     0.000 A 
ATOM      2  C2  BNZ d   1       2.421   4.632   2.857  0.00  0.00     0.000 A 
ATOM      3  C3  BNZ d   1       2.429   3.392   3.431  0.00  0.00     0.000 A 
ATOM      4  C4  BNZ d   1       1.535   2.468   3.026  0.00  0.00     0.000 A 
ATOM      5  C5  BNZ d   1       0.636   2.759   2.018  0.00  0.00     0.000 A 
ATOM      6  C6  BNZ d   1       0.657   3.996   1.417  0.00  0.00     0.000 A 
ENDROOT
TORSDOF 0
ENDMDL
