MODEL 1
REMARK minimizedAffinity -4.92053318
REMARK minimizedRMSD -1
REMARK  0 active torsions:
REMARK  status: ('A' for Active; 'I' for Inactive)
ROOT
ATOM      1  C1  BNZ d   1      -1.941   1.020   0.191  0.00  0.00     0.000 A 
ATOM      2  C2  BNZ d   1      -1.981   2.277   0.734  0.00  0.00     0.000 A 
ATOM      3  C3  BNZ d   1      -1.584   3.366   0.009  0.00  0.00     0.000 A 
ATOM      4  C4  BNZ d   1      -1.110   3.192  -1.242  0.00  0.00     0.000 A 
ATOM      5  C5  BNZ d   1      -1.055   1.930  -1.800  0.00  0.00     0.000 A 
ATOM      6  C6  BNZ d   1      -1.492   0.842  -1.081  0.00  0.00     0.000 A 
ENDROOT
TORSDOF 0
ENDMDL
