MODEL 1
REMARK minimizedAffinity -2.4135251
REMARK minimizedRMSD -1
REMARK  0 active torsions:
REMARK  status: ('A' for Active; 'I' for Inactive)
ROOT
ATOM      1  C1  BNZ d   1      -1.481   3.349   0.060  0.00  0.00     0.000 A 
ATOM      2  C2  BNZ d   1      -1.404   2.114  -0.526  0.00  0.00     0.000 A 
ATOM      3  C3  BNZ d   1      -0.581   1.148  -0.017  0.00  0.00     0.000 A 
ATOM      4  C4  BNZ d   1       0.193   1.431   1.051  0.00  0.00     0.000 A 
ATOM      5  C5  BNZ d   1       0.134   2.675   1.647  0.00  0.00     0.000 A 
ATOM      6  C6  BNZ d   1      -0.725   3.632   1.156  0.00  0.00     0.000 A 
ENDROOT
TORSDOF 0
ENDMDL
