MODEL 1
REMARK minimizedAffinity 1.15804446
REMARK minimizedRMSD -1
REMARK  0 active torsions:
REMARK  status: ('A' for Active; 'I' for Inactive)
ROOT
ATOM      1  C1  BNZ d   1      -1.793   0.062  -1.290  0.00  0.00     0.000 A 
ATOM      2  C2  BNZ d   1      -0.921  -0.684  -0.543  0.00  0.00     0.000 A 
ATOM      3  C3  BNZ d   1       0.336  -0.222  -0.268  0.00  0.00     0.000 A 
ATOM      4  C4  BNZ d   1       0.733   0.964  -0.772  0.00  0.00     0.000 A 
ATOM      5  C5  BNZ d   1      -0.132   1.723  -1.535  0.00  0.00     0.000 A 
ATOM      6  C6  BNZ d   1      -1.410   1.274  -1.777  0.00  0.00     0.000 A 
ENDROOT
TORSDOF 0
ENDMDL
