MODEL 1
REMARK minimizedAffinity -2.24830008
REMARK minimizedRMSD -1
REMARK  0 active torsions:
REMARK  status: ('A' for Active; 'I' for Inactive)
ROOT
ATOM      1  C1  BNZ d   1       0.528   1.789   2.352  0.00  0.00     0.000 A 
ATOM      2  C2  BNZ d   1       1.127   0.769   3.043  0.00  0.00     0.000 A 
ATOM      3  C3  BNZ d   1       1.335  -0.447   2.454  0.00  0.00     0.000 A 
ATOM      4  C4  BNZ d   1       0.909  -0.654   1.191  0.00  0.00     0.000 A 
ATOM      5  C5  BNZ d   1       0.295   0.362   0.485  0.00  0.00     0.000 A 
ATOM      6  C6  BNZ d   1       0.123   1.596   1.068  0.00  0.00     0.000 A 
ENDROOT
TORSDOF 0
ENDMDL
