MODEL 1
REMARK minimizedAffinity 5.90272474
REMARK minimizedRMSD -1
REMARK  0 active torsions:
REMARK  status: ('A' for Active; 'I' for Inactive)
ROOT
ATOM      1  C   UNL d   1       0.445   0.415  -2.149  0.00  0.00     0.020 A 
ATOM      2  C1  UNL d   1       0.328  -0.849  -1.571  0.00  0.00     0.020 A 
ATOM      3  C2  UNL d   1       0.190  -0.974  -0.187  0.00  0.00     0.034 A 
ATOM      4  C3  UNL d   1       0.168   0.167   0.624  0.00  0.00     0.017 A 
ATOM      5  C4  UNL d   1       0.284   1.435   0.043  0.00  0.00     0.017 A 
ATOM      6  C5  UNL d   1       0.423   1.554  -1.344  0.00  0.00     0.034 A 
ATOM      7 Cl   UNL d   1       0.265   2.888   0.978  0.00  0.00    -0.070 Cl
ATOM      8 Cl1  UNL d   1      -0.007  -0.062   2.327  0.00  0.00    -0.070 Cl
ENDROOT
TORSDOF 0
ENDMDL
