MODEL 1
REMARK minimizedAffinity 0.750324488
REMARK minimizedRMSD -1
REMARK  0 active torsions:
REMARK  status: ('A' for Active; 'I' for Inactive)
ROOT
ATOM      1  C   UNL d   1      -0.009   0.690   1.419  0.00  0.00     0.020 A 
ATOM      2  C1  UNL d   1      -0.927   0.014   0.616  0.00  0.00     0.020 A 
ATOM      3  C2  UNL d   1      -0.680  -0.138  -0.750  0.00  0.00     0.034 A 
ATOM      4  C3  UNL d   1       0.487   0.386  -1.318  0.00  0.00     0.017 A 
ATOM      5  C4  UNL d   1       1.408   1.064  -0.511  0.00  0.00     0.017 A 
ATOM      6  C5  UNL d   1       1.156   1.214   0.856  0.00  0.00     0.034 A 
ATOM      7 Cl   UNL d   1       2.870   1.738  -1.139  0.00  0.00    -0.070 Cl
ATOM      8 Cl1  UNL d   1       0.728   0.160  -3.014  0.00  0.00    -0.070 Cl
ENDROOT
TORSDOF 0
ENDMDL
