MODEL 1
REMARK minimizedAffinity -2.90516996
REMARK minimizedRMSD -1
REMARK  0 active torsions:
REMARK  status: ('A' for Active; 'I' for Inactive)
ROOT
ATOM      1  C   UNL d   1       0.047   1.452  -1.221  0.00  0.00     0.020 A 
ATOM      2  C1  UNL d   1       0.592   0.277  -1.737  0.00  0.00     0.020 A 
ATOM      3  C2  UNL d   1       0.327  -0.946  -1.117  0.00  0.00     0.034 A 
ATOM      4  C3  UNL d   1      -0.483  -0.997   0.023  0.00  0.00     0.017 A 
ATOM      5  C4  UNL d   1      -1.029   0.184   0.540  0.00  0.00     0.017 A 
ATOM      6  C5  UNL d   1      -0.762   1.406  -0.085  0.00  0.00     0.034 A 
ATOM      7 Cl   UNL d   1      -2.039   0.201   1.943  0.00  0.00    -0.070 Cl
ATOM      8 Cl1  UNL d   1      -0.768  -2.543   0.738  0.00  0.00    -0.070 Cl
ENDROOT
TORSDOF 0
ENDMDL
