MODEL 1
REMARK minimizedAffinity 4.27946758
REMARK minimizedRMSD -1
REMARK  0 active torsions:
REMARK  status: ('A' for Active; 'I' for Inactive)
ROOT
ATOM      1  C   UNL d   1       2.840   3.747   1.515  0.00  0.00     0.020 A 
ATOM      2  C1  UNL d   1       3.733   3.625   0.452  0.00  0.00     0.020 A 
ATOM      3  C2  UNL d   1       3.634   2.541  -0.423  0.00  0.00     0.034 A 
ATOM      4  C3  UNL d   1       2.639   1.575  -0.237  0.00  0.00     0.017 A 
ATOM      5  C4  UNL d   1       1.742   1.698   0.831  0.00  0.00     0.017 A 
ATOM      6  C5  UNL d   1       1.846   2.785   1.704  0.00  0.00     0.034 A 
ATOM      7 Cl   UNL d   1       0.488   0.546   1.125  0.00  0.00    -0.070 Cl
ATOM      8 Cl1  UNL d   1       2.574   0.262  -1.358  0.00  0.00    -0.070 Cl
ENDROOT
TORSDOF 0
ENDMDL
