MODEL 1
REMARK minimizedAffinity 0.0418287031
REMARK minimizedRMSD -1
REMARK  0 active torsions:
REMARK  status: ('A' for Active; 'I' for Inactive)
ROOT
ATOM      1  C   UNL d   1       0.830   0.409  -1.338  0.00  0.00     0.020 A 
ATOM      2  C1  UNL d   1       0.649  -0.794  -2.020  0.00  0.00     0.020 A 
ATOM      3  C2  UNL d   1      -0.019  -1.853  -1.403  0.00  0.00     0.034 A 
ATOM      4  C3  UNL d   1      -0.508  -1.713  -0.099  0.00  0.00     0.017 A 
ATOM      5  C4  UNL d   1      -0.326  -0.505   0.585  0.00  0.00     0.017 A 
ATOM      6  C5  UNL d   1       0.343   0.552  -0.038  0.00  0.00     0.034 A 
ATOM      7 Cl   UNL d   1      -0.902  -0.257   2.196  0.00  0.00    -0.070 Cl
ATOM      8 Cl1  UNL d   1      -1.325  -3.064   0.603  0.00  0.00    -0.070 Cl
ENDROOT
TORSDOF 0
ENDMDL
