MODEL 1
REMARK minimizedAffinity 3.98618031
REMARK minimizedRMSD -1
REMARK  0 active torsions:
REMARK  status: ('A' for Active; 'I' for Inactive)
ROOT
ATOM      1  C   UNL d   1      -1.868  -0.887   2.524  0.00  0.00     0.020 A 
ATOM      2  C1  UNL d   1      -1.700  -1.829   1.510  0.00  0.00     0.020 A 
ATOM      3  C2  UNL d   1      -1.053  -1.471   0.325  0.00  0.00     0.034 A 
ATOM      4  C3  UNL d   1      -0.571  -0.169   0.152  0.00  0.00     0.017 A 
ATOM      5  C4  UNL d   1      -0.740   0.776   1.171  0.00  0.00     0.017 A 
ATOM      6  C5  UNL d   1      -1.389   0.412   2.355  0.00  0.00     0.034 A 
ATOM      7 Cl   UNL d   1      -0.172   2.403   1.030  0.00  0.00    -0.070 Cl
ATOM      8 Cl1  UNL d   1       0.220   0.204  -1.338  0.00  0.00    -0.070 Cl
ENDROOT
TORSDOF 0
ENDMDL
