MODEL 1
REMARK minimizedAffinity 2.88658714
REMARK minimizedRMSD -1
REMARK  0 active torsions:
REMARK  status: ('A' for Active; 'I' for Inactive)
ROOT
ATOM      1  C   UNL d   1       0.047   0.089  -1.213  0.00  0.00     0.020 A 
ATOM      2  C1  UNL d   1      -0.695   0.731  -0.223  0.00  0.00     0.020 A 
ATOM      3  C2  UNL d   1      -0.111   1.743   0.542  0.00  0.00     0.034 A 
ATOM      4  C3  UNL d   1       1.219   2.117   0.317  0.00  0.00     0.017 A 
ATOM      5  C4  UNL d   1       1.963   1.472  -0.677  0.00  0.00     0.017 A 
ATOM      6  C5  UNL d   1       1.373   0.459  -1.440  0.00  0.00     0.034 A 
ATOM      7 Cl   UNL d   1       3.609   1.878  -1.013  0.00  0.00    -0.070 Cl
ATOM      8 Cl1  UNL d   1       1.876   3.377   1.299  0.00  0.00    -0.070 Cl
ENDROOT
TORSDOF 0
ENDMDL
