MODEL 1
REMARK minimizedAffinity 1.70899677
REMARK minimizedRMSD -1
REMARK  0 active torsions:
REMARK  status: ('A' for Active; 'I' for Inactive)
ROOT
ATOM      1  C   UNL d   1      -1.276  -2.118   1.757  0.00  0.00     0.020 A 
ATOM      2  C1  UNL d   1      -1.269  -2.880   0.590  0.00  0.00     0.020 A 
ATOM      3  C2  UNL d   1      -0.729  -2.352  -0.585  0.00  0.00     0.034 A 
ATOM      4  C3  UNL d   1      -0.194  -1.059  -0.595  0.00  0.00     0.017 A 
ATOM      5  C4  UNL d   1      -0.202  -0.295   0.578  0.00  0.00     0.017 A 
ATOM      6  C5  UNL d   1      -0.744  -0.828   1.751  0.00  0.00     0.034 A 
ATOM      7 Cl   UNL d   1       0.439   1.309   0.643  0.00  0.00    -0.070 Cl
ATOM      8 Cl1  UNL d   1       0.457  -0.470  -2.083  0.00  0.00    -0.070 Cl
ENDROOT
TORSDOF 0
ENDMDL
