MODEL 1
REMARK minimizedAffinity -5.21216583
REMARK minimizedRMSD -1
REMARK  0 active torsions:
REMARK  status: ('A' for Active; 'I' for Inactive)
ROOT
ATOM      1  C   UNL d   1      -0.839   0.884   0.441  0.00  0.00     0.020 A 
ATOM      2  C1  UNL d   1      -1.413   0.029   1.382  0.00  0.00     0.020 A 
ATOM      3  C2  UNL d   1      -1.147  -1.341   1.335  0.00  0.00     0.034 A 
ATOM      4  C3  UNL d   1      -0.304  -1.861   0.346  0.00  0.00     0.017 A 
ATOM      5  C4  UNL d   1       0.272  -1.002  -0.597  0.00  0.00     0.017 A 
ATOM      6  C5  UNL d   1       0.002   0.369  -0.546  0.00  0.00     0.034 A 
ATOM      7 Cl   UNL d   1       1.323  -1.570  -1.847  0.00  0.00    -0.070 Cl
ATOM      8 Cl1  UNL d   1      -0.018  -3.565   0.348  0.00  0.00    -0.070 Cl
ENDROOT
TORSDOF 0
ENDMDL
