MODEL 1
REMARK minimizedAffinity 0.382093936
REMARK minimizedRMSD -1
REMARK  0 active torsions:
REMARK  status: ('A' for Active; 'I' for Inactive)
ROOT
ATOM      1  C   UNL d   1      -0.824  -2.401   1.442  0.00  0.00     0.020 A 
ATOM      2  C1  UNL d   1      -0.785  -2.971   0.170  0.00  0.00     0.020 A 
ATOM      3  C2  UNL d   1      -0.257  -2.248  -0.902  0.00  0.00     0.034 A 
ATOM      4  C3  UNL d   1       0.234  -0.952  -0.704  0.00  0.00     0.017 A 
ATOM      5  C4  UNL d   1       0.194  -0.382   0.573  0.00  0.00     0.017 A 
ATOM      6  C5  UNL d   1      -0.336  -1.110   1.643  0.00  0.00     0.034 A 
ATOM      7 Cl   UNL d   1       0.780   1.212   0.895  0.00  0.00    -0.070 Cl
ATOM      8 Cl1  UNL d   1       0.872  -0.117  -2.075  0.00  0.00    -0.070 Cl
ENDROOT
TORSDOF 0
ENDMDL
