MODEL 1
REMARK minimizedAffinity 0.632244349
REMARK minimizedRMSD -1
REMARK  0 active torsions:
REMARK  status: ('A' for Active; 'I' for Inactive)
ROOT
ATOM      1  C   UNL d   1       1.326  -1.737  -1.744  0.00  0.00     0.020 A 
ATOM      2  C1  UNL d   1       1.179  -0.358  -1.599  0.00  0.00     0.020 A 
ATOM      3  C2  UNL d   1       0.165   0.154  -0.787  0.00  0.00     0.034 A 
ATOM      4  C3  UNL d   1      -0.706  -0.713  -0.117  0.00  0.00     0.017 A 
ATOM      5  C4  UNL d   1      -0.558  -2.097  -0.263  0.00  0.00     0.017 A 
ATOM      6  C5  UNL d   1       0.459  -2.604  -1.078  0.00  0.00     0.034 A 
ATOM      7 Cl   UNL d   1      -1.593  -3.229   0.532  0.00  0.00    -0.070 Cl
ATOM      8 Cl1  UNL d   1      -1.937  -0.010   0.872  0.00  0.00    -0.070 Cl
ENDROOT
TORSDOF 0
ENDMDL
