MODEL 1
REMARK minimizedAffinity -1.03309882
REMARK minimizedRMSD -1
REMARK  0 active torsions:
REMARK  status: ('A' for Active; 'I' for Inactive)
ROOT
ATOM      1  C   UNL d   1       1.413  -1.941   0.200  0.00  0.00     0.020 A 
ATOM      2  C1  UNL d   1       0.319  -2.743   0.522  0.00  0.00     0.020 A 
ATOM      3  C2  UNL d   1      -0.958  -2.184   0.597  0.00  0.00     0.034 A 
ATOM      4  C3  UNL d   1      -1.145  -0.819   0.350  0.00  0.00     0.017 A 
ATOM      5  C4  UNL d   1      -0.046  -0.015   0.027  0.00  0.00     0.017 A 
ATOM      6  C5  UNL d   1       1.231  -0.580  -0.046  0.00  0.00     0.034 A 
ATOM      7 Cl   UNL d   1      -0.197   1.677  -0.290  0.00  0.00    -0.070 Cl
ATOM      8 Cl1  UNL d   1      -2.752  -0.195   0.460  0.00  0.00    -0.070 Cl
ENDROOT
TORSDOF 0
ENDMDL
