MODEL 1
REMARK minimizedAffinity -5.790308
REMARK minimizedRMSD -1
REMARK  0 active torsions:
REMARK  status: ('A' for Active; 'I' for Inactive)
ROOT
ATOM      1  C   UNL d   1       0.343  -2.802  -2.038  0.00  0.00     0.020 A 
ATOM      2  C1  UNL d   1      -0.304  -3.524  -1.035  0.00  0.00     0.020 A 
ATOM      3  C2  UNL d   1      -0.684  -2.888   0.149  0.00  0.00     0.034 A 
ATOM      4  C3  UNL d   1      -0.417  -1.527   0.333  0.00  0.00     0.017 A 
ATOM      5  C4  UNL d   1       0.231  -0.803  -0.674  0.00  0.00     0.017 A 
ATOM      6  C5  UNL d   1       0.610  -1.444  -1.857  0.00  0.00     0.034 A 
ATOM      7 Cl   UNL d   1       0.594   0.880  -0.519  0.00  0.00    -0.070 Cl
ATOM      8 Cl1  UNL d   1      -0.916  -0.805   1.822  0.00  0.00    -0.070 Cl
ENDROOT
TORSDOF 0
ENDMDL
