MODEL 1
REMARK minimizedAffinity -0.352807552
REMARK minimizedRMSD -1
REMARK  0 active torsions:
REMARK  status: ('A' for Active; 'I' for Inactive)
ROOT
ATOM      1  C   UNL d   1      -0.717  -0.007   1.077  0.00  0.00     0.020 A 
ATOM      2  C1  UNL d   1      -0.018   0.814   0.193  0.00  0.00     0.020 A 
ATOM      3  C2  UNL d   1       0.346   0.334  -1.067  0.00  0.00     0.034 A 
ATOM      4  C3  UNL d   1       0.012  -0.972  -1.446  0.00  0.00     0.017 A 
ATOM      5  C4  UNL d   1      -0.689  -1.795  -0.558  0.00  0.00     0.017 A 
ATOM      6  C5  UNL d   1      -1.051  -1.309   0.702  0.00  0.00     0.034 A 
ATOM      7 Cl   UNL d   1      -1.136  -3.417  -0.954  0.00  0.00    -0.070 Cl
ATOM      8 Cl1  UNL d   1       0.495  -1.500  -3.019  0.00  0.00    -0.070 Cl
ENDROOT
TORSDOF 0
ENDMDL
