MODEL 1
REMARK minimizedAffinity -1.00326967
REMARK minimizedRMSD -1
REMARK  0 active torsions:
REMARK  status: ('A' for Active; 'I' for Inactive)
ROOT
ATOM      1  C   UNL d   1      -0.027  -3.750   0.418  0.00  0.00     0.020 A 
ATOM      2  C1  UNL d   1      -1.290  -3.200   0.629  0.00  0.00     0.020 A 
ATOM      3  C2  UNL d   1      -1.546  -1.876   0.264  0.00  0.00     0.034 A 
ATOM      4  C3  UNL d   1      -0.536  -1.098  -0.315  0.00  0.00     0.017 A 
ATOM      5  C4  UNL d   1       0.732  -1.651  -0.526  0.00  0.00     0.017 A 
ATOM      6  C5  UNL d   1       0.982  -2.977  -0.159  0.00  0.00     0.034 A 
ATOM      7 Cl   UNL d   1       2.028  -0.754  -1.235  0.00  0.00    -0.070 Cl
ATOM      8 Cl1  UNL d   1      -0.923   0.531  -0.742  0.00  0.00    -0.070 Cl
ENDROOT
TORSDOF 0
ENDMDL
