MODEL 1
REMARK minimizedAffinity 6.81994438
REMARK minimizedRMSD -1
REMARK  0 active torsions:
REMARK  status: ('A' for Active; 'I' for Inactive)
ROOT
ATOM      1  C   UNL d   1       0.206   0.770   1.429  0.00  0.00     0.020 A 
ATOM      2  C1  UNL d   1       0.461  -0.518   0.960  0.00  0.00     0.020 A 
ATOM      3  C2  UNL d   1      -0.542  -1.488   1.004  0.00  0.00     0.034 A 
ATOM      4  C3  UNL d   1      -1.805  -1.172   1.518  0.00  0.00     0.017 A 
ATOM      5  C4  UNL d   1      -2.061   0.121   1.988  0.00  0.00     0.017 A 
ATOM      6  C5  UNL d   1      -1.052   1.089   1.942  0.00  0.00     0.034 A 
ATOM      7 Cl   UNL d   1      -3.594   0.586   2.636  0.00  0.00    -0.070 Cl
ATOM      8 Cl1  UNL d   1      -2.999  -2.421   1.541  0.00  0.00    -0.070 Cl
ENDROOT
TORSDOF 0
ENDMDL
