MODEL 1
REMARK minimizedAffinity -3.78770256
REMARK minimizedRMSD -1
REMARK  0 active torsions:
REMARK  status: ('A' for Active; 'I' for Inactive)
ROOT
ATOM      1  C   UNL d   1       0.393   0.139  -1.810  0.00  0.00     0.020 A 
ATOM      2  C1  UNL d   1      -0.192   0.788  -0.724  0.00  0.00     0.020 A 
ATOM      3  C2  UNL d   1      -0.759   0.043   0.312  0.00  0.00     0.034 A 
ATOM      4  C3  UNL d   1      -0.741  -1.356   0.264  0.00  0.00     0.017 A 
ATOM      5  C4  UNL d   1      -0.153  -2.006  -0.826  0.00  0.00     0.017 A 
ATOM      6  C5  UNL d   1       0.413  -1.255  -1.861  0.00  0.00     0.034 A 
ATOM      7 Cl   UNL d   1      -0.093  -3.729  -0.956  0.00  0.00    -0.070 Cl
ATOM      8 Cl1  UNL d   1      -1.460  -2.214   1.581  0.00  0.00    -0.070 Cl
ENDROOT
TORSDOF 0
ENDMDL
