MODEL 1
REMARK minimizedAffinity -5.89623642
REMARK minimizedRMSD -1
REMARK  0 active torsions:
REMARK  status: ('A' for Active; 'I' for Inactive)
ROOT
ATOM      1  C   UNL d   1       0.793  -3.503  -1.072  0.00  0.00     0.020 A 
ATOM      2  C1  UNL d   1       1.282  -2.852  -2.204  0.00  0.00     0.020 A 
ATOM      3  C2  UNL d   1       1.128  -1.470  -2.336  0.00  0.00     0.034 A 
ATOM      4  C3  UNL d   1       0.483  -0.735  -1.334  0.00  0.00     0.017 A 
ATOM      5  C4  UNL d   1      -0.007  -1.390  -0.198  0.00  0.00     0.017 A 
ATOM      6  C5  UNL d   1       0.150  -2.774  -0.072  0.00  0.00     0.034 A 
ATOM      7 Cl   UNL d   1      -0.813  -0.551   1.080  0.00  0.00    -0.070 Cl
ATOM      8 Cl1  UNL d   1       0.328   0.970  -1.562  0.00  0.00    -0.070 Cl
ENDROOT
TORSDOF 0
ENDMDL
