MODEL 1
REMARK minimizedAffinity -4.41245222
REMARK minimizedRMSD -1
REMARK  0 active torsions:
REMARK  status: ('A' for Active; 'I' for Inactive)
ROOT
ATOM      1  C   UNL d   1      -0.028   2.500  -0.703  0.00  0.00     0.020 A 
ATOM      2  C1  UNL d   1       0.021   1.998  -2.002  0.00  0.00     0.020 A 
ATOM      3  C2  UNL d   1      -0.030   0.619  -2.220  0.00  0.00     0.034 A 
ATOM      4  C3  UNL d   1      -0.129  -0.262  -1.137  0.00  0.00     0.017 A 
ATOM      5  C4  UNL d   1      -0.178   0.244   0.168  0.00  0.00     0.017 A 
ATOM      6  C5  UNL d   1      -0.127   1.625   0.380  0.00  0.00     0.034 A 
ATOM      7 Cl   UNL d   1      -0.300  -0.780   1.555  0.00  0.00    -0.070 Cl
ATOM      8 Cl1  UNL d   1      -0.187  -1.954  -1.480  0.00  0.00    -0.070 Cl
ENDROOT
TORSDOF 0
ENDMDL
