MODEL 1
REMARK minimizedAffinity 6.95911407
REMARK minimizedRMSD -1
REMARK  0 active torsions:
REMARK  status: ('A' for Active; 'I' for Inactive)
ROOT
ATOM      1  C4' PXY d   1      -1.130  -0.208  -3.521  0.00  0.00     0.077 C 
ATOM      2  C1' PXY d   1       0.286   0.005   2.079  0.00  0.00     0.077 C 
ATOM      3  C1  PXY d   1      -0.085  -0.064   0.611  0.00  0.00    -0.082 A 
ATOM      4  C2  PXY d   1       0.181   0.963  -0.180  0.00  0.00     0.003 A 
ATOM      5  C3  PXY d   1      -0.177   0.930  -1.503  0.00  0.00     0.003 A 
ATOM      6  C4  PXY d   1      -0.765  -0.186  -2.035  0.00  0.00    -0.082 A 
ATOM      7  C5  PXY d   1      -1.030  -1.242  -1.237  0.00  0.00     0.003 A 
ATOM      8  C6  PXY d   1      -0.696  -1.173   0.113  0.00  0.00     0.003 A 
ENDROOT
TORSDOF 0
ENDMDL
