MODEL 1
REMARK minimizedAffinity 1.87474275
REMARK minimizedRMSD -1
REMARK  0 active torsions:
REMARK  status: ('A' for Active; 'I' for Inactive)
ROOT
ATOM      1  C4' PXY d   1       6.000   0.319   3.648  0.00  0.00     0.077 C 
ATOM      2  C1' PXY d   1       2.351   2.007  -0.506  0.00  0.00     0.077 C 
ATOM      3  C1  PXY d   1       3.318   1.566   0.575  0.00  0.00    -0.082 A 
ATOM      4  C2  PXY d   1       2.881   0.827   1.582  0.00  0.00     0.003 A 
ATOM      5  C3  PXY d   1       3.735   0.446   2.585  0.00  0.00     0.003 A 
ATOM      6  C4  PXY d   1       5.061   0.780   2.529  0.00  0.00    -0.082 A 
ATOM      7  C5  PXY d   1       5.517   1.525   1.500  0.00  0.00     0.003 A 
ATOM      8  C6  PXY d   1       4.626   1.936   0.513  0.00  0.00     0.003 A 
ENDROOT
TORSDOF 0
ENDMDL
