MODEL 1
REMARK minimizedAffinity -2.55774426
REMARK minimizedRMSD -1
REMARK  0 active torsions:
REMARK  status: ('A' for Active; 'I' for Inactive)
ROOT
ATOM      1  C4' PXY d   1       5.695  -5.965   5.961  0.00  0.00     0.077 C 
ATOM      2  C1' PXY d   1       6.000  -0.934   3.132  0.00  0.00     0.077 C 
ATOM      3  C1  PXY d   1       5.924  -2.247   3.885  0.00  0.00    -0.082 A 
ATOM      4  C2  PXY d   1       5.983  -3.388   3.217  0.00  0.00     0.003 A 
ATOM      5  C3  PXY d   1       5.884  -4.585   3.879  0.00  0.00     0.003 A 
ATOM      6  C4  PXY d   1       5.777  -4.615   5.243  0.00  0.00    -0.082 A 
ATOM      7  C5  PXY d   1       5.727  -3.456   5.933  0.00  0.00     0.003 A 
ATOM      8  C6  PXY d   1       5.788  -2.251   5.238  0.00  0.00     0.003 A 
ENDROOT
TORSDOF 0
ENDMDL
