MODEL 1
REMARK minimizedAffinity -1.91452563
REMARK minimizedRMSD -1
REMARK  0 active torsions:
REMARK  status: ('A' for Active; 'I' for Inactive)
ROOT
ATOM      1  C4' PXY d   1       5.999  -0.492   3.773  0.00  0.00     0.077 C 
ATOM      2  C1' PXY d   1       5.547  -5.942   5.646  0.00  0.00     0.077 C 
ATOM      3  C1  PXY d   1       5.669  -4.517   5.143  0.00  0.00    -0.082 A 
ATOM      4  C2  PXY d   1       5.915  -3.540   6.000  0.00  0.00     0.003 A 
ATOM      5  C3  PXY d   1       5.997  -2.242   5.567  0.00  0.00     0.003 A 
ATOM      6  C4  PXY d   1       5.878  -1.947   4.235  0.00  0.00    -0.082 A 
ATOM      7  C5  PXY d   1       5.637  -2.940   3.353  0.00  0.00     0.003 A 
ATOM      8  C6  PXY d   1       5.516  -4.246   3.818  0.00  0.00     0.003 A 
ENDROOT
TORSDOF 0
ENDMDL
