MODEL 1
REMARK minimizedAffinity 1.34826827
REMARK minimizedRMSD -1
REMARK  0 active torsions:
REMARK  status: ('A' for Active; 'I' for Inactive)
ROOT
ATOM      1  C4' PXY d   1      -1.370  -0.352  -3.133  0.00  0.00     0.077 C 
ATOM      2  C1' PXY d   1       0.122  -1.809   2.259  0.00  0.00     0.077 C 
ATOM      3  C1  PXY d   1      -0.264  -1.415   0.847  0.00  0.00    -0.082 A 
ATOM      4  C2  PXY d   1      -1.246  -2.056   0.234  0.00  0.00     0.003 A 
ATOM      5  C3  PXY d   1      -1.587  -1.734  -1.055  0.00  0.00     0.003 A 
ATOM      6  C4  PXY d   1      -0.952  -0.709  -1.704  0.00  0.00    -0.082 A 
ATOM      7  C5  PXY d   1       0.043  -0.043  -1.081  0.00  0.00     0.003 A 
ATOM      8  C6  PXY d   1       0.402  -0.412   0.212  0.00  0.00     0.003 A 
ENDROOT
TORSDOF 0
ENDMDL
