MODEL 1
REMARK minimizedAffinity 8.65831089
REMARK minimizedRMSD -1
REMARK  0 active torsions:
REMARK  status: ('A' for Active; 'I' for Inactive)
ROOT
ATOM      1  C4' PXY d   1      -0.184  -3.131   2.852  0.00  0.00     0.077 C 
ATOM      2  C1' PXY d   1       0.356   1.234  -0.899  0.00  0.00     0.077 C 
ATOM      3  C1  PXY d   1       0.201   0.091   0.084  0.00  0.00    -0.082 A 
ATOM      4  C2  PXY d   1       1.197  -0.207   0.903  0.00  0.00     0.003 A 
ATOM      5  C3  PXY d   1       1.086  -1.258   1.776  0.00  0.00     0.003 A 
ATOM      6  C4  PXY d   1      -0.076  -1.979   1.849  0.00  0.00    -0.082 A 
ATOM      7  C5  PXY d   1      -1.101  -1.674   1.025  0.00  0.00     0.003 A 
ATOM      8  C6  PXY d   1      -0.953  -0.630   0.117  0.00  0.00     0.003 A 
ENDROOT
TORSDOF 0
ENDMDL
