MODEL 1
REMARK minimizedAffinity -0.519690692
REMARK minimizedRMSD -1
REMARK  0 active torsions:
REMARK  status: ('A' for Active; 'I' for Inactive)
ROOT
ATOM      1  C4' PXY d   1       5.999   0.892   3.136  0.00  0.00     0.077 C 
ATOM      2  C1' PXY d   1       5.854  -4.127   6.000  0.00  0.00     0.077 C 
ATOM      3  C1  PXY d   1       5.887  -2.804   5.259  0.00  0.00    -0.082 A 
ATOM      4  C2  PXY d   1       5.866  -2.795   3.936  0.00  0.00     0.003 A 
ATOM      5  C3  PXY d   1       5.928  -1.609   3.250  0.00  0.00     0.003 A 
ATOM      6  C4  PXY d   1       5.958  -0.419   3.926  0.00  0.00    -0.082 A 
ATOM      7  C5  PXY d   1       5.969  -0.420   5.275  0.00  0.00     0.003 A 
ATOM      8  C6  PXY d   1       5.947  -1.635   5.953  0.00  0.00     0.003 A 
ENDROOT
TORSDOF 0
ENDMDL
