MODEL 1
REMARK minimizedAffinity -0.287414789
REMARK minimizedRMSD -1
REMARK  0 active torsions:
REMARK  status: ('A' for Active; 'I' for Inactive)
ROOT
ATOM      1  C4' PXY d   1       4.521  -5.463   5.847  0.00  0.00     0.077 C 
ATOM      2  C1' PXY d   1       5.997  -0.421   3.436  0.00  0.00     0.077 C 
ATOM      3  C1  PXY d   1       5.614  -1.738   4.080  0.00  0.00    -0.082 A 
ATOM      4  C2  PXY d   1       5.573  -2.838   3.345  0.00  0.00     0.003 A 
ATOM      5  C3  PXY d   1       5.197  -4.032   3.904  0.00  0.00     0.003 A 
ATOM      6  C4  PXY d   1       4.912  -4.112   5.241  0.00  0.00    -0.082 A 
ATOM      7  C5  PXY d   1       4.962  -2.997   6.000  0.00  0.00     0.003 A 
ATOM      8  C6  PXY d   1       5.306  -1.786   5.404  0.00  0.00     0.003 A 
ENDROOT
TORSDOF 0
ENDMDL
