MODEL 1
REMARK minimizedAffinity 14.3618851
REMARK minimizedRMSD -1
REMARK  0 active torsions:
REMARK  status: ('A' for Active; 'I' for Inactive)
ROOT
ATOM      1  C4' PXY d   1       5.321  -4.221   2.683  0.00  0.00     0.077 C 
ATOM      2  C1' PXY d   1       3.333   1.196   3.032  0.00  0.00     0.077 C 
ATOM      3  C1  PXY d   1       3.867  -0.220   2.940  0.00  0.00    -0.082 A 
ATOM      4  C2  PXY d   1       3.102  -1.176   2.436  0.00  0.00     0.003 A 
ATOM      5  C3  PXY d   1       3.557  -2.468   2.376  0.00  0.00     0.003 A 
ATOM      6  C4  PXY d   1       4.827  -2.776   2.786  0.00  0.00    -0.082 A 
ATOM      7  C5  PXY d   1       5.616  -1.804   3.291  0.00  0.00     0.003 A 
ATOM      8  C6  PXY d   1       5.121  -0.507   3.382  0.00  0.00     0.003 A 
ENDROOT
TORSDOF 0
ENDMDL
