MODEL 1
REMARK minimizedAffinity 7.92146158
REMARK minimizedRMSD -1
REMARK  0 active torsions:
REMARK  status: ('A' for Active; 'I' for Inactive)
ROOT
ATOM      1  C4' PXY d   1       1.595   3.382  -2.602  0.00  0.00     0.077 C 
ATOM      2  C1' PXY d   1       3.686  -2.003  -2.389  0.00  0.00     0.077 C 
ATOM      3  C1  PXY d   1       3.133  -0.592  -2.433  0.00  0.00    -0.082 A 
ATOM      4  C2  PXY d   1       2.873  -0.028  -3.601  0.00  0.00     0.003 A 
ATOM      5  C3  PXY d   1       2.402   1.259  -3.659  0.00  0.00     0.003 A 
ATOM      6  C4  PXY d   1       2.146   1.956  -2.509  0.00  0.00    -0.082 A 
ATOM      7  C5  PXY d   1       2.398   1.383  -1.314  0.00  0.00     0.003 A 
ATOM      8  C6  PXY d   1       2.914   0.091  -1.276  0.00  0.00     0.003 A 
ENDROOT
TORSDOF 0
ENDMDL
