MODEL 1
REMARK minimizedAffinity 1.41263771
REMARK minimizedRMSD -1
REMARK  0 active torsions:
REMARK  status: ('A' for Active; 'I' for Inactive)
ROOT
ATOM      1  C4' PXY d   1      -0.869   0.464   1.245  0.00  0.00     0.077 C 
ATOM      2  C1' PXY d   1      -3.131  -0.706  -3.944  0.00  0.00     0.077 C 
ATOM      3  C1  PXY d   1      -2.546  -0.408  -2.578  0.00  0.00    -0.082 A 
ATOM      4  C2  PXY d   1      -2.005   0.776  -2.342  0.00  0.00     0.003 A 
ATOM      5  C3  PXY d   1      -1.443   1.051  -1.122  0.00  0.00     0.003 A 
ATOM      6  C4  PXY d   1      -1.481   0.123  -0.116  0.00  0.00    -0.082 A 
ATOM      7  C5  PXY d   1      -2.040  -1.084  -0.346  0.00  0.00     0.003 A 
ATOM      8  C6  PXY d   1      -2.569  -1.358  -1.604  0.00  0.00     0.003 A 
ENDROOT
TORSDOF 0
ENDMDL
