MODEL 1
REMARK minimizedAffinity 0.479517102
REMARK minimizedRMSD -1
REMARK  0 active torsions:
REMARK  status: ('A' for Active; 'I' for Inactive)
ROOT
ATOM      1  C4' PXY d   1      -2.374   1.113   1.891  0.00  0.00     0.077 C 
ATOM      2  C1' PXY d   1       3.099  -0.722   2.198  0.00  0.00     0.077 C 
ATOM      3  C1  PXY d   1       1.668  -0.228   2.115  0.00  0.00    -0.082 A 
ATOM      4  C2  PXY d   1       0.702  -0.926   2.690  0.00  0.00     0.003 A 
ATOM      5  C3  PXY d   1      -0.602  -0.511   2.598  0.00  0.00     0.003 A 
ATOM      6  C4  PXY d   1      -0.913   0.658   1.956  0.00  0.00    -0.082 A 
ATOM      7  C5  PXY d   1       0.068   1.380   1.376  0.00  0.00     0.003 A 
ATOM      8  C6  PXY d   1       1.380   0.920   1.446  0.00  0.00     0.003 A 
ENDROOT
TORSDOF 0
ENDMDL
