MODEL 1
REMARK minimizedAffinity -1.89574683
REMARK minimizedRMSD -1
REMARK  0 active torsions:
REMARK  status: ('A' for Active; 'I' for Inactive)
ROOT
ATOM      1  C4' PXY d   1       4.876  -4.328   6.000  0.00  0.00     0.077 C 
ATOM      2  C1' PXY d   1       5.831   0.320   2.700  0.00  0.00     0.077 C 
ATOM      3  C1  PXY d   1       5.573  -0.904   3.555  0.00  0.00    -0.082 A 
ATOM      4  C2  PXY d   1       5.638  -0.806   4.873  0.00  0.00     0.003 A 
ATOM      5  C3  PXY d   1       5.440  -1.911   5.661  0.00  0.00     0.003 A 
ATOM      6  C4  PXY d   1       5.119  -3.116   5.097  0.00  0.00    -0.082 A 
ATOM      7  C5  PXY d   1       5.040  -3.222   3.753  0.00  0.00     0.003 A 
ATOM      8  C6  PXY d   1       5.286  -2.098   2.969  0.00  0.00     0.003 A 
ENDROOT
TORSDOF 0
ENDMDL
