MODEL 1
REMARK minimizedAffinity 13.3214331
REMARK minimizedRMSD -1
REMARK  0 active torsions:
REMARK  status: ('A' for Active; 'I' for Inactive)
ROOT
ATOM      1  C4' PXY d   1       0.906  -5.599   2.789  0.00  0.00     0.077 C 
ATOM      2  C1' PXY d   1       2.962  -2.361  -1.535  0.00  0.00     0.077 C 
ATOM      3  C1  PXY d   1       2.413  -3.213  -0.408  0.00  0.00    -0.082 A 
ATOM      4  C2  PXY d   1       2.744  -2.936   0.842  0.00  0.00     0.003 A 
ATOM      5  C3  PXY d   1       2.282  -3.717   1.871  0.00  0.00     0.003 A 
ATOM      6  C4  PXY d   1       1.430  -4.759   1.621  0.00  0.00    -0.082 A 
ATOM      7  C5  PXY d   1       1.079  -5.041   0.348  0.00  0.00     0.003 A 
ATOM      8  C6  PXY d   1       1.592  -4.262  -0.685  0.00  0.00     0.003 A 
ENDROOT
TORSDOF 0
ENDMDL
