MODEL 1
REMARK minimizedAffinity 2.90291929
REMARK minimizedRMSD -1
REMARK  0 active torsions:
REMARK  status: ('A' for Active; 'I' for Inactive)
ROOT
ATOM      1  C4' PXY d   1       0.524   3.224   3.847  0.00  0.00     0.077 C 
ATOM      2  C1' PXY d   1      -0.780  -0.832  -0.060  0.00  0.00     0.077 C 
ATOM      3  C1  PXY d   1      -0.428   0.225   0.968  0.00  0.00    -0.082 A 
ATOM      4  C2  PXY d   1      -1.378   1.006   1.456  0.00  0.00     0.003 A 
ATOM      5  C3  PXY d   1      -1.072   1.988   2.362  0.00  0.00     0.003 A 
ATOM      6  C4  PXY d   1       0.212   2.137   2.814  0.00  0.00    -0.082 A 
ATOM      7  C5  PXY d   1       1.185   1.337   2.329  0.00  0.00     0.003 A 
ATOM      8  C6  PXY d   1       0.861   0.373   1.379  0.00  0.00     0.003 A 
ENDROOT
TORSDOF 0
ENDMDL
