MODEL 1
REMARK minimizedAffinity 2.15691662
REMARK minimizedRMSD -1
REMARK  0 active torsions:
REMARK  status: ('A' for Active; 'I' for Inactive)
ROOT
ATOM      1  C4' PXY d   1       4.313   1.548  -5.567  0.00  0.00     0.077 C 
ATOM      2  C1' PXY d   1       0.902   0.687  -0.981  0.00  0.00     0.077 C 
ATOM      3  C1  PXY d   1       1.805   0.904  -2.179  0.00  0.00    -0.082 A 
ATOM      4  C2  PXY d   1       1.779   2.063  -2.817  0.00  0.00     0.003 A 
ATOM      5  C3  PXY d   1       2.565   2.264  -3.922  0.00  0.00     0.003 A 
ATOM      6  C4  PXY d   1       3.426   1.288  -4.347  0.00  0.00    -0.082 A 
ATOM      7  C5  PXY d   1       3.466   0.107  -3.695  0.00  0.00     0.003 A 
ATOM      8  C6  PXY d   1       2.630  -0.093  -2.601  0.00  0.00     0.003 A 
ENDROOT
TORSDOF 0
ENDMDL
