MODEL 1
REMARK minimizedAffinity 9.75741196
REMARK minimizedRMSD -1
REMARK  0 active torsions:
REMARK  status: ('A' for Active; 'I' for Inactive)
ROOT
ATOM      1  C4' PXY d   1      -5.345  -0.424   2.459  0.00  0.00     0.077 C 
ATOM      2  C1' PXY d   1      -0.106   1.168   0.607  0.00  0.00     0.077 C 
ATOM      3  C1  PXY d   1      -1.481   0.761   1.100  0.00  0.00    -0.082 A 
ATOM      4  C2  PXY d   1      -1.825  -0.516   1.097  0.00  0.00     0.003 A 
ATOM      5  C3  PXY d   1      -3.076  -0.898   1.509  0.00  0.00     0.003 A 
ATOM      6  C4  PXY d   1      -3.964   0.031   1.979  0.00  0.00    -0.082 A 
ATOM      7  C5  PXY d   1      -3.617   1.335   1.995  0.00  0.00     0.003 A 
ATOM      8  C6  PXY d   1      -2.357   1.707   1.534  0.00  0.00     0.003 A 
ENDROOT
TORSDOF 0
ENDMDL
