MODEL 1
REMARK minimizedAffinity 6.79689646
REMARK minimizedRMSD -1
REMARK  0 active torsions:
REMARK  status: ('A' for Active; 'I' for Inactive)
ROOT
ATOM      1  C4' PXY d   1       4.351  -1.590  -5.977  0.00  0.00     0.077 C 
ATOM      2  C1' PXY d   1       2.822   0.246  -0.713  0.00  0.00     0.077 C 
ATOM      3  C1  PXY d   1       3.221  -0.224  -2.099  0.00  0.00    -0.082 A 
ATOM      4  C2  PXY d   1       3.136  -1.509  -2.404  0.00  0.00     0.003 A 
ATOM      5  C3  PXY d   1       3.522  -1.955  -3.641  0.00  0.00     0.003 A 
ATOM      6  C4  PXY d   1       3.950  -1.070  -4.594  0.00  0.00    -0.082 A 
ATOM      7  C5  PXY d   1       4.030   0.244  -4.294  0.00  0.00     0.003 A 
ATOM      8  C6  PXY d   1       3.672   0.671  -3.019  0.00  0.00     0.003 A 
ENDROOT
TORSDOF 0
ENDMDL
