MODEL 1
REMARK minimizedAffinity -4.84764814
REMARK minimizedRMSD -1
REMARK  0 active torsions:
REMARK  status: ('A' for Active; 'I' for Inactive)
ROOT
ATOM      1  C   UNL d   1      -1.841  -2.404   1.094  0.00  0.00     0.078 C 
ATOM      2  C1  UNL d   1      -1.256  -1.038   0.893  0.00  0.00    -0.077 A 
ATOM      3  C2  UNL d   1       0.076  -0.877   0.490  0.00  0.00    -0.001 A 
ATOM      4  C3  UNL d   1       0.611   0.400   0.316  0.00  0.00     0.003 A 
ATOM      5  C4  UNL d   1      -0.178   1.526   0.543  0.00  0.00    -0.005 A 
ATOM      6  C5  UNL d   1      -1.504   1.376   0.946  0.00  0.00     0.003 A 
ATOM      7  C6  UNL d   1      -2.040   0.099   1.120  0.00  0.00    -0.001 A 
ENDROOT
TORSDOF 0
ENDMDL
