MODEL 1
REMARK minimizedAffinity -5.61350346
REMARK minimizedRMSD -1
REMARK  0 active torsions:
REMARK  status: ('A' for Active; 'I' for Inactive)
ROOT
ATOM      1  C   UNL d   1       0.007   1.121  -0.116  0.00  0.00     0.078 C 
ATOM      2  C1  UNL d   1      -0.878   0.053   0.455  0.00  0.00    -0.077 A 
ATOM      3  C2  UNL d   1      -2.131   0.367   0.995  0.00  0.00    -0.001 A 
ATOM      4  C3  UNL d   1      -2.940  -0.636   1.532  0.00  0.00     0.003 A 
ATOM      5  C4  UNL d   1      -2.504  -1.960   1.534  0.00  0.00    -0.005 A 
ATOM      6  C5  UNL d   1      -1.258  -2.281   1.000  0.00  0.00     0.003 A 
ATOM      7  C6  UNL d   1      -0.448  -1.280   0.463  0.00  0.00    -0.001 A 
ENDROOT
TORSDOF 0
ENDMDL
