MODEL 1
REMARK minimizedAffinity -4.91983414
REMARK minimizedRMSD -1
REMARK  0 active torsions:
REMARK  status: ('A' for Active; 'I' for Inactive)
ROOT
ATOM      1  C   UNL d   1      -0.672  -2.470   0.974  0.00  0.00     0.078 C 
ATOM      2  C1  UNL d   1      -0.405  -1.042   0.602  0.00  0.00    -0.077 A 
ATOM      3  C2  UNL d   1       0.867  -0.632   0.182  0.00  0.00    -0.001 A 
ATOM      4  C3  UNL d   1       1.103   0.703  -0.152  0.00  0.00     0.003 A 
ATOM      5  C4  UNL d   1       0.073   1.638  -0.069  0.00  0.00    -0.005 A 
ATOM      6  C5  UNL d   1      -1.194   1.239   0.350  0.00  0.00     0.003 A 
ATOM      7  C6  UNL d   1      -1.433  -0.094   0.685  0.00  0.00    -0.001 A 
ENDROOT
TORSDOF 0
ENDMDL
