MODEL 1
REMARK minimizedAffinity -5.28013182
REMARK minimizedRMSD -1
REMARK  0 active torsions:
REMARK  status: ('A' for Active; 'I' for Inactive)
ROOT
ATOM      1  C   UNL d   1       0.057  -0.014  -0.084  0.00  0.00     0.078 C 
ATOM      2  C1  UNL d   1      -1.126  -0.672   0.561  0.00  0.00    -0.077 A 
ATOM      3  C2  UNL d   1      -2.063   0.077   1.283  0.00  0.00    -0.001 A 
ATOM      4  C3  UNL d   1      -3.154  -0.550   1.887  0.00  0.00     0.003 A 
ATOM      5  C4  UNL d   1      -3.317  -1.930   1.775  0.00  0.00    -0.005 A 
ATOM      6  C5  UNL d   1      -2.389  -2.684   1.060  0.00  0.00     0.003 A 
ATOM      7  C6  UNL d   1      -1.297  -2.058   0.456  0.00  0.00    -0.001 A 
ENDROOT
TORSDOF 0
ENDMDL
