MODEL 1
REMARK minimizedAffinity -2.49011731
REMARK minimizedRMSD -1
REMARK  0 active torsions:
REMARK  status: ('A' for Active; 'I' for Inactive)
ROOT
ATOM      1  C   UNL d   1      -1.060  -2.463   1.236  0.00  0.00     0.078 C 
ATOM      2  C1  UNL d   1      -0.846  -1.039   0.816  0.00  0.00    -0.077 A 
ATOM      3  C2  UNL d   1       0.273  -0.671   0.059  0.00  0.00    -0.001 A 
ATOM      4  C3  UNL d   1       0.464   0.660  -0.317  0.00  0.00     0.003 A 
ATOM      5  C4  UNL d   1      -0.459   1.633   0.061  0.00  0.00    -0.005 A 
ATOM      6  C5  UNL d   1      -1.574   1.277   0.816  0.00  0.00     0.003 A 
ATOM      7  C6  UNL d   1      -1.767  -0.053   1.192  0.00  0.00    -0.001 A 
ENDROOT
TORSDOF 0
ENDMDL
