MODEL 1
REMARK minimizedAffinity -4.66303682
REMARK minimizedRMSD -1
REMARK  0 active torsions:
REMARK  status: ('A' for Active; 'I' for Inactive)
ROOT
ATOM      1  C   UNL d   1      -1.593  -2.373   0.849  0.00  0.00     0.078 C 
ATOM      2  C1  UNL d   1      -0.972  -1.050   0.514  0.00  0.00    -0.077 A 
ATOM      3  C2  UNL d   1       0.306  -0.976  -0.053  0.00  0.00    -0.001 A 
ATOM      4  C3  UNL d   1       0.875   0.263  -0.351  0.00  0.00     0.003 A 
ATOM      5  C4  UNL d   1       0.174   1.438  -0.084  0.00  0.00    -0.005 A 
ATOM      6  C5  UNL d   1      -1.097   1.374   0.482  0.00  0.00     0.003 A 
ATOM      7  C6  UNL d   1      -1.668   0.136   0.780  0.00  0.00    -0.001 A 
ENDROOT
TORSDOF 0
ENDMDL
