MODEL 1
REMARK minimizedAffinity -5.90160179
REMARK minimizedRMSD -1
REMARK  0 active torsions:
REMARK  status: ('A' for Active; 'I' for Inactive)
ROOT
ATOM      1  C   UNL d   1       0.314   0.871  -0.688  0.00  0.00     0.078 C 
ATOM      2  C1  UNL d   1      -0.261  -0.295   0.060  0.00  0.00    -0.077 A 
ATOM      3  C2  UNL d   1       0.451  -1.495   0.181  0.00  0.00    -0.001 A 
ATOM      4  C3  UNL d   1      -0.101  -2.575   0.872  0.00  0.00     0.003 A 
ATOM      5  C4  UNL d   1      -1.366  -2.467   1.445  0.00  0.00    -0.005 A 
ATOM      6  C5  UNL d   1      -2.082  -1.278   1.327  0.00  0.00     0.003 A 
ATOM      7  C6  UNL d   1      -1.533  -0.196   0.637  0.00  0.00    -0.001 A 
ENDROOT
TORSDOF 0
ENDMDL
