MODEL 1
REMARK minimizedAffinity -4.17546129
REMARK minimizedRMSD -1
REMARK  0 active torsions:
REMARK  status: ('A' for Active; 'I' for Inactive)
ROOT
ATOM      1  C   UNL d   1       0.273   1.307  -0.494  0.00  0.00     0.078 C 
ATOM      2  C1  UNL d   1      -0.107  -0.058  -0.001  0.00  0.00    -0.077 A 
ATOM      3  C2  UNL d   1       0.842  -1.084   0.083  0.00  0.00    -0.001 A 
ATOM      4  C3  UNL d   1       0.473  -2.352   0.534  0.00  0.00     0.003 A 
ATOM      5  C4  UNL d   1      -0.846  -2.606   0.905  0.00  0.00    -0.005 A 
ATOM      6  C5  UNL d   1      -1.798  -1.592   0.823  0.00  0.00     0.003 A 
ATOM      7  C6  UNL d   1      -1.431  -0.323   0.372  0.00  0.00    -0.001 A 
ENDROOT
TORSDOF 0
ENDMDL
