MODEL 1
REMARK minimizedAffinity -1.39094424
REMARK minimizedRMSD -1
REMARK  0 active torsions:
REMARK  status: ('A' for Active; 'I' for Inactive)
ROOT
ATOM      1  C   UNL d   1      -1.885  -3.186   1.090  0.00  0.00     0.078 C 
ATOM      2  C1  UNL d   1      -1.483  -1.825   0.606  0.00  0.00    -0.077 A 
ATOM      3  C2  UNL d   1      -0.154  -1.542   0.272  0.00  0.00    -0.001 A 
ATOM      4  C3  UNL d   1       0.208  -0.267  -0.168  0.00  0.00     0.003 A 
ATOM      5  C4  UNL d   1      -0.754   0.735  -0.275  0.00  0.00    -0.005 A 
ATOM      6  C5  UNL d   1      -2.080   0.463   0.057  0.00  0.00     0.003 A 
ATOM      7  C6  UNL d   1      -2.443  -0.810   0.497  0.00  0.00    -0.001 A 
ENDROOT
TORSDOF 0
ENDMDL
