MODEL 1
REMARK minimizedAffinity -5.37022257
REMARK minimizedRMSD -1
REMARK  0 active torsions:
REMARK  status: ('A' for Active; 'I' for Inactive)
ROOT
ATOM      1  C   UNL d   1       0.234   0.263  -1.756  0.00  0.00     0.078 C 
ATOM      2  C1  UNL d   1      -0.349  -0.684  -0.750  0.00  0.00    -0.077 A 
ATOM      3  C2  UNL d   1      -0.195  -2.069  -0.890  0.00  0.00    -0.001 A 
ATOM      4  C3  UNL d   1      -0.752  -2.939   0.049  0.00  0.00     0.003 A 
ATOM      5  C4  UNL d   1      -1.467  -2.434   1.133  0.00  0.00    -0.005 A 
ATOM      6  C5  UNL d   1      -1.628  -1.058   1.279  0.00  0.00     0.003 A 
ATOM      7  C6  UNL d   1      -1.072  -0.186   0.341  0.00  0.00    -0.001 A 
ENDROOT
TORSDOF 0
ENDMDL
