MODEL 1
REMARK minimizedAffinity -4.61169052
REMARK minimizedRMSD -1
REMARK  0 active torsions:
REMARK  status: ('A' for Active; 'I' for Inactive)
ROOT
ATOM      1  C   UNL d   1      -1.045  -2.725   1.237  0.00  0.00     0.078 C 
ATOM      2  C1  UNL d   1      -0.700  -1.407   0.609  0.00  0.00    -0.077 A 
ATOM      3  C2  UNL d   1      -1.432  -0.252   0.910  0.00  0.00    -0.001 A 
ATOM      4  C3  UNL d   1      -1.106   0.966   0.310  0.00  0.00     0.003 A 
ATOM      5  C4  UNL d   1      -0.049   1.040  -0.594  0.00  0.00    -0.005 A 
ATOM      6  C5  UNL d   1       0.684  -0.105  -0.901  0.00  0.00     0.003 A 
ATOM      7  C6  UNL d   1       0.359  -1.324  -0.303  0.00  0.00    -0.001 A 
ENDROOT
TORSDOF 0
ENDMDL
