MODEL 1
REMARK minimizedAffinity -5.875
REMARK minimizedRMSD -1
REMARK  0 active torsions:
REMARK  status: ('A' for Active; 'I' for Inactive)
ROOT
ATOM      1  C   UNL d   1       0.364   1.454  -0.388  0.00  0.00     0.078 C 
ATOM      2  C1  UNL d   1       0.038   0.051   0.031  0.00  0.00    -0.077 A 
ATOM      3  C2  UNL d   1      -1.267  -0.308   0.393  0.00  0.00    -0.001 A 
ATOM      4  C3  UNL d   1      -1.554  -1.614   0.790  0.00  0.00     0.003 A 
ATOM      5  C4  UNL d   1      -0.543  -2.572   0.831  0.00  0.00    -0.005 A 
ATOM      6  C5  UNL d   1       0.758  -2.224   0.474  0.00  0.00     0.003 A 
ATOM      7  C6  UNL d   1       1.048  -0.917   0.077  0.00  0.00    -0.001 A 
ENDROOT
TORSDOF 0
ENDMDL
