MODEL 1
REMARK minimizedAffinity -5.16087675
REMARK minimizedRMSD -1
REMARK  0 active torsions:
REMARK  status: ('A' for Active; 'I' for Inactive)
ROOT
ATOM      1  C   UNL d   1      -2.100   1.187   1.260  0.00  0.00     0.078 C 
ATOM      2  C1  UNL d   1      -1.062   0.164   0.908  0.00  0.00    -0.077 A 
ATOM      3  C2  UNL d   1      -1.322  -1.205   1.050  0.00  0.00    -0.001 A 
ATOM      4  C3  UNL d   1      -0.343  -2.147   0.728  0.00  0.00     0.003 A 
ATOM      5  C4  UNL d   1       0.903  -1.730   0.262  0.00  0.00    -0.005 A 
ATOM      6  C5  UNL d   1       1.171  -0.370   0.120  0.00  0.00     0.003 A 
ATOM      7  C6  UNL d   1       0.194   0.573   0.441  0.00  0.00    -0.001 A 
ENDROOT
TORSDOF 0
ENDMDL
