MODEL 1
REMARK minimizedAffinity -1.8366766
REMARK minimizedRMSD -1
REMARK  0 active torsions:
REMARK  status: ('A' for Active; 'I' for Inactive)
ROOT
ATOM      1  C   UNL d   1      -1.116   1.214   0.783  0.00  0.00     0.078 C 
ATOM      2  C1  UNL d   1      -0.393  -0.099   0.728  0.00  0.00    -0.077 A 
ATOM      3  C2  UNL d   1       0.870  -0.202   0.133  0.00  0.00    -0.001 A 
ATOM      4  C3  UNL d   1       1.527  -1.433   0.081  0.00  0.00     0.003 A 
ATOM      5  C4  UNL d   1       0.928  -2.569   0.619  0.00  0.00    -0.005 A 
ATOM      6  C5  UNL d   1      -0.331  -2.477   1.211  0.00  0.00     0.003 A 
ATOM      7  C6  UNL d   1      -0.989  -1.247   1.265  0.00  0.00    -0.001 A 
ENDROOT
TORSDOF 0
ENDMDL
