MODEL 1
REMARK minimizedAffinity -3.36732388
REMARK minimizedRMSD -1
REMARK  0 active torsions:
REMARK  status: ('A' for Active; 'I' for Inactive)
ROOT
ATOM      1  C   UNL d   1      -0.108   0.766  -0.061  0.00  0.00     0.078 C 
ATOM      2  C1  UNL d   1      -0.615  -0.644  -0.003  0.00  0.00    -0.077 A 
ATOM      3  C2  UNL d   1      -0.494  -1.500  -1.104  0.00  0.00    -0.001 A 
ATOM      4  C3  UNL d   1      -0.980  -2.807  -1.039  0.00  0.00     0.003 A 
ATOM      5  C4  UNL d   1      -1.592  -3.269   0.125  0.00  0.00    -0.005 A 
ATOM      6  C5  UNL d   1      -1.719  -2.424   1.225  0.00  0.00     0.003 A 
ATOM      7  C6  UNL d   1      -1.233  -1.117   1.162  0.00  0.00    -0.001 A 
ENDROOT
TORSDOF 0
ENDMDL
