MODEL 1
REMARK minimizedAffinity -2.18889236
REMARK minimizedRMSD -1
REMARK  0 active torsions:
REMARK  status: ('A' for Active; 'I' for Inactive)
ROOT
ATOM      1  C   UNL d   1      -0.796   4.492   2.483  0.00  0.00     0.078 C 
ATOM      2  C1  UNL d   1       0.093   3.810   1.486  0.00  0.00    -0.077 A 
ATOM      3  C2  UNL d   1       1.410   4.238   1.282  0.00  0.00    -0.001 A 
ATOM      4  C3  UNL d   1       2.223   3.600   0.344  0.00  0.00     0.003 A 
ATOM      5  C4  UNL d   1       1.727   2.530  -0.399  0.00  0.00    -0.005 A 
ATOM      6  C5  UNL d   1       0.417   2.099  -0.205  0.00  0.00     0.003 A 
ATOM      7  C6  UNL d   1      -0.398   2.736   0.733  0.00  0.00    -0.001 A 
ENDROOT
TORSDOF 0
ENDMDL
