MODEL 1
REMARK minimizedAffinity -5.0963397
REMARK minimizedRMSD -1
REMARK  0 active torsions:
REMARK  status: ('A' for Active; 'I' for Inactive)
ROOT
ATOM      1  C   UNL d   1       0.499   1.100   0.040  0.00  0.00     0.078 C 
ATOM      2  C1  UNL d   1       0.084  -0.335   0.168  0.00  0.00    -0.077 A 
ATOM      3  C2  UNL d   1      -1.197  -0.678   0.617  0.00  0.00    -0.001 A 
ATOM      4  C3  UNL d   1      -1.567  -2.018   0.741  0.00  0.00     0.003 A 
ATOM      5  C4  UNL d   1      -0.661  -3.026   0.418  0.00  0.00    -0.005 A 
ATOM      6  C5  UNL d   1       0.616  -2.695  -0.029  0.00  0.00     0.003 A 
ATOM      7  C6  UNL d   1       0.988  -1.355  -0.153  0.00  0.00    -0.001 A 
ENDROOT
TORSDOF 0
ENDMDL
