MODEL 1
REMARK minimizedAffinity -2.10177755
REMARK minimizedRMSD -1
REMARK  0 active torsions:
REMARK  status: ('A' for Active; 'I' for Inactive)
ROOT
ATOM      1  C   UNL d   1       1.856   2.488   0.584  0.00  0.00     0.078 C 
ATOM      2  C1  UNL d   1       1.309   1.193   0.062  0.00  0.00    -0.077 A 
ATOM      3  C2  UNL d   1       1.336   0.032   0.843  0.00  0.00    -0.001 A 
ATOM      4  C3  UNL d   1       0.832  -1.169   0.341  0.00  0.00     0.003 A 
ATOM      5  C4  UNL d   1       0.298  -1.220  -0.945  0.00  0.00    -0.005 A 
ATOM      6  C5  UNL d   1       0.269  -0.069  -1.731  0.00  0.00     0.003 A 
ATOM      7  C6  UNL d   1       0.773   1.132  -1.230  0.00  0.00    -0.001 A 
ENDROOT
TORSDOF 0
ENDMDL
