MODEL 1
REMARK minimizedAffinity -2.57832217
REMARK minimizedRMSD -1
REMARK  0 active torsions:
REMARK  status: ('A' for Active; 'I' for Inactive)
ROOT
ATOM      1  C   UNL d   1       0.483  -0.669  -2.402  0.00  0.00     0.078 C 
ATOM      2  C1  UNL d   1      -0.138  -0.749  -1.039  0.00  0.00    -0.077 A 
ATOM      3  C2  UNL d   1      -0.105   0.345  -0.166  0.00  0.00    -0.001 A 
ATOM      4  C3  UNL d   1      -0.679   0.253   1.103  0.00  0.00     0.003 A 
ATOM      5  C4  UNL d   1      -1.289  -0.931   1.511  0.00  0.00    -0.005 A 
ATOM      6  C5  UNL d   1      -1.325  -2.026   0.649  0.00  0.00     0.003 A 
ATOM      7  C6  UNL d   1      -0.752  -1.936  -0.620  0.00  0.00    -0.001 A 
ENDROOT
TORSDOF 0
ENDMDL
