MODEL 1
REMARK minimizedAffinity -4.13434172
REMARK minimizedRMSD -1
REMARK  0 active torsions:
REMARK  status: ('A' for Active; 'I' for Inactive)
ROOT
ATOM      1  C   UNL d   1      -0.130  -3.631  -0.161  0.00  0.00     0.078 C 
ATOM      2  C1  UNL d   1      -0.311  -2.199   0.247  0.00  0.00    -0.077 A 
ATOM      3  C2  UNL d   1      -1.345  -1.820   1.111  0.00  0.00    -0.001 A 
ATOM      4  C3  UNL d   1      -1.507  -0.482   1.474  0.00  0.00     0.003 A 
ATOM      5  C4  UNL d   1      -0.640   0.488   0.977  0.00  0.00    -0.005 A 
ATOM      6  C5  UNL d   1       0.391   0.121   0.114  0.00  0.00     0.003 A 
ATOM      7  C6  UNL d   1       0.555  -1.216  -0.250  0.00  0.00    -0.001 A 
ENDROOT
TORSDOF 0
ENDMDL
