MODEL 1
REMARK minimizedAffinity -4.46852398
REMARK minimizedRMSD -1
REMARK  0 active torsions:
REMARK  status: ('A' for Active; 'I' for Inactive)
ROOT
ATOM      1  C   UNL d   1      -3.690  -2.665   1.089  0.00  0.00     0.078 C 
ATOM      2  C1  UNL d   1      -2.217  -2.384   1.098  0.00  0.00    -0.077 A 
ATOM      3  C2  UNL d   1      -1.711  -1.202   1.652  0.00  0.00    -0.001 A 
ATOM      4  C3  UNL d   1      -0.339  -0.949   1.646  0.00  0.00     0.003 A 
ATOM      5  C4  UNL d   1       0.540  -1.873   1.085  0.00  0.00    -0.005 A 
ATOM      6  C5  UNL d   1       0.047  -3.052   0.529  0.00  0.00     0.003 A 
ATOM      7  C6  UNL d   1      -1.326  -3.306   0.535  0.00  0.00    -0.001 A 
ENDROOT
TORSDOF 0
ENDMDL
