MODEL 1
REMARK minimizedAffinity -3.09553266
REMARK minimizedRMSD -1
REMARK  0 active torsions:
REMARK  status: ('A' for Active; 'I' for Inactive)
ROOT
ATOM      1  C   UNL d   1      -2.518  -0.367   0.739  0.00  0.00     0.078 C 
ATOM      2  C1  UNL d   1      -1.271  -1.198   0.680  0.00  0.00    -0.077 A 
ATOM      3  C2  UNL d   1      -1.277  -2.538   1.087  0.00  0.00    -0.001 A 
ATOM      4  C3  UNL d   1      -0.107  -3.297   1.036  0.00  0.00     0.003 A 
ATOM      5  C4  UNL d   1       1.079  -2.724   0.579  0.00  0.00    -0.005 A 
ATOM      6  C5  UNL d   1       1.095  -1.391   0.174  0.00  0.00     0.003 A 
ATOM      7  C6  UNL d   1      -0.074  -0.631   0.225  0.00  0.00    -0.001 A 
ENDROOT
TORSDOF 0
ENDMDL
