MODEL 1
REMARK minimizedAffinity -4.83239698
REMARK minimizedRMSD -1
REMARK  0 active torsions:
REMARK  status: ('A' for Active; 'I' for Inactive)
ROOT
ATOM      1  C   UNL d   1       0.106   1.004  -0.493  0.00  0.00     0.078 C 
ATOM      2  C1  UNL d   1       0.049  -0.417  -0.016  0.00  0.00    -0.077 A 
ATOM      3  C2  UNL d   1       0.981  -1.364  -0.459  0.00  0.00    -0.001 A 
ATOM      4  C3  UNL d   1       0.910  -2.685  -0.014  0.00  0.00     0.003 A 
ATOM      5  C4  UNL d   1      -0.091  -3.071   0.875  0.00  0.00    -0.005 A 
ATOM      6  C5  UNL d   1      -1.024  -2.136   1.319  0.00  0.00     0.003 A 
ATOM      7  C6  UNL d   1      -0.955  -0.815   0.875  0.00  0.00    -0.001 A 
ENDROOT
TORSDOF 0
ENDMDL
