MODEL 1
REMARK minimizedAffinity -4.94841433
REMARK minimizedRMSD -1
REMARK  0 active torsions:
REMARK  status: ('A' for Active; 'I' for Inactive)
ROOT
ATOM      1  C   UNL d   1       0.395  -1.839  -2.642  0.00  0.00     0.078 C 
ATOM      2  C1  UNL d   1      -0.267  -1.615  -1.316  0.00  0.00    -0.077 A 
ATOM      3  C2  UNL d   1      -0.840  -2.678  -0.607  0.00  0.00    -0.001 A 
ATOM      4  C3  UNL d   1      -1.462  -2.454   0.622  0.00  0.00     0.003 A 
ATOM      5  C4  UNL d   1      -1.518  -1.167   1.153  0.00  0.00    -0.005 A 
ATOM      6  C5  UNL d   1      -0.953  -0.102   0.454  0.00  0.00     0.003 A 
ATOM      7  C6  UNL d   1      -0.331  -0.324  -0.775  0.00  0.00    -0.001 A 
ENDROOT
TORSDOF 0
ENDMDL
