MODEL 1
REMARK minimizedAffinity -5.10811138
REMARK minimizedRMSD -1
REMARK  0 active torsions:
REMARK  status: ('A' for Active; 'I' for Inactive)
ROOT
ATOM      1  C   UNL d   1       0.523   1.520  -0.307  0.00  0.00     0.078 C 
ATOM      2  C1  UNL d   1       0.274   0.053  -0.122  0.00  0.00    -0.077 A 
ATOM      3  C2  UNL d   1       0.920  -0.896  -0.924  0.00  0.00    -0.001 A 
ATOM      4  C3  UNL d   1       0.671  -2.258  -0.747  0.00  0.00     0.003 A 
ATOM      5  C4  UNL d   1      -0.225  -2.684   0.232  0.00  0.00    -0.005 A 
ATOM      6  C5  UNL d   1      -0.875  -1.747   1.034  0.00  0.00     0.003 A 
ATOM      7  C6  UNL d   1      -0.627  -0.385   0.858  0.00  0.00    -0.001 A 
ENDROOT
TORSDOF 0
ENDMDL
