MODEL 1
REMARK minimizedAffinity -4.7214365
REMARK minimizedRMSD -1
REMARK  0 active torsions:
REMARK  status: ('A' for Active; 'I' for Inactive)
ROOT
ATOM      1  C   UNL d   1       0.142   1.262  -0.692  0.00  0.00     0.078 C 
ATOM      2  C1  UNL d   1       0.121  -0.086  -0.034  0.00  0.00    -0.077 A 
ATOM      3  C2  UNL d   1      -0.798  -0.379   0.981  0.00  0.00    -0.001 A 
ATOM      4  C3  UNL d   1      -0.800  -1.634   1.591  0.00  0.00     0.003 A 
ATOM      5  C4  UNL d   1       0.116  -2.606   1.194  0.00  0.00    -0.005 A 
ATOM      6  C5  UNL d   1       1.036  -2.323   0.187  0.00  0.00     0.003 A 
ATOM      7  C6  UNL d   1       1.040  -1.068  -0.425  0.00  0.00    -0.001 A 
ENDROOT
TORSDOF 0
ENDMDL
