MODEL 1
REMARK minimizedAffinity 4.25403786
REMARK minimizedRMSD -1
REMARK  0 active torsions:
REMARK  status: ('A' for Active; 'I' for Inactive)
ROOT
ATOM      1  C   UNL d   1       2.118   2.107  -2.053  0.00  0.00     0.023 A 
ATOM      2  C1  UNL d   1       1.368   0.985  -2.407  0.00  0.00     0.003 A 
ATOM      3  C2  UNL d   1       1.428  -0.171  -1.627  0.00  0.00     0.048 A 
ATOM      4  C3  UNL d   1       2.240  -0.199  -0.494  0.00  0.00     0.023 A 
ATOM      5  C4  UNL d   1       2.991   0.922  -0.135  0.00  0.00     0.048 A 
ATOM      6  C5  UNL d   1       2.928   2.075  -0.918  0.00  0.00     0.003 A 
ATOM      7  I   UNL d   1       2.331  -1.919   0.669  0.00  0.00    -0.146 I 
ENDROOT
TORSDOF 0
ENDMDL
