MODEL 1
REMARK minimizedAffinity 3.05163789
REMARK minimizedRMSD -1
REMARK  0 active torsions:
REMARK  status: ('A' for Active; 'I' for Inactive)
ROOT
ATOM      1  C   UNL d   1       2.080  -4.251   1.501  0.00  0.00     0.023 A 
ATOM      2  C1  UNL d   1       2.388  -2.893   1.413  0.00  0.00     0.003 A 
ATOM      3  C2  UNL d   1       1.483  -1.939   1.883  0.00  0.00     0.048 A 
ATOM      4  C3  UNL d   1       0.273  -2.349   2.440  0.00  0.00     0.023 A 
ATOM      5  C4  UNL d   1      -0.039  -3.707   2.531  0.00  0.00     0.048 A 
ATOM      6  C5  UNL d   1       0.868  -4.657   2.059  0.00  0.00     0.003 A 
ATOM      7  I   UNL d   1      -1.076  -0.931   3.140  0.00  0.00    -0.146 I 
ENDROOT
TORSDOF 0
ENDMDL
