MODEL 1
REMARK minimizedAffinity 4.69474888
REMARK minimizedRMSD -1
REMARK  0 active torsions:
REMARK  status: ('A' for Active; 'I' for Inactive)
ROOT
ATOM      1  C   UNL d   1       0.506  -2.182   1.824  0.00  0.00     0.023 A 
ATOM      2  C1  UNL d   1       1.301  -1.312   2.572  0.00  0.00     0.003 A 
ATOM      3  C2  UNL d   1       2.491  -0.816   2.035  0.00  0.00     0.048 A 
ATOM      4  C3  UNL d   1       2.880  -1.193   0.750  0.00  0.00     0.023 A 
ATOM      5  C4  UNL d   1       2.088  -2.062  -0.002  0.00  0.00     0.048 A 
ATOM      6  C5  UNL d   1       0.899  -2.556   0.539  0.00  0.00     0.003 A 
ATOM      7  I   UNL d   1       4.651  -0.456  -0.050  0.00  0.00    -0.146 I 
ENDROOT
TORSDOF 0
ENDMDL
