MODEL 1
REMARK minimizedAffinity 14.0843925
REMARK minimizedRMSD -1
REMARK  0 active torsions:
REMARK  status: ('A' for Active; 'I' for Inactive)
ROOT
ATOM      1  C   UNL d   1       1.973  -0.969   2.419  0.00  0.00     0.023 A 
ATOM      2  C1  UNL d   1       1.658  -1.877   1.408  0.00  0.00     0.003 A 
ATOM      3  C2  UNL d   1       0.323  -2.147   1.100  0.00  0.00     0.048 A 
ATOM      4  C3  UNL d   1      -0.693  -1.504   1.807  0.00  0.00     0.023 A 
ATOM      5  C4  UNL d   1      -0.383  -0.594   2.819  0.00  0.00     0.048 A 
ATOM      6  C5  UNL d   1       0.953  -0.329   3.124  0.00  0.00     0.003 A 
ATOM      7  I   UNL d   1      -2.680  -1.904   1.350  0.00  0.00    -0.146 I 
ENDROOT
TORSDOF 0
ENDMDL
