MODEL 1
REMARK minimizedAffinity -2.0530448
REMARK minimizedRMSD -1
REMARK  0 active torsions:
REMARK  status: ('A' for Active; 'I' for Inactive)
ROOT
ATOM      1  C   UNL d   1       0.393  -1.853   0.316  0.00  0.00     0.077 C 
ATOM      2  C1  UNL d   1       0.371  -0.473  -0.271  0.00  0.00    -0.074 A 
ATOM      3  C2  UNL d   1       0.115   0.645   0.530  0.00  0.00    -0.005 A 
ATOM      4  C3  UNL d   1       0.108   1.923  -0.028  0.00  0.00     0.006 A 
ATOM      5  C4  UNL d   1       0.354   2.096  -1.391  0.00  0.00    -0.005 A 
ATOM      6  C5  UNL d   1       0.612   0.991  -2.207  0.00  0.00    -0.074 A 
ATOM      7  C6  UNL d   1       0.889   1.160  -3.672  0.00  0.00     0.077 C 
ATOM      8  C7  UNL d   1       0.626  -0.290  -1.637  0.00  0.00    -0.001 A 
ENDROOT
TORSDOF 0
ENDMDL
