MODEL 1
REMARK minimizedAffinity -1.51348531
REMARK minimizedRMSD -1
REMARK  0 active torsions:
REMARK  status: ('A' for Active; 'I' for Inactive)
ROOT
ATOM      1  C   UNL d   1       0.181   0.987  -0.803  0.00  0.00     0.077 C 
ATOM      2  C1  UNL d   1      -0.168  -0.054   0.218  0.00  0.00    -0.074 A 
ATOM      3  C2  UNL d   1       0.588  -1.224   0.340  0.00  0.00    -0.005 A 
ATOM      4  C3  UNL d   1       0.257  -2.179   1.301  0.00  0.00     0.006 A 
ATOM      5  C4  UNL d   1      -0.832  -1.974   2.149  0.00  0.00    -0.005 A 
ATOM      6  C5  UNL d   1      -1.600  -0.809   2.043  0.00  0.00    -0.074 A 
ATOM      7  C6  UNL d   1      -2.767  -0.569   2.953  0.00  0.00     0.077 C 
ATOM      8  C7  UNL d   1      -1.256   0.149   1.079  0.00  0.00    -0.001 A 
ENDROOT
TORSDOF 0
ENDMDL
