MODEL 1
REMARK minimizedAffinity -1.84910202
REMARK minimizedRMSD -1
REMARK  0 active torsions:
REMARK  status: ('A' for Active; 'I' for Inactive)
ROOT
ATOM      1  C   UNL d   1       1.190  -2.247   0.002  0.00  0.00     0.077 C 
ATOM      2  C1  UNL d   1       0.748  -0.818  -0.104  0.00  0.00    -0.074 A 
ATOM      3  C2  UNL d   1      -0.132  -0.266   0.832  0.00  0.00    -0.005 A 
ATOM      4  C3  UNL d   1      -0.527   1.068   0.726  0.00  0.00     0.006 A 
ATOM      5  C4  UNL d   1      -0.047   1.861  -0.317  0.00  0.00    -0.005 A 
ATOM      6  C5  UNL d   1       0.834   1.327  -1.263  0.00  0.00    -0.074 A 
ATOM      7  C6  UNL d   1       1.367   2.169  -2.384  0.00  0.00     0.077 C 
ATOM      8  C7  UNL d   1       1.232  -0.012  -1.145  0.00  0.00    -0.001 A 
ENDROOT
TORSDOF 0
ENDMDL
