MODEL 1
REMARK minimizedAffinity -3.29502702
REMARK minimizedRMSD -1
REMARK  0 active torsions:
REMARK  status: ('A' for Active; 'I' for Inactive)
ROOT
ATOM      1  C   UNL d   1      -2.643  -0.767   2.651  0.00  0.00     0.077 C 
ATOM      2  C1  UNL d   1      -1.458  -1.004   1.763  0.00  0.00    -0.074 A 
ATOM      3  C2  UNL d   1      -0.806  -2.241   1.749  0.00  0.00    -0.005 A 
ATOM      4  C3  UNL d   1       0.290  -2.449   0.912  0.00  0.00     0.006 A 
ATOM      5  C4  UNL d   1       0.744  -1.424   0.080  0.00  0.00    -0.005 A 
ATOM      6  C5  UNL d   1       0.104  -0.181   0.080  0.00  0.00    -0.074 A 
ATOM      7  C6  UNL d   1       0.572   0.928  -0.814  0.00  0.00     0.077 C 
ATOM      8  C7  UNL d   1      -1.001   0.018   0.920  0.00  0.00    -0.001 A 
ENDROOT
TORSDOF 0
ENDMDL
