MODEL 1
REMARK minimizedAffinity -3.49570847
REMARK minimizedRMSD -1
REMARK  0 active torsions:
REMARK  status: ('A' for Active; 'I' for Inactive)
ROOT
ATOM      1  C   UNL d   1      -2.549  -0.040   2.999  0.00  0.00     0.077 C 
ATOM      2  C1  UNL d   1      -1.525  -0.472   1.992  0.00  0.00    -0.074 A 
ATOM      3  C2  UNL d   1      -1.111  -1.806   1.914  0.00  0.00    -0.005 A 
ATOM      4  C3  UNL d   1      -0.165  -2.194   0.966  0.00  0.00     0.006 A 
ATOM      5  C4  UNL d   1       0.375  -1.255   0.087  0.00  0.00    -0.005 A 
ATOM      6  C5  UNL d   1      -0.027   0.083   0.149  0.00  0.00    -0.074 A 
ATOM      7  C6  UNL d   1       0.537   1.103  -0.795  0.00  0.00     0.077 C 
ATOM      8  C7  UNL d   1      -0.983   0.464   1.100  0.00  0.00    -0.001 A 
ENDROOT
TORSDOF 0
ENDMDL
