MODEL 1
REMARK minimizedAffinity -3.72240996
REMARK minimizedRMSD -1
REMARK  0 active torsions:
REMARK  status: ('A' for Active; 'I' for Inactive)
ROOT
ATOM      1  C   UNL d   1      -2.616   0.042   2.363  0.00  0.00     0.077 C 
ATOM      2  C1  UNL d   1      -1.398  -0.345   1.578  0.00  0.00    -0.074 A 
ATOM      3  C2  UNL d   1      -0.885  -1.644   1.641  0.00  0.00    -0.005 A 
ATOM      4  C3  UNL d   1       0.243  -1.991   0.898  0.00  0.00     0.006 A 
ATOM      5  C4  UNL d   1       0.869  -1.044   0.086  0.00  0.00    -0.005 A 
ATOM      6  C5  UNL d   1       0.370   0.260   0.011  0.00  0.00    -0.074 A 
ATOM      7  C6  UNL d   1       1.024   1.288  -0.864  0.00  0.00     0.077 C 
ATOM      8  C7  UNL d   1      -0.768   0.599   0.755  0.00  0.00    -0.001 A 
ENDROOT
TORSDOF 0
ENDMDL
