MODEL 1
REMARK minimizedAffinity -4.64488077
REMARK minimizedRMSD -1
REMARK  0 active torsions:
REMARK  status: ('A' for Active; 'I' for Inactive)
ROOT
ATOM      1  C   UNL d   1       0.511   1.107  -0.564  0.00  0.00     0.077 C 
ATOM      2  C1  UNL d   1      -0.017  -0.062   0.214  0.00  0.00    -0.074 A 
ATOM      3  C2  UNL d   1       0.553  -1.332   0.079  0.00  0.00    -0.005 A 
ATOM      4  C3  UNL d   1       0.057  -2.407   0.816  0.00  0.00     0.006 A 
ATOM      5  C4  UNL d   1      -1.012  -2.224   1.693  0.00  0.00    -0.005 A 
ATOM      6  C5  UNL d   1      -1.595  -0.961   1.842  0.00  0.00    -0.074 A 
ATOM      7  C6  UNL d   1      -2.738  -0.745   2.788  0.00  0.00     0.077 C 
ATOM      8  C7  UNL d   1      -1.086   0.116   1.103  0.00  0.00    -0.001 A 
ENDROOT
TORSDOF 0
ENDMDL
