MODEL 1
REMARK minimizedAffinity -2.85900974
REMARK minimizedRMSD -1
REMARK  0 active torsions:
REMARK  status: ('A' for Active; 'I' for Inactive)
ROOT
ATOM      1  C   UNL d   1       0.701   0.851  -0.816  0.00  0.00     0.077 C 
ATOM      2  C1  UNL d   1       0.150  -0.179   0.124  0.00  0.00    -0.074 A 
ATOM      3  C2  UNL d   1       0.749  -1.437   0.243  0.00  0.00    -0.005 A 
ATOM      4  C3  UNL d   1       0.231  -2.382   1.129  0.00  0.00     0.006 A 
ATOM      5  C4  UNL d   1      -0.889  -2.078   1.904  0.00  0.00    -0.005 A 
ATOM      6  C5  UNL d   1      -1.500  -0.825   1.800  0.00  0.00    -0.074 A 
ATOM      7  C6  UNL d   1      -2.699  -0.479   2.632  0.00  0.00     0.077 C 
ATOM      8  C7  UNL d   1      -0.970   0.121   0.912  0.00  0.00    -0.001 A 
ENDROOT
TORSDOF 0
ENDMDL
