MODEL 1
REMARK minimizedAffinity -1.46767628
REMARK minimizedRMSD -1
REMARK  0 active torsions:
REMARK  status: ('A' for Active; 'I' for Inactive)
ROOT
ATOM      1  C   UNL d   1      -2.089  -1.393   2.739  0.00  0.00     0.077 C 
ATOM      2  C1  UNL d   1      -0.935  -1.279   1.788  0.00  0.00    -0.074 A 
ATOM      3  C2  UNL d   1      -0.078  -2.361   1.565  0.00  0.00    -0.005 A 
ATOM      4  C3  UNL d   1       0.986  -2.244   0.670  0.00  0.00     0.006 A 
ATOM      5  C4  UNL d   1       1.203  -1.045  -0.010  0.00  0.00    -0.005 A 
ATOM      6  C5  UNL d   1       0.356   0.048   0.199  0.00  0.00    -0.074 A 
ATOM      7  C6  UNL d   1       0.569   1.341  -0.531  0.00  0.00     0.077 C 
ATOM      8  C7  UNL d   1      -0.715  -0.080   1.095  0.00  0.00    -0.001 A 
ENDROOT
TORSDOF 0
ENDMDL
