MODEL 1
REMARK minimizedAffinity 6.05220747
REMARK minimizedRMSD -1
REMARK  0 active torsions:
REMARK  status: ('A' for Active; 'I' for Inactive)
ROOT
ATOM      1  C   UNL d   1       3.865   2.634  -2.767  0.00  0.00     0.077 C 
ATOM      2  C1  UNL d   1       4.230   3.598  -1.678  0.00  0.00    -0.074 A 
ATOM      3  C2  UNL d   1       4.328   4.969  -1.935  0.00  0.00    -0.005 A 
ATOM      4  C3  UNL d   1       4.659   5.855  -0.910  0.00  0.00     0.006 A 
ATOM      5  C4  UNL d   1       4.893   5.380   0.381  0.00  0.00    -0.005 A 
ATOM      6  C5  UNL d   1       4.798   4.013   0.657  0.00  0.00    -0.074 A 
ATOM      7  C6  UNL d   1       5.038   3.487   2.041  0.00  0.00     0.077 C 
ATOM      8  C7  UNL d   1       4.459   3.130  -0.377  0.00  0.00    -0.001 A 
ENDROOT
TORSDOF 0
ENDMDL
