MODEL 1
REMARK minimizedAffinity -2.69483852
REMARK minimizedRMSD -1
REMARK  0 active torsions:
REMARK  status: ('A' for Active; 'I' for Inactive)
ROOT
ATOM      1  C   UNL d   1       0.948   1.694  -3.508  0.00  0.00     0.077 C 
ATOM      2  C1  UNL d   1       0.635   1.415  -2.068  0.00  0.00    -0.074 A 
ATOM      3  C2  UNL d   1       0.139   2.421  -1.232  0.00  0.00    -0.005 A 
ATOM      4  C3  UNL d   1      -0.156   2.144   0.103  0.00  0.00     0.006 A 
ATOM      5  C4  UNL d   1       0.040   0.860   0.614  0.00  0.00    -0.005 A 
ATOM      6  C5  UNL d   1       0.534  -0.158  -0.207  0.00  0.00    -0.074 A 
ATOM      7  C6  UNL d   1       0.741  -1.546   0.324  0.00  0.00     0.077 C 
ATOM      8  C7  UNL d   1       0.822   0.126  -1.549  0.00  0.00    -0.001 A 
ENDROOT
TORSDOF 0
ENDMDL
