MODEL 1
REMARK minimizedAffinity -2.83734107
REMARK minimizedRMSD -1
REMARK  0 active torsions:
REMARK  status: ('A' for Active; 'I' for Inactive)
ROOT
ATOM      1  C   UNL d   1       1.490  -0.654  -0.085  0.00  0.00     0.077 C 
ATOM      2  C1  UNL d   1       0.156  -0.217   0.443  0.00  0.00    -0.074 A 
ATOM      3  C2  UNL d   1      -0.412   0.997   0.044  0.00  0.00    -0.005 A 
ATOM      4  C3  UNL d   1      -1.658   1.385   0.536  0.00  0.00     0.006 A 
ATOM      5  C4  UNL d   1      -2.347   0.566   1.432  0.00  0.00    -0.005 A 
ATOM      6  C5  UNL d   1      -1.794  -0.652   1.842  0.00  0.00    -0.074 A 
ATOM      7  C6  UNL d   1      -2.525  -1.549   2.796  0.00  0.00     0.077 C 
ATOM      8  C7  UNL d   1      -0.545  -1.039   1.337  0.00  0.00    -0.001 A 
ENDROOT
TORSDOF 0
ENDMDL
