MODEL 1
REMARK minimizedAffinity -3.43248582
REMARK minimizedRMSD -1
REMARK  0 active torsions:
REMARK  status: ('A' for Active; 'I' for Inactive)
ROOT
ATOM      1  C   UNL d   1       0.453   1.638  -0.688  0.00  0.00     0.077 C 
ATOM      2  C1  UNL d   1       0.020   0.443   0.108  0.00  0.00    -0.074 A 
ATOM      3  C2  UNL d   1       0.731  -0.760   0.044  0.00  0.00    -0.005 A 
ATOM      4  C3  UNL d   1       0.322  -1.860   0.797  0.00  0.00     0.006 A 
ATOM      5  C4  UNL d   1      -0.801  -1.769   1.620  0.00  0.00    -0.005 A 
ATOM      6  C5  UNL d   1      -1.524  -0.575   1.698  0.00  0.00    -0.074 A 
ATOM      7  C6  UNL d   1      -2.727  -0.457   2.586  0.00  0.00     0.077 C 
ATOM      8  C7  UNL d   1      -1.102   0.529   0.944  0.00  0.00    -0.001 A 
ENDROOT
TORSDOF 0
ENDMDL
