MODEL 1
REMARK minimizedAffinity -2.07986593
REMARK minimizedRMSD -1
REMARK  0 active torsions:
REMARK  status: ('A' for Active; 'I' for Inactive)
ROOT
ATOM      1  C   UNL d   1       3.991   3.157  -1.948  0.00  0.00     0.077 C 
ATOM      2  C1  UNL d   1       2.627   2.588  -2.203  0.00  0.00    -0.074 A 
ATOM      3  C2  UNL d   1       2.014   2.723  -3.453  0.00  0.00    -0.005 A 
ATOM      4  C3  UNL d   1       0.749   2.180  -3.678  0.00  0.00     0.006 A 
ATOM      5  C4  UNL d   1       0.086   1.497  -2.657  0.00  0.00    -0.005 A 
ATOM      6  C5  UNL d   1       0.684   1.352  -1.401  0.00  0.00    -0.074 A 
ATOM      7  C6  UNL d   1      -0.011   0.613  -0.296  0.00  0.00     0.077 C 
ATOM      8  C7  UNL d   1       1.958   1.894  -1.185  0.00  0.00    -0.001 A 
ENDROOT
TORSDOF 0
ENDMDL
