MODEL 1
REMARK minimizedAffinity 2.03157878
REMARK minimizedRMSD -1
REMARK  0 active torsions:
REMARK  status: ('A' for Active; 'I' for Inactive)
ROOT
ATOM      1  C   UNL d   1      -0.777  -5.377  -5.983  0.00  0.00     0.077 C 
ATOM      2  C1  UNL d   1      -1.692  -4.411  -5.292  0.00  0.00    -0.074 A 
ATOM      3  C2  UNL d   1      -1.381  -3.909  -4.024  0.00  0.00    -0.005 A 
ATOM      4  C3  UNL d   1      -2.237  -3.003  -3.397  0.00  0.00     0.006 A 
ATOM      5  C4  UNL d   1      -3.410  -2.591  -4.030  0.00  0.00    -0.005 A 
ATOM      6  C5  UNL d   1      -3.737  -3.082  -5.298  0.00  0.00    -0.074 A 
ATOM      7  C6  UNL d   1      -4.989  -2.642  -5.997  0.00  0.00     0.077 C 
ATOM      8  C7  UNL d   1      -2.869  -3.986  -5.925  0.00  0.00    -0.001 A 
ENDROOT
TORSDOF 0
ENDMDL
