MODEL 1
REMARK minimizedAffinity -2.71058607
REMARK minimizedRMSD -1
REMARK  0 active torsions:
REMARK  status: ('A' for Active; 'I' for Inactive)
ROOT
ATOM      1  C   UNL d   1       0.362   1.000  -3.461  0.00  0.00     0.077 C 
ATOM      2  C1  UNL d   1       0.519   0.734  -1.994  0.00  0.00    -0.074 A 
ATOM      3  C2  UNL d   1       0.806   1.773  -1.102  0.00  0.00    -0.005 A 
ATOM      4  C3  UNL d   1       0.940   1.512   0.262  0.00  0.00     0.006 A 
ATOM      5  C4  UNL d   1       0.789   0.213   0.747  0.00  0.00    -0.005 A 
ATOM      6  C5  UNL d   1       0.501  -0.838  -0.130  0.00  0.00    -0.074 A 
ATOM      7  C6  UNL d   1       0.325  -2.239   0.376  0.00  0.00     0.077 C 
ATOM      8  C7  UNL d   1       0.361  -0.567  -1.498  0.00  0.00    -0.001 A 
ENDROOT
TORSDOF 0
ENDMDL
