MODEL 1
REMARK minimizedAffinity -2.18781757
REMARK minimizedRMSD -1
REMARK  0 active torsions:
REMARK  status: ('A' for Active; 'I' for Inactive)
ROOT
ATOM      1  C1  BNZ d   1       5.731   5.698  -3.711  0.00  0.00     0.000 A 
ATOM      2  C2  BNZ d   1       4.686   4.878  -3.379  0.00  0.00     0.000 A 
ATOM      3  C3  BNZ d   1       3.907   4.309  -4.348  0.00  0.00     0.000 A 
ATOM      4  C4  BNZ d   1       4.149   4.593  -5.644  0.00  0.00     0.000 A 
ATOM      5  C5  BNZ d   1       5.193   5.425  -5.995  0.00  0.00     0.000 A 
ATOM      6  C6  BNZ d   1       5.999   5.965  -5.018  0.00  0.00     0.000 A 
ENDROOT
TORSDOF 0
ENDMDL
