MODEL 1
REMARK minimizedAffinity 9.73243809
REMARK minimizedRMSD -1
REMARK  0 active torsions:
REMARK  status: ('A' for Active; 'I' for Inactive)
ROOT
ATOM      1  C1  BNZ d   1      -4.817   4.384  -0.756  0.00  0.00     0.000 A 
ATOM      2  C2  BNZ d   1      -3.639   3.730  -0.999  0.00  0.00     0.000 A 
ATOM      3  C3  BNZ d   1      -3.629   2.511  -1.618  0.00  0.00     0.000 A 
ATOM      4  C4  BNZ d   1      -4.798   1.931  -1.958  0.00  0.00     0.000 A 
ATOM      5  C5  BNZ d   1      -5.995   2.574  -1.712  0.00  0.00     0.000 A 
ATOM      6  C6  BNZ d   1      -5.999   3.817  -1.124  0.00  0.00     0.000 A 
ENDROOT
TORSDOF 0
ENDMDL
