MODEL 1
REMARK minimizedAffinity 7.26140213
REMARK minimizedRMSD -1
REMARK  0 active torsions:
REMARK  status: ('A' for Active; 'I' for Inactive)
ROOT
ATOM      1  C1  BNZ d   1       1.585   4.922  -1.634  0.00  0.00     0.000 A 
ATOM      2  C2  BNZ d   1       2.669   4.131  -1.360  0.00  0.00     0.000 A 
ATOM      3  C3  BNZ d   1       2.618   3.195  -0.366  0.00  0.00     0.000 A 
ATOM      4  C4  BNZ d   1       1.500   3.078   0.379  0.00  0.00     0.000 A 
ATOM      5  C5  BNZ d   1       0.402   3.874   0.121  0.00  0.00     0.000 A 
ATOM      6  C6  BNZ d   1       0.443   4.789  -0.906  0.00  0.00     0.000 A 
ENDROOT
TORSDOF 0
ENDMDL
