MODEL 1
REMARK minimizedAffinity 7.43161058
REMARK minimizedRMSD -1
REMARK  0 active torsions:
REMARK  status: ('A' for Active; 'I' for Inactive)
ROOT
ATOM      1  C1  BNZ d   1       3.906   4.908  -5.324  0.00  0.00     0.000 A 
ATOM      2  C2  BNZ d   1       3.923   4.861  -3.956  0.00  0.00     0.000 A 
ATOM      3  C3  BNZ d   1       4.961   5.402  -3.250  0.00  0.00     0.000 A 
ATOM      4  C4  BNZ d   1       5.998   5.953  -3.913  0.00  0.00     0.000 A 
ATOM      5  C5  BNZ d   1       6.000   6.000  -5.292  0.00  0.00     0.000 A 
ATOM      6  C6  BNZ d   1       4.935   5.489  -5.999  0.00  0.00     0.000 A 
ENDROOT
TORSDOF 0
ENDMDL
