MODEL 1
REMARK minimizedAffinity -0.365896642
REMARK minimizedRMSD -1
REMARK  0 active torsions:
REMARK  status: ('A' for Active; 'I' for Inactive)
ROOT
ATOM      1  C1  BNZ d   1       3.782   5.305  -4.004  0.00  0.00     0.000 A 
ATOM      2  C2  BNZ d   1       3.779   4.600  -5.178  0.00  0.00     0.000 A 
ATOM      3  C3  BNZ d   1       4.887   4.570  -5.979  0.00  0.00     0.000 A 
ATOM      4  C4  BNZ d   1       5.980   5.277  -5.625  0.00  0.00     0.000 A 
ATOM      5  C5  BNZ d   1       5.995   5.999  -4.449  0.00  0.00     0.000 A 
ATOM      6  C6  BNZ d   1       4.892   5.996  -3.626  0.00  0.00     0.000 A 
ENDROOT
TORSDOF 0
ENDMDL
