MODEL 1
REMARK minimizedAffinity -1.40442979
REMARK minimizedRMSD -1
REMARK  0 active torsions:
REMARK  status: ('A' for Active; 'I' for Inactive)
ROOT
ATOM      1  C1  BNZ d   1       0.857  -1.241   3.933  0.00  0.00     0.000 A 
ATOM      2  C2  BNZ d   1       1.181  -1.588   2.649  0.00  0.00     0.000 A 
ATOM      3  C3  BNZ d   1       1.876  -0.728   1.845  0.00  0.00     0.000 A 
ATOM      4  C4  BNZ d   1       2.210   0.492   2.312  0.00  0.00     0.000 A 
ATOM      5  C5  BNZ d   1       1.881   0.861   3.602  0.00  0.00     0.000 A 
ATOM      6  C6  BNZ d   1       1.216  -0.022   4.421  0.00  0.00     0.000 A 
ENDROOT
TORSDOF 0
ENDMDL
