MODEL 1
REMARK minimizedAffinity -1.49777019
REMARK minimizedRMSD -1
REMARK  0 active torsions:
REMARK  status: ('A' for Active; 'I' for Inactive)
ROOT
ATOM      1  C1  BNZ d   1       3.758   5.926  -4.534  0.00  0.00     0.000 A 
ATOM      2  C2  BNZ d   1       3.801   5.220  -3.361  0.00  0.00     0.000 A 
ATOM      3  C3  BNZ d   1       4.930   4.544  -2.992  0.00  0.00     0.000 A 
ATOM      4  C4  BNZ d   1       6.000   4.541  -3.814  0.00  0.00     0.000 A 
ATOM      5  C5  BNZ d   1       5.969   5.239  -5.004  0.00  0.00     0.000 A 
ATOM      6  C6  BNZ d   1       4.844   5.951  -5.354  0.00  0.00     0.000 A 
ENDROOT
TORSDOF 0
ENDMDL
