MODEL 1
REMARK minimizedAffinity 5.91782188
REMARK minimizedRMSD -1
REMARK  0 active torsions:
REMARK  status: ('A' for Active; 'I' for Inactive)
ROOT
ATOM      1  C1  BNZ d   1       3.719   0.774  -0.663  0.00  0.00     0.000 A 
ATOM      2  C2  BNZ d   1       3.714  -0.418   0.010  0.00  0.00     0.000 A 
ATOM      3  C3  BNZ d   1       3.002  -0.565   1.168  0.00  0.00     0.000 A 
ATOM      4  C4  BNZ d   1       2.329   0.490   1.671  0.00  0.00     0.000 A 
ATOM      5  C5  BNZ d   1       2.332   1.701   1.009  0.00  0.00     0.000 A 
ATOM      6  C6  BNZ d   1       3.018   1.834  -0.177  0.00  0.00     0.000 A 
ENDROOT
TORSDOF 0
ENDMDL
