MODEL 1
REMARK minimizedAffinity 2.64172959
REMARK minimizedRMSD -1
REMARK  0 active torsions:
REMARK  status: ('A' for Active; 'I' for Inactive)
ROOT
ATOM      1  C1  BNZ d   1       3.739   5.246  -3.614  0.00  0.00     0.000 A 
ATOM      2  C2  BNZ d   1       3.750   5.330  -4.981  0.00  0.00     0.000 A 
ATOM      3  C3  BNZ d   1       4.887   5.688  -5.652  0.00  0.00     0.000 A 
ATOM      4  C4  BNZ d   1       5.998   6.000  -4.953  0.00  0.00     0.000 A 
ATOM      5  C5  BNZ d   1       6.000   5.929  -3.575  0.00  0.00     0.000 A 
ATOM      6  C6  BNZ d   1       4.865   5.531  -2.905  0.00  0.00     0.000 A 
ENDROOT
TORSDOF 0
ENDMDL
