MODEL 1
REMARK minimizedAffinity -5.09510517
REMARK minimizedRMSD -1
REMARK  1 active torsions:
REMARK  status: ('A' for Active; 'I' for Inactive)
REMARK    1  A    between atoms: C1_2  and  C2_3 
ROOT
ATOM      1  C2  UNL d   1       0.045  -0.157  -0.032  0.00  0.00    -0.077 A 
ATOM      2  C3  UNL d   1       1.298   0.447   0.143  0.00  0.00     0.002 A 
ATOM      3  C4  UNL d   1       1.401   1.832   0.284  0.00  0.00     0.002 A 
ATOM      4  C5  UNL d   1       0.256   2.624   0.255  0.00  0.00    -0.004 A 
ATOM      5  C6  UNL d   1      -0.995   2.033   0.079  0.00  0.00     0.002 A 
ATOM      6  C7  UNL d   1      -1.100   0.649  -0.063  0.00  0.00     0.002 A 
ENDROOT
BRANCH   1   7
ATOM      7  C1  UNL d   1      -0.073  -1.655  -0.135  0.00  0.00     0.055 C 
ATOM      8  C   UNL d   1      -0.264  -2.098  -1.578  0.00  0.00     0.019 C 
ENDBRANCH   1   7
TORSDOF 1
ENDMDL
