MODEL 1
REMARK minimizedAffinity -1.37291908
REMARK minimizedRMSD -1
REMARK  1 active torsions:
REMARK  status: ('A' for Active; 'I' for Inactive)
REMARK    1  A    between atoms: C1_2  and  C2_3 
ROOT
ATOM      1  C2  UNL d   1      -0.138  -1.375  -0.315  0.00  0.00    -0.077 A 
ATOM      2  C3  UNL d   1       0.350  -1.642  -1.602  0.00  0.00     0.002 A 
ATOM      3  C4  UNL d   1       0.063  -2.856  -2.229  0.00  0.00     0.002 A 
ATOM      4  C5  UNL d   1      -0.717  -3.810  -1.579  0.00  0.00    -0.004 A 
ATOM      5  C6  UNL d   1      -1.206  -3.555  -0.298  0.00  0.00     0.002 A 
ATOM      6  C7  UNL d   1      -0.919  -2.343   0.331  0.00  0.00     0.002 A 
ENDROOT
BRANCH   1   7
ATOM      7  C1  UNL d   1       0.129  -0.047   0.343  0.00  0.00     0.055 C 
ATOM      8  C   UNL d   1      -1.144   0.779   0.461  0.00  0.00     0.019 C 
ENDBRANCH   1   7
TORSDOF 1
ENDMDL
