MODEL 1
REMARK minimizedAffinity -1.40270913
REMARK minimizedRMSD -1
REMARK  1 active torsions:
REMARK  status: ('A' for Active; 'I' for Inactive)
REMARK    1  A    between atoms: C1_2  and  C2_3 
ROOT
ATOM      1  C2  UNL d   1      -0.258  -1.521  -1.343  0.00  0.00    -0.077 A 
ATOM      2  C3  UNL d   1       0.853  -0.666  -1.369  0.00  0.00     0.002 A 
ATOM      3  C4  UNL d   1       1.052   0.266  -0.349  0.00  0.00     0.002 A 
ATOM      4  C5  UNL d   1       0.147   0.349   0.707  0.00  0.00    -0.004 A 
ATOM      5  C6  UNL d   1      -0.963  -0.494   0.741  0.00  0.00     0.002 A 
ATOM      6  C7  UNL d   1      -1.164  -1.426  -0.278  0.00  0.00     0.002 A 
ENDROOT
BRANCH   1   7
ATOM      7  C1  UNL d   1      -0.448  -2.560  -2.417  0.00  0.00     0.055 C 
ATOM      8  C   UNL d   1      -1.786  -3.269  -2.270  0.00  0.00     0.019 C 
ENDBRANCH   1   7
TORSDOF 1
ENDMDL
