MODEL 1
REMARK minimizedAffinity -5.2165637
REMARK minimizedRMSD -1
REMARK  1 active torsions:
REMARK  status: ('A' for Active; 'I' for Inactive)
REMARK    1  A    between atoms: C1_2  and  C2_3 
ROOT
ATOM      1  C2  UNL d   1       0.191   1.311   0.027  0.00  0.00    -0.077 A 
ATOM      2  C3  UNL d   1       1.456   1.402  -0.571  0.00  0.00     0.002 A 
ATOM      3  C4  UNL d   1       2.254   2.529  -0.365  0.00  0.00     0.002 A 
ATOM      4  C5  UNL d   1       1.799   3.570   0.441  0.00  0.00    -0.004 A 
ATOM      5  C6  UNL d   1       0.542   3.489   1.039  0.00  0.00     0.002 A 
ATOM      6  C7  UNL d   1      -0.258   2.365   0.833  0.00  0.00     0.002 A 
ENDROOT
BRANCH   1   7
ATOM      7  C1  UNL d   1      -0.651   0.075  -0.153  0.00  0.00     0.055 C 
ATOM      8  C   UNL d   1       0.199  -1.186  -0.105  0.00  0.00     0.019 C 
ENDBRANCH   1   7
TORSDOF 1
ENDMDL
