MODEL 1
REMARK minimizedAffinity -6.13352442
REMARK minimizedRMSD -1
REMARK  1 active torsions:
REMARK  status: ('A' for Active; 'I' for Inactive)
REMARK    1  A    between atoms: C1_2  and  C2_3 
ROOT
ATOM      1  C2  UNL d   1      -0.094   0.060   0.059  0.00  0.00    -0.077 A 
ATOM      2  C3  UNL d   1       1.206   0.565   0.203  0.00  0.00     0.002 A 
ATOM      3  C4  UNL d   1       1.430   1.943   0.222  0.00  0.00     0.002 A 
ATOM      4  C5  UNL d   1       0.360   2.827   0.101  0.00  0.00    -0.004 A 
ATOM      5  C6  UNL d   1      -0.937   2.335  -0.045  0.00  0.00     0.002 A 
ATOM      6  C7  UNL d   1      -1.163   0.958  -0.065  0.00  0.00     0.002 A 
ENDROOT
BRANCH   1   7
ATOM      7  C1  UNL d   1      -0.344  -1.425   0.088  0.00  0.00     0.055 C 
ATOM      8  C   UNL d   1      -0.114  -2.052  -1.279  0.00  0.00     0.019 C 
ENDBRANCH   1   7
TORSDOF 1
ENDMDL
