MODEL 1
REMARK minimizedAffinity -3.03720188
REMARK minimizedRMSD -1
REMARK  1 active torsions:
REMARK  status: ('A' for Active; 'I' for Inactive)
REMARK    1  A    between atoms: C1_2  and  C2_3 
ROOT
ATOM      1  C2  UNL d   1       0.147  -0.269   0.049  0.00  0.00    -0.077 A 
ATOM      2  C3  UNL d   1      -0.796  -1.061   0.719  0.00  0.00     0.002 A 
ATOM      3  C4  UNL d   1      -1.988  -0.500   1.182  0.00  0.00     0.002 A 
ATOM      4  C5  UNL d   1      -2.249   0.853   0.977  0.00  0.00    -0.004 A 
ATOM      5  C6  UNL d   1      -1.316   1.650   0.314  0.00  0.00     0.002 A 
ATOM      6  C7  UNL d   1      -0.123   1.091  -0.149  0.00  0.00     0.002 A 
ENDROOT
BRANCH   1   7
ATOM      7  C1  UNL d   1       1.411  -0.883  -0.494  0.00  0.00     0.055 C 
ATOM      8  C   UNL d   1       1.224  -1.357  -1.928  0.00  0.00     0.019 C 
ENDBRANCH   1   7
TORSDOF 1
ENDMDL
