MODEL 1
REMARK minimizedAffinity -5.56443834
REMARK minimizedRMSD -1
REMARK  1 active torsions:
REMARK  status: ('A' for Active; 'I' for Inactive)
REMARK    1  A    between atoms: C1_2  and  C2_3 
ROOT
ATOM      1  C2  UNL d   1       0.217   0.535  -0.228  0.00  0.00    -0.077 A 
ATOM      2  C3  UNL d   1       1.472   1.138  -0.391  0.00  0.00     0.002 A 
ATOM      3  C4  UNL d   1       1.606   2.525  -0.304  0.00  0.00     0.002 A 
ATOM      4  C5  UNL d   1       0.490   3.320  -0.050  0.00  0.00    -0.004 A 
ATOM      5  C6  UNL d   1      -0.763   2.730   0.111  0.00  0.00     0.002 A 
ATOM      6  C7  UNL d   1      -0.899   1.344   0.023  0.00  0.00     0.002 A 
ENDROOT
BRANCH   1   7
ATOM      7  C1  UNL d   1       0.078  -0.964  -0.273  0.00  0.00     0.055 C 
ATOM      8  C   UNL d   1       0.219  -1.491  -1.694  0.00  0.00     0.019 C 
ENDBRANCH   1   7
TORSDOF 1
ENDMDL
