MODEL 1
REMARK minimizedAffinity -4.12137461
REMARK minimizedRMSD -1
REMARK  1 active torsions:
REMARK  status: ('A' for Active; 'I' for Inactive)
REMARK    1  A    between atoms: C1_2  and  C2_3 
ROOT
ATOM      1  C2  UNL d   1       0.108   1.151   0.642  0.00  0.00    -0.077 A 
ATOM      2  C3  UNL d   1       1.483   0.894   0.732  0.00  0.00     0.002 A 
ATOM      3  C4  UNL d   1       2.334   1.812   1.351  0.00  0.00     0.002 A 
ATOM      4  C5  UNL d   1       1.819   2.991   1.887  0.00  0.00    -0.004 A 
ATOM      5  C6  UNL d   1       0.452   3.256   1.800  0.00  0.00     0.002 A 
ATOM      6  C7  UNL d   1      -0.399   2.340   1.181  0.00  0.00     0.002 A 
ENDROOT
BRANCH   1   7
ATOM      7  C1  UNL d   1      -0.818   0.139   0.019  0.00  0.00     0.055 C 
ATOM      8  C   UNL d   1      -0.165  -1.233  -0.063  0.00  0.00     0.019 C 
ENDBRANCH   1   7
TORSDOF 1
ENDMDL
