MODEL 1
REMARK minimizedAffinity -5.4353013
REMARK minimizedRMSD -1
REMARK  1 active torsions:
REMARK  status: ('A' for Active; 'I' for Inactive)
REMARK    1  A    between atoms: C1_2  and  C2_3 
ROOT
ATOM      1  C2  UNL d   1       0.791   2.356   0.743  0.00  0.00    -0.077 A 
ATOM      2  C3  UNL d   1       2.145   2.156   1.047  0.00  0.00     0.002 A 
ATOM      3  C4  UNL d   1       2.697   0.874   1.000  0.00  0.00     0.002 A 
ATOM      4  C5  UNL d   1       1.904  -0.215   0.647  0.00  0.00    -0.004 A 
ATOM      5  C6  UNL d   1       0.556  -0.027   0.345  0.00  0.00     0.002 A 
ATOM      6  C7  UNL d   1       0.002   1.254   0.391  0.00  0.00     0.002 A 
ENDROOT
BRANCH   1   7
ATOM      7  C1  UNL d   1       0.206   3.744   0.744  0.00  0.00     0.055 C 
ATOM      8  C   UNL d   1       1.250   4.786   0.370  0.00  0.00     0.019 C 
ENDBRANCH   1   7
TORSDOF 1
ENDMDL
