MODEL 1
REMARK minimizedAffinity 6.84350872
REMARK minimizedRMSD -1
REMARK  1 active torsions:
REMARK  status: ('A' for Active; 'I' for Inactive)
REMARK    1  A    between atoms: C1_2  and  C2_3 
ROOT
ATOM      1  C2  UNL d   1       1.788  -1.588   0.313  0.00  0.00    -0.073 A 
ATOM      2  C3  UNL d   1       0.861  -1.991   1.282  0.00  0.00    -0.002 A 
ATOM      3  C4  UNL d   1       1.279  -2.717   2.398  0.00  0.00     0.004 A 
ATOM      4  C5  UNL d   1       2.625  -3.041   2.561  0.00  0.00    -0.004 A 
ATOM      5  C6  UNL d   1       3.568  -2.637   1.610  0.00  0.00    -0.075 A 
ATOM      6  C7  UNL d   1       5.020  -2.980   1.770  0.00  0.00     0.076 C 
ATOM      7  C8  UNL d   1       3.141  -1.911   0.490  0.00  0.00     0.001 A 
ENDROOT
BRANCH   1   8
ATOM      8  C1  UNL d   1       1.343  -0.798  -0.891  0.00  0.00     0.053 C 
ATOM      9  C   UNL d   1       0.333  -1.562  -1.732  0.00  0.00     0.018 C 
ENDBRANCH   1   8
TORSDOF 1
ENDMDL
