MODEL 1
REMARK minimizedAffinity 3.77558208
REMARK minimizedRMSD -1
REMARK  1 active torsions:
REMARK  status: ('A' for Active; 'I' for Inactive)
REMARK    1  A    between atoms: C1_2  and  C2_3 
ROOT
ATOM      1  C2  UNL d   1      -0.999  -1.020   2.680  0.00  0.00    -0.073 A 
ATOM      2  C3  UNL d   1      -1.511  -1.078   1.379  0.00  0.00    -0.002 A 
ATOM      3  C4  UNL d   1      -2.672  -0.379   1.046  0.00  0.00     0.004 A 
ATOM      4  C5  UNL d   1      -3.328   0.390   2.007  0.00  0.00    -0.004 A 
ATOM      5  C6  UNL d   1      -2.825   0.470   3.310  0.00  0.00    -0.075 A 
ATOM      6  C7  UNL d   1      -3.520   1.291   4.356  0.00  0.00     0.076 C 
ATOM      7  C8  UNL d   1      -1.660  -0.236   3.637  0.00  0.00     0.001 A 
ENDROOT
BRANCH   1   8
ATOM      8  C1  UNL d   1       0.258  -1.767   3.042  0.00  0.00     0.053 C 
ATOM      9  C   UNL d   1       1.030  -2.215   1.810  0.00  0.00     0.018 C 
ENDBRANCH   1   8
TORSDOF 1
ENDMDL
