MODEL 1
REMARK minimizedAffinity 5.55235004
REMARK minimizedRMSD -1
REMARK  1 active torsions:
REMARK  status: ('A' for Active; 'I' for Inactive)
REMARK    1  A    between atoms: C1_2  and  C2_3 
ROOT
ATOM      1  C2  UNL d   1       0.574  -1.878   2.551  0.00  0.00    -0.073 A 
ATOM      2  C3  UNL d   1       1.707  -2.659   2.808  0.00  0.00    -0.002 A 
ATOM      3  C4  UNL d   1       2.497  -3.123   1.755  0.00  0.00     0.004 A 
ATOM      4  C5  UNL d   1       2.167  -2.805   0.438  0.00  0.00    -0.004 A 
ATOM      5  C6  UNL d   1       1.046  -2.016   0.162  0.00  0.00    -0.075 A 
ATOM      6  C7  UNL d   1       0.677  -1.666  -1.250  0.00  0.00     0.076 C 
ATOM      7  C8  UNL d   1       0.256  -1.556   1.224  0.00  0.00     0.001 A 
ENDROOT
BRANCH   1   8
ATOM      8  C1  UNL d   1      -0.278  -1.371   3.685  0.00  0.00     0.053 C 
ATOM      9  C   UNL d   1      -1.369  -0.428   3.201  0.00  0.00     0.018 C 
ENDBRANCH   1   8
TORSDOF 1
ENDMDL
