MODEL 1
REMARK minimizedAffinity 4.08573484
REMARK minimizedRMSD -1
REMARK  1 active torsions:
REMARK  status: ('A' for Active; 'I' for Inactive)
REMARK    1  A    between atoms: C3_4  and  O_7 
ROOT
ATOM      1  C   UNL d   1       1.328  -1.879   0.920  0.00  0.00    -0.033 A 
ATOM      2  C1  UNL d   1       1.523  -2.953   1.790  0.00  0.00     0.039 A 
ATOM      3  C2  UNL d   1       2.816  -3.359   2.123  0.00  0.00    -0.080 A 
ATOM      4  C3  UNL d   1       3.906  -2.683   1.580  0.00  0.00     0.150 A 
ATOM      5  C4  UNL d   1       3.719  -1.609   0.716  0.00  0.00    -0.007 A 
ATOM      6  C5  UNL d   1       2.426  -1.206   0.384  0.00  0.00     0.039 A 
ENDROOT
BRANCH   4   7
ATOM      7  O   UNL d   1       5.187  -3.045   1.872  0.00  0.00    -0.526 OA
ATOM      8  H5  UNL d   1       5.162  -3.820   2.458  0.00  0.00     0.418 HD
ENDBRANCH   4   7
TORSDOF 1
ENDMDL
