MODEL 1
REMARK minimizedAffinity 2.99354053
REMARK minimizedRMSD -1
REMARK  1 active torsions:
REMARK  status: ('A' for Active; 'I' for Inactive)
REMARK    1  A    between atoms: C3_4  and  O_7 
ROOT
ATOM      1  C   UNL d   1       5.987  -0.546  -0.975  0.00  0.00    -0.033 A 
ATOM      2  C1  UNL d   1       5.978  -1.025   0.336  0.00  0.00     0.039 A 
ATOM      3  C2  UNL d   1       5.981  -0.131   1.408  0.00  0.00    -0.080 A 
ATOM      4  C3  UNL d   1       5.991   1.238   1.156  0.00  0.00     0.150 A 
ATOM      5  C4  UNL d   1       5.996   1.723  -0.148  0.00  0.00    -0.007 A 
ATOM      6  C5  UNL d   1       5.995   0.828  -1.217  0.00  0.00     0.039 A 
ENDROOT
BRANCH   4   7
ATOM      7  O   UNL d   1       5.999   2.150   2.170  0.00  0.00    -0.526 OA
ATOM      8  H5  UNL d   1       6.023   1.670   3.015  0.00  0.00     0.418 HD
ENDBRANCH   4   7
TORSDOF 1
ENDMDL
