MODEL 1
REMARK minimizedAffinity 3.12278152
REMARK minimizedRMSD -1
REMARK  1 active torsions:
REMARK  status: ('A' for Active; 'I' for Inactive)
REMARK    1  A    between atoms: C3_4  and  O_7 
ROOT
ATOM      1  C   UNL d   1       2.707  -3.065   0.614  0.00  0.00    -0.033 A 
ATOM      2  C1  UNL d   1       2.326  -3.684   1.806  0.00  0.00     0.039 A 
ATOM      3  C2  UNL d   1       1.386  -3.075   2.640  0.00  0.00    -0.080 A 
ATOM      4  C3  UNL d   1       0.835  -1.851   2.271  0.00  0.00     0.150 A 
ATOM      5  C4  UNL d   1       1.208  -1.231   1.083  0.00  0.00    -0.007 A 
ATOM      6  C5  UNL d   1       2.147  -1.840   0.251  0.00  0.00     0.039 A 
ENDROOT
BRANCH   4   7
ATOM      7  O   UNL d   1      -0.082  -1.216   3.055  0.00  0.00    -0.526 OA
ATOM      8  H5  UNL d   1      -0.221  -1.748   3.857  0.00  0.00     0.418 HD
ENDBRANCH   4   7
TORSDOF 1
ENDMDL
