MODEL 1
REMARK minimizedAffinity 3.8540833
REMARK minimizedRMSD -1
REMARK  1 active torsions:
REMARK  status: ('A' for Active; 'I' for Inactive)
REMARK    1  A    between atoms: C3_4  and  O_7 
ROOT
ATOM      1  C   UNL d   1       5.991   2.662   1.696  0.00  0.00    -0.033 A 
ATOM      2  C1  UNL d   1       5.978   2.950   0.330  0.00  0.00     0.039 A 
ATOM      3  C2  UNL d   1       5.978   1.912  -0.604  0.00  0.00    -0.080 A 
ATOM      4  C3  UNL d   1       5.991   0.592  -0.160  0.00  0.00     0.150 A 
ATOM      5  C4  UNL d   1       5.999   0.299   1.200  0.00  0.00    -0.007 A 
ATOM      6  C5  UNL d   1       6.000   1.336   2.131  0.00  0.00     0.039 A 
ENDROOT
BRANCH   4   7
ATOM      7  O   UNL d   1       5.996  -0.454  -1.033  0.00  0.00    -0.526 OA
ATOM      8  H5  UNL d   1       6.018  -0.100  -1.938  0.00  0.00     0.418 HD
ENDBRANCH   4   7
TORSDOF 1
ENDMDL
