MODEL 1
REMARK minimizedAffinity 1.49382913
REMARK minimizedRMSD -1
REMARK  1 active torsions:
REMARK  status: ('A' for Active; 'I' for Inactive)
REMARK    1  A    between atoms: C3_4  and  O_7 
ROOT
ATOM      1  C   UNL d   1       5.997  -1.119   0.669  0.00  0.00    -0.033 A 
ATOM      2  C1  UNL d   1       5.999  -0.478  -0.571  0.00  0.00     0.039 A 
ATOM      3  C2  UNL d   1       5.999   0.916  -0.639  0.00  0.00    -0.080 A 
ATOM      4  C3  UNL d   1       5.997   1.657   0.540  0.00  0.00     0.150 A 
ATOM      5  C4  UNL d   1       5.999   1.025   1.779  0.00  0.00    -0.007 A 
ATOM      6  C5  UNL d   1       5.998  -0.368   1.844  0.00  0.00     0.039 A 
ENDROOT
BRANCH   4   7
ATOM      7  O   UNL d   1       5.992   3.020   0.525  0.00  0.00    -0.526 OA
ATOM      8  H5  UNL d   1       5.962   3.318  -0.400  0.00  0.00     0.418 HD
ENDBRANCH   4   7
TORSDOF 1
ENDMDL
