MODEL 1
REMARK minimizedAffinity -0.789670646
REMARK minimizedRMSD -1
REMARK  1 active torsions:
REMARK  status: ('A' for Active; 'I' for Inactive)
REMARK    1  A    between atoms: C3_4  and  O_7 
ROOT
ATOM      1  C   UNL d   1      -1.178  -1.485   2.099  0.00  0.00    -0.033 A 
ATOM      2  C1  UNL d   1      -2.114  -1.210   1.101  0.00  0.00     0.039 A 
ATOM      3  C2  UNL d   1      -3.126  -0.275   1.328  0.00  0.00    -0.080 A 
ATOM      4  C3  UNL d   1      -3.188   0.379   2.555  0.00  0.00     0.150 A 
ATOM      5  C4  UNL d   1      -2.256   0.114   3.553  0.00  0.00    -0.007 A 
ATOM      6  C5  UNL d   1      -1.248  -0.821   3.325  0.00  0.00     0.039 A 
ENDROOT
BRANCH   4   7
ATOM      7  O   UNL d   1      -4.160   1.297   2.824  0.00  0.00    -0.526 OA
ATOM      8  H5  UNL d   1      -4.750   1.356   2.054  0.00  0.00     0.418 HD
ENDBRANCH   4   7
TORSDOF 1
ENDMDL
