MODEL 1
REMARK minimizedAffinity 2.46891904
REMARK minimizedRMSD -1
REMARK  1 active torsions:
REMARK  status: ('A' for Active; 'I' for Inactive)
REMARK    1  A    between atoms: C3_4  and  O_7 
ROOT
ATOM      1  C   UNL d   1       2.454  -3.022   0.595  0.00  0.00    -0.033 A 
ATOM      2  C1  UNL d   1       1.441  -2.158   0.177  0.00  0.00     0.039 A 
ATOM      3  C2  UNL d   1       0.565  -1.603   1.111  0.00  0.00    -0.080 A 
ATOM      4  C3  UNL d   1       0.713  -1.919   2.459  0.00  0.00     0.150 A 
ATOM      5  C4  UNL d   1       1.723  -2.776   2.883  0.00  0.00    -0.007 A 
ATOM      6  C5  UNL d   1       2.596  -3.330   1.948  0.00  0.00     0.039 A 
ENDROOT
BRANCH   4   7
ATOM      7  O   UNL d   1      -0.121  -1.405   3.407  0.00  0.00    -0.526 OA
ATOM      8  H5  UNL d   1      -0.787  -0.853   2.965  0.00  0.00     0.418 HD
ENDBRANCH   4   7
TORSDOF 1
ENDMDL
