MODEL 1
REMARK minimizedAffinity -2.66351199
REMARK minimizedRMSD -1
REMARK  0 active torsions:
REMARK  status: ('A' for Active; 'I' for Inactive)
ROOT
ATOM      1  C1  BNZ d   1      -1.531   4.902  -2.146  0.00  0.00     0.000 A 
ATOM      2  C2  BNZ d   1      -1.348   3.688  -1.539  0.00  0.00     0.000 A 
ATOM      3  C3  BNZ d   1      -0.283   3.474  -0.710  0.00  0.00     0.000 A 
ATOM      4  C4  BNZ d   1       0.619   4.459  -0.521  0.00  0.00     0.000 A 
ATOM      5  C5  BNZ d   1       0.453   5.686  -1.133  0.00  0.00     0.000 A 
ATOM      6  C6  BNZ d   1      -0.641   5.910  -1.937  0.00  0.00     0.000 A 
ENDROOT
TORSDOF 0
ENDMDL
