MODEL 1
REMARK minimizedAffinity 2.32307482
REMARK minimizedRMSD -1
REMARK  0 active torsions:
REMARK  status: ('A' for Active; 'I' for Inactive)
ROOT
ATOM      1  C1  BNZ d   1      -0.462   4.946  -2.815  0.00  0.00     0.000 A 
ATOM      2  C2  BNZ d   1       0.364   4.245  -1.977  0.00  0.00     0.000 A 
ATOM      3  C3  BNZ d   1      -0.026   3.939  -0.703  0.00  0.00     0.000 A 
ATOM      4  C4  BNZ d   1      -1.223   4.370  -0.256  0.00  0.00     0.000 A 
ATOM      5  C5  BNZ d   1      -2.063   5.087  -1.084  0.00  0.00     0.000 A 
ATOM      6  C6  BNZ d   1      -1.684   5.359  -2.379  0.00  0.00     0.000 A 
ENDROOT
TORSDOF 0
ENDMDL
