MODEL 1
REMARK minimizedAffinity 2.9522531
REMARK minimizedRMSD -1
REMARK  0 active torsions:
REMARK  status: ('A' for Active; 'I' for Inactive)
ROOT
ATOM      1  C1  BNZ d   1      -1.439   4.665  -0.143  0.00  0.00     0.000 A 
ATOM      2  C2  BNZ d   1      -1.747   5.273  -1.331  0.00  0.00     0.000 A 
ATOM      3  C3  BNZ d   1      -0.964   5.086  -2.436  0.00  0.00     0.000 A 
ATOM      4  C4  BNZ d   1       0.146   4.327  -2.342  0.00  0.00     0.000 A 
ATOM      5  C5  BNZ d   1       0.475   3.715  -1.148  0.00  0.00     0.000 A 
ATOM      6  C6  BNZ d   1      -0.336   3.873  -0.048  0.00  0.00     0.000 A 
ENDROOT
TORSDOF 0
ENDMDL
