MODEL 1
REMARK minimizedAffinity -0.775130212
REMARK minimizedRMSD -1
REMARK  0 active torsions:
REMARK  status: ('A' for Active; 'I' for Inactive)
ROOT
ATOM      1  C1  BNZ d   1      -4.520   4.500  -2.765  0.00  0.00     0.000 A 
ATOM      2  C2  BNZ d   1      -5.271   3.641  -2.008  0.00  0.00     0.000 A 
ATOM      3  C3  BNZ d   1      -5.996   2.641  -2.595  0.00  0.00     0.000 A 
ATOM      4  C4  BNZ d   1      -6.000   2.526  -3.938  0.00  0.00     0.000 A 
ATOM      5  C5  BNZ d   1      -5.255   3.390  -4.716  0.00  0.00     0.000 A 
ATOM      6  C6  BNZ d   1      -4.497   4.371  -4.120  0.00  0.00     0.000 A 
ENDROOT
TORSDOF 0
ENDMDL
