MODEL 1
REMARK minimizedAffinity 7.03786755
REMARK minimizedRMSD -1
REMARK  0 active torsions:
REMARK  status: ('A' for Active; 'I' for Inactive)
ROOT
ATOM      1  C1  BNZ d   1       0.119   5.000  -2.315  0.00  0.00     0.000 A 
ATOM      2  C2  BNZ d   1       1.020   4.931  -1.286  0.00  0.00     0.000 A 
ATOM      3  C3  BNZ d   1       0.787   4.127  -0.205  0.00  0.00     0.000 A 
ATOM      4  C4  BNZ d   1      -0.363   3.426  -0.136  0.00  0.00     0.000 A 
ATOM      5  C5  BNZ d   1      -1.285   3.492  -1.162  0.00  0.00     0.000 A 
ATOM      6  C6  BNZ d   1      -1.029   4.272  -2.266  0.00  0.00     0.000 A 
ENDROOT
TORSDOF 0
ENDMDL
