MODEL 1
REMARK minimizedAffinity 5.43916416
REMARK minimizedRMSD -1
REMARK  0 active torsions:
REMARK  status: ('A' for Active; 'I' for Inactive)
ROOT
ATOM      1  C1  BNZ d   1       4.937  -2.106  -1.016  0.00  0.00     0.000 A 
ATOM      2  C2  BNZ d   1       5.722  -3.176  -1.355  0.00  0.00     0.000 A 
ATOM      3  C3  BNZ d   1       5.375  -4.445  -0.984  0.00  0.00     0.000 A 
ATOM      4  C4  BNZ d   1       4.267  -4.638  -0.240  0.00  0.00     0.000 A 
ATOM      5  C5  BNZ d   1       3.470  -3.569   0.118  0.00  0.00     0.000 A 
ATOM      6  C6  BNZ d   1       3.802  -2.297  -0.291  0.00  0.00     0.000 A 
ENDROOT
TORSDOF 0
ENDMDL
