MODEL 1
REMARK minimizedAffinity 6.8927145
REMARK minimizedRMSD -1
REMARK  0 active torsions:
REMARK  status: ('A' for Active; 'I' for Inactive)
ROOT
ATOM      1  C1  BNZ d   1       5.703  -4.202  -2.840  0.00  0.00     0.000 A 
ATOM      2  C2  BNZ d   1       6.000  -4.205  -1.503  0.00  0.00     0.000 A 
ATOM      3  C3  BNZ d   1       5.427  -5.116  -0.661  0.00  0.00     0.000 A 
ATOM      4  C4  BNZ d   1       4.529  -5.996  -1.148  0.00  0.00     0.000 A 
ATOM      5  C5  BNZ d   1       4.212  -6.000  -2.492  0.00  0.00     0.000 A 
ATOM      6  C6  BNZ d   1       4.820  -5.106  -3.343  0.00  0.00     0.000 A 
ENDROOT
TORSDOF 0
ENDMDL
