MODEL 1
REMARK minimizedAffinity 4.19645548
REMARK minimizedRMSD -1
REMARK  0 active torsions:
REMARK  status: ('A' for Active; 'I' for Inactive)
ROOT
ATOM      1  C1  BNZ d   1       0.089   3.716  -1.855  0.00  0.00     0.000 A 
ATOM      2  C2  BNZ d   1       0.549   3.334  -0.623  0.00  0.00     0.000 A 
ATOM      3  C3  BNZ d   1      -0.196   3.553   0.502  0.00  0.00     0.000 A 
ATOM      4  C4  BNZ d   1      -1.381   4.188   0.398  0.00  0.00     0.000 A 
ATOM      5  C5  BNZ d   1      -1.855   4.587  -0.836  0.00  0.00     0.000 A 
ATOM      6  C6  BNZ d   1      -1.119   4.330  -1.970  0.00  0.00     0.000 A 
ENDROOT
TORSDOF 0
ENDMDL
