MODEL 1
REMARK minimizedAffinity 1.44121814
REMARK minimizedRMSD -1
REMARK  0 active torsions:
REMARK  status: ('A' for Active; 'I' for Inactive)
ROOT
ATOM      1  C1  BNZ d   1      -3.832  -1.723   4.322  0.00  0.00     0.000 A 
ATOM      2  C2  BNZ d   1      -3.836  -2.765   5.211  0.00  0.00     0.000 A 
ATOM      3  C3  BNZ d   1      -4.926  -3.007   6.000  0.00  0.00     0.000 A 
ATOM      4  C4  BNZ d   1      -5.992  -2.185   5.928  0.00  0.00     0.000 A 
ATOM      5  C5  BNZ d   1      -5.999  -1.125   5.044  0.00  0.00     0.000 A 
ATOM      6  C6  BNZ d   1      -4.916  -0.907   4.223  0.00  0.00     0.000 A 
ENDROOT
TORSDOF 0
ENDMDL
