MODEL 1
REMARK minimizedAffinity -0.198026806
REMARK minimizedRMSD -1
REMARK  0 active torsions:
REMARK  status: ('A' for Active; 'I' for Inactive)
ROOT
ATOM      1  C1  BNZ d   1      -6.000   2.110  -2.923  0.00  0.00     0.000 A 
ATOM      2  C2  BNZ d   1      -6.000   2.870  -1.785  0.00  0.00     0.000 A 
ATOM      3  C3  BNZ d   1      -5.636   4.187  -1.823  0.00  0.00     0.000 A 
ATOM      4  C4  BNZ d   1      -5.234   4.731  -2.990  0.00  0.00     0.000 A 
ATOM      5  C5  BNZ d   1      -5.220   3.974  -4.145  0.00  0.00     0.000 A 
ATOM      6  C6  BNZ d   1      -5.624   2.660  -4.110  0.00  0.00     0.000 A 
ENDROOT
TORSDOF 0
ENDMDL
