MODEL 1
REMARK minimizedAffinity -0.144728601
REMARK minimizedRMSD -1
REMARK  0 active torsions:
REMARK  status: ('A' for Active; 'I' for Inactive)
ROOT
ATOM      1  C1  BNZ d   1      -0.764   4.479  -0.127  0.00  0.00     0.000 A 
ATOM      2  C2  BNZ d   1      -1.500   5.550  -0.559  0.00  0.00     0.000 A 
ATOM      3  C3  BNZ d   1      -1.540   5.883  -1.884  0.00  0.00     0.000 A 
ATOM      4  C4  BNZ d   1      -0.814   5.170  -2.769  0.00  0.00     0.000 A 
ATOM      5  C5  BNZ d   1      -0.060   4.093  -2.347  0.00  0.00     0.000 A 
ATOM      6  C6  BNZ d   1      -0.053   3.737  -1.018  0.00  0.00     0.000 A 
ENDROOT
TORSDOF 0
ENDMDL
