MODEL 1
REMARK minimizedAffinity 8.29253292
REMARK minimizedRMSD -1
REMARK  0 active torsions:
REMARK  status: ('A' for Active; 'I' for Inactive)
ROOT
ATOM      1  C1  BNZ d   1       0.454  -5.184  -0.800  0.00  0.00     0.000 A 
ATOM      2  C2  BNZ d   1       1.155  -4.100  -0.343  0.00  0.00     0.000 A 
ATOM      3  C3  BNZ d   1       0.694  -2.830  -0.550  0.00  0.00     0.000 A 
ATOM      4  C4  BNZ d   1      -0.445  -2.644  -1.248  0.00  0.00     0.000 A 
ATOM      5  C5  BNZ d   1      -1.158  -3.726  -1.724  0.00  0.00     0.000 A 
ATOM      6  C6  BNZ d   1      -0.711  -5.004  -1.480  0.00  0.00     0.000 A 
ENDROOT
TORSDOF 0
ENDMDL
