MODEL 1
REMARK minimizedAffinity 2.81800556
REMARK minimizedRMSD -1
REMARK  0 active torsions:
REMARK  status: ('A' for Active; 'I' for Inactive)
ROOT
ATOM      1  C1  BNZ d   1      -0.387   3.698   0.460  0.00  0.00     0.000 A 
ATOM      2  C2  BNZ d   1      -0.471   4.620  -0.548  0.00  0.00     0.000 A 
ATOM      3  C3  BNZ d   1       0.645   5.267  -0.999  0.00  0.00     0.000 A 
ATOM      4  C4  BNZ d   1       1.836   5.021  -0.416  0.00  0.00     0.000 A 
ATOM      5  C5  BNZ d   1       1.935   4.100   0.608  0.00  0.00     0.000 A 
ATOM      6  C6  BNZ d   1       0.816   3.422   1.033  0.00  0.00     0.000 A 
ENDROOT
TORSDOF 0
ENDMDL
