MODEL 1
REMARK minimizedAffinity -4.21735859
REMARK minimizedRMSD -1
REMARK  3 active torsions:
REMARK  status: ('A' for Active; 'I' for Inactive)
REMARK    1  A    between atoms: C3'_2  and  C2'_3 
REMARK    2  A    between atoms: C2'_3  and  C1'_4 
REMARK    3  A    between atoms: C1'_4  and  C1_5 
ROOT
ATOM      1  C1  N4B d   1       0.259   0.097  -0.060  0.00  0.00    -0.075 A 
ATOM      2  C2  N4B d   1      -0.625   1.140  -0.413  0.00  0.00     0.002 A 
ATOM      3  C3  N4B d   1      -0.984   2.081   0.521  0.00  0.00     0.002 A 
ATOM      4  C4  N4B d   1      -0.489   1.989   1.813  0.00  0.00    -0.004 A 
ATOM      5  C5  N4B d   1       0.385   0.993   2.139  0.00  0.00     0.002 A 
ATOM      6  C6  N4B d   1       0.757   0.043   1.209  0.00  0.00     0.002 A 
ENDROOT
BRANCH   1   7
ATOM      7  C1' N4B d   1       0.613  -1.003  -1.023  0.00  0.00     0.057 C 
BRANCH   7   8
ATOM      8  C2' N4B d   1      -0.614  -1.881  -1.253  0.00  0.00     0.009 C 
BRANCH   8   9
ATOM      9  C3' N4B d   1      -0.235  -3.328  -1.517  0.00  0.00     0.004 C 
ATOM     10  C4' N4B d   1      -1.155  -4.301  -0.841  0.00  0.00     0.003 C 
ENDBRANCH   8   9
ENDBRANCH   7   8
ENDBRANCH   1   7
TORSDOF 3
ENDMDL
