MODEL 1
REMARK minimizedAffinity -5.75776052
REMARK minimizedRMSD -1
REMARK  3 active torsions:
REMARK  status: ('A' for Active; 'I' for Inactive)
REMARK    1  A    between atoms: C3'_2  and  C2'_3 
REMARK    2  A    between atoms: C2'_3  and  C1'_4 
REMARK    3  A    between atoms: C1'_4  and  C1_5 
ROOT
ATOM      1  C1  N4B d   1      -0.295   0.306   0.524  0.00  0.00    -0.075 A 
ATOM      2  C2  N4B d   1      -0.160   0.757   1.855  0.00  0.00     0.002 A 
ATOM      3  C3  N4B d   1      -0.501   2.047   2.181  0.00  0.00     0.002 A 
ATOM      4  C4  N4B d   1      -0.959   2.905   1.193  0.00  0.00    -0.004 A 
ATOM      5  C5  N4B d   1      -1.110   2.454  -0.086  0.00  0.00     0.002 A 
ATOM      6  C6  N4B d   1      -0.776   1.159  -0.427  0.00  0.00     0.002 A 
ENDROOT
BRANCH   1   7
ATOM      7  C1' N4B d   1       0.145  -1.070   0.103  0.00  0.00     0.057 C 
BRANCH   7   8
ATOM      8  C2' N4B d   1      -0.024  -1.210  -1.407  0.00  0.00     0.009 C 
BRANCH   8   9
ATOM      9  C3' N4B d   1      -0.728  -2.502  -1.783  0.00  0.00     0.004 C 
ATOM     10  C4' N4B d   1      -0.552  -3.579  -0.755  0.00  0.00     0.003 C 
ENDBRANCH   8   9
ENDBRANCH   7   8
ENDBRANCH   1   7
TORSDOF 3
ENDMDL
