MODEL 1
REMARK minimizedAffinity -5.46148825
REMARK minimizedRMSD -1
REMARK  3 active torsions:
REMARK  status: ('A' for Active; 'I' for Inactive)
REMARK    1  A    between atoms: C3'_2  and  C2'_3 
REMARK    2  A    between atoms: C2'_3  and  C1'_4 
REMARK    3  A    between atoms: C1'_4  and  C1_5 
ROOT
ATOM      1  C1  N4B d   1      -0.070   0.860  -0.572  0.00  0.00    -0.075 A 
ATOM      2  C2  N4B d   1      -0.151   0.403   0.762  0.00  0.00     0.002 A 
ATOM      3  C3  N4B d   1      -0.507   1.271   1.765  0.00  0.00     0.002 A 
ATOM      4  C4  N4B d   1      -0.766   2.599   1.462  0.00  0.00    -0.004 A 
ATOM      5  C5  N4B d   1      -0.710   3.027   0.167  0.00  0.00     0.002 A 
ATOM      6  C6  N4B d   1      -0.358   2.164  -0.851  0.00  0.00     0.002 A 
ENDROOT
BRANCH   1   7
ATOM      7  C1' N4B d   1       0.398  -0.032  -1.690  0.00  0.00     0.057 C 
BRANCH   7   8
ATOM      8  C2' N4B d   1       0.534  -1.459  -1.168  0.00  0.00     0.009 C 
BRANCH   8   9
ATOM      9  C3' N4B d   1      -0.478  -2.396  -1.805  0.00  0.00     0.004 C 
ATOM     10  C4' N4B d   1      -0.251  -3.832  -1.439  0.00  0.00     0.003 C 
ENDBRANCH   8   9
ENDBRANCH   7   8
ENDBRANCH   1   7
TORSDOF 3
ENDMDL
