MODEL 1
REMARK minimizedAffinity -5.62505674
REMARK minimizedRMSD -1
REMARK  3 active torsions:
REMARK  status: ('A' for Active; 'I' for Inactive)
REMARK    1  A    between atoms: C3'_2  and  C2'_3 
REMARK    2  A    between atoms: C2'_3  and  C1'_4 
REMARK    3  A    between atoms: C1'_4  and  C1_5 
ROOT
ATOM      1  C1  N4B d   1      -0.440   0.600  -0.025  0.00  0.00    -0.075 A 
ATOM      2  C2  N4B d   1      -0.706   1.368   1.130  0.00  0.00     0.002 A 
ATOM      3  C3  N4B d   1      -1.104   2.677   1.007  0.00  0.00     0.002 A 
ATOM      4  C4  N4B d   1      -1.225   3.241  -0.254  0.00  0.00    -0.004 A 
ATOM      5  C5  N4B d   1      -0.992   2.485  -1.365  0.00  0.00     0.002 A 
ATOM      6  C6  N4B d   1      -0.594   1.167  -1.257  0.00  0.00     0.002 A 
ENDROOT
BRANCH   1   7
ATOM      7  C1' N4B d   1       0.080  -0.809   0.061  0.00  0.00     0.057 C 
BRANCH   7   8
ATOM      8  C2' N4B d   1       0.415  -1.306  -1.342  0.00  0.00     0.009 C 
BRANCH   8   9
ATOM      9  C3' N4B d   1       0.576  -2.816  -1.387  0.00  0.00     0.004 C 
ATOM     10  C4' N4B d   1      -0.276  -3.460  -2.439  0.00  0.00     0.003 C 
ENDBRANCH   8   9
ENDBRANCH   7   8
ENDBRANCH   1   7
TORSDOF 3
ENDMDL
