MODEL 1
REMARK minimizedAffinity -6.579844
REMARK minimizedRMSD -1
REMARK  3 active torsions:
REMARK  status: ('A' for Active; 'I' for Inactive)
REMARK    1  A    between atoms: C3'_2  and  C2'_3 
REMARK    2  A    between atoms: C2'_3  and  C1'_4 
REMARK    3  A    between atoms: C1'_4  and  C1_5 
ROOT
ATOM      1  C1  N4B d   1      -0.349   0.845   0.588  0.00  0.00    -0.075 A 
ATOM      2  C2  N4B d   1      -0.571   1.540   1.797  0.00  0.00     0.002 A 
ATOM      3  C3  N4B d   1      -0.991   2.848   1.770  0.00  0.00     0.002 A 
ATOM      4  C4  N4B d   1      -1.177   3.483   0.551  0.00  0.00    -0.004 A 
ATOM      5  C5  N4B d   1      -0.985   2.796  -0.612  0.00  0.00     0.002 A 
ATOM      6  C6  N4B d   1      -0.567   1.481  -0.599  0.00  0.00     0.002 A 
ENDROOT
BRANCH   1   7
ATOM      7  C1' N4B d   1       0.192  -0.559   0.568  0.00  0.00     0.057 C 
BRANCH   7   8
ATOM      8  C2' N4B d   1       0.306  -1.031  -0.879  0.00  0.00     0.009 C 
BRANCH   8   9
ATOM      9  C3' N4B d   1       0.440  -2.541  -0.975  0.00  0.00     0.004 C 
ATOM     10  C4' N4B d   1      -0.838  -3.212  -1.381  0.00  0.00     0.003 C 
ENDBRANCH   8   9
ENDBRANCH   7   8
ENDBRANCH   1   7
TORSDOF 3
ENDMDL
