MODEL 1
REMARK minimizedAffinity -5.03842592
REMARK minimizedRMSD -1
REMARK  3 active torsions:
REMARK  status: ('A' for Active; 'I' for Inactive)
REMARK    1  A    between atoms: C3'_2  and  C2'_3 
REMARK    2  A    between atoms: C2'_3  and  C1'_4 
REMARK    3  A    between atoms: C1'_4  and  C1_5 
ROOT
ATOM      1  C1  N4B d   1      -0.359   0.872   0.111  0.00  0.00    -0.075 A 
ATOM      2  C2  N4B d   1      -0.918   1.198   1.366  0.00  0.00     0.002 A 
ATOM      3  C3  N4B d   1      -1.400   2.463   1.595  0.00  0.00     0.002 A 
ATOM      4  C4  N4B d   1      -1.317   3.420   0.595  0.00  0.00    -0.004 A 
ATOM      5  C5  N4B d   1      -0.799   3.090  -0.623  0.00  0.00     0.002 A 
ATOM      6  C6  N4B d   1      -0.314   1.822  -0.869  0.00  0.00     0.002 A 
ENDROOT
BRANCH   1   7
ATOM      7  C1' N4B d   1       0.259  -0.473  -0.159  0.00  0.00     0.057 C 
BRANCH   7   8
ATOM      8  C2' N4B d   1      -0.810  -1.553  -0.014  0.00  0.00     0.009 C 
BRANCH   8   9
ATOM      9  C3' N4B d   1      -0.396  -2.854  -0.679  0.00  0.00     0.004 C 
ATOM     10  C4' N4B d   1      -1.467  -3.421  -1.562  0.00  0.00     0.003 C 
ENDBRANCH   8   9
ENDBRANCH   7   8
ENDBRANCH   1   7
TORSDOF 3
ENDMDL
