MODEL 1
REMARK minimizedAffinity -3.2770586
REMARK minimizedRMSD -1
REMARK  1 active torsions:
REMARK  status: ('A' for Active; 'I' for Inactive)
REMARK    1  A    between atoms: N_2  and  C1_3 
ROOT
ATOM      1  C1  UNL d   1       0.622   1.271  -0.352  0.00  0.00     0.143 A 
ATOM      2  C2  UNL d   1      -0.527   1.833   0.215  0.00  0.00    -0.057 A 
ATOM      3  C3  UNL d   1      -1.428   1.055   0.952  0.00  0.00     0.033 A 
ATOM      4  C4  UNL d   1      -1.210  -0.310   1.111  0.00  0.00    -0.042 A 
ATOM      5  C5  UNL d   1      -0.087  -0.894   0.535  0.00  0.00     0.033 A 
ATOM      6  C6  UNL d   1       0.813  -0.110  -0.194  0.00  0.00    -0.057 A 
ENDROOT
BRANCH   1   7
ATOM      7  N   UNL d   1       1.504   1.972  -1.177  0.00  0.00    -0.732 N 
ATOM      8  C   UNL d   1       1.147   2.278  -2.546  0.00  0.00     0.284 C 
ATOM      9  H3  UNL d   1       1.972   2.733  -0.690  0.00  0.00     0.395 HD
ENDBRANCH   1   7
TORSDOF 1
ENDMDL
