MODEL 1
REMARK minimizedAffinity -3.05311346
REMARK minimizedRMSD -1
REMARK  1 active torsions:
REMARK  status: ('A' for Active; 'I' for Inactive)
REMARK    1  A    between atoms: N_2  and  C1_3 
ROOT
ATOM      1  C1  UNL d   1       1.724   2.138  -3.652  0.00  0.00     0.143 A 
ATOM      2  C2  UNL d   1       1.137   1.979  -2.392  0.00  0.00    -0.057 A 
ATOM      3  C3  UNL d   1       0.057   2.773  -1.988  0.00  0.00     0.033 A 
ATOM      4  C4  UNL d   1      -0.438   3.763  -2.830  0.00  0.00    -0.042 A 
ATOM      5  C5  UNL d   1       0.146   3.957  -4.077  0.00  0.00     0.033 A 
ATOM      6  C6  UNL d   1       1.220   3.156  -4.477  0.00  0.00    -0.057 A 
ENDROOT
BRANCH   1   7
ATOM      7  N   UNL d   1       2.863   1.447  -4.073  0.00  0.00    -0.732 N 
ATOM      8  C   UNL d   1       4.185   1.934  -3.742  0.00  0.00     0.284 C 
ATOM      9  H3  UNL d   1       2.758   0.438  -3.988  0.00  0.00     0.395 HD
ENDBRANCH   1   7
TORSDOF 1
ENDMDL
