MODEL 1
REMARK minimizedAffinity -3.6709044
REMARK minimizedRMSD -1
REMARK  1 active torsions:
REMARK  status: ('A' for Active; 'I' for Inactive)
REMARK    1  A    between atoms: N_2  and  C1_3 
ROOT
ATOM      1  C1  UNL d   1      -1.504  -0.865   0.441  0.00  0.00     0.143 A 
ATOM      2  C2  UNL d   1      -1.985   0.346   0.949  0.00  0.00    -0.057 A 
ATOM      3  C3  UNL d   1      -1.224   1.519   0.874  0.00  0.00     0.033 A 
ATOM      4  C4  UNL d   1       0.049   1.495   0.313  0.00  0.00    -0.042 A 
ATOM      5  C5  UNL d   1       0.558   0.297  -0.176  0.00  0.00     0.033 A 
ATOM      6  C6  UNL d   1      -0.210  -0.870  -0.104  0.00  0.00    -0.057 A 
ENDROOT
BRANCH   1   7
ATOM      7  N   UNL d   1      -2.171  -2.085   0.574  0.00  0.00    -0.732 N 
ATOM      8  C   UNL d   1      -1.841  -2.992   1.652  0.00  0.00     0.284 C 
ATOM      9  H3  UNL d   1      -3.169  -2.004   0.390  0.00  0.00     0.395 HD
ENDBRANCH   1   7
TORSDOF 1
ENDMDL
