MODEL 1
REMARK minimizedAffinity 2.58426166
REMARK minimizedRMSD -1
REMARK  1 active torsions:
REMARK  status: ('A' for Active; 'I' for Inactive)
REMARK    1  A    between atoms: N_2  and  C1_3 
ROOT
ATOM      1  C1  UNL d   1       1.971   1.414  -3.293  0.00  0.00     0.143 A 
ATOM      2  C2  UNL d   1       1.203   0.320  -2.881  0.00  0.00    -0.057 A 
ATOM      3  C3  UNL d   1      -0.122   0.161  -3.306  0.00  0.00     0.033 A 
ATOM      4  C4  UNL d   1      -0.713   1.113  -4.130  0.00  0.00    -0.042 A 
ATOM      5  C5  UNL d   1       0.024   2.222  -4.532  0.00  0.00     0.033 A 
ATOM      6  C6  UNL d   1       1.348   2.371  -4.109  0.00  0.00    -0.057 A 
ENDROOT
BRANCH   1   7
ATOM      7  N   UNL d   1       3.261   1.679  -2.826  0.00  0.00    -0.732 N 
ATOM      8  C   UNL d   1       4.420   1.266  -3.587  0.00  0.00     0.284 C 
ATOM      9  H3  UNL d   1       3.342   2.606  -2.415  0.00  0.00     0.395 HD
ENDBRANCH   1   7
TORSDOF 1
ENDMDL
