MODEL 1
REMARK minimizedAffinity -3.18808007
REMARK minimizedRMSD -1
REMARK  1 active torsions:
REMARK  status: ('A' for Active; 'I' for Inactive)
REMARK    1  A    between atoms: N_2  and  C1_3 
ROOT
ATOM      1  C1  UNL d   1       0.072  -0.066  -0.036  0.00  0.00     0.143 A 
ATOM      2  C2  UNL d   1       0.713  -1.095   0.662  0.00  0.00    -0.057 A 
ATOM      3  C3  UNL d   1      -0.005  -2.183   1.173  0.00  0.00     0.033 A 
ATOM      4  C4  UNL d   1      -1.386  -2.247   1.019  0.00  0.00    -0.042 A 
ATOM      5  C5  UNL d   1      -2.047  -1.223   0.350  0.00  0.00     0.033 A 
ATOM      6  C6  UNL d   1      -1.323  -0.143  -0.164  0.00  0.00    -0.057 A 
ENDROOT
BRANCH   1   7
ATOM      7  N   UNL d   1       0.717   1.090  -0.482  0.00  0.00    -0.732 N 
ATOM      8  C   UNL d   1       0.722   1.436  -1.887  0.00  0.00     0.284 C 
ATOM      9  H3  UNL d   1       0.570   1.881   0.140  0.00  0.00     0.395 HD
ENDBRANCH   1   7
TORSDOF 1
ENDMDL
