MODEL 1
REMARK minimizedAffinity -0.118096814
REMARK minimizedRMSD -1
REMARK  1 active torsions:
REMARK  status: ('A' for Active; 'I' for Inactive)
REMARK    1  A    between atoms: N_2  and  C1_3 
ROOT
ATOM      1  C1  UNL d   1       1.411   1.092   0.502  0.00  0.00     0.143 A 
ATOM      2  C2  UNL d   1       0.968  -0.163   0.067  0.00  0.00    -0.057 A 
ATOM      3  C3  UNL d   1      -0.396  -0.468  -0.000  0.00  0.00     0.033 A 
ATOM      4  C4  UNL d   1      -1.345   0.469   0.395  0.00  0.00    -0.042 A 
ATOM      5  C5  UNL d   1      -0.928   1.713   0.854  0.00  0.00     0.033 A 
ATOM      6  C6  UNL d   1       0.436   2.015   0.913  0.00  0.00    -0.057 A 
ENDROOT
BRANCH   1   7
ATOM      7  N   UNL d   1       2.756   1.422   0.685  0.00  0.00    -0.732 N 
ATOM      8  C   UNL d   1       3.620   0.578   1.482  0.00  0.00     0.284 C 
ATOM      9  H3  UNL d   1       3.188   1.774  -0.166  0.00  0.00     0.395 HD
ENDBRANCH   1   7
TORSDOF 1
ENDMDL
