MODEL 1
REMARK minimizedAffinity -3.52633905
REMARK minimizedRMSD -1
REMARK  1 active torsions:
REMARK  status: ('A' for Active; 'I' for Inactive)
REMARK    1  A    between atoms: N_2  and  C1_3 
ROOT
ATOM      1  C1  UNL d   1      -1.240  -0.946   0.322  0.00  0.00     0.143 A 
ATOM      2  C2  UNL d   1      -1.886   0.248   0.661  0.00  0.00    -0.057 A 
ATOM      3  C3  UNL d   1      -1.241   1.484   0.534  0.00  0.00     0.033 A 
ATOM      4  C4  UNL d   1       0.076   1.546   0.090  0.00  0.00    -0.042 A 
ATOM      5  C5  UNL d   1       0.746   0.371  -0.230  0.00  0.00     0.033 A 
ATOM      6  C6  UNL d   1       0.094  -0.860  -0.106  0.00  0.00    -0.057 A 
ENDROOT
BRANCH   1   7
ATOM      7  N   UNL d   1      -1.793  -2.213   0.519  0.00  0.00    -0.732 N 
ATOM      8  C   UNL d   1      -1.486  -2.974   1.712  0.00  0.00     0.284 C 
ATOM      9  H3  UNL d   1      -2.770  -2.259   0.237  0.00  0.00     0.395 HD
ENDBRANCH   1   7
TORSDOF 1
ENDMDL
