MODEL 1
REMARK minimizedAffinity -1.70472074
REMARK minimizedRMSD -1
REMARK  1 active torsions:
REMARK  status: ('A' for Active; 'I' for Inactive)
REMARK    1  A    between atoms: N_2  and  C1_3 
ROOT
ATOM      1  C1  UNL d   1       1.397   0.920  -2.158  0.00  0.00     0.143 A 
ATOM      2  C2  UNL d   1       0.379   1.501  -1.394  0.00  0.00    -0.057 A 
ATOM      3  C3  UNL d   1      -0.380   0.741  -0.496  0.00  0.00     0.033 A 
ATOM      4  C4  UNL d   1      -0.152  -0.625  -0.367  0.00  0.00    -0.042 A 
ATOM      5  C5  UNL d   1       0.838  -1.229  -1.133  0.00  0.00     0.033 A 
ATOM      6  C6  UNL d   1       1.597  -0.463  -2.024  0.00  0.00    -0.057 A 
ENDROOT
BRANCH   1   7
ATOM      7  N   UNL d   1       2.121   1.602  -3.139  0.00  0.00    -0.732 N 
ATOM      8  C   UNL d   1       3.545   1.814  -2.992  0.00  0.00     0.284 C 
ATOM      9  H3  UNL d   1       1.833   1.346  -4.081  0.00  0.00     0.395 HD
ENDBRANCH   1   7
TORSDOF 1
ENDMDL
