MODEL 1
REMARK minimizedAffinity -4.8745966
REMARK minimizedRMSD -1
REMARK  1 active torsions:
REMARK  status: ('A' for Active; 'I' for Inactive)
REMARK    1  A    between atoms: N_2  and  C1_3 
ROOT
ATOM      1  C1  UNL d   1       1.143  -0.897   1.008  0.00  0.00     0.143 A 
ATOM      2  C2  UNL d   1       0.197  -0.033   0.446  0.00  0.00    -0.057 A 
ATOM      3  C3  UNL d   1      -1.130  -0.436   0.254  0.00  0.00     0.033 A 
ATOM      4  C4  UNL d   1      -1.529  -1.725   0.595  0.00  0.00    -0.042 A 
ATOM      5  C5  UNL d   1      -0.599  -2.608   1.132  0.00  0.00     0.033 A 
ATOM      6  C6  UNL d   1       0.723  -2.198   1.328  0.00  0.00    -0.057 A 
ENDROOT
BRANCH   1   7
ATOM      7  N   UNL d   1       2.500  -0.588   1.134  0.00  0.00    -0.732 N 
ATOM      8  C   UNL d   1       2.921   0.627   1.798  0.00  0.00     0.284 C 
ATOM      9  H3  UNL d   1       3.064  -1.404   1.362  0.00  0.00     0.395 HD
ENDBRANCH   1   7
TORSDOF 1
ENDMDL
