MODEL 1
REMARK minimizedAffinity -2.12271285
REMARK minimizedRMSD -1
REMARK  1 active torsions:
REMARK  status: ('A' for Active; 'I' for Inactive)
REMARK    1  A    between atoms: N_2  and  C1_3 
ROOT
ATOM      1  C1  UNL d   1       0.417   0.599   0.241  0.00  0.00     0.143 A 
ATOM      2  C2  UNL d   1       0.320  -0.787   0.075  0.00  0.00    -0.057 A 
ATOM      3  C3  UNL d   1      -0.916  -1.441   0.146  0.00  0.00     0.033 A 
ATOM      4  C4  UNL d   1      -2.076  -0.723   0.415  0.00  0.00    -0.042 A 
ATOM      5  C5  UNL d   1      -2.000   0.652   0.609  0.00  0.00     0.033 A 
ATOM      6  C6  UNL d   1      -0.764   1.301   0.530  0.00  0.00    -0.057 A 
ENDROOT
BRANCH   1   7
ATOM      7  N   UNL d   1       1.628   1.295   0.280  0.00  0.00    -0.732 N 
ATOM      8  C   UNL d   1       2.699   0.863   1.152  0.00  0.00     0.284 C 
ATOM      9  H3  UNL d   1       1.937   1.588  -0.644  0.00  0.00     0.395 HD
ENDBRANCH   1   7
TORSDOF 1
ENDMDL
