MODEL 1
REMARK minimizedAffinity -5.30400467
REMARK minimizedRMSD -1
REMARK  1 active torsions:
REMARK  status: ('A' for Active; 'I' for Inactive)
REMARK    1  A    between atoms: C1_2  and  C2_3 
ROOT
ATOM      1  C2  UNL d   1       0.099   0.322  -1.035  0.00  0.00    -0.081 A 
ATOM      2  C3  UNL d   1       0.978   0.701  -0.013  0.00  0.00     0.006 A 
ATOM      3  C4  UNL d   1       0.488   1.064   1.244  0.00  0.00     0.002 A 
ATOM      4  C5  UNL d   1      -0.887   1.046   1.502  0.00  0.00    -0.080 A 
ATOM      5  C6  UNL d   1      -1.424   1.404   2.856  0.00  0.00     0.076 C 
ATOM      6  C7  UNL d   1      -1.766   0.684   0.476  0.00  0.00     0.002 A 
ATOM      7  C8  UNL d   1      -1.277   0.322  -0.781  0.00  0.00     0.006 A 
ENDROOT
BRANCH   1   8
ATOM      8  C1  UNL d   1       0.629  -0.132  -2.372  0.00  0.00     0.054 C 
ATOM      9  C   UNL d   1       1.664   0.842  -2.916  0.00  0.00     0.018 C 
ENDBRANCH   1   8
TORSDOF 1
ENDMDL
