MODEL 1
REMARK minimizedAffinity -4.01425648
REMARK minimizedRMSD -1
REMARK  1 active torsions:
REMARK  status: ('A' for Active; 'I' for Inactive)
REMARK    1  A    between atoms: C1_2  and  C2_3 
ROOT
ATOM      1  C2  UNL d   1       0.270  -0.246  -0.950  0.00  0.00    -0.081 A 
ATOM      2  C3  UNL d   1      -1.102   0.004  -0.823  0.00  0.00     0.006 A 
ATOM      3  C4  UNL d   1      -1.637   0.414   0.401  0.00  0.00     0.002 A 
ATOM      4  C5  UNL d   1      -0.809   0.590   1.514  0.00  0.00    -0.080 A 
ATOM      5  C6  UNL d   1      -1.366   1.059   2.826  0.00  0.00     0.076 C 
ATOM      6  C7  UNL d   1       0.559   0.324   1.392  0.00  0.00     0.002 A 
ATOM      7  C8  UNL d   1       1.094  -0.088   0.170  0.00  0.00     0.006 A 
ENDROOT
BRANCH   1   8
ATOM      8  C1  UNL d   1       0.859  -0.626  -2.284  0.00  0.00     0.054 C 
ATOM      9  C   UNL d   1       1.639   0.530  -2.894  0.00  0.00     0.018 C 
ENDBRANCH   1   8
TORSDOF 1
ENDMDL
