MODEL 1
REMARK minimizedAffinity -0.963218033
REMARK minimizedRMSD -1
REMARK  1 active torsions:
REMARK  status: ('A' for Active; 'I' for Inactive)
REMARK    1  A    between atoms: C1_2  and  C2_3 
ROOT
ATOM      1  C2  UNL d   1      -0.000  -0.590  -1.113  0.00  0.00    -0.081 A 
ATOM      2  C3  UNL d   1      -1.264  -0.305  -0.582  0.00  0.00     0.006 A 
ATOM      3  C4  UNL d   1      -1.386   0.288   0.677  0.00  0.00     0.002 A 
ATOM      4  C5  UNL d   1      -0.247   0.612   1.422  0.00  0.00    -0.080 A 
ATOM      5  C6  UNL d   1      -0.364   1.277   2.761  0.00  0.00     0.076 C 
ATOM      6  C7  UNL d   1       1.015   0.312   0.899  0.00  0.00     0.002 A 
ATOM      7  C8  UNL d   1       1.137  -0.281  -0.360  0.00  0.00     0.006 A 
ENDROOT
BRANCH   1   8
ATOM      8  C1  UNL d   1       0.136  -1.170  -2.498  0.00  0.00     0.054 C 
ATOM      9  C   UNL d   1       0.624  -0.124  -3.490  0.00  0.00     0.018 C 
ENDBRANCH   1   8
TORSDOF 1
ENDMDL
