MODEL 1
REMARK minimizedAffinity -3.40996313
REMARK minimizedRMSD -1
REMARK  1 active torsions:
REMARK  status: ('A' for Active; 'I' for Inactive)
REMARK    1  A    between atoms: C1_2  and  C2_3 
ROOT
ATOM      1  C2  UNL d   1       1.009  -0.819   1.445  0.00  0.00    -0.081 A 
ATOM      2  C3  UNL d   1       0.571  -1.187   0.167  0.00  0.00     0.006 A 
ATOM      3  C4  UNL d   1      -0.760  -0.991  -0.208  0.00  0.00     0.002 A 
ATOM      4  C5  UNL d   1      -1.673  -0.419   0.684  0.00  0.00    -0.080 A 
ATOM      5  C6  UNL d   1      -3.097  -0.176   0.282  0.00  0.00     0.076 C 
ATOM      6  C7  UNL d   1      -1.239  -0.067   1.967  0.00  0.00     0.002 A 
ATOM      7  C8  UNL d   1       0.091  -0.263   2.343  0.00  0.00     0.006 A 
ENDROOT
BRANCH   1   8
ATOM      8  C1  UNL d   1       2.459  -0.968   1.831  0.00  0.00     0.054 C 
ATOM      9  C   UNL d   1       2.994   0.302   2.476  0.00  0.00     0.018 C 
ENDBRANCH   1   8
TORSDOF 1
ENDMDL
