MODEL 1
REMARK minimizedAffinity 11.7318659
REMARK minimizedRMSD -1
REMARK  1 active torsions:
REMARK  status: ('A' for Active; 'I' for Inactive)
REMARK    1  A    between atoms: C1_2  and  C2_3 
ROOT
ATOM      1  C2  UNL d   1      -3.971  -3.498   0.150  0.00  0.00    -0.076 A 
ATOM      2  C3  UNL d   1      -5.093  -3.674  -0.678  0.00  0.00     0.004 A 
ATOM      3  C4  UNL d   1      -5.998  -2.635  -0.890  0.00  0.00    -0.003 A 
ATOM      4  C5  UNL d   1      -5.794  -1.403  -0.278  0.00  0.00     0.000 A 
ATOM      5  C6  UNL d   1      -4.677  -1.206   0.533  0.00  0.00     0.000 A 
ATOM      6  C7  UNL d   1      -3.747  -2.238   0.744  0.00  0.00    -0.073 A 
ATOM      7  C8  UNL d   1      -2.562  -1.972   1.632  0.00  0.00     0.078 C 
ENDROOT
BRANCH   1   8
ATOM      8  C1  UNL d   1      -3.039  -4.669   0.365  0.00  0.00     0.053 C 
ATOM      9  C   UNL d   1      -3.681  -5.999   0.001  0.00  0.00     0.018 C 
ENDBRANCH   1   8
TORSDOF 1
ENDMDL
