MODEL 1
REMARK minimizedAffinity 1.9654299
REMARK minimizedRMSD -1
REMARK  1 active torsions:
REMARK  status: ('A' for Active; 'I' for Inactive)
REMARK    1  A    between atoms: C1_2  and  C2_3 
ROOT
ATOM      1  C2  UNL d   1      -3.413   0.751   3.418  0.00  0.00    -0.076 A 
ATOM      2  C3  UNL d   1      -2.413  -0.222   3.250  0.00  0.00     0.004 A 
ATOM      3  C4  UNL d   1      -1.486  -0.127   2.214  0.00  0.00    -0.003 A 
ATOM      4  C5  UNL d   1      -1.544   0.944   1.328  0.00  0.00     0.000 A 
ATOM      5  C6  UNL d   1      -2.518   1.928   1.491  0.00  0.00     0.000 A 
ATOM      6  C7  UNL d   1      -3.450   1.856   2.540  0.00  0.00    -0.073 A 
ATOM      7  C8  UNL d   1      -4.484   2.942   2.664  0.00  0.00     0.078 C 
ENDROOT
BRANCH   1   8
ATOM      8  C1  UNL d   1      -4.408   0.581   4.544  0.00  0.00     0.053 C 
ATOM      9  C   UNL d   1      -3.998  -0.507   5.524  0.00  0.00     0.018 C 
ENDBRANCH   1   8
TORSDOF 1
ENDMDL
