MODEL 1
REMARK minimizedAffinity 10.0408916
REMARK minimizedRMSD -1
REMARK  1 active torsions:
REMARK  status: ('A' for Active; 'I' for Inactive)
REMARK    1  A    between atoms: C1_2  and  C2_3 
ROOT
ATOM      1  C2  UNL d   1      -1.123   0.739   2.845  0.00  0.00    -0.076 A 
ATOM      2  C3  UNL d   1      -2.154   1.610   2.451  0.00  0.00     0.004 A 
ATOM      3  C4  UNL d   1      -1.925   2.979   2.318  0.00  0.00    -0.003 A 
ATOM      4  C5  UNL d   1      -0.662   3.499   2.576  0.00  0.00     0.000 A 
ATOM      5  C6  UNL d   1       0.377   2.647   2.950  0.00  0.00     0.000 A 
ATOM      6  C7  UNL d   1       0.168   1.263   3.073  0.00  0.00    -0.073 A 
ATOM      7  C8  UNL d   1       1.323   0.392   3.485  0.00  0.00     0.078 C 
ENDROOT
BRANCH   1   8
ATOM      8  C1  UNL d   1      -1.436  -0.732   2.998  0.00  0.00     0.053 C 
ATOM      9  C   UNL d   1      -2.037  -1.061   4.357  0.00  0.00     0.018 C 
ENDBRANCH   1   8
TORSDOF 1
ENDMDL
