MODEL 1
REMARK minimizedAffinity 9.91278458
REMARK minimizedRMSD -1
REMARK  1 active torsions:
REMARK  status: ('A' for Active; 'I' for Inactive)
REMARK    1  A    between atoms: C1_2  and  C2_3 
ROOT
ATOM      1  C2  UNL d   1      -4.570   0.340   1.389  0.00  0.00    -0.076 A 
ATOM      2  C3  UNL d   1      -3.313  -0.260   1.581  0.00  0.00     0.004 A 
ATOM      3  C4  UNL d   1      -2.184   0.511   1.849  0.00  0.00    -0.003 A 
ATOM      4  C5  UNL d   1      -2.292   1.895   1.931  0.00  0.00     0.000 A 
ATOM      5  C6  UNL d   1      -3.534   2.506   1.761  0.00  0.00     0.000 A 
ATOM      6  C7  UNL d   1      -4.686   1.742   1.506  0.00  0.00    -0.073 A 
ATOM      7  C8  UNL d   1      -5.999   2.454   1.325  0.00  0.00     0.078 C 
ENDROOT
BRANCH   1   8
ATOM      8  C1  UNL d   1      -5.755  -0.545   1.074  0.00  0.00     0.053 C 
ATOM      9  C   UNL d   1      -5.346  -1.852   0.413  0.00  0.00     0.018 C 
ENDBRANCH   1   8
TORSDOF 1
ENDMDL
