MODEL 1
REMARK minimizedAffinity 9.20328617
REMARK minimizedRMSD -1
REMARK  1 active torsions:
REMARK  status: ('A' for Active; 'I' for Inactive)
REMARK    1  A    between atoms: C1_2  and  C2_3 
ROOT
ATOM      1  C2  UNL d   1       3.930  -0.217   2.738  0.00  0.00    -0.076 A 
ATOM      2  C3  UNL d   1       2.673  -0.146   3.363  0.00  0.00     0.004 A 
ATOM      3  C4  UNL d   1       1.791   0.897   3.084  0.00  0.00    -0.003 A 
ATOM      4  C5  UNL d   1       2.152   1.885   2.175  0.00  0.00     0.000 A 
ATOM      5  C6  UNL d   1       3.388   1.821   1.532  0.00  0.00     0.000 A 
ATOM      6  C7  UNL d   1       4.282   0.767   1.789  0.00  0.00    -0.073 A 
ATOM      7  C8  UNL d   1       5.604   0.751   1.072  0.00  0.00     0.078 C 
ENDROOT
BRANCH   1   8
ATOM      8  C1  UNL d   1       4.856  -1.356   3.100  0.00  0.00     0.053 C 
ATOM      9  C   UNL d   1       5.608  -1.106   4.398  0.00  0.00     0.018 C 
ENDBRANCH   1   8
TORSDOF 1
ENDMDL
