MODEL 1
REMARK minimizedAffinity 15.3316746
REMARK minimizedRMSD -1
REMARK  1 active torsions:
REMARK  status: ('A' for Active; 'I' for Inactive)
REMARK    1  A    between atoms: C1_2  and  C2_3 
ROOT
ATOM      1  C2  UNL d   1      -2.570  -1.426   1.142  0.00  0.00    -0.076 A 
ATOM      2  C3  UNL d   1      -3.945  -1.136   1.086  0.00  0.00     0.004 A 
ATOM      3  C4  UNL d   1      -4.867  -2.105   0.698  0.00  0.00    -0.003 A 
ATOM      4  C5  UNL d   1      -4.431  -3.381   0.359  0.00  0.00     0.000 A 
ATOM      5  C6  UNL d   1      -3.073  -3.692   0.425  0.00  0.00     0.000 A 
ATOM      6  C7  UNL d   1      -2.131  -2.731   0.831  0.00  0.00    -0.073 A 
ATOM      7  C8  UNL d   1      -0.679  -3.118   0.879  0.00  0.00     0.078 C 
ENDROOT
BRANCH   1   8
ATOM      8  C1  UNL d   1      -1.614  -0.327   1.545  0.00  0.00     0.053 C 
ATOM      9  C   UNL d   1      -2.251   1.053   1.480  0.00  0.00     0.018 C 
ENDBRANCH   1   8
TORSDOF 1
ENDMDL
