MODEL 1
REMARK minimizedAffinity 12.6304102
REMARK minimizedRMSD -1
REMARK  1 active torsions:
REMARK  status: ('A' for Active; 'I' for Inactive)
REMARK    1  A    between atoms: C1_2  and  C2_3 
ROOT
ATOM      1  C2  UNL d   1       3.583   3.087  -5.909  0.00  0.00    -0.076 A 
ATOM      2  C3  UNL d   1       4.885   2.563  -6.000  0.00  0.00     0.004 A 
ATOM      3  C4  UNL d   1       5.999   3.398  -5.947  0.00  0.00    -0.003 A 
ATOM      4  C5  UNL d   1       5.831   4.771  -5.802  0.00  0.00     0.000 A 
ATOM      5  C6  UNL d   1       4.548   5.306  -5.693  0.00  0.00     0.000 A 
ATOM      6  C7  UNL d   1       3.414   4.476  -5.728  0.00  0.00    -0.073 A 
ATOM      7  C8  UNL d   1       2.054   5.108  -5.612  0.00  0.00     0.078 C 
ENDROOT
BRANCH   1   8
ATOM      8  C1  UNL d   1       2.412   2.136  -6.000  0.00  0.00     0.053 C 
ATOM      9  C   UNL d   1       2.673   0.819  -5.284  0.00  0.00     0.018 C 
ENDBRANCH   1   8
TORSDOF 1
ENDMDL
