MODEL 1
REMARK minimizedAffinity 9.74761677
REMARK minimizedRMSD -1
REMARK  1 active torsions:
REMARK  status: ('A' for Active; 'I' for Inactive)
REMARK    1  A    between atoms: C1_2  and  C2_3 
ROOT
ATOM      1  C2  UNL d   1      -3.078  -3.493  -5.889  0.00  0.00    -0.076 A 
ATOM      2  C3  UNL d   1      -2.596  -2.174  -5.828  0.00  0.00     0.004 A 
ATOM      3  C4  UNL d   1      -1.228  -1.913  -5.760  0.00  0.00    -0.003 A 
ATOM      4  C5  UNL d   1      -0.321  -2.967  -5.753  0.00  0.00     0.000 A 
ATOM      5  C6  UNL d   1      -0.781  -4.281  -5.831  0.00  0.00     0.000 A 
ATOM      6  C7  UNL d   1      -2.156  -4.560  -5.917  0.00  0.00    -0.073 A 
ATOM      7  C8  UNL d   1      -2.597  -5.997  -5.992  0.00  0.00     0.078 C 
ENDROOT
BRANCH   1   8
ATOM      8  C1  UNL d   1      -4.573  -3.715  -5.934  0.00  0.00     0.053 C 
ATOM      9  C   UNL d   1      -5.331  -2.767  -5.018  0.00  0.00     0.018 C 
ENDBRANCH   1   8
TORSDOF 1
ENDMDL
