MODEL 1
REMARK minimizedAffinity 17.8338871
REMARK minimizedRMSD -1
REMARK  1 active torsions:
REMARK  status: ('A' for Active; 'I' for Inactive)
REMARK    1  A    between atoms: C1_2  and  C2_3 
ROOT
ATOM      1  C2  UNL d   1       5.713  -2.375   3.768  0.00  0.00    -0.076 A 
ATOM      2  C3  UNL d   1       5.854  -3.640   3.171  0.00  0.00     0.004 A 
ATOM      3  C4  UNL d   1       5.996  -4.788   3.948  0.00  0.00    -0.003 A 
ATOM      4  C5  UNL d   1       5.998  -4.690   5.335  0.00  0.00     0.000 A 
ATOM      5  C6  UNL d   1       5.842  -3.445   5.945  0.00  0.00     0.000 A 
ATOM      6  C7  UNL d   1       5.682  -2.280   5.176  0.00  0.00    -0.073 A 
ATOM      7  C8  UNL d   1       5.523  -0.963   5.885  0.00  0.00     0.078 C 
ENDROOT
BRANCH   1   8
ATOM      8  C1  UNL d   1       5.590  -1.162   2.874  0.00  0.00     0.053 C 
ATOM      9  C   UNL d   1       4.143  -0.785   2.598  0.00  0.00     0.018 C 
ENDBRANCH   1   8
TORSDOF 1
ENDMDL
