MODEL 1
REMARK minimizedAffinity 14.0882025
REMARK minimizedRMSD -1
REMARK  1 active torsions:
REMARK  status: ('A' for Active; 'I' for Inactive)
REMARK    1  A    between atoms: C1_2  and  C2_3 
ROOT
ATOM      1  C2  UNL d   1       2.604   1.619  -5.047  0.00  0.00    -0.076 A 
ATOM      2  C3  UNL d   1       1.544   1.513  -5.965  0.00  0.00     0.004 A 
ATOM      3  C4  UNL d   1       0.599   0.495  -5.855  0.00  0.00    -0.003 A 
ATOM      4  C5  UNL d   1       0.697  -0.434  -4.824  0.00  0.00     0.000 A 
ATOM      5  C6  UNL d   1       1.732  -0.334  -3.895  0.00  0.00     0.000 A 
ATOM      6  C7  UNL d   1       2.684   0.696  -3.982  0.00  0.00    -0.073 A 
ATOM      7  C8  UNL d   1       3.782   0.753  -2.956  0.00  0.00     0.078 C 
ENDROOT
BRANCH   1   8
ATOM      8  C1  UNL d   1       3.615   2.727  -5.233  0.00  0.00     0.053 C 
ATOM      9  C   UNL d   1       3.046   3.913  -5.998  0.00  0.00     0.018 C 
ENDBRANCH   1   8
TORSDOF 1
ENDMDL
