MODEL 1
REMARK minimizedAffinity 14.8380613
REMARK minimizedRMSD -1
REMARK  1 active torsions:
REMARK  status: ('A' for Active; 'I' for Inactive)
REMARK    1  A    between atoms: C1_2  and  C2_3 
ROOT
ATOM      1  C2  UNL d   1      -0.944  -0.695  -5.329  0.00  0.00    -0.076 A 
ATOM      2  C3  UNL d   1      -0.225   0.355  -4.732  0.00  0.00     0.004 A 
ATOM      3  C4  UNL d   1       0.984   0.117  -4.079  0.00  0.00    -0.003 A 
ATOM      4  C5  UNL d   1       1.493  -1.175  -4.014  0.00  0.00     0.000 A 
ATOM      5  C6  UNL d   1       0.802  -2.226  -4.616  0.00  0.00     0.000 A 
ATOM      6  C7  UNL d   1      -0.409  -2.001  -5.292  0.00  0.00    -0.073 A 
ATOM      7  C8  UNL d   1      -1.115  -3.172  -5.918  0.00  0.00     0.078 C 
ENDROOT
BRANCH   1   8
ATOM      8  C1  UNL d   1      -2.262  -0.381  -5.999  0.00  0.00     0.053 C 
ATOM      9  C   UNL d   1      -2.576   1.107  -6.000  0.00  0.00     0.018 C 
ENDBRANCH   1   8
TORSDOF 1
ENDMDL
