MODEL 1
REMARK minimizedAffinity 4.02903938
REMARK minimizedRMSD -1
REMARK  1 active torsions:
REMARK  status: ('A' for Active; 'I' for Inactive)
REMARK    1  A    between atoms: C1_2  and  C2_3 
ROOT
ATOM      1  C2  UNL d   1      -4.821  -1.723  -5.092  0.00  0.00    -0.076 A 
ATOM      2  C3  UNL d   1      -5.996  -2.494  -5.095  0.00  0.00     0.004 A 
ATOM      3  C4  UNL d   1      -5.987  -3.815  -5.542  0.00  0.00    -0.003 A 
ATOM      4  C5  UNL d   1      -4.802  -4.386  -5.992  0.00  0.00     0.000 A 
ATOM      5  C6  UNL d   1      -3.623  -3.641  -5.979  0.00  0.00     0.000 A 
ATOM      6  C7  UNL d   1      -3.612  -2.314  -5.517  0.00  0.00    -0.073 A 
ATOM      7  C8  UNL d   1      -2.313  -1.556  -5.531  0.00  0.00     0.078 C 
ENDROOT
BRANCH   1   8
ATOM      8  C1  UNL d   1      -4.897  -0.288  -4.623  0.00  0.00     0.053 C 
ATOM      9  C   UNL d   1      -6.000  -0.068  -3.598  0.00  0.00     0.018 C 
ENDBRANCH   1   8
TORSDOF 1
ENDMDL
