MODEL 1
REMARK minimizedAffinity 10.7012167
REMARK minimizedRMSD -1
REMARK  1 active torsions:
REMARK  status: ('A' for Active; 'I' for Inactive)
REMARK    1  A    between atoms: C1_2  and  C2_3 
ROOT
ATOM      1  C2  UNL d   1       2.852   4.527  -3.381  0.00  0.00    -0.076 A 
ATOM      2  C3  UNL d   1       4.196   4.171  -3.587  0.00  0.00     0.004 A 
ATOM      3  C4  UNL d   1       4.744   4.149  -4.869  0.00  0.00    -0.003 A 
ATOM      4  C5  UNL d   1       3.956   4.483  -5.965  0.00  0.00     0.000 A 
ATOM      5  C6  UNL d   1       2.626   4.856  -5.777  0.00  0.00     0.000 A 
ATOM      6  C7  UNL d   1       2.063   4.899  -4.490  0.00  0.00    -0.073 A 
ATOM      7  C8  UNL d   1       0.621   5.303  -4.347  0.00  0.00     0.078 C 
ENDROOT
BRANCH   1   8
ATOM      8  C1  UNL d   1       2.305   4.507  -1.972  0.00  0.00     0.053 C 
ATOM      9  C   UNL d   1       2.316   3.113  -1.362  0.00  0.00     0.018 C 
ENDBRANCH   1   8
TORSDOF 1
ENDMDL
