MODEL 1
REMARK minimizedAffinity 17.5968246
REMARK minimizedRMSD -1
REMARK  1 active torsions:
REMARK  status: ('A' for Active; 'I' for Inactive)
REMARK    1  A    between atoms: C1_2  and  C2_3 
ROOT
ATOM      1  C2  UNL d   1       3.280  -2.657  -5.982  0.00  0.00    -0.073 A 
ATOM      2  C3  UNL d   1       2.392  -3.739  -5.994  0.00  0.00    -0.002 A 
ATOM      3  C4  UNL d   1       1.014  -3.519  -5.999  0.00  0.00     0.004 A 
ATOM      4  C5  UNL d   1       0.510  -2.218  -5.999  0.00  0.00    -0.004 A 
ATOM      5  C6  UNL d   1       1.382  -1.124  -5.999  0.00  0.00    -0.075 A 
ATOM      6  C7  UNL d   1       0.857   0.281  -5.996  0.00  0.00     0.076 C 
ATOM      7  C8  UNL d   1       2.765  -1.353  -5.991  0.00  0.00     0.001 A 
ENDROOT
BRANCH   1   8
ATOM      8  C1  UNL d   1       4.769  -2.890  -5.983  0.00  0.00     0.053 C 
ATOM      9  C   UNL d   1       5.186  -3.922  -4.948  0.00  0.00     0.018 C 
ENDBRANCH   1   8
TORSDOF 1
ENDMDL
