MODEL 1
REMARK minimizedAffinity 5.21083117
REMARK minimizedRMSD -1
REMARK  1 active torsions:
REMARK  status: ('A' for Active; 'I' for Inactive)
REMARK    1  A    between atoms: C1_2  and  C2_3 
ROOT
ATOM      1  C2  UNL d   1       1.691  -3.180  -3.407  0.00  0.00    -0.073 A 
ATOM      2  C3  UNL d   1       0.596  -2.634  -4.086  0.00  0.00    -0.002 A 
ATOM      3  C4  UNL d   1       0.749  -2.121  -5.375  0.00  0.00     0.004 A 
ATOM      4  C5  UNL d   1       1.996  -2.155  -6.000  0.00  0.00    -0.004 A 
ATOM      5  C6  UNL d   1       3.100  -2.707  -5.342  0.00  0.00    -0.075 A 
ATOM      6  C7  UNL d   1       4.448  -2.749  -6.000  0.00  0.00     0.076 C 
ATOM      7  C8  UNL d   1       2.938  -3.217  -4.047  0.00  0.00     0.001 A 
ENDROOT
BRANCH   1   8
ATOM      8  C1  UNL d   1       1.529  -3.740  -2.018  0.00  0.00     0.053 C 
ATOM      9  C   UNL d   1       1.506  -2.647  -0.961  0.00  0.00     0.018 C 
ENDBRANCH   1   8
TORSDOF 1
ENDMDL
