MODEL 1
REMARK minimizedAffinity 14.1038513
REMARK minimizedRMSD -1
REMARK  1 active torsions:
REMARK  status: ('A' for Active; 'I' for Inactive)
REMARK    1  A    between atoms: C1_2  and  C2_3 
ROOT
ATOM      1  C2  UNL d   1      -3.338  -3.000   5.363  0.00  0.00    -0.073 A 
ATOM      2  C3  UNL d   1      -3.023  -2.328   4.177  0.00  0.00    -0.002 A 
ATOM      3  C4  UNL d   1      -1.768  -2.487   3.588  0.00  0.00     0.004 A 
ATOM      4  C5  UNL d   1      -0.818  -3.323   4.175  0.00  0.00    -0.004 A 
ATOM      5  C6  UNL d   1      -1.118  -4.012   5.355  0.00  0.00    -0.075 A 
ATOM      6  C7  UNL d   1      -0.107  -4.914   6.000  0.00  0.00     0.076 C 
ATOM      7  C8  UNL d   1      -2.380  -3.845   5.941  0.00  0.00     0.001 A 
ENDROOT
BRANCH   1   8
ATOM      8  C1  UNL d   1      -4.694  -2.836   5.999  0.00  0.00     0.053 C 
ATOM      9  C   UNL d   1      -5.736  -3.741   5.360  0.00  0.00     0.018 C 
ENDBRANCH   1   8
TORSDOF 1
ENDMDL
