MODEL 1
REMARK minimizedAffinity 22.427084
REMARK minimizedRMSD -1
REMARK  1 active torsions:
REMARK  status: ('A' for Active; 'I' for Inactive)
REMARK    1  A    between atoms: C1_2  and  C2_3 
ROOT
ATOM      1  C2  UNL d   1      -5.002   5.777   1.504  0.00  0.00    -0.073 A 
ATOM      2  C3  UNL d   1      -5.936   6.000   0.486  0.00  0.00    -0.002 A 
ATOM      3  C4  UNL d   1      -5.588   5.787  -0.849  0.00  0.00     0.004 A 
ATOM      4  C5  UNL d   1      -4.308   5.342  -1.178  0.00  0.00    -0.004 A 
ATOM      5  C6  UNL d   1      -3.364   5.102  -0.174  0.00  0.00    -0.075 A 
ATOM      6  C7  UNL d   1      -1.982   4.626  -0.512  0.00  0.00     0.076 C 
ATOM      7  C8  UNL d   1      -3.720   5.321   1.163  0.00  0.00     0.001 A 
ENDROOT
BRANCH   1   8
ATOM      8  C1  UNL d   1      -5.374   5.999   2.947  0.00  0.00     0.053 C 
ATOM      9  C   UNL d   1      -4.156   6.000   3.857  0.00  0.00     0.018 C 
ENDBRANCH   1   8
TORSDOF 1
ENDMDL
