MODEL 1
REMARK minimizedAffinity 8.29083252
REMARK minimizedRMSD -1
REMARK  1 active torsions:
REMARK  status: ('A' for Active; 'I' for Inactive)
REMARK    1  A    between atoms: C1_2  and  C2_3 
ROOT
ATOM      1  C2  UNL d   1      -0.850   2.285  -0.490  0.00  0.00    -0.073 A 
ATOM      2  C3  UNL d   1       0.237   2.847  -1.169  0.00  0.00    -0.002 A 
ATOM      3  C4  UNL d   1       0.165   3.082  -2.542  0.00  0.00     0.004 A 
ATOM      4  C5  UNL d   1      -0.995   2.763  -3.249  0.00  0.00    -0.004 A 
ATOM      5  C6  UNL d   1      -2.096   2.212  -2.586  0.00  0.00    -0.075 A 
ATOM      6  C7  UNL d   1      -3.349   1.861  -3.332  0.00  0.00     0.076 C 
ATOM      7  C8  UNL d   1      -2.015   1.977  -1.207  0.00  0.00     0.001 A 
ENDROOT
BRANCH   1   8
ATOM      8  C1  UNL d   1      -0.779   2.036   0.995  0.00  0.00     0.053 C 
ATOM      9  C   UNL d   1      -1.874   1.092   1.467  0.00  0.00     0.018 C 
ENDBRANCH   1   8
TORSDOF 1
ENDMDL
