MODEL 1
REMARK minimizedAffinity 22.3772449
REMARK minimizedRMSD -1
REMARK  1 active torsions:
REMARK  status: ('A' for Active; 'I' for Inactive)
REMARK    1  A    between atoms: C1_2  and  C2_3 
ROOT
ATOM      1  C2  UNL d   1      -4.459   5.796   0.947  0.00  0.00    -0.073 A 
ATOM      2  C3  UNL d   1      -5.745   5.996   0.433  0.00  0.00    -0.002 A 
ATOM      3  C4  UNL d   1      -5.999   5.807  -0.926  0.00  0.00     0.004 A 
ATOM      4  C5  UNL d   1      -4.973   5.409  -1.783  0.00  0.00    -0.004 A 
ATOM      5  C6  UNL d   1      -3.683   5.192  -1.286  0.00  0.00    -0.075 A 
ATOM      6  C7  UNL d   1      -2.568   4.766  -2.195  0.00  0.00     0.076 C 
ATOM      7  C8  UNL d   1      -3.436   5.387   0.079  0.00  0.00     0.001 A 
ENDROOT
BRANCH   1   8
ATOM      8  C1  UNL d   1      -4.181   5.993   2.415  0.00  0.00     0.053 C 
ATOM      9  C   UNL d   1      -5.451   5.927   3.249  0.00  0.00     0.018 C 
ENDBRANCH   1   8
TORSDOF 1
ENDMDL
