MODEL 1
REMARK minimizedAffinity 6.96448374
REMARK minimizedRMSD -1
REMARK  1 active torsions:
REMARK  status: ('A' for Active; 'I' for Inactive)
REMARK    1  A    between atoms: C1_2  and  C2_3 
ROOT
ATOM      1  C2  UNL d   1      -0.686   4.185  -1.880  0.00  0.00    -0.073 A 
ATOM      2  C3  UNL d   1      -0.285   5.411  -1.337  0.00  0.00    -0.002 A 
ATOM      3  C4  UNL d   1       0.064   5.505   0.010  0.00  0.00     0.004 A 
ATOM      4  C5  UNL d   1       0.023   4.375   0.827  0.00  0.00    -0.004 A 
ATOM      5  C6  UNL d   1      -0.363   3.138   0.300  0.00  0.00    -0.075 A 
ATOM      6  C7  UNL d   1      -0.414   1.913   1.166  0.00  0.00     0.076 C 
ATOM      7  C8  UNL d   1      -0.715   3.052  -1.053  0.00  0.00     0.001 A 
ENDROOT
BRANCH   1   8
ATOM      8  C1  UNL d   1      -1.058   4.077  -3.336  0.00  0.00     0.053 C 
ATOM      9  C   UNL d   1      -2.045   2.949  -3.590  0.00  0.00     0.018 C 
ENDBRANCH   1   8
TORSDOF 1
ENDMDL
