MODEL 1
REMARK minimizedAffinity 11.5538111
REMARK minimizedRMSD -1
REMARK  1 active torsions:
REMARK  status: ('A' for Active; 'I' for Inactive)
REMARK    1  A    between atoms: C1_2  and  C2_3 
ROOT
ATOM      1  C2  UNL d   1      -0.291   2.719  -0.213  0.00  0.00    -0.073 A 
ATOM      2  C3  UNL d   1       0.103   3.972   0.272  0.00  0.00    -0.002 A 
ATOM      3  C4  UNL d   1       0.036   5.098  -0.550  0.00  0.00     0.004 A 
ATOM      4  C5  UNL d   1      -0.431   4.985  -1.859  0.00  0.00    -0.004 A 
ATOM      5  C6  UNL d   1      -0.841   3.744  -2.357  0.00  0.00    -0.075 A 
ATOM      6  C7  UNL d   1      -1.344   3.605  -3.764  0.00  0.00     0.076 C 
ATOM      7  C8  UNL d   1      -0.768   2.617  -1.527  0.00  0.00     0.001 A 
ENDROOT
BRANCH   1   8
ATOM      8  C1  UNL d   1      -0.227   1.502   0.673  0.00  0.00     0.053 C 
ATOM      9  C   UNL d   1      -1.504   1.312   1.475  0.00  0.00     0.018 C 
ENDBRANCH   1   8
TORSDOF 1
ENDMDL
