MODEL 1
REMARK minimizedAffinity 10.2862177
REMARK minimizedRMSD -1
REMARK  1 active torsions:
REMARK  status: ('A' for Active; 'I' for Inactive)
REMARK    1  A    between atoms: C1_2  and  C2_3 
ROOT
ATOM      1  C2  UNL d   1      -1.452   2.736  -1.838  0.00  0.00    -0.073 A 
ATOM      2  C3  UNL d   1      -0.977   2.019  -0.735  0.00  0.00    -0.002 A 
ATOM      3  C4  UNL d   1      -0.029   2.584   0.119  0.00  0.00     0.004 A 
ATOM      4  C5  UNL d   1       0.449   3.873  -0.117  0.00  0.00    -0.004 A 
ATOM      5  C6  UNL d   1      -0.022   4.611  -1.208  0.00  0.00    -0.075 A 
ATOM      6  C7  UNL d   1       0.484   5.997  -1.478  0.00  0.00     0.076 C 
ATOM      7  C8  UNL d   1      -0.972   4.035  -2.063  0.00  0.00     0.001 A 
ENDROOT
BRANCH   1   8
ATOM      8  C1  UNL d   1      -2.480   2.133  -2.759  0.00  0.00     0.053 C 
ATOM      9  C   UNL d   1      -3.286   1.040  -2.075  0.00  0.00     0.018 C 
ENDBRANCH   1   8
TORSDOF 1
ENDMDL
