MODEL 1
REMARK minimizedAffinity 5.85343552
REMARK minimizedRMSD -1
REMARK  1 active torsions:
REMARK  status: ('A' for Active; 'I' for Inactive)
REMARK    1  A    between atoms: C1_2  and  C2_3 
ROOT
ATOM      1  C2  UNL d   1      -0.234   2.906   0.495  0.00  0.00    -0.073 A 
ATOM      2  C3  UNL d   1       0.404   4.105   0.830  0.00  0.00    -0.002 A 
ATOM      3  C4  UNL d   1       0.551   5.115  -0.122  0.00  0.00     0.004 A 
ATOM      4  C5  UNL d   1       0.056   4.939  -1.414  0.00  0.00    -0.004 A 
ATOM      5  C6  UNL d   1      -0.595   3.752  -1.764  0.00  0.00    -0.075 A 
ATOM      6  C7  UNL d   1      -1.130   3.546  -3.151  0.00  0.00     0.076 C 
ATOM      7  C8  UNL d   1      -0.736   2.742  -0.804  0.00  0.00     0.001 A 
ENDROOT
BRANCH   1   8
ATOM      8  C1  UNL d   1      -0.400   1.815   1.521  0.00  0.00     0.053 C 
ATOM      9  C   UNL d   1      -1.859   1.430   1.713  0.00  0.00     0.018 C 
ENDBRANCH   1   8
TORSDOF 1
ENDMDL
