MODEL 1
REMARK minimizedAffinity 5.45034742
REMARK minimizedRMSD -1
REMARK  1 active torsions:
REMARK  status: ('A' for Active; 'I' for Inactive)
REMARK    1  A    between atoms: C1_2  and  C2_3 
ROOT
ATOM      1  C2  UNL d   1       0.128   3.057  -0.093  0.00  0.00    -0.073 A 
ATOM      2  C3  UNL d   1       0.607   4.247   0.465  0.00  0.00    -0.002 A 
ATOM      3  C4  UNL d   1       0.557   5.437  -0.263  0.00  0.00     0.004 A 
ATOM      4  C5  UNL d   1       0.024   5.450  -1.551  0.00  0.00    -0.004 A 
ATOM      5  C6  UNL d   1      -0.471   4.273  -2.122  0.00  0.00    -0.075 A 
ATOM      6  C7  UNL d   1      -1.046   4.270  -3.508  0.00  0.00     0.076 C 
ATOM      7  C8  UNL d   1      -0.416   3.082  -1.386  0.00  0.00     0.001 A 
ENDROOT
BRANCH   1   8
ATOM      8  C1  UNL d   1       0.173   1.771   0.691  0.00  0.00     0.053 C 
ATOM      9  C   UNL d   1      -1.214   1.186   0.908  0.00  0.00     0.018 C 
ENDBRANCH   1   8
TORSDOF 1
ENDMDL
