MODEL 1
REMARK minimizedAffinity 8.03047085
REMARK minimizedRMSD -1
REMARK  2 active torsions:
REMARK  status: ('A' for Active; 'I' for Inactive)
REMARK    1  A    between atoms: C2'_3  and  C1'_4 
REMARK    2  A    between atoms: C1'_4  and  C1_5 
ROOT
ATOM      1  C1  I4B d   1       0.882   2.997  -2.269  0.00  0.00    -0.075 A 
ATOM      2  C2  I4B d   1       0.923   4.185  -1.582  0.00  0.00     0.003 A 
ATOM      3  C3  I4B d   1       2.010   5.075  -1.760  0.00  0.00     0.002 A 
ATOM      4  C4  I4B d   1       3.052   4.717  -2.590  0.00  0.00    -0.004 A 
ATOM      5  C5  I4B d   1       2.999   3.522  -3.303  0.00  0.00     0.002 A 
ATOM      6  C6  I4B d   1       1.901   2.662  -3.151  0.00  0.00     0.003 A 
ENDROOT
BRANCH   1   7
ATOM      7  C1' I4B d   1      -0.264   2.066  -2.032  0.00  0.00     0.060 C 
BRANCH   7   8
ATOM      8  C2' I4B d   1      -0.799   1.632  -3.381  0.00  0.00    -0.013 C 
ATOM      9  C4' I4B d   1      -0.478   0.187  -3.656  0.00  0.00     0.013 C 
ATOM     10  C3' I4B d   1      -2.280   1.869  -3.390  0.00  0.00     0.013 C 
ENDBRANCH   7   8
ENDBRANCH   1   7
TORSDOF 2
ENDMDL
