MODEL 1
REMARK minimizedAffinity 1.17247045
REMARK minimizedRMSD -1
REMARK  2 active torsions:
REMARK  status: ('A' for Active; 'I' for Inactive)
REMARK    1  A    between atoms: C2'_3  and  C1'_4 
REMARK    2  A    between atoms: C1'_4  and  C1_5 
ROOT
ATOM      1  C1  I4B d   1       4.137  -3.641  -4.441  0.00  0.00    -0.075 A 
ATOM      2  C2  I4B d   1       5.117  -3.351  -5.357  0.00  0.00     0.003 A 
ATOM      3  C3  I4B d   1       5.825  -4.396  -5.999  0.00  0.00     0.002 A 
ATOM      4  C4  I4B d   1       5.557  -5.706  -5.660  0.00  0.00    -0.004 A 
ATOM      5  C5  I4B d   1       4.547  -6.000  -4.748  0.00  0.00     0.002 A 
ATOM      6  C6  I4B d   1       3.824  -4.961  -4.143  0.00  0.00     0.003 A 
ENDROOT
BRANCH   1   7
ATOM      7  C1' I4B d   1       3.432  -2.513  -3.757  0.00  0.00     0.060 C 
BRANCH   7   8
ATOM      8  C2' I4B d   1       1.968  -2.575  -4.143  0.00  0.00    -0.013 C 
ATOM      9  C4' I4B d   1       1.200  -3.484  -3.220  0.00  0.00     0.013 C 
ATOM     10  C3' I4B d   1       1.420  -1.179  -4.108  0.00  0.00     0.013 C 
ENDBRANCH   7   8
ENDBRANCH   1   7
TORSDOF 2
ENDMDL
