MODEL 1
REMARK minimizedAffinity 3.19358659
REMARK minimizedRMSD -1
REMARK  2 active torsions:
REMARK  status: ('A' for Active; 'I' for Inactive)
REMARK    1  A    between atoms: C2'_3  and  C1'_4 
REMARK    2  A    between atoms: C1'_4  and  C1_5 
ROOT
ATOM      1  C1  I4B d   1      -3.818   2.947  -3.209  0.00  0.00    -0.075 A 
ATOM      2  C2  I4B d   1      -3.661   1.875  -4.052  0.00  0.00     0.003 A 
ATOM      3  C3  I4B d   1      -3.036   0.691  -3.590  0.00  0.00     0.002 A 
ATOM      4  C4  I4B d   1      -2.542   0.641  -2.303  0.00  0.00    -0.004 A 
ATOM      5  C5  I4B d   1      -2.722   1.720  -1.443  0.00  0.00     0.002 A 
ATOM      6  C6  I4B d   1      -3.375   2.877  -1.894  0.00  0.00     0.003 A 
ENDROOT
BRANCH   1   7
ATOM      7  C1' I4B d   1      -4.452   4.194  -3.739  0.00  0.00     0.060 C 
BRANCH   7   8
ATOM      8  C2' I4B d   1      -5.723   4.442  -2.952  0.00  0.00    -0.013 C 
ATOM      9  C4' I4B d   1      -5.999   3.314  -1.993  0.00  0.00     0.013 C 
ATOM     10  C3' I4B d   1      -5.571   5.745  -2.226  0.00  0.00     0.013 C 
ENDBRANCH   7   8
ENDBRANCH   1   7
TORSDOF 2
ENDMDL
