MODEL 1
REMARK minimizedAffinity -6.00207281
REMARK minimizedRMSD -1
REMARK  1 active torsions:
REMARK  status: ('A' for Active; 'I' for Inactive)
REMARK    1  A    between atoms: C1_2  and  C2_3 
ROOT
ATOM      1  C2  UNL d   1       0.305  -0.529   0.723  0.00  0.00    -0.076 A 
ATOM      2  C3  UNL d   1       0.294  -0.507   2.128  0.00  0.00     0.004 A 
ATOM      3  C4  UNL d   1       1.389  -0.961   2.862  0.00  0.00    -0.003 A 
ATOM      4  C5  UNL d   1       2.514  -1.442   2.201  0.00  0.00     0.000 A 
ATOM      5  C6  UNL d   1       2.550  -1.455   0.807  0.00  0.00     0.000 A 
ATOM      6  C7  UNL d   1       1.460  -0.986   0.053  0.00  0.00    -0.073 A 
ATOM      7  C8  UNL d   1       1.550  -1.028  -1.448  0.00  0.00     0.078 C 
ENDROOT
BRANCH   1   8
ATOM      8  C1  UNL d   1      -0.922  -0.050  -0.019  0.00  0.00     0.053 C 
ATOM      9  C   UNL d   1      -2.139   0.073   0.886  0.00  0.00     0.018 C 
ENDBRANCH   1   8
TORSDOF 1
ENDMDL
