MODEL 1
REMARK minimizedAffinity -4.68133068
REMARK minimizedRMSD -1
REMARK  1 active torsions:
REMARK  status: ('A' for Active; 'I' for Inactive)
REMARK    1  A    between atoms: C1_2  and  C2_3 
ROOT
ATOM      1  C2  UNL d   1       0.372  -0.001   0.312  0.00  0.00    -0.076 A 
ATOM      2  C3  UNL d   1       1.773  -0.073   0.411  0.00  0.00     0.004 A 
ATOM      3  C4  UNL d   1       2.390  -0.424   1.610  0.00  0.00    -0.003 A 
ATOM      4  C5  UNL d   1       1.618  -0.710   2.730  0.00  0.00     0.000 A 
ATOM      5  C6  UNL d   1       0.227  -0.660   2.645  0.00  0.00     0.000 A 
ATOM      6  C7  UNL d   1      -0.412  -0.324   1.440  0.00  0.00    -0.073 A 
ATOM      7  C8  UNL d   1      -1.916  -0.279   1.407  0.00  0.00     0.078 C 
ENDROOT
BRANCH   1   8
ATOM      8  C1  UNL d   1      -0.240   0.412  -1.007  0.00  0.00     0.053 C 
ATOM      9  C   UNL d   1       0.142  -0.522  -2.145  0.00  0.00     0.018 C 
ENDBRANCH   1   8
TORSDOF 1
ENDMDL
