MODEL 1
REMARK minimizedAffinity -6.23670149
REMARK minimizedRMSD -1
REMARK  1 active torsions:
REMARK  status: ('A' for Active; 'I' for Inactive)
REMARK    1  A    between atoms: C1_2  and  C2_3 
ROOT
ATOM      1  C2  UNL d   1       0.553  -0.569   1.191  0.00  0.00    -0.076 A 
ATOM      2  C3  UNL d   1       0.939  -0.634   2.541  0.00  0.00     0.004 A 
ATOM      3  C4  UNL d   1       2.037  -1.396   2.938  0.00  0.00    -0.003 A 
ATOM      4  C5  UNL d   1       2.768  -2.104   1.990  0.00  0.00     0.000 A 
ATOM      5  C6  UNL d   1       2.410  -2.037   0.644  0.00  0.00     0.000 A 
ATOM      6  C7  UNL d   1       1.316  -1.261   0.225  0.00  0.00    -0.073 A 
ATOM      7  C8  UNL d   1       0.971  -1.230  -1.238  0.00  0.00     0.078 C 
ENDROOT
BRANCH   1   8
ATOM      8  C1  UNL d   1      -0.663   0.251   0.824  0.00  0.00     0.053 C 
ATOM      9  C   UNL d   1      -1.960  -0.527   0.985  0.00  0.00     0.018 C 
ENDBRANCH   1   8
TORSDOF 1
ENDMDL
