MODEL 1
REMARK minimizedAffinity -4.71727753
REMARK minimizedRMSD -1
REMARK  1 active torsions:
REMARK  status: ('A' for Active; 'I' for Inactive)
REMARK    1  A    between atoms: C1_2  and  C2_3 
ROOT
ATOM      1  C2  UNL d   1       0.559  -0.596   0.199  0.00  0.00    -0.076 A 
ATOM      2  C3  UNL d   1      -0.377  -0.216   1.176  0.00  0.00     0.004 A 
ATOM      3  C4  UNL d   1      -0.189  -0.549   2.517  0.00  0.00    -0.003 A 
ATOM      4  C5  UNL d   1       0.938  -1.266   2.902  0.00  0.00     0.000 A 
ATOM      5  C6  UNL d   1       1.886  -1.636   1.948  0.00  0.00     0.000 A 
ATOM      6  C7  UNL d   1       1.719  -1.295   0.595  0.00  0.00    -0.073 A 
ATOM      7  C8  UNL d   1       2.770  -1.724  -0.393  0.00  0.00     0.078 C 
ENDROOT
BRANCH   1   8
ATOM      8  C1  UNL d   1       0.288  -0.231  -1.243  0.00  0.00     0.053 C 
ATOM      9  C   UNL d   1       0.063   1.260  -1.435  0.00  0.00     0.018 C 
ENDBRANCH   1   8
TORSDOF 1
ENDMDL
