MODEL 1
REMARK minimizedAffinity -5.66858435
REMARK minimizedRMSD -1
REMARK  1 active torsions:
REMARK  status: ('A' for Active; 'I' for Inactive)
REMARK    1  A    between atoms: C1_2  and  C2_3 
ROOT
ATOM      1  C2  UNL d   1       0.455  -0.288   0.376  0.00  0.00    -0.076 A 
ATOM      2  C3  UNL d   1       1.714  -0.890   0.200  0.00  0.00     0.004 A 
ATOM      3  C4  UNL d   1       2.453  -1.340   1.292  0.00  0.00    -0.003 A 
ATOM      4  C5  UNL d   1       1.946  -1.196   2.579  0.00  0.00     0.000 A 
ATOM      5  C6  UNL d   1       0.692  -0.617   2.771  0.00  0.00     0.000 A 
ATOM      6  C7  UNL d   1      -0.073  -0.173   1.679  0.00  0.00    -0.073 A 
ATOM      7  C8  UNL d   1      -1.417   0.449   1.945  0.00  0.00     0.078 C 
ENDROOT
BRANCH   1   8
ATOM      8  C1  UNL d   1      -0.289   0.205  -0.844  0.00  0.00     0.053 C 
ATOM      9  C   UNL d   1       0.023   1.657  -1.169  0.00  0.00     0.018 C 
ENDBRANCH   1   8
TORSDOF 1
ENDMDL
