MODEL 1
REMARK minimizedAffinity -3.09145451
REMARK minimizedRMSD -1
REMARK  1 active torsions:
REMARK  status: ('A' for Active; 'I' for Inactive)
REMARK    1  A    between atoms: C1_2  and  C2_3 
ROOT
ATOM      1  C2  UNL d   1       0.393  -0.328   1.373  0.00  0.00    -0.076 A 
ATOM      2  C3  UNL d   1       0.986  -0.875   2.525  0.00  0.00     0.004 A 
ATOM      3  C4  UNL d   1       2.198  -1.560   2.453  0.00  0.00    -0.003 A 
ATOM      4  C5  UNL d   1       2.837  -1.709   1.227  0.00  0.00     0.000 A 
ATOM      5  C6  UNL d   1       2.273  -1.158   0.077  0.00  0.00     0.000 A 
ATOM      6  C7  UNL d   1       1.060  -0.451   0.135  0.00  0.00    -0.073 A 
ATOM      7  C8  UNL d   1       0.493   0.117  -1.137  0.00  0.00     0.078 C 
ENDROOT
BRANCH   1   8
ATOM      8  C1  UNL d   1      -0.935   0.380   1.509  0.00  0.00     0.053 C 
ATOM      9  C   UNL d   1      -2.118  -0.558   1.325  0.00  0.00     0.018 C 
ENDBRANCH   1   8
TORSDOF 1
ENDMDL
