MODEL 1
REMARK minimizedAffinity -5.04905272
REMARK minimizedRMSD -1
REMARK  1 active torsions:
REMARK  status: ('A' for Active; 'I' for Inactive)
REMARK    1  A    between atoms: C1_2  and  C2_3 
ROOT
ATOM      1  C2  UNL d   1       1.091  -0.628   0.305  0.00  0.00    -0.076 A 
ATOM      2  C3  UNL d   1       2.227  -1.106  -0.369  0.00  0.00     0.004 A 
ATOM      3  C4  UNL d   1       3.145  -1.936   0.272  0.00  0.00    -0.003 A 
ATOM      4  C5  UNL d   1       2.942  -2.302   1.598  0.00  0.00     0.000 A 
ATOM      5  C6  UNL d   1       1.810  -1.851   2.277  0.00  0.00     0.000 A 
ATOM      6  C7  UNL d   1       0.866  -1.027   1.641  0.00  0.00    -0.073 A 
ATOM      7  C8  UNL d   1      -0.332  -0.564   2.423  0.00  0.00     0.078 C 
ENDROOT
BRANCH   1   8
ATOM      8  C1  UNL d   1       0.144   0.291  -0.433  0.00  0.00     0.053 C 
ATOM      9  C   UNL d   1      -0.149  -0.188  -1.846  0.00  0.00     0.018 C 
ENDBRANCH   1   8
TORSDOF 1
ENDMDL
