MODEL 1
REMARK minimizedAffinity -5.81600952
REMARK minimizedRMSD -1
REMARK  1 active torsions:
REMARK  status: ('A' for Active; 'I' for Inactive)
REMARK    1  A    between atoms: C1_2  and  C2_3 
ROOT
ATOM      1  C2  UNL d   1       0.359  -0.615   0.587  0.00  0.00    -0.076 A 
ATOM      2  C3  UNL d   1       1.576  -1.298   0.415  0.00  0.00     0.004 A 
ATOM      3  C4  UNL d   1       2.380  -1.617   1.508  0.00  0.00    -0.003 A 
ATOM      4  C5  UNL d   1       1.980  -1.260   2.791  0.00  0.00     0.000 A 
ATOM      5  C6  UNL d   1       0.767  -0.598   2.982  0.00  0.00     0.000 A 
ATOM      6  C7  UNL d   1      -0.063  -0.282   1.893  0.00  0.00    -0.073 A 
ATOM      7  C8  UNL d   1      -1.357   0.438   2.156  0.00  0.00     0.078 C 
ENDROOT
BRANCH   1   8
ATOM      8  C1  UNL d   1      -0.458  -0.271  -0.637  0.00  0.00     0.053 C 
ATOM      9  C   UNL d   1      -0.169   1.130  -1.156  0.00  0.00     0.018 C 
ENDBRANCH   1   8
TORSDOF 1
ENDMDL
