MODEL 1
REMARK minimizedAffinity -2.02316618
REMARK minimizedRMSD -1
REMARK  1 active torsions:
REMARK  status: ('A' for Active; 'I' for Inactive)
REMARK    1  A    between atoms: C1_2  and  C2_3 
ROOT
ATOM      1  C2  UNL d   1       0.346  -0.003  -0.900  0.00  0.00    -0.081 A 
ATOM      2  C3  UNL d   1       1.177   0.205   0.208  0.00  0.00     0.006 A 
ATOM      3  C4  UNL d   1       0.720  -0.073   1.498  0.00  0.00     0.002 A 
ATOM      4  C5  UNL d   1      -0.571  -0.571   1.702  0.00  0.00    -0.080 A 
ATOM      5  C6  UNL d   1      -1.063  -0.902   3.080  0.00  0.00     0.076 C 
ATOM      6  C7  UNL d   1      -1.408  -0.762   0.598  0.00  0.00     0.002 A 
ATOM      7  C8  UNL d   1      -0.952  -0.484  -0.693  0.00  0.00     0.006 A 
ENDROOT
BRANCH   1   8
ATOM      8  C1  UNL d   1       0.857   0.234  -2.297  0.00  0.00     0.054 C 
ATOM      9  C   UNL d   1       1.133  -1.079  -3.016  0.00  0.00     0.018 C 
ENDBRANCH   1   8
TORSDOF 1
ENDMDL
