MODEL 1
REMARK minimizedAffinity -5.99412394
REMARK minimizedRMSD -1
REMARK  1 active torsions:
REMARK  status: ('A' for Active; 'I' for Inactive)
REMARK    1  A    between atoms: C1_2  and  C2_3 
ROOT
ATOM      1  C2  UNL d   1       0.391   0.049  -0.829  0.00  0.00    -0.081 A 
ATOM      2  C3  UNL d   1       1.303   0.279   0.209  0.00  0.00     0.006 A 
ATOM      3  C4  UNL d   1       0.925   0.085   1.539  0.00  0.00     0.002 A 
ATOM      4  C5  UNL d   1      -0.367  -0.350   1.855  0.00  0.00    -0.080 A 
ATOM      5  C6  UNL d   1      -0.776  -0.591   3.277  0.00  0.00     0.076 C 
ATOM      6  C7  UNL d   1      -1.283  -0.563   0.819  0.00  0.00     0.002 A 
ATOM      7  C8  UNL d   1      -0.906  -0.368  -0.512  0.00  0.00     0.006 A 
ENDROOT
BRANCH   1   8
ATOM      8  C1  UNL d   1       0.814   0.195  -2.268  0.00  0.00     0.054 C 
ATOM      9  C   UNL d   1       0.930  -1.160  -2.951  0.00  0.00     0.018 C 
ENDBRANCH   1   8
TORSDOF 1
ENDMDL
