MODEL 1
REMARK minimizedAffinity -3.95612526
REMARK minimizedRMSD -1
REMARK  1 active torsions:
REMARK  status: ('A' for Active; 'I' for Inactive)
REMARK    1  A    between atoms: C1_2  and  C2_3 
ROOT
ATOM      1  C2  UNL d   1       0.124   0.082  -0.584  0.00  0.00    -0.081 A 
ATOM      2  C3  UNL d   1       1.049  -0.004   0.464  0.00  0.00     0.006 A 
ATOM      3  C4  UNL d   1       0.623  -0.281   1.765  0.00  0.00     0.002 A 
ATOM      4  C5  UNL d   1      -0.734  -0.483   2.039  0.00  0.00    -0.080 A 
ATOM      5  C6  UNL d   1      -1.202  -0.811   3.426  0.00  0.00     0.076 C 
ATOM      6  C7  UNL d   1      -1.661  -0.380   0.996  0.00  0.00     0.002 A 
ATOM      7  C8  UNL d   1      -1.235  -0.103  -0.305  0.00  0.00     0.006 A 
ENDROOT
BRANCH   1   8
ATOM      8  C1  UNL d   1       0.587   0.315  -1.999  0.00  0.00     0.054 C 
ATOM      9  C   UNL d   1       0.889  -0.998  -2.706  0.00  0.00     0.018 C 
ENDBRANCH   1   8
TORSDOF 1
ENDMDL
