MODEL 1
REMARK minimizedAffinity -4.01256275
REMARK minimizedRMSD -1
REMARK  1 active torsions:
REMARK  status: ('A' for Active; 'I' for Inactive)
REMARK    1  A    between atoms: C1_2  and  C2_3 
ROOT
ATOM      1  C2  UNL d   1       0.404  -0.307  -0.864  0.00  0.00    -0.081 A 
ATOM      2  C3  UNL d   1       1.356   0.035   0.103  0.00  0.00     0.006 A 
ATOM      3  C4  UNL d   1       1.033  -0.006   1.461  0.00  0.00     0.002 A 
ATOM      4  C5  UNL d   1      -0.245  -0.397   1.875  0.00  0.00    -0.080 A 
ATOM      5  C6  UNL d   1      -0.596  -0.474   3.331  0.00  0.00     0.076 C 
ATOM      6  C7  UNL d   1      -1.202  -0.722   0.908  0.00  0.00     0.002 A 
ATOM      7  C8  UNL d   1      -0.880  -0.680  -0.450  0.00  0.00     0.006 A 
ENDROOT
BRANCH   1   8
ATOM      8  C1  UNL d   1       0.769  -0.326  -2.327  0.00  0.00     0.054 C 
ATOM      9  C   UNL d   1       0.838  -1.750  -2.861  0.00  0.00     0.018 C 
ENDBRANCH   1   8
TORSDOF 1
ENDMDL
