MODEL 1
REMARK minimizedAffinity -3.65350938
REMARK minimizedRMSD -1
REMARK  1 active torsions:
REMARK  status: ('A' for Active; 'I' for Inactive)
REMARK    1  A    between atoms: C1_2  and  C2_3 
ROOT
ATOM      1  C2  UNL d   1      -0.074   0.116  -0.285  0.00  0.00    -0.081 A 
ATOM      2  C3  UNL d   1      -1.431  -0.152  -0.067  0.00  0.00     0.006 A 
ATOM      3  C4  UNL d   1      -1.899  -0.433   1.218  0.00  0.00     0.002 A 
ATOM      4  C5  UNL d   1      -1.022  -0.443   2.307  0.00  0.00    -0.080 A 
ATOM      5  C6  UNL d   1      -1.517  -0.714   3.697  0.00  0.00     0.076 C 
ATOM      6  C7  UNL d   1       0.337  -0.193   2.087  0.00  0.00     0.002 A 
ATOM      7  C8  UNL d   1       0.807   0.087   0.802  0.00  0.00     0.006 A 
ENDROOT
BRANCH   1   8
ATOM      8  C1  UNL d   1       0.424   0.483  -1.660  0.00  0.00     0.054 C 
ATOM      9  C   UNL d   1       0.848  -0.752  -2.443  0.00  0.00     0.018 C 
ENDBRANCH   1   8
TORSDOF 1
ENDMDL
