MODEL 1
REMARK minimizedAffinity -5.00915766
REMARK minimizedRMSD -1
REMARK  1 active torsions:
REMARK  status: ('A' for Active; 'I' for Inactive)
REMARK    1  A    between atoms: C1_2  and  C2_3 
ROOT
ATOM      1  C2  UNL d   1       0.220   0.099  -0.962  0.00  0.00    -0.081 A 
ATOM      2  C3  UNL d   1       1.234   0.431  -0.055  0.00  0.00     0.006 A 
ATOM      3  C4  UNL d   1       1.081   0.163   1.307  0.00  0.00     0.002 A 
ATOM      4  C5  UNL d   1      -0.084  -0.448   1.784  0.00  0.00    -0.080 A 
ATOM      5  C6  UNL d   1      -0.247  -0.769   3.240  0.00  0.00     0.076 C 
ATOM      6  C7  UNL d   1      -1.104  -0.764   0.881  0.00  0.00     0.002 A 
ATOM      7  C8  UNL d   1      -0.952  -0.496  -0.481  0.00  0.00     0.006 A 
ENDROOT
BRANCH   1   8
ATOM      8  C1  UNL d   1       0.408   0.327  -2.440  0.00  0.00     0.054 C 
ATOM      9  C   UNL d   1       0.811  -0.956  -3.151  0.00  0.00     0.018 C 
ENDBRANCH   1   8
TORSDOF 1
ENDMDL
