MODEL 1
REMARK minimizedAffinity -4.47308969
REMARK minimizedRMSD -1
REMARK  1 active torsions:
REMARK  status: ('A' for Active; 'I' for Inactive)
REMARK    1  A    between atoms: C1_2  and  C2_3 
ROOT
ATOM      1  C2  UNL d   1       0.332   0.400  -0.490  0.00  0.00    -0.081 A 
ATOM      2  C3  UNL d   1       1.244   0.423   0.572  0.00  0.00     0.006 A 
ATOM      3  C4  UNL d   1       0.825   0.133   1.872  0.00  0.00     0.002 A 
ATOM      4  C5  UNL d   1      -0.511  -0.194   2.131  0.00  0.00    -0.080 A 
ATOM      5  C6  UNL d   1      -0.967  -0.538   3.517  0.00  0.00     0.076 C 
ATOM      6  C7  UNL d   1      -1.426  -0.200   1.073  0.00  0.00     0.002 A 
ATOM      7  C8  UNL d   1      -1.007   0.091  -0.228  0.00  0.00     0.006 A 
ENDROOT
BRANCH   1   8
ATOM      8  C1  UNL d   1       0.794   0.650  -1.903  0.00  0.00     0.054 C 
ATOM      9  C   UNL d   1       0.954  -0.654  -2.672  0.00  0.00     0.018 C 
ENDBRANCH   1   8
TORSDOF 1
ENDMDL
