MODEL 1
REMARK minimizedAffinity -5.95589542
REMARK minimizedRMSD -1
REMARK  1 active torsions:
REMARK  status: ('A' for Active; 'I' for Inactive)
REMARK    1  A    between atoms: C1_2  and  C2_3 
ROOT
ATOM      1  C2  UNL d   1      -0.488   0.005   0.041  0.00  0.00    -0.081 A 
ATOM      2  C3  UNL d   1      -1.837  -0.126   0.396  0.00  0.00     0.006 A 
ATOM      3  C4  UNL d   1      -2.209  -0.228   1.739  0.00  0.00     0.002 A 
ATOM      4  C5  UNL d   1      -1.241  -0.193   2.748  0.00  0.00    -0.080 A 
ATOM      5  C6  UNL d   1      -1.629  -0.271   4.195  0.00  0.00     0.076 C 
ATOM      6  C7  UNL d   1       0.108  -0.079   2.393  0.00  0.00     0.002 A 
ATOM      7  C8  UNL d   1       0.480   0.022   1.051  0.00  0.00     0.006 A 
ENDROOT
BRANCH   1   8
ATOM      8  C1  UNL d   1      -0.090   0.181  -1.402  0.00  0.00     0.054 C 
ATOM      9  C   UNL d   1      -1.166   0.915  -2.188  0.00  0.00     0.018 C 
ENDBRANCH   1   8
TORSDOF 1
ENDMDL
