MODEL 1
REMARK minimizedAffinity -5.62822247
REMARK minimizedRMSD -1
REMARK  1 active torsions:
REMARK  status: ('A' for Active; 'I' for Inactive)
REMARK    1  A    between atoms: C1_2  and  C2_3 
ROOT
ATOM      1  C2  UNL d   1      -0.086   0.332  -0.372  0.00  0.00    -0.081 A 
ATOM      2  C3  UNL d   1      -1.484   0.271  -0.340  0.00  0.00     0.006 A 
ATOM      3  C4  UNL d   1      -2.159   0.112   0.872  0.00  0.00     0.002 A 
ATOM      4  C5  UNL d   1      -1.448   0.019   2.073  0.00  0.00    -0.080 A 
ATOM      5  C6  UNL d   1      -2.162  -0.122   3.385  0.00  0.00     0.076 C 
ATOM      6  C7  UNL d   1      -0.050   0.062   2.040  0.00  0.00     0.002 A 
ATOM      7  C8  UNL d   1       0.625   0.221   0.828  0.00  0.00     0.006 A 
ENDROOT
BRANCH   1   8
ATOM      8  C1  UNL d   1       0.642   0.569  -1.670  0.00  0.00     0.054 C 
ATOM      9  C   UNL d   1       0.994  -0.744  -2.354  0.00  0.00     0.018 C 
ENDBRANCH   1   8
TORSDOF 1
ENDMDL
