MODEL 1
REMARK minimizedAffinity -4.45503235
REMARK minimizedRMSD -1
REMARK  1 active torsions:
REMARK  status: ('A' for Active; 'I' for Inactive)
REMARK    1  A    between atoms: C1_2  and  C2_3 
ROOT
ATOM      1  C2  UNL d   1       0.169   0.373  -0.630  0.00  0.00    -0.081 A 
ATOM      2  C3  UNL d   1       1.197   0.355   0.321  0.00  0.00     0.006 A 
ATOM      3  C4  UNL d   1       0.922   0.052   1.656  0.00  0.00     0.002 A 
ATOM      4  C5  UNL d   1      -0.384  -0.245   2.062  0.00  0.00    -0.080 A 
ATOM      5  C6  UNL d   1      -0.688  -0.602   3.487  0.00  0.00     0.076 C 
ATOM      6  C7  UNL d   1      -1.414  -0.210   1.116  0.00  0.00     0.002 A 
ATOM      7  C8  UNL d   1      -1.139   0.093  -0.219  0.00  0.00     0.006 A 
ENDROOT
BRANCH   1   8
ATOM      8  C1  UNL d   1       0.472   0.636  -2.083  0.00  0.00     0.054 C 
ATOM      9  C   UNL d   1       1.044  -0.601  -2.761  0.00  0.00     0.018 C 
ENDBRANCH   1   8
TORSDOF 1
ENDMDL
