MODEL 1
REMARK minimizedAffinity -3.005018
REMARK minimizedRMSD -1
REMARK  1 active torsions:
REMARK  status: ('A' for Active; 'I' for Inactive)
REMARK    1  A    between atoms: C1_2  and  C2_3 
ROOT
ATOM      1  C2  UNL d   1      -0.094   0.279  -0.881  0.00  0.00    -0.081 A 
ATOM      2  C3  UNL d   1       1.038   0.442  -0.073  0.00  0.00     0.006 A 
ATOM      3  C4  UNL d   1       0.984   0.142   1.290  0.00  0.00     0.002 A 
ATOM      4  C5  UNL d   1      -0.199  -0.331   1.866  0.00  0.00    -0.080 A 
ATOM      5  C6  UNL d   1      -0.263  -0.685   3.322  0.00  0.00     0.076 C 
ATOM      6  C7  UNL d   1      -1.335  -0.477   1.063  0.00  0.00     0.002 A 
ATOM      7  C8  UNL d   1      -1.282  -0.177  -0.300  0.00  0.00     0.006 A 
ENDROOT
BRANCH   1   8
ATOM      8  C1  UNL d   1      -0.020   0.540  -2.364  0.00  0.00     0.054 C 
ATOM      9  C   UNL d   1       1.023  -0.346  -3.031  0.00  0.00     0.018 C 
ENDBRANCH   1   8
TORSDOF 1
ENDMDL
