MODEL 1
REMARK minimizedAffinity -3.78197789
REMARK minimizedRMSD -1
REMARK  1 active torsions:
REMARK  status: ('A' for Active; 'I' for Inactive)
REMARK    1  A    between atoms: C1_2  and  C2_3 
ROOT
ATOM      1  C2  UNL d   1       0.090   0.276   2.054  0.00  0.00    -0.081 A 
ATOM      2  C3  UNL d   1       1.380   0.470   1.545  0.00  0.00     0.006 A 
ATOM      3  C4  UNL d   1       1.621   0.382   0.172  0.00  0.00     0.002 A 
ATOM      4  C5  UNL d   1       0.575   0.106  -0.716  0.00  0.00    -0.080 A 
ATOM      5  C6  UNL d   1       0.815   0.039  -2.195  0.00  0.00     0.076 C 
ATOM      6  C7  UNL d   1      -0.710  -0.105  -0.206  0.00  0.00     0.002 A 
ATOM      7  C8  UNL d   1      -0.951  -0.017   1.167  0.00  0.00     0.006 A 
ENDROOT
BRANCH   1   8
ATOM      8  C1  UNL d   1      -0.185   0.435   3.527  0.00  0.00     0.054 C 
ATOM      9  C   UNL d   1      -1.332  -0.459   3.975  0.00  0.00     0.018 C 
ENDBRANCH   1   8
TORSDOF 1
ENDMDL
