MODEL 1
REMARK minimizedAffinity -1.11621726
REMARK minimizedRMSD -1
REMARK  1 active torsions:
REMARK  status: ('A' for Active; 'I' for Inactive)
REMARK    1  A    between atoms: C1_2  and  C2_3 
ROOT
ATOM      1  C2  UNL d   1      -0.055   0.611  -0.596  0.00  0.00    -0.081 A 
ATOM      2  C3  UNL d   1       0.805   0.562   0.508  0.00  0.00     0.006 A 
ATOM      3  C4  UNL d   1       0.374   0.017   1.719  0.00  0.00     0.002 A 
ATOM      4  C5  UNL d   1      -0.922  -0.496   1.845  0.00  0.00    -0.080 A 
ATOM      5  C6  UNL d   1      -1.388  -1.112   3.131  0.00  0.00     0.076 C 
ATOM      6  C7  UNL d   1      -1.787  -0.433   0.748  0.00  0.00     0.002 A 
ATOM      7  C8  UNL d   1      -1.356   0.113  -0.463  0.00  0.00     0.006 A 
ENDROOT
BRANCH   1   8
ATOM      8  C1  UNL d   1       0.428   1.139  -1.922  0.00  0.00     0.054 C 
ATOM      9  C   UNL d   1       1.446   0.200  -2.554  0.00  0.00     0.018 C 
ENDBRANCH   1   8
TORSDOF 1
ENDMDL
