MODEL 1
REMARK minimizedAffinity -5.80401564
REMARK minimizedRMSD -1
REMARK  0 active torsions:
REMARK  status: ('A' for Active; 'I' for Inactive)
ROOT
ATOM      1  O1  BZF d   1       2.248  -0.317   0.827  0.00  0.00    -0.204 OA
ATOM      2  C2  BZF d   1       1.341  -1.312   0.515  0.00  0.00     0.174 A 
ATOM      3  C3  BZF d   1       0.172  -0.781   0.104  0.00  0.00    -0.012 A 
ATOM      4  C3A BZF d   1       0.390   0.633   0.075  0.00  0.00    -0.107 A 
ATOM      5  C4  BZF d   1      -0.395   1.697  -0.265  0.00  0.00     0.055 A 
ATOM      6  C5  BZF d   1       0.095   2.956  -0.113  0.00  0.00    -0.016 A 
ATOM      7  C6  BZF d   1       1.362   3.186   0.382  0.00  0.00     0.022 A 
ATOM      8  C7  BZF d   1       2.180   2.162   0.729  0.00  0.00     0.029 A 
ATOM      9  C7A BZF d   1       1.699   0.888   0.545  0.00  0.00     0.058 A 
ENDROOT
TORSDOF 0
ENDMDL
