MODEL 1
REMARK minimizedAffinity -5.54206896
REMARK minimizedRMSD -1
REMARK  0 active torsions:
REMARK  status: ('A' for Active; 'I' for Inactive)
ROOT
ATOM      1  O1  BZF d   1       0.802  -0.756   0.303  0.00  0.00    -0.204 OA
ATOM      2  C2  BZF d   1      -0.479  -1.185   0.593  0.00  0.00     0.174 A 
ATOM      3  C3  BZF d   1      -1.327  -0.140   0.675  0.00  0.00    -0.012 A 
ATOM      4  C3A BZF d   1      -0.545   1.007   0.329  0.00  0.00    -0.107 A 
ATOM      5  C4  BZF d   1      -0.830   2.338   0.216  0.00  0.00     0.055 A 
ATOM      6  C5  BZF d   1       0.176   3.207  -0.069  0.00  0.00    -0.016 A 
ATOM      7  C6  BZF d   1       1.477   2.780  -0.241  0.00  0.00     0.022 A 
ATOM      8  C7  BZF d   1       1.807   1.469  -0.143  0.00  0.00     0.029 A 
ATOM      9  C7A BZF d   1       0.787   0.585   0.112  0.00  0.00     0.058 A 
ENDROOT
TORSDOF 0
ENDMDL
