MODEL 1
REMARK minimizedAffinity -2.14114642
REMARK minimizedRMSD -1
REMARK  0 active torsions:
REMARK  status: ('A' for Active; 'I' for Inactive)
ROOT
ATOM      1  O1  BZF d   1      -0.815   2.894   1.098  0.00  0.00    -0.204 OA
ATOM      2  C2  BZF d   1       0.320   3.582   0.714  0.00  0.00     0.174 A 
ATOM      3  C3  BZF d   1       1.288   2.728   0.323  0.00  0.00    -0.012 A 
ATOM      4  C3A BZF d   1       0.690   1.429   0.384  0.00  0.00    -0.107 A 
ATOM      5  C4  BZF d   1       1.144   0.173   0.100  0.00  0.00     0.055 A 
ATOM      6  C5  BZF d   1       0.333  -0.892   0.336  0.00  0.00    -0.016 A 
ATOM      7  C6  BZF d   1      -0.934  -0.737   0.859  0.00  0.00     0.022 A 
ATOM      8  C7  BZF d   1      -1.430   0.490   1.152  0.00  0.00     0.029 A 
ATOM      9  C7A BZF d   1      -0.625   1.570   0.883  0.00  0.00     0.058 A 
ENDROOT
TORSDOF 0
ENDMDL
