MODEL 1
REMARK minimizedAffinity -6.90918398
REMARK minimizedRMSD -1
REMARK  0 active torsions:
REMARK  status: ('A' for Active; 'I' for Inactive)
ROOT
ATOM      1  O1  BZF d   1       1.149  -0.665   0.609  0.00  0.00    -0.204 OA
ATOM      2  C2  BZF d   1      -0.193  -0.987   0.645  0.00  0.00     0.174 A 
ATOM      3  C3  BZF d   1      -0.954   0.126   0.616  0.00  0.00    -0.012 A 
ATOM      4  C3A BZF d   1      -0.030   1.209   0.466  0.00  0.00    -0.107 A 
ATOM      5  C4  BZF d   1      -0.180   2.562   0.359  0.00  0.00     0.055 A 
ATOM      6  C5  BZF d   1       0.929   3.346   0.297  0.00  0.00    -0.016 A 
ATOM      7  C6  BZF d   1       2.200   2.811   0.345  0.00  0.00     0.022 A 
ATOM      8  C7  BZF d   1       2.398   1.474   0.446  0.00  0.00     0.029 A 
ATOM      9  C7A BZF d   1       1.280   0.677   0.475  0.00  0.00     0.058 A 
ENDROOT
TORSDOF 0
ENDMDL
