MODEL 1
REMARK minimizedAffinity -5.86182642
REMARK minimizedRMSD -1
REMARK  0 active torsions:
REMARK  status: ('A' for Active; 'I' for Inactive)
ROOT
ATOM      1  O1  BZF d   1       1.022  -0.962   0.661  0.00  0.00    -0.204 OA
ATOM      2  C2  BZF d   1      -0.346  -1.129   0.760  0.00  0.00     0.174 A 
ATOM      3  C3  BZF d   1      -0.966   0.063   0.879  0.00  0.00    -0.012 A 
ATOM      4  C3A BZF d   1       0.072   1.041   0.760  0.00  0.00    -0.107 A 
ATOM      5  C4  BZF d   1       0.083   2.406   0.780  0.00  0.00     0.055 A 
ATOM      6  C5  BZF d   1       1.273   3.058   0.711  0.00  0.00    -0.016 A 
ATOM      7  C6  BZF d   1       2.470   2.378   0.626  0.00  0.00     0.022 A 
ATOM      8  C7  BZF d   1       2.510   1.023   0.598  0.00  0.00     0.029 A 
ATOM      9  C7A BZF d   1       1.306   0.362   0.634  0.00  0.00     0.058 A 
ENDROOT
TORSDOF 0
ENDMDL
