MODEL 1
REMARK minimizedAffinity -6.71774006
REMARK minimizedRMSD -1
REMARK  0 active torsions:
REMARK  status: ('A' for Active; 'I' for Inactive)
ROOT
ATOM      1  O1  BZF d   1       1.148  -0.848   0.077  0.00  0.00    -0.204 OA
ATOM      2  C2  BZF d   1      -0.215  -1.073   0.061  0.00  0.00     0.174 A 
ATOM      3  C3  BZF d   1      -0.893   0.086   0.187  0.00  0.00    -0.012 A 
ATOM      4  C3A BZF d   1       0.107   1.108   0.196  0.00  0.00    -0.107 A 
ATOM      5  C4  BZF d   1       0.057   2.470   0.282  0.00  0.00     0.055 A 
ATOM      6  C5  BZF d   1       1.220   3.172   0.338  0.00  0.00    -0.016 A 
ATOM      7  C6  BZF d   1       2.448   2.544   0.315  0.00  0.00     0.022 A 
ATOM      8  C7  BZF d   1       2.549   1.196   0.225  0.00  0.00     0.029 A 
ATOM      9  C7A BZF d   1       1.376   0.486   0.136  0.00  0.00     0.058 A 
ENDROOT
TORSDOF 0
ENDMDL
