MODEL 1
REMARK minimizedAffinity -3.72809482
REMARK minimizedRMSD -1
REMARK  0 active torsions:
REMARK  status: ('A' for Active; 'I' for Inactive)
ROOT
ATOM      1  O1  BZF d   1       0.746  -0.233  -0.159  0.00  0.00    -0.204 OA
ATOM      2  C2  BZF d   1      -0.590  -0.563  -0.039  0.00  0.00     0.174 A 
ATOM      3  C3  BZF d   1      -1.306   0.494   0.396  0.00  0.00    -0.012 A 
ATOM      4  C3A BZF d   1      -0.373   1.576   0.470  0.00  0.00    -0.107 A 
ATOM      5  C4  BZF d   1      -0.487   2.891   0.823  0.00  0.00     0.055 A 
ATOM      6  C5  BZF d   1       0.630   3.663   0.859  0.00  0.00    -0.016 A 
ATOM      7  C6  BZF d   1       1.876   3.154   0.554  0.00  0.00     0.022 A 
ATOM      8  C7  BZF d   1       2.037   1.858   0.194  0.00  0.00     0.029 A 
ATOM      9  C7A BZF d   1       0.906   1.082   0.125  0.00  0.00     0.058 A 
ENDROOT
TORSDOF 0
ENDMDL
