MODEL 1
REMARK minimizedAffinity -4.95842552
REMARK minimizedRMSD -1
REMARK  0 active torsions:
REMARK  status: ('A' for Active; 'I' for Inactive)
ROOT
ATOM      1  O1  BZF d   1      -0.834  -0.304   1.092  0.00  0.00    -0.204 OA
ATOM      2  C2  BZF d   1      -0.025  -1.331   0.646  0.00  0.00     0.174 A 
ATOM      3  C3  BZF d   1       0.970  -0.855  -0.131  0.00  0.00    -0.012 A 
ATOM      4  C3A BZF d   1       0.824   0.568  -0.097  0.00  0.00    -0.107 A 
ATOM      5  C4  BZF d   1       1.522   1.597  -0.662  0.00  0.00     0.055 A 
ATOM      6  C5  BZF d   1       1.075   2.870  -0.493  0.00  0.00    -0.016 A 
ATOM      7  C6  BZF d   1      -0.067   3.148   0.228  0.00  0.00     0.022 A 
ATOM      8  C7  BZF d   1      -0.790   2.162   0.811  0.00  0.00     0.029 A 
ATOM      9  C7A BZF d   1      -0.323   0.878   0.670  0.00  0.00     0.058 A 
ENDROOT
TORSDOF 0
ENDMDL
