MODEL 1
REMARK minimizedAffinity -5.47097778
REMARK minimizedRMSD -1
REMARK  0 active torsions:
REMARK  status: ('A' for Active; 'I' for Inactive)
ROOT
ATOM      1  O1  BZF d   1       1.175  -0.272   0.403  0.00  0.00    -0.204 OA
ATOM      2  C2  BZF d   1      -0.157  -0.569   0.191  0.00  0.00     0.174 A 
ATOM      3  C3  BZF d   1      -0.894   0.558   0.125  0.00  0.00    -0.012 A 
ATOM      4  C3A BZF d   1       0.049   1.630   0.214  0.00  0.00    -0.107 A 
ATOM      5  C4  BZF d   1      -0.071   2.990   0.190  0.00  0.00     0.055 A 
ATOM      6  C5  BZF d   1       1.038   3.754   0.374  0.00  0.00    -0.016 A 
ATOM      7  C6  BZF d   1       2.279   3.192   0.589  0.00  0.00     0.022 A 
ATOM      8  C7  BZF d   1       2.449   1.848   0.616  0.00  0.00     0.029 A 
ATOM      9  C7A BZF d   1       1.335   1.073   0.398  0.00  0.00     0.058 A 
ENDROOT
TORSDOF 0
ENDMDL
