MODEL 1
REMARK minimizedAffinity -1.16410959
REMARK minimizedRMSD -1
REMARK  0 active torsions:
REMARK  status: ('A' for Active; 'I' for Inactive)
ROOT
ATOM      1  O1  BZF d   1       1.224  -0.343   0.184  0.00  0.00    -0.204 OA
ATOM      2  C2  BZF d   1      -0.080  -0.755  -0.010  0.00  0.00     0.174 A 
ATOM      3  C3  BZF d   1      -0.940   0.261   0.205  0.00  0.00    -0.012 A 
ATOM      4  C3A BZF d   1      -0.118   1.402   0.466  0.00  0.00    -0.107 A 
ATOM      5  C4  BZF d   1      -0.389   2.712   0.738  0.00  0.00     0.055 A 
ATOM      6  C5  BZF d   1       0.640   3.555   1.017  0.00  0.00    -0.016 A 
ATOM      7  C6  BZF d   1       1.949   3.122   1.038  0.00  0.00     0.022 A 
ATOM      8  C7  BZF d   1       2.268   1.832   0.770  0.00  0.00     0.029 A 
ATOM      9  C7A BZF d   1       1.234   0.985   0.455  0.00  0.00     0.058 A 
ENDROOT
TORSDOF 0
ENDMDL
