MODEL 1
REMARK minimizedAffinity -5.53367949
REMARK minimizedRMSD -1
REMARK  0 active torsions:
REMARK  status: ('A' for Active; 'I' for Inactive)
ROOT
ATOM      1  O1  BZF d   1       0.655  -0.276   0.469  0.00  0.00    -0.204 OA
ATOM      2  C2  BZF d   1      -0.700  -0.546   0.502  0.00  0.00     0.174 A 
ATOM      3  C3  BZF d   1      -1.416   0.597   0.487  0.00  0.00    -0.012 A 
ATOM      4  C3A BZF d   1      -0.451   1.644   0.348  0.00  0.00    -0.107 A 
ATOM      5  C4  BZF d   1      -0.546   3.003   0.256  0.00  0.00     0.055 A 
ATOM      6  C5  BZF d   1       0.592   3.743   0.203  0.00  0.00    -0.016 A 
ATOM      7  C6  BZF d   1       1.841   3.158   0.244  0.00  0.00     0.022 A 
ATOM      8  C7  BZF d   1       1.986   1.814   0.330  0.00  0.00     0.029 A 
ATOM      9  C7A BZF d   1       0.838   1.061   0.350  0.00  0.00     0.058 A 
ENDROOT
TORSDOF 0
ENDMDL
