MODEL 1
REMARK minimizedAffinity -3.32673788
REMARK minimizedRMSD -1
REMARK  0 active torsions:
REMARK  status: ('A' for Active; 'I' for Inactive)
ROOT
ATOM      1  O1  BZF d   1       0.690  -0.589  -0.169  0.00  0.00    -0.204 OA
ATOM      2  C2  BZF d   1      -0.565  -0.928   0.300  0.00  0.00     0.174 A 
ATOM      3  C3  BZF d   1      -1.219   0.163   0.747  0.00  0.00    -0.012 A 
ATOM      4  C3A BZF d   1      -0.353   1.265   0.461  0.00  0.00    -0.107 A 
ATOM      5  C4  BZF d   1      -0.453   2.613   0.655  0.00  0.00     0.055 A 
ATOM      6  C5  BZF d   1       0.600   3.408   0.330  0.00  0.00    -0.016 A 
ATOM      7  C6  BZF d   1       1.769   2.888  -0.186  0.00  0.00     0.022 A 
ATOM      8  C7  BZF d   1       1.914   1.558  -0.401  0.00  0.00     0.029 A 
ATOM      9  C7A BZF d   1       0.839   0.756  -0.104  0.00  0.00     0.058 A 
ENDROOT
TORSDOF 0
ENDMDL
