MODEL 1
REMARK minimizedAffinity -6.31632328
REMARK minimizedRMSD -1
REMARK  0 active torsions:
REMARK  status: ('A' for Active; 'I' for Inactive)
ROOT
ATOM      1  O1  BZF d   1       0.621  -0.743  -0.045  0.00  0.00    -0.204 OA
ATOM      2  C2  BZF d   1      -0.756  -0.770  -0.150  0.00  0.00     0.174 A 
ATOM      3  C3  BZF d   1      -1.276   0.455   0.070  0.00  0.00    -0.012 A 
ATOM      4  C3A BZF d   1      -0.148   1.319   0.237  0.00  0.00    -0.107 A 
ATOM      5  C4  BZF d   1      -0.018   2.658   0.467  0.00  0.00     0.055 A 
ATOM      6  C5  BZF d   1       1.224   3.179   0.653  0.00  0.00    -0.016 A 
ATOM      7  C6  BZF d   1       2.354   2.389   0.620  0.00  0.00     0.022 A 
ATOM      8  C7  BZF d   1       2.276   1.056   0.390  0.00  0.00     0.029 A 
ATOM      9  C7A BZF d   1       1.025   0.532   0.169  0.00  0.00     0.058 A 
ENDROOT
TORSDOF 0
ENDMDL
