MODEL 1
REMARK minimizedAffinity -4.27312183
REMARK minimizedRMSD -1
REMARK  0 active torsions:
REMARK  status: ('A' for Active; 'I' for Inactive)
ROOT
ATOM      1  O1  BZF d   1      -1.645  -1.624  -2.760  0.00  0.00    -0.204 OA
ATOM      2  C2  BZF d   1      -0.941  -2.811  -2.700  0.00  0.00     0.174 A 
ATOM      3  C3  BZF d   1      -0.078  -2.803  -1.663  0.00  0.00    -0.012 A 
ATOM      4  C3A BZF d   1      -0.321  -1.569  -0.981  0.00  0.00    -0.107 A 
ATOM      5  C4  BZF d   1       0.213  -0.993   0.137  0.00  0.00     0.055 A 
ATOM      6  C5  BZF d   1      -0.192   0.253   0.495  0.00  0.00    -0.016 A 
ATOM      7  C6  BZF d   1      -1.124   0.954  -0.242  0.00  0.00     0.022 A 
ATOM      8  C7  BZF d   1      -1.685   0.422  -1.355  0.00  0.00     0.029 A 
ATOM      9  C7A BZF d   1      -1.302  -0.850  -1.702  0.00  0.00     0.058 A 
ENDROOT
TORSDOF 0
ENDMDL
