MODEL 1
REMARK minimizedAffinity -3.64561081
REMARK minimizedRMSD -1
REMARK  0 active torsions:
REMARK  status: ('A' for Active; 'I' for Inactive)
ROOT
ATOM      1  O1  BZF d   1       1.786  -0.570   0.383  0.00  0.00    -0.204 OA
ATOM      2  C2  BZF d   1       1.280  -1.807   0.732  0.00  0.00     0.174 A 
ATOM      3  C3  BZF d   1      -0.037  -1.722   1.014  0.00  0.00    -0.012 A 
ATOM      4  C3A BZF d   1      -0.394  -0.364   0.740  0.00  0.00    -0.107 A 
ATOM      5  C4  BZF d   1      -1.567   0.332   0.812  0.00  0.00     0.055 A 
ATOM      6  C5  BZF d   1      -1.562   1.664   0.545  0.00  0.00    -0.016 A 
ATOM      7  C6  BZF d   1      -0.404   2.333   0.208  0.00  0.00     0.022 A 
ATOM      8  C7  BZF d   1       0.783   1.685   0.119  0.00  0.00     0.029 A 
ATOM      9  C7A BZF d   1       0.776   0.332   0.356  0.00  0.00     0.058 A 
ENDROOT
TORSDOF 0
ENDMDL
