MODEL 1
REMARK minimizedAffinity -6.02456903
REMARK minimizedRMSD -1
REMARK  0 active torsions:
REMARK  status: ('A' for Active; 'I' for Inactive)
ROOT
ATOM      1  O1  BZF d   1       0.652  -0.155   0.070  0.00  0.00    -0.204 OA
ATOM      2  C2  BZF d   1      -0.711  -0.371   0.139  0.00  0.00     0.174 A 
ATOM      3  C3  BZF d   1      -1.376   0.797   0.245  0.00  0.00    -0.012 A 
ATOM      4  C3A BZF d   1      -0.373   1.812   0.151  0.00  0.00    -0.107 A 
ATOM      5  C4  BZF d   1      -0.412   3.177   0.173  0.00  0.00     0.055 A 
ATOM      6  C5  BZF d   1       0.754   3.872   0.132  0.00  0.00    -0.016 A 
ATOM      7  C6  BZF d   1       1.977   3.236   0.073  0.00  0.00     0.022 A 
ATOM      8  C7  BZF d   1       2.067   1.884   0.044  0.00  0.00     0.029 A 
ATOM      9  C7A BZF d   1       0.888   1.179   0.052  0.00  0.00     0.058 A 
ENDROOT
TORSDOF 0
ENDMDL
