MODEL 1
REMARK minimizedAffinity -4.91003275
REMARK minimizedRMSD -1
REMARK  0 active torsions:
REMARK  status: ('A' for Active; 'I' for Inactive)
ROOT
ATOM      1  O1  BZF d   1       1.070  -0.255   0.563  0.00  0.00    -0.204 OA
ATOM      2  C2  BZF d   1      -0.220  -0.723   0.406  0.00  0.00     0.174 A 
ATOM      3  C3  BZF d   1      -1.089   0.302   0.285  0.00  0.00    -0.012 A 
ATOM      4  C3A BZF d   1      -0.280   1.482   0.280  0.00  0.00    -0.107 A 
ATOM      5  C4  BZF d   1      -0.563   2.814   0.170  0.00  0.00     0.055 A 
ATOM      6  C5  BZF d   1       0.449   3.715   0.276  0.00  0.00    -0.016 A 
ATOM      7  C6  BZF d   1       1.753   3.320   0.495  0.00  0.00     0.022 A 
ATOM      8  C7  BZF d   1       2.083   2.010   0.605  0.00  0.00     0.029 A 
ATOM      9  C7A BZF d   1       1.068   1.096   0.466  0.00  0.00     0.058 A 
ENDROOT
TORSDOF 0
ENDMDL
