MODEL 1
REMARK minimizedAffinity -1.95937049
REMARK minimizedRMSD -1
REMARK  0 active torsions:
REMARK  status: ('A' for Active; 'I' for Inactive)
ROOT
ATOM      1  O1  BZF d   1       1.211  -0.445  -0.683  0.00  0.00    -0.204 OA
ATOM      2  C2  BZF d   1       0.359  -1.526  -0.560  0.00  0.00     0.174 A 
ATOM      3  C3  BZF d   1      -0.808  -1.153   0.005  0.00  0.00    -0.012 A 
ATOM      4  C3A BZF d   1      -0.712   0.266   0.165  0.00  0.00    -0.107 A 
ATOM      5  C4  BZF d   1      -1.563   1.214   0.656  0.00  0.00     0.055 A 
ATOM      6  C5  BZF d   1      -1.138   2.502   0.740  0.00  0.00    -0.016 A 
ATOM      7  C6  BZF d   1       0.131   2.875   0.348  0.00  0.00     0.022 A 
ATOM      8  C7  BZF d   1       1.008   1.971  -0.150  0.00  0.00     0.029 A 
ATOM      9  C7A BZF d   1       0.570   0.674  -0.268  0.00  0.00     0.058 A 
ENDROOT
TORSDOF 0
ENDMDL
