MODEL 1
REMARK minimizedAffinity 2.3111999
REMARK minimizedRMSD -1
REMARK  0 active torsions:
REMARK  status: ('A' for Active; 'I' for Inactive)
ROOT
ATOM      1  C   UNL d   1      -0.615   0.025   1.265  0.00  0.00     0.023 A 
ATOM      2  C1  UNL d   1      -1.383  -0.854   2.028  0.00  0.00     0.003 A 
ATOM      3  C2  UNL d   1      -0.787  -1.598   3.049  0.00  0.00     0.048 A 
ATOM      4  C3  UNL d   1       0.577  -1.456   3.302  0.00  0.00     0.023 A 
ATOM      5  C4  UNL d   1       1.349  -0.577   2.542  0.00  0.00     0.048 A 
ATOM      6  C5  UNL d   1       0.749   0.164   1.521  0.00  0.00     0.003 A 
ATOM      7  I   UNL d   1       1.465  -2.561   4.822  0.00  0.00    -0.146 I 
ENDROOT
TORSDOF 0
ENDMDL
