MODEL 1
REMARK minimizedAffinity 1.79734719
REMARK minimizedRMSD -1
REMARK  0 active torsions:
REMARK  status: ('A' for Active; 'I' for Inactive)
ROOT
ATOM      1  C   UNL d   1       1.537  -0.915   3.316  0.00  0.00     0.023 A 
ATOM      2  C1  UNL d   1       0.685  -0.052   2.627  0.00  0.00     0.003 A 
ATOM      3  C2  UNL d   1      -0.679  -0.337   2.540  0.00  0.00     0.048 A 
ATOM      4  C3  UNL d   1      -1.185  -1.487   3.145  0.00  0.00     0.023 A 
ATOM      5  C4  UNL d   1      -0.336  -2.353   3.836  0.00  0.00     0.048 A 
ATOM      6  C5  UNL d   1       1.027  -2.065   3.919  0.00  0.00     0.003 A 
ATOM      7  I   UNL d   1      -3.215  -1.913   3.018  0.00  0.00    -0.146 I 
ENDROOT
TORSDOF 0
ENDMDL
