MODEL 1
REMARK minimizedAffinity 0.990435839
REMARK minimizedRMSD -1
REMARK  0 active torsions:
REMARK  status: ('A' for Active; 'I' for Inactive)
ROOT
ATOM      1  C   UNL d   1      -0.985   0.300   1.286  0.00  0.00     0.023 A 
ATOM      2  C1  UNL d   1      -1.668  -0.242   2.376  0.00  0.00     0.003 A 
ATOM      3  C2  UNL d   1      -0.961  -0.883   3.395  0.00  0.00     0.048 A 
ATOM      4  C3  UNL d   1       0.428  -0.979   3.319  0.00  0.00     0.023 A 
ATOM      5  C4  UNL d   1       1.115  -0.438   2.231  0.00  0.00     0.048 A 
ATOM      6  C5  UNL d   1       0.404   0.202   1.214  0.00  0.00     0.003 A 
ATOM      7  I   UNL d   1       1.482  -1.933   4.835  0.00  0.00    -0.146 I 
ENDROOT
TORSDOF 0
ENDMDL
