MODEL 1
REMARK minimizedAffinity 1.35934186
REMARK minimizedRMSD -1
REMARK  0 active torsions:
REMARK  status: ('A' for Active; 'I' for Inactive)
ROOT
ATOM      1  C   UNL d   1       1.900  -1.163   3.382  0.00  0.00     0.023 A 
ATOM      2  C1  UNL d   1       1.215  -0.711   2.254  0.00  0.00     0.003 A 
ATOM      3  C2  UNL d   1      -0.179  -0.781   2.207  0.00  0.00     0.048 A 
ATOM      4  C3  UNL d   1      -0.882  -1.302   3.292  0.00  0.00     0.023 A 
ATOM      5  C4  UNL d   1      -0.201  -1.753   4.424  0.00  0.00     0.048 A 
ATOM      6  C5  UNL d   1       1.192  -1.683   4.466  0.00  0.00     0.003 A 
ATOM      7  I   UNL d   1      -2.957  -1.406   3.225  0.00  0.00    -0.146 I 
ENDROOT
TORSDOF 0
ENDMDL
