MODEL 1
REMARK minimizedAffinity 1.49896836
REMARK minimizedRMSD -1
REMARK  0 active torsions:
REMARK  status: ('A' for Active; 'I' for Inactive)
ROOT
ATOM      1  C   UNL d   1      -1.150  -2.122   4.772  0.00  0.00     0.023 A 
ATOM      2  C1  UNL d   1       0.232  -2.116   4.958  0.00  0.00     0.003 A 
ATOM      3  C2  UNL d   1       1.065  -1.541   3.996  0.00  0.00     0.048 A 
ATOM      4  C3  UNL d   1       0.508  -0.972   2.851  0.00  0.00     0.023 A 
ATOM      5  C4  UNL d   1      -0.875  -0.974   2.662  0.00  0.00     0.048 A 
ATOM      6  C5  UNL d   1      -1.703  -1.552   3.626  0.00  0.00     0.003 A 
ATOM      7  I   UNL d   1       1.745  -0.114   1.418  0.00  0.00    -0.146 I 
ENDROOT
TORSDOF 0
ENDMDL
