MODEL 1
REMARK minimizedAffinity 2.48116231
REMARK minimizedRMSD -1
REMARK  0 active torsions:
REMARK  status: ('A' for Active; 'I' for Inactive)
ROOT
ATOM      1  C   UNL d   1       4.582   2.240   3.436  0.00  0.00     0.023 A 
ATOM      2  C1  UNL d   1       4.367   1.265   4.411  0.00  0.00     0.003 A 
ATOM      3  C2  UNL d   1       3.415   0.265   4.201  0.00  0.00     0.048 A 
ATOM      4  C3  UNL d   1       2.683   0.245   3.015  0.00  0.00     0.023 A 
ATOM      5  C4  UNL d   1       2.896   1.217   2.036  0.00  0.00     0.048 A 
ATOM      6  C5  UNL d   1       3.848   2.216   2.250  0.00  0.00     0.003 A 
ATOM      7  I   UNL d   1       1.267  -1.244   2.701  0.00  0.00    -0.146 I 
ENDROOT
TORSDOF 0
ENDMDL
