MODEL 1
REMARK minimizedAffinity 7.71470499
REMARK minimizedRMSD -1
REMARK  0 active torsions:
REMARK  status: ('A' for Active; 'I' for Inactive)
ROOT
ATOM      1  C   UNL d   1      -4.317  -4.852  -2.236  0.00  0.00     0.023 A 
ATOM      2  C1  UNL d   1      -5.233  -3.939  -2.758  0.00  0.00     0.003 A 
ATOM      3  C2  UNL d   1      -5.132  -2.584  -2.434  0.00  0.00     0.048 A 
ATOM      4  C3  UNL d   1      -4.113  -2.150  -1.588  0.00  0.00     0.023 A 
ATOM      5  C4  UNL d   1      -3.193  -3.060  -1.063  0.00  0.00     0.048 A 
ATOM      6  C5  UNL d   1      -3.298  -4.413  -1.389  0.00  0.00     0.003 A 
ATOM      7  I   UNL d   1      -3.961  -0.134  -1.104  0.00  0.00    -0.146 I 
ENDROOT
TORSDOF 0
ENDMDL
