MODEL 1
REMARK minimizedAffinity 6.7330122
REMARK minimizedRMSD -1
REMARK  0 active torsions:
REMARK  status: ('A' for Active; 'I' for Inactive)
ROOT
ATOM      1  C   UNL d   1       1.806  -1.334   3.776  0.00  0.00     0.023 A 
ATOM      2  C1  UNL d   1       1.947  -1.204   2.394  0.00  0.00     0.003 A 
ATOM      3  C2  UNL d   1       0.916  -0.648   1.634  0.00  0.00     0.048 A 
ATOM      4  C3  UNL d   1      -0.254  -0.222   2.263  0.00  0.00     0.023 A 
ATOM      5  C4  UNL d   1      -0.399  -0.349   3.646  0.00  0.00     0.048 A 
ATOM      6  C5  UNL d   1       0.634  -0.907   4.401  0.00  0.00     0.003 A 
ATOM      7  I   UNL d   1      -1.790   0.607   1.135  0.00  0.00    -0.146 I 
ENDROOT
TORSDOF 0
ENDMDL
