MODEL 1
REMARK minimizedAffinity -1.12661934
REMARK minimizedRMSD -1
REMARK  0 active torsions:
REMARK  status: ('A' for Active; 'I' for Inactive)
ROOT
ATOM      1  C   UNL d   1       2.906  -2.290   5.439  0.00  0.00     0.023 A 
ATOM      2  C1  UNL d   1       1.955  -3.023   4.730  0.00  0.00     0.003 A 
ATOM      3  C2  UNL d   1       1.101  -2.378   3.833  0.00  0.00     0.048 A 
ATOM      4  C3  UNL d   1       1.204  -1.000   3.649  0.00  0.00     0.023 A 
ATOM      5  C4  UNL d   1       2.155  -0.262   4.356  0.00  0.00     0.048 A 
ATOM      6  C5  UNL d   1       3.006  -0.911   5.252  0.00  0.00     0.003 A 
ATOM      7  I   UNL d   1      -0.066  -0.038   2.314  0.00  0.00    -0.146 I 
ENDROOT
TORSDOF 0
ENDMDL
