MODEL 1
REMARK minimizedAffinity -0.130139694
REMARK minimizedRMSD -1
REMARK  2 active torsions:
REMARK  status: ('A' for Active; 'I' for Inactive)
REMARK    1  A    between atoms: C1_2  and  C2_3 
REMARK    2  A    between atoms: C2_3  and  C3_4 
ROOT
ATOM      1  C3  UNL d   1       0.562  -0.753   0.316  0.00  0.00    -0.075 A 
ATOM      2  C4  UNL d   1       1.211  -1.203   1.475  0.00  0.00     0.002 A 
ATOM      3  C5  UNL d   1       0.551  -1.196   2.705  0.00  0.00     0.002 A 
ATOM      4  C6  UNL d   1      -0.759  -0.732   2.793  0.00  0.00    -0.004 A 
ATOM      5  C7  UNL d   1      -1.408  -0.267   1.651  0.00  0.00     0.002 A 
ATOM      6  C8  UNL d   1      -0.752  -0.277   0.419  0.00  0.00     0.002 A 
ENDROOT
BRANCH   1   7
ATOM      7  C2  UNL d   1       1.260  -0.785  -1.022  0.00  0.00     0.056 C 
BRANCH   7   8
ATOM      8  C1  UNL d   1       2.715  -0.304  -0.978  0.00  0.00     0.007 C 
ATOM      9  C   UNL d   1       2.861   1.190  -1.232  0.00  0.00     0.009 C 
ENDBRANCH   7   8
ENDBRANCH   1   7
TORSDOF 2
ENDMDL
