MODEL 1
REMARK minimizedAffinity -3.38717556
REMARK minimizedRMSD -1
REMARK  2 active torsions:
REMARK  status: ('A' for Active; 'I' for Inactive)
REMARK    1  A    between atoms: C1_2  and  C2_3 
REMARK    2  A    between atoms: C2_3  and  C3_4 
ROOT
ATOM      1  C3  UNL d   1      -0.480   0.606  -1.601  0.00  0.00    -0.075 A 
ATOM      2  C4  UNL d   1      -1.481   0.513  -0.624  0.00  0.00     0.002 A 
ATOM      3  C5  UNL d   1      -1.174   0.080   0.666  0.00  0.00     0.002 A 
ATOM      4  C6  UNL d   1       0.133  -0.276   0.992  0.00  0.00    -0.004 A 
ATOM      5  C7  UNL d   1       1.133  -0.204   0.024  0.00  0.00     0.002 A 
ATOM      6  C8  UNL d   1       0.829   0.234  -1.266  0.00  0.00     0.002 A 
ENDROOT
BRANCH   1   7
ATOM      7  C2  UNL d   1      -0.800   1.102  -2.991  0.00  0.00     0.056 C 
BRANCH   7   8
ATOM      8  C1  UNL d   1      -0.465   2.580  -3.218  0.00  0.00     0.007 C 
ATOM      9  C   UNL d   1      -1.567   3.524  -2.756  0.00  0.00     0.009 C 
ENDBRANCH   7   8
ENDBRANCH   1   7
TORSDOF 2
ENDMDL
