MODEL 1
REMARK minimizedAffinity -1.03967714
REMARK minimizedRMSD -1
REMARK  2 active torsions:
REMARK  status: ('A' for Active; 'I' for Inactive)
REMARK    1  A    between atoms: C1_2  and  C2_3 
REMARK    2  A    between atoms: C2_3  and  C3_4 
ROOT
ATOM      1  C3  UNL d   1      -0.488   0.400  -0.711  0.00  0.00    -0.075 A 
ATOM      2  C4  UNL d   1       0.426  -0.517  -0.170  0.00  0.00     0.002 A 
ATOM      3  C5  UNL d   1       0.232  -1.039   1.109  0.00  0.00     0.002 A 
ATOM      4  C6  UNL d   1      -0.869  -0.645   1.866  0.00  0.00    -0.004 A 
ATOM      5  C7  UNL d   1      -1.774   0.277   1.345  0.00  0.00     0.002 A 
ATOM      6  C8  UNL d   1      -1.585   0.798   0.063  0.00  0.00     0.002 A 
ENDROOT
BRANCH   1   7
ATOM      7  C2  UNL d   1      -0.300   0.946  -2.107  0.00  0.00     0.056 C 
BRANCH   7   8
ATOM      8  C1  UNL d   1      -1.429   1.871  -2.571  0.00  0.00     0.007 C 
ATOM      9  C   UNL d   1      -0.977   2.901  -3.598  0.00  0.00     0.009 C 
ENDBRANCH   7   8
ENDBRANCH   1   7
TORSDOF 2
ENDMDL
