MODEL 1
REMARK minimizedAffinity -4.13712311
REMARK minimizedRMSD -1
REMARK  2 active torsions:
REMARK  status: ('A' for Active; 'I' for Inactive)
REMARK    1  A    between atoms: C1_2  and  C2_3 
REMARK    2  A    between atoms: C2_3  and  C3_4 
ROOT
ATOM      1  C3  UNL d   1      -0.019  -0.278  -0.412  0.00  0.00    -0.075 A 
ATOM      2  C4  UNL d   1       1.199  -0.766   0.083  0.00  0.00     0.002 A 
ATOM      3  C5  UNL d   1       1.361  -1.016   1.445  0.00  0.00     0.002 A 
ATOM      4  C6  UNL d   1       0.313  -0.774   2.331  0.00  0.00    -0.004 A 
ATOM      5  C7  UNL d   1      -0.896  -0.274   1.852  0.00  0.00     0.002 A 
ATOM      6  C8  UNL d   1      -1.062  -0.026   0.489  0.00  0.00     0.002 A 
ENDROOT
BRANCH   1   7
ATOM      7  C2  UNL d   1      -0.210  -0.033  -1.890  0.00  0.00     0.056 C 
BRANCH   7   8
ATOM      8  C1  UNL d   1      -0.272   1.450  -2.273  0.00  0.00     0.007 C 
ATOM      9  C   UNL d   1      -1.567   1.835  -2.975  0.00  0.00     0.009 C 
ENDBRANCH   7   8
ENDBRANCH   1   7
TORSDOF 2
ENDMDL
