MODEL 1
REMARK minimizedAffinity 5.43168211
REMARK minimizedRMSD -1
REMARK  2 active torsions:
REMARK  status: ('A' for Active; 'I' for Inactive)
REMARK    1  A    between atoms: C1_2  and  C2_3 
REMARK    2  A    between atoms: C2_3  and  C3_4 
ROOT
ATOM      1  C3  UNL d   1      -0.852   3.226  -3.203  0.00  0.00    -0.075 A 
ATOM      2  C4  UNL d   1      -0.387   3.635  -4.462  0.00  0.00     0.002 A 
ATOM      3  C5  UNL d   1       0.961   3.501  -4.797  0.00  0.00     0.002 A 
ATOM      4  C6  UNL d   1       1.861   2.967  -3.877  0.00  0.00    -0.004 A 
ATOM      5  C7  UNL d   1       1.413   2.573  -2.618  0.00  0.00     0.002 A 
ATOM      6  C8  UNL d   1       0.064   2.702  -2.281  0.00  0.00     0.002 A 
ENDROOT
BRANCH   1   7
ATOM      7  C2  UNL d   1      -2.314   3.341  -2.845  0.00  0.00     0.056 C 
BRANCH   7   8
ATOM      8  C1  UNL d   1      -3.234   3.581  -4.047  0.00  0.00     0.007 C 
ATOM      9  C   UNL d   1      -4.163   4.774  -3.863  0.00  0.00     0.009 C 
ENDBRANCH   7   8
ENDBRANCH   1   7
TORSDOF 2
ENDMDL
