MODEL 1
REMARK minimizedAffinity -2.92082047
REMARK minimizedRMSD -1
REMARK  2 active torsions:
REMARK  status: ('A' for Active; 'I' for Inactive)
REMARK    1  A    between atoms: C1_2  and  C2_3 
REMARK    2  A    between atoms: C2_3  and  C3_4 
ROOT
ATOM      1  C3  UNL d   1       0.217  -0.762   0.600  0.00  0.00    -0.075 A 
ATOM      2  C4  UNL d   1       1.312  -1.324  -0.072  0.00  0.00     0.002 A 
ATOM      3  C5  UNL d   1       2.164  -2.214   0.582  0.00  0.00     0.002 A 
ATOM      4  C6  UNL d   1       1.939  -2.544   1.917  0.00  0.00    -0.004 A 
ATOM      5  C7  UNL d   1       0.864  -1.979   2.600  0.00  0.00     0.002 A 
ATOM      6  C8  UNL d   1       0.007  -1.092   1.946  0.00  0.00     0.002 A 
ENDROOT
BRANCH   1   7
ATOM      7  C2  UNL d   1      -0.726   0.179  -0.111  0.00  0.00     0.056 C 
BRANCH   7   8
ATOM      8  C1  UNL d   1      -0.482   0.285  -1.620  0.00  0.00     0.007 C 
ATOM      9  C   UNL d   1      -1.044   1.562  -2.231  0.00  0.00     0.009 C 
ENDBRANCH   7   8
ENDBRANCH   1   7
TORSDOF 2
ENDMDL
