MODEL 1
REMARK minimizedAffinity -3.67212129
REMARK minimizedRMSD -1
REMARK  2 active torsions:
REMARK  status: ('A' for Active; 'I' for Inactive)
REMARK    1  A    between atoms: C1_2  and  C2_3 
REMARK    2  A    between atoms: C2_3  and  C3_4 
ROOT
ATOM      1  C3  UNL d   1      -0.021  -0.110   0.124  0.00  0.00    -0.075 A 
ATOM      2  C4  UNL d   1      -0.428  -0.330   1.448  0.00  0.00     0.002 A 
ATOM      3  C5  UNL d   1       0.192  -1.309   2.226  0.00  0.00     0.002 A 
ATOM      4  C6  UNL d   1       1.216  -2.085   1.688  0.00  0.00    -0.004 A 
ATOM      5  C7  UNL d   1       1.617  -1.886   0.369  0.00  0.00     0.002 A 
ATOM      6  C8  UNL d   1       1.002  -0.904  -0.410  0.00  0.00     0.002 A 
ENDROOT
BRANCH   1   7
ATOM      7  C2  UNL d   1      -0.668   0.968  -0.713  0.00  0.00     0.056 C 
BRANCH   7   8
ATOM      8  C1  UNL d   1      -1.135   0.489  -2.092  0.00  0.00     0.007 C 
ATOM      9  C   UNL d   1      -1.488   1.631  -3.036  0.00  0.00     0.009 C 
ENDBRANCH   7   8
ENDBRANCH   1   7
TORSDOF 2
ENDMDL
