MODEL 1
REMARK minimizedAffinity -2.16512418
REMARK minimizedRMSD -1
REMARK  2 active torsions:
REMARK  status: ('A' for Active; 'I' for Inactive)
REMARK    1  A    between atoms: C1_2  and  C2_3 
REMARK    2  A    between atoms: C2_3  and  C3_4 
ROOT
ATOM      1  C3  UNL d   1      -0.912   1.201  -1.832  0.00  0.00    -0.075 A 
ATOM      2  C4  UNL d   1       0.141   1.777  -2.557  0.00  0.00     0.002 A 
ATOM      3  C5  UNL d   1      -0.014   3.025  -3.161  0.00  0.00     0.002 A 
ATOM      4  C6  UNL d   1      -1.224   3.707  -3.057  0.00  0.00    -0.004 A 
ATOM      5  C7  UNL d   1      -2.283   3.137  -2.354  0.00  0.00     0.002 A 
ATOM      6  C8  UNL d   1      -2.129   1.890  -1.744  0.00  0.00     0.002 A 
ENDROOT
BRANCH   1   7
ATOM      7  C2  UNL d   1      -0.741  -0.136  -1.151  0.00  0.00     0.056 C 
BRANCH   7   8
ATOM      8  C1  UNL d   1       0.108  -0.082   0.124  0.00  0.00     0.007 C 
ATOM      9  C   UNL d   1      -0.720   0.096   1.389  0.00  0.00     0.009 C 
ENDBRANCH   7   8
ENDBRANCH   1   7
TORSDOF 2
ENDMDL
