MODEL 1
REMARK minimizedAffinity -3.49924326
REMARK minimizedRMSD -1
REMARK  2 active torsions:
REMARK  status: ('A' for Active; 'I' for Inactive)
REMARK    1  A    between atoms: C1_2  and  C2_3 
REMARK    2  A    between atoms: C2_3  and  C3_4 
ROOT
ATOM      1  C3  UNL d   1      -0.302  -0.503  -0.666  0.00  0.00    -0.075 A 
ATOM      2  C4  UNL d   1      -0.563   0.761  -0.118  0.00  0.00     0.002 A 
ATOM      3  C5  UNL d   1       0.483   1.634   0.180  0.00  0.00     0.002 A 
ATOM      4  C6  UNL d   1       1.802   1.252  -0.055  0.00  0.00    -0.004 A 
ATOM      5  C7  UNL d   1       2.074  -0.008  -0.584  0.00  0.00     0.002 A 
ATOM      6  C8  UNL d   1       1.029  -0.882  -0.887  0.00  0.00     0.002 A 
ENDROOT
BRANCH   1   7
ATOM      7  C2  UNL d   1      -1.431  -1.442  -1.019  0.00  0.00     0.056 C 
BRANCH   7   8
ATOM      8  C1  UNL d   1      -1.819  -1.422  -2.501  0.00  0.00     0.007 C 
ATOM      9  C   UNL d   1      -3.302  -1.675  -2.737  0.00  0.00     0.009 C 
ENDBRANCH   7   8
ENDBRANCH   1   7
TORSDOF 2
ENDMDL
