MODEL 1
REMARK minimizedAffinity -5.32242155
REMARK minimizedRMSD -1
REMARK  2 active torsions:
REMARK  status: ('A' for Active; 'I' for Inactive)
REMARK    1  A    between atoms: C1_2  and  C2_3 
REMARK    2  A    between atoms: C2_3  and  C3_4 
ROOT
ATOM      1  C3  UNL d   1      -0.351  -0.582  -0.390  0.00  0.00    -0.075 A 
ATOM      2  C4  UNL d   1      -0.967   0.269   0.539  0.00  0.00     0.002 A 
ATOM      3  C5  UNL d   1      -0.230   1.257   1.193  0.00  0.00     0.002 A 
ATOM      4  C6  UNL d   1       1.132   1.399   0.935  0.00  0.00    -0.004 A 
ATOM      5  C7  UNL d   1       1.758   0.548   0.026  0.00  0.00     0.002 A 
ATOM      6  C8  UNL d   1       1.022  -0.438  -0.633  0.00  0.00     0.002 A 
ENDROOT
BRANCH   1   7
ATOM      7  C2  UNL d   1      -1.149  -1.634  -1.123  0.00  0.00     0.056 C 
BRANCH   7   8
ATOM      8  C1  UNL d   1      -1.420  -1.299  -2.593  0.00  0.00     0.007 C 
ATOM      9  C   UNL d   1      -2.901  -1.145  -2.911  0.00  0.00     0.009 C 
ENDBRANCH   7   8
ENDBRANCH   1   7
TORSDOF 2
ENDMDL
