MODEL 1
REMARK minimizedAffinity -4.87425089
REMARK minimizedRMSD -1
REMARK  2 active torsions:
REMARK  status: ('A' for Active; 'I' for Inactive)
REMARK    1  A    between atoms: C1_2  and  C2_3 
REMARK    2  A    between atoms: C2_3  and  C3_4 
ROOT
ATOM      1  C3  UNL d   1      -0.256  -0.185  -0.118  0.00  0.00    -0.075 A 
ATOM      2  C4  UNL d   1      -0.909   0.167   1.072  0.00  0.00     0.002 A 
ATOM      3  C5  UNL d   1      -0.492   1.278   1.806  0.00  0.00     0.002 A 
ATOM      4  C6  UNL d   1       0.587   2.042   1.368  0.00  0.00    -0.004 A 
ATOM      5  C7  UNL d   1       1.253   1.691   0.196  0.00  0.00     0.002 A 
ATOM      6  C8  UNL d   1       0.836   0.583  -0.543  0.00  0.00     0.002 A 
ENDROOT
BRANCH   1   7
ATOM      7  C2  UNL d   1      -0.720  -1.368  -0.933  0.00  0.00     0.056 C 
BRANCH   7   8
ATOM      8  C1  UNL d   1      -1.106  -1.020  -2.375  0.00  0.00     0.007 C 
ATOM      9  C   UNL d   1      -2.472  -1.558  -2.778  0.00  0.00     0.009 C 
ENDBRANCH   7   8
ENDBRANCH   1   7
TORSDOF 2
ENDMDL
