MODEL 1
REMARK minimizedAffinity -5.43686914
REMARK minimizedRMSD -1
REMARK  2 active torsions:
REMARK  status: ('A' for Active; 'I' for Inactive)
REMARK    1  A    between atoms: C1_2  and  C2_3 
REMARK    2  A    between atoms: C2_3  and  C3_4 
ROOT
ATOM      1  C3  UNL d   1      -0.088   0.126   0.060  0.00  0.00    -0.075 A 
ATOM      2  C4  UNL d   1      -0.842   0.683   1.103  0.00  0.00     0.002 A 
ATOM      3  C5  UNL d   1      -0.458   1.890   1.688  0.00  0.00     0.002 A 
ATOM      4  C6  UNL d   1       0.687   2.549   1.246  0.00  0.00    -0.004 A 
ATOM      5  C7  UNL d   1       1.453   1.996   0.221  0.00  0.00     0.002 A 
ATOM      6  C8  UNL d   1       1.068   0.790  -0.369  0.00  0.00     0.002 A 
ENDROOT
BRANCH   1   7
ATOM      7  C2  UNL d   1      -0.515  -1.165  -0.597  0.00  0.00     0.056 C 
BRANCH   7   8
ATOM      8  C1  UNL d   1      -0.988  -1.002  -2.045  0.00  0.00     0.007 C 
ATOM      9  C   UNL d   1      -2.298  -1.723  -2.334  0.00  0.00     0.009 C 
ENDBRANCH   7   8
ENDBRANCH   1   7
TORSDOF 2
ENDMDL
