MODEL 1
REMARK minimizedAffinity -4.33913231
REMARK minimizedRMSD -1
REMARK  2 active torsions:
REMARK  status: ('A' for Active; 'I' for Inactive)
REMARK    1  A    between atoms: C1_2  and  C2_3 
REMARK    2  A    between atoms: C2_3  and  C3_4 
ROOT
ATOM      1  C3  UNL d   1       0.039  -0.059  -0.474  0.00  0.00    -0.075 A 
ATOM      2  C4  UNL d   1       1.337   0.382  -0.177  0.00  0.00     0.002 A 
ATOM      3  C5  UNL d   1       1.549   1.355   0.800  0.00  0.00     0.002 A 
ATOM      4  C6  UNL d   1       0.468   1.905   1.485  0.00  0.00    -0.004 A 
ATOM      5  C7  UNL d   1      -0.827   1.487   1.187  0.00  0.00     0.002 A 
ATOM      6  C8  UNL d   1      -1.042   0.511   0.212  0.00  0.00     0.002 A 
ENDROOT
BRANCH   1   7
ATOM      7  C2  UNL d   1      -0.194  -1.133  -1.509  0.00  0.00     0.056 C 
BRANCH   7   8
ATOM      8  C1  UNL d   1      -1.180  -0.732  -2.612  0.00  0.00     0.007 C 
ATOM      9  C   UNL d   1      -2.484  -1.518  -2.566  0.00  0.00     0.009 C 
ENDBRANCH   7   8
ENDBRANCH   1   7
TORSDOF 2
ENDMDL
