MODEL 1
REMARK minimizedAffinity -5.26335239
REMARK minimizedRMSD -1
REMARK  2 active torsions:
REMARK  status: ('A' for Active; 'I' for Inactive)
REMARK    1  A    between atoms: C1_2  and  C2_3 
REMARK    2  A    between atoms: C2_3  and  C3_4 
ROOT
ATOM      1  C3  UNL d   1      -0.081   0.047  -0.177  0.00  0.00    -0.075 A 
ATOM      2  C4  UNL d   1      -0.814   0.072   1.018  0.00  0.00     0.002 A 
ATOM      3  C5  UNL d   1      -0.733   1.170   1.875  0.00  0.00     0.002 A 
ATOM      4  C6  UNL d   1       0.086   2.250   1.554  0.00  0.00    -0.004 A 
ATOM      5  C7  UNL d   1       0.831   2.228   0.377  0.00  0.00     0.002 A 
ATOM      6  C8  UNL d   1       0.750   1.133  -0.485  0.00  0.00     0.002 A 
ENDROOT
BRANCH   1   7
ATOM      7  C2  UNL d   1      -0.186  -1.125  -1.124  0.00  0.00     0.056 C 
BRANCH   7   8
ATOM      8  C1  UNL d   1      -1.625  -1.500  -1.495  0.00  0.00     0.007 C 
ATOM      9  C   UNL d   1      -1.876  -1.500  -2.997  0.00  0.00     0.009 C 
ENDBRANCH   7   8
ENDBRANCH   1   7
TORSDOF 2
ENDMDL
