MODEL 1
REMARK minimizedAffinity -2.56101656
REMARK minimizedRMSD -1
REMARK  2 active torsions:
REMARK  status: ('A' for Active; 'I' for Inactive)
REMARK    1  A    between atoms: C1_2  and  C2_3 
REMARK    2  A    between atoms: C2_3  and  C3_4 
ROOT
ATOM      1  C3  UNL d   1      -0.300   0.272   0.344  0.00  0.00    -0.075 A 
ATOM      2  C4  UNL d   1      -0.661   0.984   1.497  0.00  0.00     0.002 A 
ATOM      3  C5  UNL d   1      -0.014   2.176   1.825  0.00  0.00     0.002 A 
ATOM      4  C6  UNL d   1       1.007   2.664   1.012  0.00  0.00    -0.004 A 
ATOM      5  C7  UNL d   1       1.385   1.956  -0.127  0.00  0.00     0.002 A 
ATOM      6  C8  UNL d   1       0.736   0.766  -0.460  0.00  0.00     0.002 A 
ENDROOT
BRANCH   1   7
ATOM      7  C2  UNL d   1      -1.017  -1.003  -0.033  0.00  0.00     0.056 C 
BRANCH   7   8
ATOM      8  C1  UNL d   1      -1.301  -1.139  -1.532  0.00  0.00     0.007 C 
ATOM      9  C   UNL d   1      -2.519  -2.001  -1.837  0.00  0.00     0.009 C 
ENDBRANCH   7   8
ENDBRANCH   1   7
TORSDOF 2
ENDMDL
