MODEL 1
REMARK minimizedAffinity -5.42158461
REMARK minimizedRMSD -1
REMARK  2 active torsions:
REMARK  status: ('A' for Active; 'I' for Inactive)
REMARK    1  A    between atoms: C1_2  and  C2_3 
REMARK    2  A    between atoms: C2_3  and  C3_4 
ROOT
ATOM      1  C3  UNL d   1      -0.155  -0.121  -0.260  0.00  0.00    -0.075 A 
ATOM      2  C4  UNL d   1       0.607   0.967  -0.708  0.00  0.00     0.002 A 
ATOM      3  C5  UNL d   1       0.826   2.068   0.120  0.00  0.00     0.002 A 
ATOM      4  C6  UNL d   1       0.278   2.101   1.400  0.00  0.00    -0.004 A 
ATOM      5  C7  UNL d   1      -0.495   1.033   1.850  0.00  0.00     0.002 A 
ATOM      6  C8  UNL d   1      -0.712  -0.072   1.026  0.00  0.00     0.002 A 
ENDROOT
BRANCH   1   7
ATOM      7  C2  UNL d   1      -0.371  -1.329  -1.140  0.00  0.00     0.056 C 
BRANCH   7   8
ATOM      8  C1  UNL d   1      -1.674  -1.288  -1.946  0.00  0.00     0.007 C 
ATOM      9  C   UNL d   1      -1.449  -1.113  -3.442  0.00  0.00     0.009 C 
ENDBRANCH   7   8
ENDBRANCH   1   7
TORSDOF 2
ENDMDL
