MODEL 1
REMARK minimizedAffinity -6.01339769
REMARK minimizedRMSD -1
REMARK  2 active torsions:
REMARK  status: ('A' for Active; 'I' for Inactive)
REMARK    1  A    between atoms: C1_2  and  C2_3 
REMARK    2  A    between atoms: C2_3  and  C3_4 
ROOT
ATOM      1  C3  UNL d   1       0.204  -0.265  -0.025  0.00  0.00    -0.075 A 
ATOM      2  C4  UNL d   1      -0.826   0.042   0.877  0.00  0.00     0.002 A 
ATOM      3  C5  UNL d   1      -0.750   1.182   1.678  0.00  0.00     0.002 A 
ATOM      4  C6  UNL d   1       0.358   2.023   1.594  0.00  0.00    -0.004 A 
ATOM      5  C7  UNL d   1       1.394   1.719   0.714  0.00  0.00     0.002 A 
ATOM      6  C8  UNL d   1       1.319   0.581  -0.091  0.00  0.00     0.002 A 
ENDROOT
BRANCH   1   7
ATOM      7  C2  UNL d   1       0.114  -1.481  -0.915  0.00  0.00     0.056 C 
BRANCH   7   8
ATOM      8  C1  UNL d   1      -1.320  -1.896  -1.261  0.00  0.00     0.007 C 
ATOM      9  C   UNL d   1      -1.720  -1.541  -2.687  0.00  0.00     0.009 C 
ENDBRANCH   7   8
ENDBRANCH   1   7
TORSDOF 2
ENDMDL
