MODEL 1
REMARK minimizedAffinity -3.84432888
REMARK minimizedRMSD -1
REMARK  2 active torsions:
REMARK  status: ('A' for Active; 'I' for Inactive)
REMARK    1  A    between atoms: C1_2  and  C2_3 
REMARK    2  A    between atoms: C2_3  and  C3_4 
ROOT
ATOM      1  C3  UNL d   1      -0.547  -0.359  -0.330  0.00  0.00    -0.075 A 
ATOM      2  C4  UNL d   1       0.606   0.293  -0.793  0.00  0.00     0.002 A 
ATOM      3  C5  UNL d   1       1.338   1.124   0.055  0.00  0.00     0.002 A 
ATOM      4  C6  UNL d   1       0.922   1.323   1.370  0.00  0.00    -0.004 A 
ATOM      5  C7  UNL d   1      -0.231   0.694   1.835  0.00  0.00     0.002 A 
ATOM      6  C8  UNL d   1      -0.963  -0.142   0.990  0.00  0.00     0.002 A 
ENDROOT
BRANCH   1   7
ATOM      7  C2  UNL d   1      -1.327  -1.283  -1.234  0.00  0.00     0.056 C 
BRANCH   7   8
ATOM      8  C1  UNL d   1      -1.993  -0.579  -2.421  0.00  0.00     0.007 C 
ATOM      9  C   UNL d   1      -2.195  -1.491  -3.624  0.00  0.00     0.009 C 
ENDBRANCH   7   8
ENDBRANCH   1   7
TORSDOF 2
ENDMDL
