MODEL 1
REMARK minimizedAffinity -4.99874735
REMARK minimizedRMSD -1
REMARK  2 active torsions:
REMARK  status: ('A' for Active; 'I' for Inactive)
REMARK    1  A    between atoms: C1_2  and  C2_3 
REMARK    2  A    between atoms: C2_3  and  C3_4 
ROOT
ATOM      1  C3  UNL d   1       0.020   0.136  -0.002  0.00  0.00    -0.075 A 
ATOM      2  C4  UNL d   1      -0.595   0.768   1.089  0.00  0.00     0.002 A 
ATOM      3  C5  UNL d   1       0.036   1.827   1.742  0.00  0.00     0.002 A 
ATOM      4  C6  UNL d   1       1.291   2.261   1.320  0.00  0.00    -0.004 A 
ATOM      5  C7  UNL d   1       1.918   1.630   0.248  0.00  0.00     0.002 A 
ATOM      6  C8  UNL d   1       1.287   0.573  -0.410  0.00  0.00     0.002 A 
ENDROOT
BRANCH   1   7
ATOM      7  C2  UNL d   1      -0.671  -0.991  -0.732  0.00  0.00     0.056 C 
BRANCH   7   8
ATOM      8  C1  UNL d   1      -1.046  -0.660  -2.180  0.00  0.00     0.007 C 
ATOM      9  C   UNL d   1      -2.368  -1.278  -2.614  0.00  0.00     0.009 C 
ENDBRANCH   7   8
ENDBRANCH   1   7
TORSDOF 2
ENDMDL
