MODEL 1
REMARK minimizedAffinity -5.5606513
REMARK minimizedRMSD -1
REMARK  2 active torsions:
REMARK  status: ('A' for Active; 'I' for Inactive)
REMARK    1  A    between atoms: C1_2  and  C2_3 
REMARK    2  A    between atoms: C2_3  and  C3_4 
ROOT
ATOM      1  C3  UNL d   1       1.304   0.725   0.233  0.00  0.00    -0.075 A 
ATOM      2  C4  UNL d   1       2.640   1.138   0.133  0.00  0.00     0.002 A 
ATOM      3  C5  UNL d   1       3.065   2.318   0.745  0.00  0.00     0.002 A 
ATOM      4  C6  UNL d   1       2.159   3.103   1.455  0.00  0.00    -0.004 A 
ATOM      5  C7  UNL d   1       0.825   2.711   1.547  0.00  0.00     0.002 A 
ATOM      6  C8  UNL d   1       0.398   1.529   0.939  0.00  0.00     0.002 A 
ENDROOT
BRANCH   1   7
ATOM      7  C2  UNL d   1       0.844  -0.565  -0.403  0.00  0.00     0.056 C 
BRANCH   7   8
ATOM      8  C1  UNL d   1      -0.420  -1.157   0.229  0.00  0.00     0.007 C 
ATOM      9  C   UNL d   1      -1.402  -1.710  -0.795  0.00  0.00     0.009 C 
ENDBRANCH   7   8
ENDBRANCH   1   7
TORSDOF 2
ENDMDL
