MODEL 1
REMARK minimizedAffinity -5.15955114
REMARK minimizedRMSD -1
REMARK  2 active torsions:
REMARK  status: ('A' for Active; 'I' for Inactive)
REMARK    1  A    between atoms: C1_2  and  C2_3 
REMARK    2  A    between atoms: C2_3  and  C3_4 
ROOT
ATOM      1  C3  UNL d   1      -0.202   0.134   0.179  0.00  0.00    -0.075 A 
ATOM      2  C4  UNL d   1      -0.782   0.634   1.354  0.00  0.00     0.002 A 
ATOM      3  C5  UNL d   1      -0.243   1.753   1.989  0.00  0.00     0.002 A 
ATOM      4  C6  UNL d   1       0.887   2.378   1.466  0.00  0.00    -0.004 A 
ATOM      5  C7  UNL d   1       1.481   1.879   0.309  0.00  0.00     0.002 A 
ATOM      6  C8  UNL d   1       0.941   0.763  -0.332  0.00  0.00     0.002 A 
ENDROOT
BRANCH   1   7
ATOM      7  C2  UNL d   1      -0.799  -1.059  -0.530  0.00  0.00     0.056 C 
BRANCH   7   8
ATOM      8  C1  UNL d   1      -1.127  -0.807  -2.006  0.00  0.00     0.007 C 
ATOM      9  C   UNL d   1      -2.550  -1.200  -2.380  0.00  0.00     0.009 C 
ENDBRANCH   7   8
ENDBRANCH   1   7
TORSDOF 2
ENDMDL
