MODEL 1
REMARK minimizedAffinity -4.17292595
REMARK minimizedRMSD -1
REMARK  2 active torsions:
REMARK  status: ('A' for Active; 'I' for Inactive)
REMARK    1  A    between atoms: C1_2  and  C2_3 
REMARK    2  A    between atoms: C2_3  and  C3_4 
ROOT
ATOM      1  C3  UNL d   1      -0.234   0.107   0.091  0.00  0.00    -0.075 A 
ATOM      2  C4  UNL d   1      -0.748   1.300   0.620  0.00  0.00     0.002 A 
ATOM      3  C5  UNL d   1       0.110   2.320   1.031  0.00  0.00     0.002 A 
ATOM      4  C6  UNL d   1       1.490   2.158   0.927  0.00  0.00    -0.004 A 
ATOM      5  C7  UNL d   1       2.012   0.971   0.418  0.00  0.00     0.002 A 
ATOM      6  C8  UNL d   1       1.155  -0.050   0.002  0.00  0.00     0.002 A 
ENDROOT
BRANCH   1   7
ATOM      7  C2  UNL d   1      -1.158  -0.989  -0.383  0.00  0.00     0.056 C 
BRANCH   7   8
ATOM      8  C1  UNL d   1      -1.295  -1.075  -1.907  0.00  0.00     0.007 C 
ATOM      9  C   UNL d   1      -2.587  -1.744  -2.357  0.00  0.00     0.009 C 
ENDBRANCH   7   8
ENDBRANCH   1   7
TORSDOF 2
ENDMDL
