MODEL 1
REMARK minimizedAffinity 5.32849646
REMARK minimizedRMSD -1
REMARK  0 active torsions:
REMARK  status: ('A' for Active; 'I' for Inactive)
ROOT
ATOM      1  C   UNL d   1       1.647   0.579   0.410  0.00  0.00    -0.002 A 
ATOM      2  C1  UNL d   1       0.273   0.413   0.512  0.00  0.00     0.010 A 
ATOM      3  C2  UNL d   1      -0.534   0.458  -0.626  0.00  0.00     0.041 A 
ATOM      4  C3  UNL d   1       0.069   0.671  -1.881  0.00  0.00    -0.075 A 
ATOM      5  S   UNL d   1      -0.721   0.761  -3.411  0.00  0.00     0.015 SA
ATOM      6  C4  UNL d   1       0.748   1.021  -4.237  0.00  0.00     0.022 A 
ATOM      7  C5  UNL d   1       1.824   1.041  -3.382  0.00  0.00     0.026 A 
ATOM      8  C6  UNL d   1       1.450   0.839  -2.010  0.00  0.00    -0.082 A 
ATOM      9  C7  UNL d   1       2.241   0.790  -0.837  0.00  0.00     0.045 A 
ENDROOT
TORSDOF 0
ENDMDL
