MODEL 1
REMARK minimizedAffinity 8.65409374
REMARK minimizedRMSD -1
REMARK  0 active torsions:
REMARK  status: ('A' for Active; 'I' for Inactive)
ROOT
ATOM      1  C   UNL d   1      -3.181   0.281   0.541  0.00  0.00    -0.002 A 
ATOM      2  C1  UNL d   1      -2.806   0.638   1.828  0.00  0.00     0.010 A 
ATOM      3  C2  UNL d   1      -1.461   0.639   2.202  0.00  0.00     0.041 A 
ATOM      4  C3  UNL d   1      -0.489   0.275   1.250  0.00  0.00    -0.075 A 
ATOM      5  S   UNL d   1       1.218   0.205   1.482  0.00  0.00     0.015 SA
ATOM      6  C4  UNL d   1       1.491  -0.300  -0.123  0.00  0.00     0.022 A 
ATOM      7  C5  UNL d   1       0.319  -0.417  -0.833  0.00  0.00     0.026 A 
ATOM      8  C6  UNL d   1      -0.841  -0.088  -0.053  0.00  0.00    -0.082 A 
ATOM      9  C7  UNL d   1      -2.213  -0.080  -0.401  0.00  0.00     0.045 A 
ENDROOT
TORSDOF 0
ENDMDL
