MODEL 1
REMARK minimizedAffinity 5.82786417
REMARK minimizedRMSD -1
REMARK  0 active torsions:
REMARK  status: ('A' for Active; 'I' for Inactive)
ROOT
ATOM      1  C   UNL d   1      -2.526  -1.514   4.566  0.00  0.00    -0.002 A 
ATOM      2  C1  UNL d   1      -1.148  -1.679   4.544  0.00  0.00     0.010 A 
ATOM      3  C2  UNL d   1      -0.397  -1.236   3.453  0.00  0.00     0.041 A 
ATOM      4  C3  UNL d   1      -1.061  -0.617   2.376  0.00  0.00    -0.075 A 
ATOM      5  S   UNL d   1      -0.347   0.005   0.935  0.00  0.00     0.015 SA
ATOM      6  C4  UNL d   1      -1.854   0.506   0.316  0.00  0.00     0.022 A 
ATOM      7  C5  UNL d   1      -2.887   0.213   1.174  0.00  0.00     0.026 A 
ATOM      8  C6  UNL d   1      -2.447  -0.439   2.376  0.00  0.00    -0.082 A 
ATOM      9  C7  UNL d   1      -3.180  -0.900   3.496  0.00  0.00     0.045 A 
ENDROOT
TORSDOF 0
ENDMDL
