MODEL 1
REMARK minimizedAffinity 12.9552298
REMARK minimizedRMSD -1
REMARK  0 active torsions:
REMARK  status: ('A' for Active; 'I' for Inactive)
ROOT
ATOM      1  C   UNL d   1      -2.665  -1.055   3.755  0.00  0.00    -0.002 A 
ATOM      2  C1  UNL d   1      -1.336  -1.110   4.148  0.00  0.00     0.010 A 
ATOM      3  C2  UNL d   1      -0.319  -0.722   3.272  0.00  0.00     0.041 A 
ATOM      4  C3  UNL d   1      -0.665  -0.273   1.983  0.00  0.00    -0.075 A 
ATOM      5  S   UNL d   1       0.410   0.253   0.742  0.00  0.00     0.015 SA
ATOM      6  C4  UNL d   1      -0.871   0.564  -0.339  0.00  0.00     0.022 A 
ATOM      7  C5  UNL d   1      -2.095   0.278   0.216  0.00  0.00     0.026 A 
ATOM      8  C6  UNL d   1      -1.997  -0.208   1.564  0.00  0.00    -0.082 A 
ATOM      9  C7  UNL d   1      -3.005  -0.609   2.475  0.00  0.00     0.045 A 
ENDROOT
TORSDOF 0
ENDMDL
