MODEL 1
REMARK minimizedAffinity 4.70349264
REMARK minimizedRMSD -1
REMARK  0 active torsions:
REMARK  status: ('A' for Active; 'I' for Inactive)
ROOT
ATOM      1  C   UNL d   1      -1.532  -4.129  -3.122  0.00  0.00     0.077 C 
ATOM      2  C1  UNL d   1      -2.634  -4.263  -4.131  0.00  0.00    -0.074 A 
ATOM      3  C2  UNL d   1      -2.973  -5.511  -4.663  0.00  0.00    -0.005 A 
ATOM      4  C3  UNL d   1      -4.006  -5.622  -5.593  0.00  0.00     0.006 A 
ATOM      5  C4  UNL d   1      -4.710  -4.488  -6.000  0.00  0.00    -0.005 A 
ATOM      6  C5  UNL d   1      -4.386  -3.231  -5.478  0.00  0.00    -0.074 A 
ATOM      7  C6  UNL d   1      -5.139  -2.004  -5.896  0.00  0.00     0.077 C 
ATOM      8  C7  UNL d   1      -3.351  -3.129  -4.538  0.00  0.00    -0.001 A 
ENDROOT
TORSDOF 0
ENDMDL
