MODEL 1
REMARK minimizedAffinity 10.8440714
REMARK minimizedRMSD -1
REMARK  0 active torsions:
REMARK  status: ('A' for Active; 'I' for Inactive)
ROOT
ATOM      1  C   UNL d   1       3.100  -3.726  -0.203  0.00  0.00     0.077 C 
ATOM      2  C1  UNL d   1       3.073  -2.251  -0.476  0.00  0.00    -0.074 A 
ATOM      3  C2  UNL d   1       2.208  -1.714  -1.435  0.00  0.00    -0.005 A 
ATOM      4  C3  UNL d   1       2.187  -0.340  -1.672  0.00  0.00     0.006 A 
ATOM      5  C4  UNL d   1       3.028   0.510  -0.953  0.00  0.00    -0.005 A 
ATOM      6  C5  UNL d   1       3.899  -0.009   0.010  0.00  0.00    -0.074 A 
ATOM      7  C6  UNL d   1       4.803   0.892   0.799  0.00  0.00     0.077 C 
ATOM      8  C7  UNL d   1       3.910  -1.390   0.247  0.00  0.00    -0.001 A 
ENDROOT
TORSDOF 0
ENDMDL
