MODEL 1
REMARK minimizedAffinity 11.4976196
REMARK minimizedRMSD -1
REMARK  0 active torsions:
REMARK  status: ('A' for Active; 'I' for Inactive)
ROOT
ATOM      1  C   UNL d   1       3.187  -5.999   0.113  0.00  0.00     0.077 C 
ATOM      2  C1  UNL d   1       2.735  -4.813  -0.686  0.00  0.00    -0.074 A 
ATOM      3  C2  UNL d   1       3.242  -3.536  -0.425  0.00  0.00    -0.005 A 
ATOM      4  C3  UNL d   1       2.819  -2.444  -1.183  0.00  0.00     0.006 A 
ATOM      5  C4  UNL d   1       1.887  -2.617  -2.207  0.00  0.00    -0.005 A 
ATOM      6  C5  UNL d   1       1.371  -3.887  -2.483  0.00  0.00    -0.074 A 
ATOM      7  C6  UNL d   1       0.376  -4.093  -3.586  0.00  0.00     0.077 C 
ATOM      8  C7  UNL d   1       1.805  -4.981  -1.721  0.00  0.00    -0.001 A 
ENDROOT
TORSDOF 0
ENDMDL
