MODEL 1
REMARK minimizedAffinity 14.3135271
REMARK minimizedRMSD -1
REMARK  0 active torsions:
REMARK  status: ('A' for Active; 'I' for Inactive)
ROOT
ATOM      1  C   UNL d   1       2.927  -5.482   0.323  0.00  0.00     0.077 C 
ATOM      2  C1  UNL d   1       2.511  -4.269  -0.455  0.00  0.00    -0.074 A 
ATOM      3  C2  UNL d   1       2.832  -2.983  -0.008  0.00  0.00    -0.005 A 
ATOM      4  C3  UNL d   1       2.447  -1.865  -0.747  0.00  0.00     0.006 A 
ATOM      5  C4  UNL d   1       1.737  -2.020  -1.938  0.00  0.00    -0.005 A 
ATOM      6  C5  UNL d   1       1.407  -3.298  -2.401  0.00  0.00    -0.074 A 
ATOM      7  C6  UNL d   1       0.653  -3.483  -3.685  0.00  0.00     0.077 C 
ATOM      8  C7  UNL d   1       1.804  -4.417  -1.657  0.00  0.00    -0.001 A 
ENDROOT
TORSDOF 0
ENDMDL
