MODEL 1
REMARK minimizedAffinity 0.498600721
REMARK minimizedRMSD -1
REMARK  0 active torsions:
REMARK  status: ('A' for Active; 'I' for Inactive)
ROOT
ATOM      1  C   UNL d   1       4.062  -5.999  -0.788  0.00  0.00     0.077 C 
ATOM      2  C1  UNL d   1       3.258  -4.818  -1.245  0.00  0.00    -0.074 A 
ATOM      3  C2  UNL d   1       3.203  -3.647  -0.481  0.00  0.00    -0.005 A 
ATOM      4  C3  UNL d   1       2.459  -2.554  -0.924  0.00  0.00     0.006 A 
ATOM      5  C4  UNL d   1       1.764  -2.619  -2.132  0.00  0.00    -0.005 A 
ATOM      6  C5  UNL d   1       1.808  -3.781  -2.909  0.00  0.00    -0.074 A 
ATOM      7  C6  UNL d   1       1.075  -3.864  -4.215  0.00  0.00     0.077 C 
ATOM      8  C7  UNL d   1       2.564  -4.873  -2.461  0.00  0.00    -0.001 A 
ENDROOT
TORSDOF 0
ENDMDL
