MODEL 1
REMARK minimizedAffinity 16.1280098
REMARK minimizedRMSD -1
REMARK  0 active torsions:
REMARK  status: ('A' for Active; 'I' for Inactive)
ROOT
ATOM      1  C   UNL d   1       0.236  -3.938  -0.577  0.00  0.00     0.077 C 
ATOM      2  C1  UNL d   1       1.482  -3.121  -0.407  0.00  0.00    -0.074 A 
ATOM      3  C2  UNL d   1       2.666  -3.705   0.055  0.00  0.00    -0.005 A 
ATOM      4  C3  UNL d   1       3.820  -2.935   0.199  0.00  0.00     0.006 A 
ATOM      5  C4  UNL d   1       3.802  -1.576  -0.116  0.00  0.00    -0.005 A 
ATOM      6  C5  UNL d   1       2.627  -0.975  -0.579  0.00  0.00    -0.074 A 
ATOM      7  C6  UNL d   1       2.593   0.483  -0.932  0.00  0.00     0.077 C 
ATOM      8  C7  UNL d   1       1.474  -1.757  -0.729  0.00  0.00    -0.001 A 
ENDROOT
TORSDOF 0
ENDMDL
