MODEL 1
REMARK minimizedAffinity 7.25675154
REMARK minimizedRMSD -1
REMARK  0 active torsions:
REMARK  status: ('A' for Active; 'I' for Inactive)
ROOT
ATOM      1  C   UNL d   1      -1.025   5.897  -3.762  0.00  0.00     0.077 C 
ATOM      2  C1  UNL d   1      -2.187   5.157  -4.355  0.00  0.00    -0.074 A 
ATOM      3  C2  UNL d   1      -2.211   3.759  -4.383  0.00  0.00    -0.005 A 
ATOM      4  C3  UNL d   1      -3.303   3.085  -4.929  0.00  0.00     0.006 A 
ATOM      5  C4  UNL d   1      -4.380   3.801  -5.452  0.00  0.00    -0.005 A 
ATOM      6  C5  UNL d   1      -4.375   5.199  -5.433  0.00  0.00    -0.074 A 
ATOM      7  C6  UNL d   1      -5.529   5.983  -5.982  0.00  0.00     0.077 C 
ATOM      8  C7  UNL d   1      -3.277   5.869  -4.876  0.00  0.00    -0.001 A 
ENDROOT
TORSDOF 0
ENDMDL
