MODEL 1
REMARK minimizedAffinity 4.95949268
REMARK minimizedRMSD -1
REMARK  0 active torsions:
REMARK  status: ('A' for Active; 'I' for Inactive)
ROOT
ATOM      1  C   UNL d   1      -1.522  -4.833  -1.996  0.00  0.00     0.077 C 
ATOM      2  C1  UNL d   1      -2.062  -4.850  -3.395  0.00  0.00    -0.074 A 
ATOM      3  C2  UNL d   1      -1.839  -5.944  -4.238  0.00  0.00    -0.005 A 
ATOM      4  C3  UNL d   1      -2.355  -5.950  -5.534  0.00  0.00     0.006 A 
ATOM      5  C4  UNL d   1      -3.098  -4.864  -5.999  0.00  0.00    -0.005 A 
ATOM      6  C5  UNL d   1      -3.332  -3.762  -5.170  0.00  0.00    -0.074 A 
ATOM      7  C6  UNL d   1      -4.137  -2.591  -5.651  0.00  0.00     0.077 C 
ATOM      8  C7  UNL d   1      -2.816  -3.767  -3.867  0.00  0.00    -0.001 A 
ENDROOT
TORSDOF 0
ENDMDL
