MODEL 1
REMARK minimizedAffinity 16.1824265
REMARK minimizedRMSD -1
REMARK  0 active torsions:
REMARK  status: ('A' for Active; 'I' for Inactive)
ROOT
ATOM      1  C   UNL d   1      -0.824   1.326   2.578  0.00  0.00     0.077 C 
ATOM      2  C1  UNL d   1      -2.301   1.174   2.788  0.00  0.00    -0.074 A 
ATOM      3  C2  UNL d   1      -2.958  -0.012   2.441  0.00  0.00    -0.005 A 
ATOM      4  C3  UNL d   1      -4.331  -0.142   2.651  0.00  0.00     0.006 A 
ATOM      5  C4  UNL d   1      -5.059   0.910   3.208  0.00  0.00    -0.005 A 
ATOM      6  C5  UNL d   1      -4.420   2.102   3.561  0.00  0.00    -0.074 A 
ATOM      7  C6  UNL d   1      -5.186   3.238   4.170  0.00  0.00     0.077 C 
ATOM      8  C7  UNL d   1      -3.039   2.223   3.354  0.00  0.00    -0.001 A 
ENDROOT
TORSDOF 0
ENDMDL
