MODEL 1
REMARK minimizedAffinity 7.61351013
REMARK minimizedRMSD -1
REMARK  0 active torsions:
REMARK  status: ('A' for Active; 'I' for Inactive)
ROOT
ATOM      1  C   UNL d   1       1.307  -0.705  -1.674  0.00  0.00     0.077 C 
ATOM      2  C1  UNL d   1       2.663  -0.911  -1.067  0.00  0.00    -0.074 A 
ATOM      3  C2  UNL d   1       3.028  -2.147  -0.523  0.00  0.00    -0.005 A 
ATOM      4  C3  UNL d   1       4.296  -2.326   0.029  0.00  0.00     0.006 A 
ATOM      5  C4  UNL d   1       5.211  -1.273   0.044  0.00  0.00    -0.005 A 
ATOM      6  C5  UNL d   1       4.865  -0.030  -0.496  0.00  0.00    -0.074 A 
ATOM      7  C6  UNL d   1       5.840   1.109  -0.497  0.00  0.00     0.077 C 
ATOM      8  C7  UNL d   1       3.591   0.140  -1.055  0.00  0.00    -0.001 A 
ENDROOT
TORSDOF 0
ENDMDL
