MODEL 1
REMARK minimizedAffinity 13.2231083
REMARK minimizedRMSD -1
REMARK  0 active torsions:
REMARK  status: ('A' for Active; 'I' for Inactive)
ROOT
ATOM      1  C   UNL d   1       4.095   0.905   0.890  0.00  0.00     0.077 C 
ATOM      2  C1  UNL d   1       3.470  -0.237   0.145  0.00  0.00    -0.074 A 
ATOM      3  C2  UNL d   1       2.655  -0.008  -0.969  0.00  0.00    -0.005 A 
ATOM      4  C3  UNL d   1       2.089  -1.081  -1.658  0.00  0.00     0.006 A 
ATOM      5  C4  UNL d   1       2.330  -2.390  -1.241  0.00  0.00    -0.005 A 
ATOM      6  C5  UNL d   1       3.143  -2.638  -0.130  0.00  0.00    -0.074 A 
ATOM      7  C6  UNL d   1       3.420  -4.040   0.326  0.00  0.00     0.077 C 
ATOM      8  C7  UNL d   1       3.714  -1.556   0.553  0.00  0.00    -0.001 A 
ENDROOT
TORSDOF 0
ENDMDL
