MODEL 1
REMARK minimizedAffinity 21.1628056
REMARK minimizedRMSD -1
REMARK  0 active torsions:
REMARK  status: ('A' for Active; 'I' for Inactive)
ROOT
ATOM      1  C   UNL d   1       5.893  -2.565   0.501  0.00  0.00     0.077 C 
ATOM      2  C1  UNL d   1       4.681  -1.712   0.266  0.00  0.00    -0.074 A 
ATOM      3  C2  UNL d   1       3.466  -2.282  -0.125  0.00  0.00    -0.005 A 
ATOM      4  C3  UNL d   1       2.345  -1.477  -0.331  0.00  0.00     0.006 A 
ATOM      5  C4  UNL d   1       2.429  -0.097  -0.148  0.00  0.00    -0.005 A 
ATOM      6  C5  UNL d   1       3.636   0.491   0.244  0.00  0.00    -0.074 A 
ATOM      7  C6  UNL d   1       3.741   1.973   0.454  0.00  0.00     0.077 C 
ATOM      8  C7  UNL d   1       4.755  -0.325   0.455  0.00  0.00    -0.001 A 
ENDROOT
TORSDOF 0
ENDMDL
