MODEL 1
REMARK minimizedAffinity 7.53208828
REMARK minimizedRMSD -1
REMARK  0 active torsions:
REMARK  status: ('A' for Active; 'I' for Inactive)
ROOT
ATOM      1  C   UNL d   1       2.239  -0.044   1.106  0.00  0.00     0.077 C 
ATOM      2  C1  UNL d   1       2.790  -1.388   0.734  0.00  0.00    -0.074 A 
ATOM      3  C2  UNL d   1       2.041  -2.285  -0.035  0.00  0.00    -0.005 A 
ATOM      4  C3  UNL d   1       2.571  -3.528  -0.381  0.00  0.00     0.006 A 
ATOM      5  C4  UNL d   1       3.853  -3.887   0.037  0.00  0.00    -0.005 A 
ATOM      6  C5  UNL d   1       4.617  -3.003   0.806  0.00  0.00    -0.074 A 
ATOM      7  C6  UNL d   1       6.000  -3.369   1.257  0.00  0.00     0.077 C 
ATOM      8  C7  UNL d   1       4.080  -1.753   1.144  0.00  0.00    -0.001 A 
ENDROOT
TORSDOF 0
ENDMDL
