MODEL 1
REMARK minimizedAffinity 12.3418159
REMARK minimizedRMSD -1
REMARK  0 active torsions:
REMARK  status: ('A' for Active; 'I' for Inactive)
ROOT
ATOM      1  C   UNL d   1       1.769   0.047  -2.455  0.00  0.00     0.077 C 
ATOM      2  C1  UNL d   1       1.433  -1.324  -1.948  0.00  0.00    -0.074 A 
ATOM      3  C2  UNL d   1       2.037  -1.831  -0.793  0.00  0.00    -0.005 A 
ATOM      4  C3  UNL d   1       1.707  -3.104  -0.327  0.00  0.00     0.006 A 
ATOM      5  C4  UNL d   1       0.773  -3.882  -1.012  0.00  0.00    -0.005 A 
ATOM      6  C5  UNL d   1       0.158  -3.392  -2.168  0.00  0.00    -0.074 A 
ATOM      7  C6  UNL d   1      -0.856  -4.211  -2.910  0.00  0.00     0.077 C 
ATOM      8  C7  UNL d   1       0.489  -2.109  -2.625  0.00  0.00    -0.001 A 
ENDROOT
TORSDOF 0
ENDMDL
