MODEL 1
REMARK minimizedAffinity 7.56222582
REMARK minimizedRMSD -1
REMARK  0 active torsions:
REMARK  status: ('A' for Active; 'I' for Inactive)
ROOT
ATOM      1  C   UNL d   1       2.023  -1.999  -4.349  0.00  0.00     0.077 C 
ATOM      2  C1  UNL d   1       1.956  -1.124  -3.132  0.00  0.00    -0.074 A 
ATOM      3  C2  UNL d   1       1.624  -1.656  -1.882  0.00  0.00    -0.005 A 
ATOM      4  C3  UNL d   1       1.574  -0.832  -0.758  0.00  0.00     0.006 A 
ATOM      5  C4  UNL d   1       1.855   0.530  -0.872  0.00  0.00    -0.005 A 
ATOM      6  C5  UNL d   1       2.189   1.080  -2.114  0.00  0.00    -0.074 A 
ATOM      7  C6  UNL d   1       2.504   2.540  -2.252  0.00  0.00     0.077 C 
ATOM      8  C7  UNL d   1       2.244   0.244  -3.237  0.00  0.00    -0.001 A 
ENDROOT
TORSDOF 0
ENDMDL
