MODEL 1
REMARK minimizedAffinity 21.1045341
REMARK minimizedRMSD -1
REMARK  0 active torsions:
REMARK  status: ('A' for Active; 'I' for Inactive)
ROOT
ATOM      1  C   UNL d   1      -2.720  -5.668  -1.745  0.00  0.00     0.077 C 
ATOM      2  C1  UNL d   1      -2.996  -4.686  -2.845  0.00  0.00    -0.074 A 
ATOM      3  C2  UNL d   1      -2.132  -3.613  -3.083  0.00  0.00    -0.005 A 
ATOM      4  C3  UNL d   1      -2.396  -2.713  -4.116  0.00  0.00     0.006 A 
ATOM      5  C4  UNL d   1      -3.525  -2.878  -4.919  0.00  0.00    -0.005 A 
ATOM      6  C5  UNL d   1      -4.400  -3.946  -4.696  0.00  0.00    -0.074 A 
ATOM      7  C6  UNL d   1      -5.612  -4.143  -5.557  0.00  0.00     0.077 C 
ATOM      8  C7  UNL d   1      -4.124  -4.849  -3.661  0.00  0.00    -0.001 A 
ENDROOT
TORSDOF 0
ENDMDL
