MODEL 1
REMARK minimizedAffinity 14.2824326
REMARK minimizedRMSD -1
REMARK  0 active torsions:
REMARK  status: ('A' for Active; 'I' for Inactive)
ROOT
ATOM      1  C   UNL d   1      -2.067  -4.715  -2.657  0.00  0.00     0.077 C 
ATOM      2  C1  UNL d   1      -3.006  -4.323  -3.760  0.00  0.00    -0.074 A 
ATOM      3  C2  UNL d   1      -3.061  -3.005  -4.224  0.00  0.00    -0.005 A 
ATOM      4  C3  UNL d   1      -3.932  -2.658  -5.256  0.00  0.00     0.006 A 
ATOM      5  C4  UNL d   1      -4.757  -3.624  -5.834  0.00  0.00    -0.005 A 
ATOM      6  C5  UNL d   1      -4.716  -4.947  -5.383  0.00  0.00    -0.074 A 
ATOM      7  C6  UNL d   1      -5.589  -6.000  -6.000  0.00  0.00     0.077 C 
ATOM      8  C7  UNL d   1      -3.833  -5.290  -4.350  0.00  0.00    -0.001 A 
ENDROOT
TORSDOF 0
ENDMDL
