MODEL 1
REMARK minimizedAffinity 24.9186306
REMARK minimizedRMSD -1
REMARK  0 active torsions:
REMARK  status: ('A' for Active; 'I' for Inactive)
ROOT
ATOM      1  C   UNL d   1      -2.939  -0.109   3.750  0.00  0.00     0.077 C 
ATOM      2  C1  UNL d   1      -3.657   1.115   4.234  0.00  0.00    -0.074 A 
ATOM      3  C2  UNL d   1      -3.521   1.553   5.555  0.00  0.00    -0.005 A 
ATOM      4  C3  UNL d   1      -4.187   2.700   5.988  0.00  0.00     0.006 A 
ATOM      5  C4  UNL d   1      -4.995   3.418   5.106  0.00  0.00    -0.005 A 
ATOM      6  C5  UNL d   1      -5.143   2.996   3.781  0.00  0.00    -0.074 A 
ATOM      7  C6  UNL d   1      -6.000   3.762   2.818  0.00  0.00     0.077 C 
ATOM      8  C7  UNL d   1      -4.465   1.847   3.352  0.00  0.00    -0.001 A 
ENDROOT
TORSDOF 0
ENDMDL
