MODEL 1
REMARK minimizedAffinity -3.66205025
REMARK minimizedRMSD -1
REMARK  2 active torsions:
REMARK  status: ('A' for Active; 'I' for Inactive)
REMARK    1  A    between atoms: C1_2  and  C2_3 
REMARK    2  A    between atoms: C2_3  and  C3_4 
ROOT
ATOM      1  C3  UNL d   1       0.791  -2.876   1.279  0.00  0.00    -0.075 A 
ATOM      2  C4  UNL d   1       1.232  -4.194   1.099  0.00  0.00     0.002 A 
ATOM      3  C5  UNL d   1       1.863  -4.879   2.137  0.00  0.00     0.002 A 
ATOM      4  C6  UNL d   1       2.070  -4.252   3.364  0.00  0.00    -0.004 A 
ATOM      5  C7  UNL d   1       1.651  -2.936   3.550  0.00  0.00     0.002 A 
ATOM      6  C8  UNL d   1       1.015  -2.251   2.513  0.00  0.00     0.002 A 
ENDROOT
BRANCH   1   7
ATOM      7  C2  UNL d   1       0.080  -2.139   0.169  0.00  0.00     0.056 C 
BRANCH   7   8
ATOM      8  C1  UNL d   1      -1.413  -2.463   0.061  0.00  0.00     0.007 C 
ATOM      9  C   UNL d   1      -2.076  -1.842  -1.161  0.00  0.00     0.009 C 
ENDBRANCH   7   8
ENDBRANCH   1   7
TORSDOF 2
ENDMDL
