MODEL 1
REMARK minimizedAffinity -0.852000415
REMARK minimizedRMSD -1
REMARK  2 active torsions:
REMARK  status: ('A' for Active; 'I' for Inactive)
REMARK    1  A    between atoms: C1_2  and  C2_3 
REMARK    2  A    between atoms: C2_3  and  C3_4 
ROOT
ATOM      1  C3  UNL d   1       2.696  -5.925  -3.576  0.00  0.00    -0.075 A 
ATOM      2  C4  UNL d   1       2.103  -5.940  -4.847  0.00  0.00     0.002 A 
ATOM      3  C5  UNL d   1       2.892  -5.900  -5.997  0.00  0.00     0.002 A 
ATOM      4  C6  UNL d   1       4.279  -5.833  -5.892  0.00  0.00    -0.004 A 
ATOM      5  C7  UNL d   1       4.878  -5.801  -4.634  0.00  0.00     0.002 A 
ATOM      6  C8  UNL d   1       4.092  -5.846  -3.482  0.00  0.00     0.002 A 
ENDROOT
BRANCH   1   7
ATOM      7  C2  UNL d   1       1.849  -5.999  -2.328  0.00  0.00     0.056 C 
BRANCH   7   8
ATOM      8  C1  UNL d   1       2.654  -5.954  -1.025  0.00  0.00     0.007 C 
ATOM      9  C   UNL d   1       1.781  -5.993   0.222  0.00  0.00     0.009 C 
ENDBRANCH   7   8
ENDBRANCH   1   7
TORSDOF 2
ENDMDL
