MODEL 1
REMARK minimizedAffinity 0.915285468
REMARK minimizedRMSD -1
REMARK  2 active torsions:
REMARK  status: ('A' for Active; 'I' for Inactive)
REMARK    1  A    between atoms: C1_2  and  C2_3 
REMARK    2  A    between atoms: C2_3  and  C3_4 
ROOT
ATOM      1  C3  UNL d   1       3.735  -5.927  -2.478  0.00  0.00    -0.075 A 
ATOM      2  C4  UNL d   1       2.589  -5.987  -3.284  0.00  0.00     0.002 A 
ATOM      3  C5  UNL d   1       2.699  -5.971  -4.675  0.00  0.00     0.002 A 
ATOM      4  C6  UNL d   1       3.953  -5.885  -5.276  0.00  0.00    -0.004 A 
ATOM      5  C7  UNL d   1       5.097  -5.808  -4.485  0.00  0.00     0.002 A 
ATOM      6  C8  UNL d   1       4.990  -5.828  -3.094  0.00  0.00     0.002 A 
ENDROOT
BRANCH   1   7
ATOM      7  C2  UNL d   1       3.625  -5.973  -0.973  0.00  0.00     0.056 C 
BRANCH   7   8
ATOM      8  C1  UNL d   1       4.965  -5.830  -0.244  0.00  0.00     0.007 C 
ATOM      9  C   UNL d   1       4.814  -5.630   1.258  0.00  0.00     0.009 C 
ENDBRANCH   7   8
ENDBRANCH   1   7
TORSDOF 2
ENDMDL
