MODEL 1
REMARK minimizedAffinity 7.14022446
REMARK minimizedRMSD -1
REMARK  2 active torsions:
REMARK  status: ('A' for Active; 'I' for Inactive)
REMARK    1  A    between atoms: C1_2  and  C2_3 
REMARK    2  A    between atoms: C2_3  and  C3_4 
ROOT
ATOM      1  C3  UNL d   1       1.851  -0.525   2.166  0.00  0.00    -0.075 A 
ATOM      2  C4  UNL d   1       2.172  -0.001   3.427  0.00  0.00     0.002 A 
ATOM      3  C5  UNL d   1       2.731   1.271   3.544  0.00  0.00     0.002 A 
ATOM      4  C6  UNL d   1       2.986   2.031   2.405  0.00  0.00    -0.004 A 
ATOM      5  C7  UNL d   1       2.687   1.514   1.146  0.00  0.00     0.002 A 
ATOM      6  C8  UNL d   1       2.123   0.243   1.026  0.00  0.00     0.002 A 
ENDROOT
BRANCH   1   7
ATOM      7  C2  UNL d   1       1.218  -1.890   2.034  0.00  0.00     0.056 C 
BRANCH   7   8
ATOM      8  C1  UNL d   1       0.789  -2.243   0.607  0.00  0.00     0.007 C 
ATOM      9  C   UNL d   1      -0.705  -2.068   0.368  0.00  0.00     0.009 C 
ENDBRANCH   7   8
ENDBRANCH   1   7
TORSDOF 2
ENDMDL
