MODEL 1
REMARK minimizedAffinity 11.156435
REMARK minimizedRMSD -1
REMARK  2 active torsions:
REMARK  status: ('A' for Active; 'I' for Inactive)
REMARK    1  A    between atoms: C1_2  and  C2_3 
REMARK    2  A    between atoms: C2_3  and  C3_4 
ROOT
ATOM      1  C3  UNL d   1      -3.481  -0.708  -3.343  0.00  0.00    -0.075 A 
ATOM      2  C4  UNL d   1      -2.453  -0.367  -2.452  0.00  0.00     0.002 A 
ATOM      3  C5  UNL d   1      -2.322   0.943  -1.990  0.00  0.00     0.002 A 
ATOM      4  C6  UNL d   1      -3.208   1.929  -2.419  0.00  0.00    -0.004 A 
ATOM      5  C7  UNL d   1      -4.222   1.605  -3.317  0.00  0.00     0.002 A 
ATOM      6  C8  UNL d   1      -4.359   0.294  -3.778  0.00  0.00     0.002 A 
ENDROOT
BRANCH   1   7
ATOM      7  C2  UNL d   1      -3.646  -2.130  -3.824  0.00  0.00     0.056 C 
BRANCH   7   8
ATOM      8  C1  UNL d   1      -4.278  -3.068  -2.790  0.00  0.00     0.007 C 
ATOM      9  C   UNL d   1      -5.635  -2.588  -2.294  0.00  0.00     0.009 C 
ENDBRANCH   7   8
ENDBRANCH   1   7
TORSDOF 2
ENDMDL
