MODEL 1
REMARK minimizedAffinity 5.97387743
REMARK minimizedRMSD -1
REMARK  2 active torsions:
REMARK  status: ('A' for Active; 'I' for Inactive)
REMARK    1  A    between atoms: C1_2  and  C2_3 
REMARK    2  A    between atoms: C2_3  and  C3_4 
ROOT
ATOM      1  C3  UNL d   1       3.640  -3.131   3.899  0.00  0.00    -0.075 A 
ATOM      2  C4  UNL d   1       3.659  -3.508   5.249  0.00  0.00     0.002 A 
ATOM      3  C5  UNL d   1       4.830  -3.400   5.999  0.00  0.00     0.002 A 
ATOM      4  C6  UNL d   1       5.998  -2.923   5.408  0.00  0.00    -0.004 A 
ATOM      5  C7  UNL d   1       5.995  -2.561   4.062  0.00  0.00     0.002 A 
ATOM      6  C8  UNL d   1       4.824  -2.664   3.311  0.00  0.00     0.002 A 
ENDROOT
BRANCH   1   7
ATOM      7  C2  UNL d   1       2.369  -3.218   3.090  0.00  0.00     0.056 C 
BRANCH   7   8
ATOM      8  C1  UNL d   1       1.642  -1.879   2.923  0.00  0.00     0.007 C 
ATOM      9  C   UNL d   1       2.264  -0.987   1.858  0.00  0.00     0.009 C 
ENDBRANCH   7   8
ENDBRANCH   1   7
TORSDOF 2
ENDMDL
