MODEL 1
REMARK minimizedAffinity 8.633605
REMARK minimizedRMSD -1
REMARK  1 active torsions:
REMARK  status: ('A' for Active; 'I' for Inactive)
REMARK    1  A    between atoms: C1_2  and  C2_3 
ROOT
ATOM      1  C2  UNL d   1      -3.625   0.048   1.268  0.00  0.00    -0.077 A 
ATOM      2  C3  UNL d   1      -2.356  -0.534   1.140  0.00  0.00     0.002 A 
ATOM      3  C4  UNL d   1      -1.246   0.051   1.752  0.00  0.00     0.002 A 
ATOM      4  C5  UNL d   1      -1.394   1.217   2.499  0.00  0.00    -0.004 A 
ATOM      5  C6  UNL d   1      -2.651   1.805   2.631  0.00  0.00     0.002 A 
ATOM      6  C7  UNL d   1      -3.762   1.223   2.019  0.00  0.00     0.002 A 
ENDROOT
BRANCH   1   7
ATOM      7  C1  UNL d   1      -4.832  -0.608   0.650  0.00  0.00     0.055 C 
ATOM      8  C   UNL d   1      -4.739  -2.124   0.728  0.00  0.00     0.019 C 
ENDBRANCH   1   7
TORSDOF 1
ENDMDL
