MODEL 1
REMARK minimizedAffinity 5.9514699
REMARK minimizedRMSD -1
REMARK  1 active torsions:
REMARK  status: ('A' for Active; 'I' for Inactive)
REMARK    1  A    between atoms: C1_2  and  C2_3 
ROOT
ATOM      1  C2  UNL d   1      -2.850  -2.679  -5.949  0.00  0.00    -0.077 A 
ATOM      2  C3  UNL d   1      -3.575  -3.878  -5.983  0.00  0.00     0.002 A 
ATOM      3  C4  UNL d   1      -4.971  -3.860  -5.982  0.00  0.00     0.002 A 
ATOM      4  C5  UNL d   1      -5.654  -2.646  -5.951  0.00  0.00    -0.004 A 
ATOM      5  C6  UNL d   1      -4.942  -1.448  -5.915  0.00  0.00     0.002 A 
ATOM      6  C7  UNL d   1      -3.547  -1.464  -5.915  0.00  0.00     0.002 A 
ENDROOT
BRANCH   1   7
ATOM      7  C1  UNL d   1      -1.345  -2.695  -5.999  0.00  0.00     0.055 C 
ATOM      8  C   UNL d   1      -0.804  -4.116  -5.931  0.00  0.00     0.019 C 
ENDBRANCH   1   7
TORSDOF 1
ENDMDL
