MODEL 1
REMARK minimizedAffinity 1.67009997
REMARK minimizedRMSD -1
REMARK  1 active torsions:
REMARK  status: ('A' for Active; 'I' for Inactive)
REMARK    1  A    between atoms: C1_2  and  C2_3 
ROOT
ATOM      1  C2  UNL d   1      -2.722   0.411   2.202  0.00  0.00    -0.077 A 
ATOM      2  C3  UNL d   1      -3.427   0.709   3.376  0.00  0.00     0.002 A 
ATOM      3  C4  UNL d   1      -4.780   1.051   3.320  0.00  0.00     0.002 A 
ATOM      4  C5  UNL d   1      -5.439   1.093   2.094  0.00  0.00    -0.004 A 
ATOM      5  C6  UNL d   1      -4.746   0.799   0.920  0.00  0.00     0.002 A 
ATOM      6  C7  UNL d   1      -3.394   0.459   0.974  0.00  0.00     0.002 A 
ENDROOT
BRANCH   1   7
ATOM      7  C1  UNL d   1      -1.275  -0.005   2.265  0.00  0.00     0.055 C 
ATOM      8  C   UNL d   1      -1.092  -1.243   3.132  0.00  0.00     0.019 C 
ENDBRANCH   1   7
TORSDOF 1
ENDMDL
