MODEL 1
REMARK minimizedAffinity 6.22955322
REMARK minimizedRMSD -1
REMARK  1 active torsions:
REMARK  status: ('A' for Active; 'I' for Inactive)
REMARK    1  A    between atoms: C1_2  and  C2_3 
ROOT
ATOM      1  C2  UNL d   1      -2.536  -1.697  -5.934  0.00  0.00    -0.077 A 
ATOM      2  C3  UNL d   1      -1.843  -2.916  -5.933  0.00  0.00     0.002 A 
ATOM      3  C4  UNL d   1      -2.542  -4.124  -5.950  0.00  0.00     0.002 A 
ATOM      4  C5  UNL d   1      -3.935  -4.126  -5.972  0.00  0.00    -0.004 A 
ATOM      5  C6  UNL d   1      -4.633  -2.919  -5.971  0.00  0.00     0.002 A 
ATOM      6  C7  UNL d   1      -3.936  -1.710  -5.953  0.00  0.00     0.002 A 
ENDROOT
BRANCH   1   7
ATOM      7  C1  UNL d   1      -1.784  -0.392  -5.965  0.00  0.00     0.055 C 
ATOM      8  C   UNL d   1      -0.280  -0.620  -5.989  0.00  0.00     0.019 C 
ENDBRANCH   1   7
TORSDOF 1
ENDMDL
