MODEL 1
REMARK minimizedAffinity -5.00302982
REMARK minimizedRMSD -1
REMARK  1 active torsions:
REMARK  status: ('A' for Active; 'I' for Inactive)
REMARK    1  A    between atoms: C1_2  and  C2_3 
ROOT
ATOM      1  C2  UNL d   1      -2.738  -0.821   1.126  0.00  0.00    -0.077 A 
ATOM      2  C3  UNL d   1      -1.358  -0.655   0.939  0.00  0.00     0.002 A 
ATOM      3  C4  UNL d   1      -0.652   0.288   1.689  0.00  0.00     0.002 A 
ATOM      4  C5  UNL d   1      -1.316   1.069   2.633  0.00  0.00    -0.004 A 
ATOM      5  C6  UNL d   1      -2.689   0.913   2.824  0.00  0.00     0.002 A 
ATOM      6  C7  UNL d   1      -3.396  -0.029   2.075  0.00  0.00     0.002 A 
ENDROOT
BRANCH   1   7
ATOM      7  C1  UNL d   1      -3.492  -1.872   0.353  0.00  0.00     0.055 C 
ATOM      8  C   UNL d   1      -2.825  -3.234   0.475  0.00  0.00     0.019 C 
ENDBRANCH   1   7
TORSDOF 1
ENDMDL
