MODEL 1
REMARK minimizedAffinity 7.55405855
REMARK minimizedRMSD -1
REMARK  1 active torsions:
REMARK  status: ('A' for Active; 'I' for Inactive)
REMARK    1  A    between atoms: C1_2  and  C2_3 
ROOT
ATOM      1  C2  UNL d   1      -1.652   0.315   2.569  0.00  0.00    -0.077 A 
ATOM      2  C3  UNL d   1      -2.590   0.214   3.606  0.00  0.00     0.002 A 
ATOM      3  C4  UNL d   1      -3.957   0.211   3.325  0.00  0.00     0.002 A 
ATOM      4  C5  UNL d   1      -4.399   0.304   2.007  0.00  0.00    -0.004 A 
ATOM      5  C6  UNL d   1      -3.475   0.407   0.968  0.00  0.00     0.002 A 
ATOM      6  C7  UNL d   1      -2.107   0.412   1.248  0.00  0.00     0.002 A 
ENDROOT
BRANCH   1   7
ATOM      7  C1  UNL d   1      -0.176   0.270   2.867  0.00  0.00     0.055 C 
ATOM      8  C   UNL d   1       0.254  -1.117   3.321  0.00  0.00     0.019 C 
ENDBRANCH   1   7
TORSDOF 1
ENDMDL
