MODEL 1
REMARK minimizedAffinity -2.36034799
REMARK minimizedRMSD -1
REMARK  1 active torsions:
REMARK  status: ('A' for Active; 'I' for Inactive)
REMARK    1  A    between atoms: C1_2  and  C2_3 
ROOT
ATOM      1  C2  UNL d   1      -3.988   0.986   3.641  0.00  0.00    -0.077 A 
ATOM      2  C3  UNL d   1      -4.576   0.912   2.370  0.00  0.00     0.002 A 
ATOM      3  C4  UNL d   1      -3.779   0.819   1.227  0.00  0.00     0.002 A 
ATOM      4  C5  UNL d   1      -2.391   0.796   1.344  0.00  0.00    -0.004 A 
ATOM      5  C6  UNL d   1      -1.796   0.871   2.603  0.00  0.00     0.002 A 
ATOM      6  C7  UNL d   1      -2.591   0.965   3.746  0.00  0.00     0.002 A 
ENDROOT
BRANCH   1   7
ATOM      7  C1  UNL d   1      -4.847   1.036   4.877  0.00  0.00     0.055 C 
ATOM      8  C   UNL d   1      -4.450  -0.046   5.871  0.00  0.00     0.019 C 
ENDBRANCH   1   7
TORSDOF 1
ENDMDL
