MODEL 1
REMARK minimizedAffinity 11.9899225
REMARK minimizedRMSD -1
REMARK  1 active torsions:
REMARK  status: ('A' for Active; 'I' for Inactive)
REMARK    1  A    between atoms: C1_2  and  C2_3 
ROOT
ATOM      1  C2  UNL d   1      -4.420   4.360   3.799  0.00  0.00    -0.077 A 
ATOM      2  C3  UNL d   1      -3.430   5.178   4.360  0.00  0.00     0.002 A 
ATOM      3  C4  UNL d   1      -3.724   5.996   5.453  0.00  0.00     0.002 A 
ATOM      4  C5  UNL d   1      -5.007   5.999   5.996  0.00  0.00    -0.004 A 
ATOM      5  C6  UNL d   1      -5.999   5.191   5.444  0.00  0.00     0.002 A 
ATOM      6  C7  UNL d   1      -5.707   4.374   4.351  0.00  0.00     0.002 A 
ENDROOT
BRANCH   1   7
ATOM      7  C1  UNL d   1      -4.092   3.441   2.651  0.00  0.00     0.055 C 
ATOM      8  C   UNL d   1      -2.631   3.565   2.243  0.00  0.00     0.019 C 
ENDBRANCH   1   7
TORSDOF 1
ENDMDL
