MODEL 1
REMARK minimizedAffinity 8.91980457
REMARK minimizedRMSD -1
REMARK  1 active torsions:
REMARK  status: ('A' for Active; 'I' for Inactive)
REMARK    1  A    between atoms: C1_2  and  C2_3 
ROOT
ATOM      1  C2  UNL d   1      -4.396   0.641   3.409  0.00  0.00    -0.077 A 
ATOM      2  C3  UNL d   1      -4.046  -0.238   4.444  0.00  0.00     0.002 A 
ATOM      3  C4  UNL d   1      -4.544  -0.044   5.734  0.00  0.00     0.002 A 
ATOM      4  C5  UNL d   1      -5.398   1.024   5.999  0.00  0.00    -0.004 A 
ATOM      5  C6  UNL d   1      -5.751   1.904   4.977  0.00  0.00     0.002 A 
ATOM      6  C7  UNL d   1      -5.253   1.713   3.688  0.00  0.00     0.002 A 
ENDROOT
BRANCH   1   7
ATOM      7  C1  UNL d   1      -3.899   0.405   2.007  0.00  0.00     0.055 C 
ATOM      8  C   UNL d   1      -2.638   1.208   1.724  0.00  0.00     0.019 C 
ENDBRANCH   1   7
TORSDOF 1
ENDMDL
