MODEL 1
REMARK minimizedAffinity 5.7853694
REMARK minimizedRMSD -1
REMARK  1 active torsions:
REMARK  status: ('A' for Active; 'I' for Inactive)
REMARK    1  A    between atoms: C1_2  and  C2_3 
ROOT
ATOM      1  C2  UNL d   1      -0.679  -0.700  -5.221  0.00  0.00    -0.077 A 
ATOM      2  C3  UNL d   1      -0.627  -2.044  -5.614  0.00  0.00     0.002 A 
ATOM      3  C4  UNL d   1      -1.791  -2.713  -6.000  0.00  0.00     0.002 A 
ATOM      4  C5  UNL d   1      -3.013  -2.044  -6.000  0.00  0.00    -0.004 A 
ATOM      5  C6  UNL d   1      -3.075  -0.707  -5.609  0.00  0.00     0.002 A 
ATOM      6  C7  UNL d   1      -1.913  -0.038  -5.222  0.00  0.00     0.002 A 
ENDROOT
BRANCH   1   7
ATOM      7  C1  UNL d   1       0.582   0.037  -4.853  0.00  0.00     0.055 C 
ATOM      8  C   UNL d   1       1.108  -0.409  -3.496  0.00  0.00     0.019 C 
ENDBRANCH   1   7
TORSDOF 1
ENDMDL
