MODEL 1
REMARK minimizedAffinity 9.83263302
REMARK minimizedRMSD -1
REMARK  1 active torsions:
REMARK  status: ('A' for Active; 'I' for Inactive)
REMARK    1  A    between atoms: C1_2  and  C2_3 
ROOT
ATOM      1  C2  UNL d   1       5.049  -3.239   2.606  0.00  0.00    -0.077 A 
ATOM      2  C3  UNL d   1       6.000  -3.937   3.364  0.00  0.00     0.002 A 
ATOM      3  C4  UNL d   1       5.865  -5.311   3.574  0.00  0.00     0.002 A 
ATOM      4  C5  UNL d   1       4.785  -5.999   3.026  0.00  0.00    -0.004 A 
ATOM      5  C6  UNL d   1       3.833  -5.313   2.273  0.00  0.00     0.002 A 
ATOM      6  C7  UNL d   1       3.965  -3.940   2.062  0.00  0.00     0.002 A 
ENDROOT
BRANCH   1   7
ATOM      7  C1  UNL d   1       5.219  -1.767   2.336  0.00  0.00     0.055 C 
ATOM      8  C   UNL d   1       4.661  -0.928   3.477  0.00  0.00     0.019 C 
ENDBRANCH   1   7
TORSDOF 1
ENDMDL
