MODEL 1
REMARK minimizedAffinity -1.04017115
REMARK minimizedRMSD -1
REMARK  1 active torsions:
REMARK  status: ('A' for Active; 'I' for Inactive)
REMARK    1  A    between atoms: C1_2  and  C2_3 
ROOT
ATOM      1  C2  UNL d   1      -5.264   2.052   3.827  0.00  0.00    -0.077 A 
ATOM      2  C3  UNL d   1      -4.927   2.572   2.569  0.00  0.00     0.002 A 
ATOM      3  C4  UNL d   1      -4.287   1.771   1.622  0.00  0.00     0.002 A 
ATOM      4  C5  UNL d   1      -3.982   0.444   1.921  0.00  0.00    -0.004 A 
ATOM      5  C6  UNL d   1      -4.312  -0.082   3.169  0.00  0.00     0.002 A 
ATOM      6  C7  UNL d   1      -4.951   0.718   4.117  0.00  0.00     0.002 A 
ENDROOT
BRANCH   1   7
ATOM      7  C1  UNL d   1      -5.999   2.900   4.832  0.00  0.00     0.055 C 
ATOM      8  C   UNL d   1      -5.523   4.345   4.790  0.00  0.00     0.019 C 
ENDBRANCH   1   7
TORSDOF 1
ENDMDL
