MODEL 1
REMARK minimizedAffinity -4.68573666
REMARK minimizedRMSD -1
REMARK  2 active torsions:
REMARK  status: ('A' for Active; 'I' for Inactive)
REMARK    1  A    between atoms: C1_2  and  C2_3 
REMARK    2  A    between atoms: C2_3  and  C3_4 
ROOT
ATOM      1  C3  UNL d   1       0.666   1.077   0.140  0.00  0.00    -0.075 A 
ATOM      2  C4  UNL d   1      -0.473   0.261   0.087  0.00  0.00     0.002 A 
ATOM      3  C5  UNL d   1      -0.366  -1.083  -0.271  0.00  0.00     0.002 A 
ATOM      4  C6  UNL d   1       0.877  -1.625  -0.589  0.00  0.00    -0.004 A 
ATOM      5  C7  UNL d   1       2.014  -0.820  -0.556  0.00  0.00     0.002 A 
ATOM      6  C8  UNL d   1       1.910   0.524  -0.194  0.00  0.00     0.002 A 
ENDROOT
BRANCH   1   7
ATOM      7  C2  UNL d   1       0.561   2.525   0.555  0.00  0.00     0.056 C 
BRANCH   7   8
ATOM      8  C1  UNL d   1       1.351   2.870   1.822  0.00  0.00     0.007 C 
ATOM      9  C   UNL d   1       1.047   1.941   2.990  0.00  0.00     0.009 C 
ENDBRANCH   7   8
ENDBRANCH   1   7
TORSDOF 2
ENDMDL
