MODEL 1
REMARK minimizedAffinity -5.41360235
REMARK minimizedRMSD -1
REMARK  2 active torsions:
REMARK  status: ('A' for Active; 'I' for Inactive)
REMARK    1  A    between atoms: C1_2  and  C2_3 
REMARK    2  A    between atoms: C2_3  and  C3_4 
ROOT
ATOM      1  C3  UNL d   1      -0.155  -0.144   0.018  0.00  0.00    -0.075 A 
ATOM      2  C4  UNL d   1       0.329   1.006  -0.621  0.00  0.00     0.002 A 
ATOM      3  C5  UNL d   1       0.508   2.192   0.093  0.00  0.00     0.002 A 
ATOM      4  C6  UNL d   1       0.196   2.245   1.450  0.00  0.00    -0.004 A 
ATOM      5  C7  UNL d   1      -0.301   1.113   2.091  0.00  0.00     0.002 A 
ATOM      6  C8  UNL d   1      -0.477  -0.076   1.380  0.00  0.00     0.002 A 
ENDROOT
BRANCH   1   7
ATOM      7  C2  UNL d   1      -0.323  -1.438  -0.742  0.00  0.00     0.056 C 
BRANCH   7   8
ATOM      8  C1  UNL d   1      -1.635  -1.533  -1.529  0.00  0.00     0.007 C 
ATOM      9  C   UNL d   1      -1.428  -1.557  -3.038  0.00  0.00     0.009 C 
ENDBRANCH   7   8
ENDBRANCH   1   7
TORSDOF 2
ENDMDL
