MODEL 1
REMARK minimizedAffinity -5.51840448
REMARK minimizedRMSD -1
REMARK  2 active torsions:
REMARK  status: ('A' for Active; 'I' for Inactive)
REMARK    1  A    between atoms: C1_2  and  C2_3 
REMARK    2  A    between atoms: C2_3  and  C3_4 
ROOT
ATOM      1  C3  UNL d   1       0.502  -0.315  -0.034  0.00  0.00    -0.075 A 
ATOM      2  C4  UNL d   1      -0.079   0.011   1.201  0.00  0.00     0.002 A 
ATOM      3  C5  UNL d   1       0.155   1.255   1.788  0.00  0.00     0.002 A 
ATOM      4  C6  UNL d   1       0.978   2.183   1.155  0.00  0.00    -0.004 A 
ATOM      5  C7  UNL d   1       1.573   1.865  -0.064  0.00  0.00     0.002 A 
ATOM      6  C8  UNL d   1       1.338   0.622  -0.655  0.00  0.00     0.002 A 
ENDROOT
BRANCH   1   7
ATOM      7  C2  UNL d   1       0.230  -1.648  -0.688  0.00  0.00     0.056 C 
BRANCH   7   8
ATOM      8  C1  UNL d   1      -1.228  -1.848  -1.114  0.00  0.00     0.007 C 
ATOM      9  C   UNL d   1      -1.463  -1.579  -2.594  0.00  0.00     0.009 C 
ENDBRANCH   7   8
ENDBRANCH   1   7
TORSDOF 2
ENDMDL
