MODEL 1
REMARK minimizedAffinity -4.86834574
REMARK minimizedRMSD -1
REMARK  2 active torsions:
REMARK  status: ('A' for Active; 'I' for Inactive)
REMARK    1  A    between atoms: C1_2  and  C2_3 
REMARK    2  A    between atoms: C2_3  and  C3_4 
ROOT
ATOM      1  C3  UNL d   1       0.023  -0.207   0.038  0.00  0.00    -0.075 A 
ATOM      2  C4  UNL d   1       0.904   0.883   0.105  0.00  0.00     0.002 A 
ATOM      3  C5  UNL d   1       0.951   1.687   1.244  0.00  0.00     0.002 A 
ATOM      4  C6  UNL d   1       0.114   1.419   2.325  0.00  0.00    -0.004 A 
ATOM      5  C7  UNL d   1      -0.777   0.349   2.263  0.00  0.00     0.002 A 
ATOM      6  C8  UNL d   1      -0.823  -0.459   1.126  0.00  0.00     0.002 A 
ENDROOT
BRANCH   1   7
ATOM      7  C2  UNL d   1      -0.013  -1.098  -1.180  0.00  0.00     0.056 C 
BRANCH   7   8
ATOM      8  C1  UNL d   1      -1.361  -1.791  -1.407  0.00  0.00     0.007 C 
ATOM      9  C   UNL d   1      -1.843  -1.708  -2.849  0.00  0.00     0.009 C 
ENDBRANCH   7   8
ENDBRANCH   1   7
TORSDOF 2
ENDMDL
