MODEL 1
REMARK minimizedAffinity -4.48285341
REMARK minimizedRMSD -1
REMARK  2 active torsions:
REMARK  status: ('A' for Active; 'I' for Inactive)
REMARK    1  A    between atoms: C1_2  and  C2_3 
REMARK    2  A    between atoms: C2_3  and  C3_4 
ROOT
ATOM      1  C3  UNL d   1      -2.992  -2.495  -1.862  0.00  0.00    -0.075 A 
ATOM      2  C4  UNL d   1      -2.130  -2.328  -0.768  0.00  0.00     0.002 A 
ATOM      3  C5  UNL d   1      -0.922  -1.646  -0.915  0.00  0.00     0.002 A 
ATOM      4  C6  UNL d   1      -0.556  -1.132  -2.157  0.00  0.00    -0.004 A 
ATOM      5  C7  UNL d   1      -1.396  -1.307  -3.254  0.00  0.00     0.002 A 
ATOM      6  C8  UNL d   1      -2.607  -1.985  -3.109  0.00  0.00     0.002 A 
ENDROOT
BRANCH   1   7
ATOM      7  C2  UNL d   1      -4.314  -3.207  -1.702  0.00  0.00     0.056 C 
BRANCH   7   8
ATOM      8  C1  UNL d   1      -4.426  -4.033  -0.417  0.00  0.00     0.007 C 
ATOM      9  C   UNL d   1      -5.596  -5.008  -0.431  0.00  0.00     0.009 C 
ENDBRANCH   7   8
ENDBRANCH   1   7
TORSDOF 2
ENDMDL
