MODEL 1
REMARK minimizedAffinity -1.29120696
REMARK minimizedRMSD -1
REMARK  2 active torsions:
REMARK  status: ('A' for Active; 'I' for Inactive)
REMARK    1  A    between atoms: C1_2  and  C2_3 
REMARK    2  A    between atoms: C2_3  and  C3_4 
ROOT
ATOM      1  C3  UNL d   1      -0.080  -0.900  -1.002  0.00  0.00    -0.075 A 
ATOM      2  C4  UNL d   1      -0.400   0.195  -0.187  0.00  0.00     0.002 A 
ATOM      3  C5  UNL d   1       0.598   1.062   0.259  0.00  0.00     0.002 A 
ATOM      4  C6  UNL d   1       1.927   0.841  -0.096  0.00  0.00    -0.004 A 
ATOM      5  C7  UNL d   1       2.258  -0.254  -0.891  0.00  0.00     0.002 A 
ATOM      6  C8  UNL d   1       1.261  -1.121  -1.342  0.00  0.00     0.002 A 
ENDROOT
BRANCH   1   7
ATOM      7  C2  UNL d   1      -1.159  -1.825  -1.512  0.00  0.00     0.056 C 
BRANCH   7   8
ATOM      8  C1  UNL d   1      -1.487  -1.642  -2.997  0.00  0.00     0.007 C 
ATOM      9  C   UNL d   1      -2.983  -1.623  -3.284  0.00  0.00     0.009 C 
ENDBRANCH   7   8
ENDBRANCH   1   7
TORSDOF 2
ENDMDL
