MODEL 1
REMARK minimizedAffinity -5.53857231
REMARK minimizedRMSD -1
REMARK  2 active torsions:
REMARK  status: ('A' for Active; 'I' for Inactive)
REMARK    1  A    between atoms: C1_2  and  C2_3 
REMARK    2  A    between atoms: C2_3  and  C3_4 
ROOT
ATOM      1  C3  UNL d   1      -0.070   0.629   0.421  0.00  0.00    -0.075 A 
ATOM      2  C4  UNL d   1       1.196   0.525  -0.173  0.00  0.00     0.002 A 
ATOM      3  C5  UNL d   1       2.140   1.539  -0.009  0.00  0.00     0.002 A 
ATOM      4  C6  UNL d   1       1.828   2.671   0.741  0.00  0.00    -0.004 A 
ATOM      5  C7  UNL d   1       0.568   2.792   1.321  0.00  0.00     0.002 A 
ATOM      6  C8  UNL d   1      -0.378   1.777   1.163  0.00  0.00     0.002 A 
ENDROOT
BRANCH   1   7
ATOM      7  C2  UNL d   1      -1.087  -0.478   0.272  0.00  0.00     0.056 C 
BRANCH   7   8
ATOM      8  C1  UNL d   1      -0.712  -1.532  -0.775  0.00  0.00     0.007 C 
ATOM      9  C   UNL d   1      -1.899  -2.364  -1.241  0.00  0.00     0.009 C 
ENDBRANCH   7   8
ENDBRANCH   1   7
TORSDOF 2
ENDMDL
