MODEL 1
REMARK minimizedAffinity -4.54653597
REMARK minimizedRMSD -1
REMARK  2 active torsions:
REMARK  status: ('A' for Active; 'I' for Inactive)
REMARK    1  A    between atoms: C1_2  and  C2_3 
REMARK    2  A    between atoms: C2_3  and  C3_4 
ROOT
ATOM      1  C3  UNL d   1      -0.423  -1.250  -0.516  0.00  0.00    -0.075 A 
ATOM      2  C4  UNL d   1      -0.679  -0.040   0.144  0.00  0.00     0.002 A 
ATOM      3  C5  UNL d   1       0.358   0.851   0.419  0.00  0.00     0.002 A 
ATOM      4  C6  UNL d   1       1.664   0.540   0.048  0.00  0.00    -0.004 A 
ATOM      5  C7  UNL d   1       1.934  -0.667  -0.594  0.00  0.00     0.002 A 
ATOM      6  C8  UNL d   1       0.896  -1.558  -0.875  0.00  0.00     0.002 A 
ENDROOT
BRANCH   1   7
ATOM      7  C2  UNL d   1      -1.546  -2.205  -0.844  0.00  0.00     0.056 C 
BRANCH   7   8
ATOM      8  C1  UNL d   1      -1.991  -2.166  -2.309  0.00  0.00     0.007 C 
ATOM      9  C   UNL d   1      -3.492  -1.971  -2.476  0.00  0.00     0.009 C 
ENDBRANCH   7   8
ENDBRANCH   1   7
TORSDOF 2
ENDMDL
