MODEL 1
REMARK minimizedAffinity -5.21546459
REMARK minimizedRMSD -1
REMARK  2 active torsions:
REMARK  status: ('A' for Active; 'I' for Inactive)
REMARK    1  A    between atoms: C1_2  and  C2_3 
REMARK    2  A    between atoms: C2_3  and  C3_4 
ROOT
ATOM      1  C3  UNL d   1       0.469   0.056  -0.032  0.00  0.00    -0.075 A 
ATOM      2  C4  UNL d   1      -0.167   0.714   1.031  0.00  0.00     0.002 A 
ATOM      3  C5  UNL d   1       0.513   1.679   1.774  0.00  0.00     0.002 A 
ATOM      4  C6  UNL d   1       1.837   1.991   1.471  0.00  0.00    -0.004 A 
ATOM      5  C7  UNL d   1       2.483   1.332   0.427  0.00  0.00     0.002 A 
ATOM      6  C8  UNL d   1       1.804   0.369  -0.321  0.00  0.00     0.002 A 
ENDROOT
BRANCH   1   7
ATOM      7  C2  UNL d   1      -0.271  -0.969  -0.859  0.00  0.00     0.056 C 
BRANCH   7   8
ATOM      8  C1  UNL d   1      -1.272  -0.366  -1.850  0.00  0.00     0.007 C 
ATOM      9  C   UNL d   1      -1.924  -1.406  -2.752  0.00  0.00     0.009 C 
ENDBRANCH   7   8
ENDBRANCH   1   7
TORSDOF 2
ENDMDL
