MODEL 1
REMARK minimizedAffinity -6.22732639
REMARK minimizedRMSD -1
REMARK  2 active torsions:
REMARK  status: ('A' for Active; 'I' for Inactive)
REMARK    1  A    between atoms: C1_2  and  C2_3 
REMARK    2  A    between atoms: C2_3  and  C3_4 
ROOT
ATOM      1  C3  UNL d   1      -0.032   0.201   0.247  0.00  0.00    -0.075 A 
ATOM      2  C4  UNL d   1       1.205   0.662  -0.228  0.00  0.00     0.002 A 
ATOM      3  C5  UNL d   1       1.800   1.794   0.329  0.00  0.00     0.002 A 
ATOM      4  C6  UNL d   1       1.164   2.484   1.358  0.00  0.00    -0.004 A 
ATOM      5  C7  UNL d   1      -0.072   2.046   1.826  0.00  0.00     0.002 A 
ATOM      6  C8  UNL d   1      -0.669   0.911   1.274  0.00  0.00     0.002 A 
ENDROOT
BRANCH   1   7
ATOM      7  C2  UNL d   1      -0.668  -1.040  -0.331  0.00  0.00     0.056 C 
BRANCH   7   8
ATOM      8  C1  UNL d   1      -1.057  -0.912  -1.808  0.00  0.00     0.007 C 
ATOM      9  C   UNL d   1      -2.560  -0.985  -2.041  0.00  0.00     0.009 C 
ENDBRANCH   7   8
ENDBRANCH   1   7
TORSDOF 2
ENDMDL
