MODEL 1
REMARK minimizedAffinity -4.43902349
REMARK minimizedRMSD -1
REMARK  2 active torsions:
REMARK  status: ('A' for Active; 'I' for Inactive)
REMARK    1  A    between atoms: C1_2  and  C2_3 
REMARK    2  A    between atoms: C2_3  and  C3_4 
ROOT
ATOM      1  C3  UNL d   1       0.217  -0.135  -0.342  0.00  0.00    -0.075 A 
ATOM      2  C4  UNL d   1      -0.499   0.226   0.808  0.00  0.00     0.002 A 
ATOM      3  C5  UNL d   1      -0.213   1.418   1.476  0.00  0.00     0.002 A 
ATOM      4  C6  UNL d   1       0.796   2.256   1.009  0.00  0.00    -0.004 A 
ATOM      5  C7  UNL d   1       1.525   1.899  -0.124  0.00  0.00     0.002 A 
ATOM      6  C8  UNL d   1       1.238   0.710  -0.796  0.00  0.00     0.002 A 
ENDROOT
BRANCH   1   7
ATOM      7  C2  UNL d   1      -0.108  -1.408  -1.086  0.00  0.00     0.056 C 
BRANCH   7   8
ATOM      8  C1  UNL d   1      -1.562  -1.501  -1.561  0.00  0.00     0.007 C 
ATOM      9  C   UNL d   1      -1.705  -1.420  -3.075  0.00  0.00     0.009 C 
ENDBRANCH   7   8
ENDBRANCH   1   7
TORSDOF 2
ENDMDL
