MODEL 1
REMARK minimizedAffinity -4.94214773
REMARK minimizedRMSD -1
REMARK  2 active torsions:
REMARK  status: ('A' for Active; 'I' for Inactive)
REMARK    1  A    between atoms: C1_2  and  C2_3 
REMARK    2  A    between atoms: C2_3  and  C3_4 
ROOT
ATOM      1  C3  UNL d   1      -0.116  -0.228  -0.081  0.00  0.00    -0.075 A 
ATOM      2  C4  UNL d   1       0.661   0.851  -0.525  0.00  0.00     0.002 A 
ATOM      3  C5  UNL d   1       0.792   1.999   0.256  0.00  0.00     0.002 A 
ATOM      4  C6  UNL d   1       0.140   2.087   1.484  0.00  0.00    -0.004 A 
ATOM      5  C7  UNL d   1      -0.648   1.028   1.928  0.00  0.00     0.002 A 
ATOM      6  C8  UNL d   1      -0.777  -0.124   1.150  0.00  0.00     0.002 A 
ENDROOT
BRANCH   1   7
ATOM      7  C2  UNL d   1      -0.238  -1.485  -0.909  0.00  0.00     0.056 C 
BRANCH   7   8
ATOM      8  C1  UNL d   1      -1.577  -1.622  -1.642  0.00  0.00     0.007 C 
ATOM      9  C   UNL d   1      -1.542  -1.075  -3.062  0.00  0.00     0.009 C 
ENDBRANCH   7   8
ENDBRANCH   1   7
TORSDOF 2
ENDMDL
