MODEL 1
REMARK minimizedAffinity -3.81161833
REMARK minimizedRMSD -1
REMARK  2 active torsions:
REMARK  status: ('A' for Active; 'I' for Inactive)
REMARK    1  A    between atoms: C1_2  and  C2_3 
REMARK    2  A    between atoms: C2_3  and  C3_4 
ROOT
ATOM      1  C3  UNL d   1      -0.584   0.115  -0.004  0.00  0.00    -0.075 A 
ATOM      2  C4  UNL d   1      -1.083   0.585   1.219  0.00  0.00     0.002 A 
ATOM      3  C5  UNL d   1      -0.441   1.625   1.893  0.00  0.00     0.002 A 
ATOM      4  C6  UNL d   1       0.710   2.200   1.359  0.00  0.00    -0.004 A 
ATOM      5  C7  UNL d   1       1.224   1.729   0.153  0.00  0.00     0.002 A 
ATOM      6  C8  UNL d   1       0.582   0.692  -0.526  0.00  0.00     0.002 A 
ENDROOT
BRANCH   1   7
ATOM      7  C2  UNL d   1      -1.290  -0.990  -0.753  0.00  0.00     0.056 C 
BRANCH   7   8
ATOM      8  C1  UNL d   1      -1.348  -0.778  -2.269  0.00  0.00     0.007 C 
ATOM      9  C   UNL d   1      -2.669  -1.216  -2.887  0.00  0.00     0.009 C 
ENDBRANCH   7   8
ENDBRANCH   1   7
TORSDOF 2
ENDMDL
