MODEL 1
REMARK minimizedAffinity -5.32473516
REMARK minimizedRMSD -1
REMARK  2 active torsions:
REMARK  status: ('A' for Active; 'I' for Inactive)
REMARK    1  A    between atoms: C1_2  and  C2_3 
REMARK    2  A    between atoms: C2_3  and  C3_4 
ROOT
ATOM      1  C3  UNL d   1       0.022   0.042   0.286  0.00  0.00    -0.075 A 
ATOM      2  C4  UNL d   1       1.215   0.516  -0.280  0.00  0.00     0.002 A 
ATOM      3  C5  UNL d   1       1.864   1.626   0.261  0.00  0.00     0.002 A 
ATOM      4  C6  UNL d   1       1.326   2.280   1.367  0.00  0.00    -0.004 A 
ATOM      5  C7  UNL d   1       0.134   1.829   1.927  0.00  0.00     0.002 A 
ATOM      6  C8  UNL d   1      -0.516   0.716   1.390  0.00  0.00     0.002 A 
ENDROOT
BRANCH   1   7
ATOM      7  C2  UNL d   1      -0.670  -1.176  -0.277  0.00  0.00     0.056 C 
BRANCH   7   8
ATOM      8  C1  UNL d   1      -1.002  -1.070  -1.769  0.00  0.00     0.007 C 
ATOM      9  C   UNL d   1      -2.215  -1.898  -2.174  0.00  0.00     0.009 C 
ENDBRANCH   7   8
ENDBRANCH   1   7
TORSDOF 2
ENDMDL
