MODEL 1
REMARK minimizedAffinity -1.92125869
REMARK minimizedRMSD -1
REMARK  2 active torsions:
REMARK  status: ('A' for Active; 'I' for Inactive)
REMARK    1  A    between atoms: C1_2  and  C2_3 
REMARK    2  A    between atoms: C2_3  and  C3_4 
ROOT
ATOM      1  C3  UNL d   1      -0.621   1.003   0.649  0.00  0.00    -0.075 A 
ATOM      2  C4  UNL d   1      -0.204  -0.266   1.076  0.00  0.00     0.002 A 
ATOM      3  C5  UNL d   1       0.434  -1.137   0.193  0.00  0.00     0.002 A 
ATOM      4  C6  UNL d   1       0.653  -0.756  -1.129  0.00  0.00    -0.004 A 
ATOM      5  C7  UNL d   1       0.229   0.496  -1.569  0.00  0.00     0.002 A 
ATOM      6  C8  UNL d   1      -0.406   1.371  -0.686  0.00  0.00     0.002 A 
ENDROOT
BRANCH   1   7
ATOM      7  C2  UNL d   1      -1.285   1.962   1.608  0.00  0.00     0.056 C 
BRANCH   7   8
ATOM      8  C1  UNL d   1      -0.670   1.966   3.011  0.00  0.00     0.007 C 
ATOM      9  C   UNL d   1       0.096   3.244   3.327  0.00  0.00     0.009 C 
ENDBRANCH   7   8
ENDBRANCH   1   7
TORSDOF 2
ENDMDL
