MODEL 1
REMARK minimizedAffinity -5.77001715
REMARK minimizedRMSD -1
REMARK  2 active torsions:
REMARK  status: ('A' for Active; 'I' for Inactive)
REMARK    1  A    between atoms: C1_2  and  C2_3 
REMARK    2  A    between atoms: C2_3  and  C3_4 
ROOT
ATOM      1  C3  UNL d   1      -0.759   0.868   0.163  0.00  0.00    -0.075 A 
ATOM      2  C4  UNL d   1      -0.263   1.834  -0.725  0.00  0.00     0.002 A 
ATOM      3  C5  UNL d   1      -0.558   3.185  -0.540  0.00  0.00     0.002 A 
ATOM      4  C6  UNL d   1      -1.360   3.586   0.526  0.00  0.00    -0.004 A 
ATOM      5  C7  UNL d   1      -1.873   2.634   1.404  0.00  0.00     0.002 A 
ATOM      6  C8  UNL d   1      -1.575   1.282   1.224  0.00  0.00     0.002 A 
ENDROOT
BRANCH   1   7
ATOM      7  C2  UNL d   1      -0.419  -0.592  -0.015  0.00  0.00     0.056 C 
BRANCH   7   8
ATOM      8  C1  UNL d   1       0.788  -0.845  -0.924  0.00  0.00     0.007 C 
ATOM      9  C   UNL d   1       0.736  -2.194  -1.629  0.00  0.00     0.009 C 
ENDBRANCH   7   8
ENDBRANCH   1   7
TORSDOF 2
ENDMDL
