MODEL 1
REMARK minimizedAffinity -4.60078096
REMARK minimizedRMSD -1
REMARK  2 active torsions:
REMARK  status: ('A' for Active; 'I' for Inactive)
REMARK    1  A    between atoms: C1_2  and  C2_3 
REMARK    2  A    between atoms: C2_3  and  C3_4 
ROOT
ATOM      1  C3  UNL d   1       0.607  -1.198  -1.195  0.00  0.00    -0.075 A 
ATOM      2  C4  UNL d   1      -0.162  -1.151  -2.367  0.00  0.00     0.002 A 
ATOM      3  C5  UNL d   1      -0.261  -2.269  -3.195  0.00  0.00     0.002 A 
ATOM      4  C6  UNL d   1       0.414  -3.444  -2.869  0.00  0.00    -0.004 A 
ATOM      5  C7  UNL d   1       1.194  -3.496  -1.715  0.00  0.00     0.002 A 
ATOM      6  C8  UNL d   1       1.292  -2.380  -0.883  0.00  0.00     0.002 A 
ENDROOT
BRANCH   1   7
ATOM      7  C2  UNL d   1       0.694  -0.000  -0.280  0.00  0.00     0.056 C 
BRANCH   7   8
ATOM      8  C1  UNL d   1      -0.249   1.145  -0.660  0.00  0.00     0.007 C 
ATOM      9  C   UNL d   1      -1.160   1.578   0.481  0.00  0.00     0.009 C 
ENDBRANCH   7   8
ENDBRANCH   1   7
TORSDOF 2
ENDMDL
