MODEL 1
REMARK minimizedAffinity -4.53287125
REMARK minimizedRMSD -1
REMARK  2 active torsions:
REMARK  status: ('A' for Active; 'I' for Inactive)
REMARK    1  A    between atoms: C1_2  and  C2_3 
REMARK    2  A    between atoms: C2_3  and  C3_4 
ROOT
ATOM      1  C3  UNL d   1       0.006  -0.051   0.189  0.00  0.00    -0.075 A 
ATOM      2  C4  UNL d   1      -0.285   1.318   0.278  0.00  0.00     0.002 A 
ATOM      3  C5  UNL d   1      -1.066   1.810   1.325  0.00  0.00     0.002 A 
ATOM      4  C6  UNL d   1      -1.572   0.940   2.288  0.00  0.00    -0.004 A 
ATOM      5  C7  UNL d   1      -1.303  -0.424   2.200  0.00  0.00     0.002 A 
ATOM      6  C8  UNL d   1      -0.519  -0.918   1.157  0.00  0.00     0.002 A 
ENDROOT
BRANCH   1   7
ATOM      7  C2  UNL d   1       0.875  -0.585  -0.924  0.00  0.00     0.056 C 
BRANCH   7   8
ATOM      8  C1  UNL d   1       0.723  -2.091  -1.166  0.00  0.00     0.007 C 
ATOM      9  C   UNL d   1       0.229  -2.427  -2.566  0.00  0.00     0.009 C 
ENDBRANCH   7   8
ENDBRANCH   1   7
TORSDOF 2
ENDMDL
