MODEL 1
REMARK minimizedAffinity -6.1180644
REMARK minimizedRMSD -1
REMARK  2 active torsions:
REMARK  status: ('A' for Active; 'I' for Inactive)
REMARK    1  A    between atoms: C1_2  and  C2_3 
REMARK    2  A    between atoms: C2_3  and  C3_4 
ROOT
ATOM      1  C3  UNL d   1      -0.111  -0.193   0.228  0.00  0.00    -0.075 A 
ATOM      2  C4  UNL d   1      -0.965   0.693  -0.447  0.00  0.00     0.002 A 
ATOM      3  C5  UNL d   1      -1.741   1.608   0.265  0.00  0.00     0.002 A 
ATOM      4  C6  UNL d   1      -1.682   1.644   1.656  0.00  0.00    -0.004 A 
ATOM      5  C7  UNL d   1      -0.850   0.757   2.337  0.00  0.00     0.002 A 
ATOM      6  C8  UNL d   1      -0.069  -0.157   1.628  0.00  0.00     0.002 A 
ENDROOT
BRANCH   1   7
ATOM      7  C2  UNL d   1       0.753  -1.166  -0.538  0.00  0.00     0.056 C 
BRANCH   7   8
ATOM      8  C1  UNL d   1       0.168  -1.590  -1.889  0.00  0.00     0.007 C 
ATOM      9  C   UNL d   1      -0.021  -3.096  -2.015  0.00  0.00     0.009 C 
ENDBRANCH   7   8
ENDBRANCH   1   7
TORSDOF 2
ENDMDL
