MODEL 1
REMARK minimizedAffinity -4.6620841
REMARK minimizedRMSD -1
REMARK  2 active torsions:
REMARK  status: ('A' for Active; 'I' for Inactive)
REMARK    1  A    between atoms: C1_2  and  C2_3 
REMARK    2  A    between atoms: C2_3  and  C3_4 
ROOT
ATOM      1  C3  UNL d   1       1.120  -2.154  -1.742  0.00  0.00    -0.075 A 
ATOM      2  C4  UNL d   1       1.927  -1.708  -2.799  0.00  0.00     0.002 A 
ATOM      3  C5  UNL d   1       1.613  -2.039  -4.118  0.00  0.00     0.002 A 
ATOM      4  C6  UNL d   1       0.497  -2.826  -4.395  0.00  0.00    -0.004 A 
ATOM      5  C7  UNL d   1      -0.302  -3.288  -3.352  0.00  0.00     0.002 A 
ATOM      6  C8  UNL d   1       0.008  -2.955  -2.032  0.00  0.00     0.002 A 
ENDROOT
BRANCH   1   7
ATOM      7  C2  UNL d   1       1.438  -1.775  -0.315  0.00  0.00     0.056 C 
BRANCH   7   8
ATOM      8  C1  UNL d   1       0.918  -0.393   0.094  0.00  0.00     0.007 C 
ATOM      9  C   UNL d   1      -0.367  -0.452   0.910  0.00  0.00     0.009 C 
ENDBRANCH   7   8
ENDBRANCH   1   7
TORSDOF 2
ENDMDL
