MODEL 1
REMARK minimizedAffinity -5.15023375
REMARK minimizedRMSD -1
REMARK  2 active torsions:
REMARK  status: ('A' for Active; 'I' for Inactive)
REMARK    1  A    between atoms: C1_2  and  C2_3 
REMARK    2  A    between atoms: C2_3  and  C3_4 
ROOT
ATOM      1  C3  UNL d   1       0.152   0.002  -0.206  0.00  0.00    -0.075 A 
ATOM      2  C4  UNL d   1      -0.808   0.974  -0.525  0.00  0.00     0.002 A 
ATOM      3  C5  UNL d   1      -1.739   1.389   0.427  0.00  0.00     0.002 A 
ATOM      4  C6  UNL d   1      -1.731   0.831   1.704  0.00  0.00    -0.004 A 
ATOM      5  C7  UNL d   1      -0.792  -0.147   2.026  0.00  0.00     0.002 A 
ATOM      6  C8  UNL d   1       0.144  -0.561   1.077  0.00  0.00     0.002 A 
ENDROOT
BRANCH   1   7
ATOM      7  C2  UNL d   1       1.181  -0.430  -1.223  0.00  0.00     0.056 C 
BRANCH   7   8
ATOM      8  C1  UNL d   1       0.794  -1.688  -2.007  0.00  0.00     0.007 C 
ATOM      9  C   UNL d   1       1.431  -2.958  -1.458  0.00  0.00     0.009 C 
ENDBRANCH   7   8
ENDBRANCH   1   7
TORSDOF 2
ENDMDL
