MODEL 1
REMARK minimizedAffinity -5.49005556
REMARK minimizedRMSD -1
REMARK  2 active torsions:
REMARK  status: ('A' for Active; 'I' for Inactive)
REMARK    1  A    between atoms: C1_2  and  C2_3 
REMARK    2  A    between atoms: C2_3  and  C3_4 
ROOT
ATOM      1  C3  UNL d   1      -0.098   0.203   0.115  0.00  0.00    -0.075 A 
ATOM      2  C4  UNL d   1      -0.357  -0.021   1.476  0.00  0.00     0.002 A 
ATOM      3  C5  UNL d   1      -1.148   0.869   2.202  0.00  0.00     0.002 A 
ATOM      4  C6  UNL d   1      -1.682   1.997   1.582  0.00  0.00    -0.004 A 
ATOM      5  C7  UNL d   1      -1.418   2.238   0.236  0.00  0.00     0.002 A 
ATOM      6  C8  UNL d   1      -0.630   1.347  -0.495  0.00  0.00     0.002 A 
ENDROOT
BRANCH   1   7
ATOM      7  C2  UNL d   1       0.734  -0.771  -0.683  0.00  0.00     0.056 C 
BRANCH   7   8
ATOM      8  C1  UNL d   1      -0.085  -1.851  -1.398  0.00  0.00     0.007 C 
ATOM      9  C   UNL d   1       0.703  -2.592  -2.470  0.00  0.00     0.009 C 
ENDBRANCH   7   8
ENDBRANCH   1   7
TORSDOF 2
ENDMDL
