MODEL 1
REMARK minimizedAffinity -2.5362103
REMARK minimizedRMSD -1
REMARK  2 active torsions:
REMARK  status: ('A' for Active; 'I' for Inactive)
REMARK    1  A    between atoms: C1_2  and  C2_3 
REMARK    2  A    between atoms: C2_3  and  C3_4 
ROOT
ATOM      1  C3  UNL d   1       0.259  -0.772  -0.255  0.00  0.00    -0.075 A 
ATOM      2  C4  UNL d   1       0.025  -0.867   1.124  0.00  0.00     0.002 A 
ATOM      3  C5  UNL d   1      -0.673   0.137   1.795  0.00  0.00     0.002 A 
ATOM      4  C6  UNL d   1      -1.138   1.251   1.100  0.00  0.00    -0.004 A 
ATOM      5  C7  UNL d   1      -0.897   1.364  -0.268  0.00  0.00     0.002 A 
ATOM      6  C8  UNL d   1      -0.201   0.359  -0.943  0.00  0.00     0.002 A 
ENDROOT
BRANCH   1   7
ATOM      7  C2  UNL d   1       0.989  -1.869  -0.992  0.00  0.00     0.056 C 
BRANCH   7   8
ATOM      8  C1  UNL d   1       0.254  -2.381  -2.236  0.00  0.00     0.007 C 
ATOM      9  C   UNL d   1      -0.118  -3.855  -2.149  0.00  0.00     0.009 C 
ENDBRANCH   7   8
ENDBRANCH   1   7
TORSDOF 2
ENDMDL
