MODEL 1
REMARK minimizedAffinity -6.06234312
REMARK minimizedRMSD -1
REMARK  2 active torsions:
REMARK  status: ('A' for Active; 'I' for Inactive)
REMARK    1  A    between atoms: C1_2  and  C2_3 
REMARK    2  A    between atoms: C2_3  and  C3_4 
ROOT
ATOM      1  C3  UNL d   1       0.546   0.224  -0.194  0.00  0.00    -0.075 A 
ATOM      2  C4  UNL d   1       0.159  -0.362   1.020  0.00  0.00     0.002 A 
ATOM      3  C5  UNL d   1      -0.848   0.212   1.795  0.00  0.00     0.002 A 
ATOM      4  C6  UNL d   1      -1.474   1.384   1.373  0.00  0.00    -0.004 A 
ATOM      5  C7  UNL d   1      -1.086   1.984   0.177  0.00  0.00     0.002 A 
ATOM      6  C8  UNL d   1      -0.082   1.409  -0.603  0.00  0.00     0.002 A 
ENDROOT
BRANCH   1   7
ATOM      7  C2  UNL d   1       1.615  -0.409  -1.052  0.00  0.00     0.056 C 
BRANCH   7   8
ATOM      8  C1  UNL d   1       1.472  -1.927  -1.208  0.00  0.00     0.007 C 
ATOM      9  C   UNL d   1       0.607  -2.329  -2.395  0.00  0.00     0.009 C 
ENDBRANCH   7   8
ENDBRANCH   1   7
TORSDOF 2
ENDMDL
