MODEL 1
REMARK minimizedAffinity -6.28858137
REMARK minimizedRMSD -1
REMARK  2 active torsions:
REMARK  status: ('A' for Active; 'I' for Inactive)
REMARK    1  A    between atoms: C1_2  and  C2_3 
REMARK    2  A    between atoms: C2_3  and  C3_4 
ROOT
ATOM      1  C3  UNL d   1       0.190  -0.042  -0.226  0.00  0.00    -0.075 A 
ATOM      2  C4  UNL d   1      -0.518   1.130  -0.530  0.00  0.00     0.002 A 
ATOM      3  C5  UNL d   1      -1.431   1.663   0.381  0.00  0.00     0.002 A 
ATOM      4  C6  UNL d   1      -1.654   1.027   1.601  0.00  0.00    -0.004 A 
ATOM      5  C7  UNL d   1      -0.968  -0.146   1.906  0.00  0.00     0.002 A 
ATOM      6  C8  UNL d   1      -0.052  -0.679   0.999  0.00  0.00     0.002 A 
ENDROOT
BRANCH   1   7
ATOM      7  C2  UNL d   1       1.200  -0.608  -1.195  0.00  0.00     0.056 C 
BRANCH   7   8
ATOM      8  C1  UNL d   1       1.005  -2.096  -1.501  0.00  0.00     0.007 C 
ATOM      9  C   UNL d   1       0.117  -2.349  -2.712  0.00  0.00     0.009 C 
ENDBRANCH   7   8
ENDBRANCH   1   7
TORSDOF 2
ENDMDL
