MODEL 1
REMARK minimizedAffinity -6.46707344
REMARK minimizedRMSD -1
REMARK  2 active torsions:
REMARK  status: ('A' for Active; 'I' for Inactive)
REMARK    1  A    between atoms: C1_2  and  C2_3 
REMARK    2  A    between atoms: C2_3  and  C3_4 
ROOT
ATOM      1  C3  UNL d   1      -0.155   0.270   0.070  0.00  0.00    -0.075 A 
ATOM      2  C4  UNL d   1      -0.474  -0.078   1.390  0.00  0.00     0.002 A 
ATOM      3  C5  UNL d   1      -1.397   0.674   2.118  0.00  0.00     0.002 A 
ATOM      4  C6  UNL d   1      -2.004   1.787   1.539  0.00  0.00    -0.004 A 
ATOM      5  C7  UNL d   1      -1.681   2.152   0.234  0.00  0.00     0.002 A 
ATOM      6  C8  UNL d   1      -0.761   1.399  -0.498  0.00  0.00     0.002 A 
ENDROOT
BRANCH   1   7
ATOM      7  C2  UNL d   1       0.821  -0.557  -0.732  0.00  0.00     0.056 C 
BRANCH   7   8
ATOM      8  C1  UNL d   1       0.174  -1.714  -1.501  0.00  0.00     0.007 C 
ATOM      9  C   UNL d   1       1.185  -2.592  -2.226  0.00  0.00     0.009 C 
ENDBRANCH   7   8
ENDBRANCH   1   7
TORSDOF 2
ENDMDL
