MODEL 1
REMARK minimizedAffinity -4.95579529
REMARK minimizedRMSD -1
REMARK  2 active torsions:
REMARK  status: ('A' for Active; 'I' for Inactive)
REMARK    1  A    between atoms: C1_2  and  C2_3 
REMARK    2  A    between atoms: C2_3  and  C3_4 
ROOT
ATOM      1  C3  UNL d   1      -0.485   0.309   0.533  0.00  0.00    -0.075 A 
ATOM      2  C4  UNL d   1      -0.736   0.709   1.853  0.00  0.00     0.002 A 
ATOM      3  C5  UNL d   1      -1.537   1.820   2.117  0.00  0.00     0.002 A 
ATOM      4  C6  UNL d   1      -2.087   2.551   1.066  0.00  0.00    -0.004 A 
ATOM      5  C7  UNL d   1      -1.831   2.173  -0.250  0.00  0.00     0.002 A 
ATOM      6  C8  UNL d   1      -1.034   1.059  -0.516  0.00  0.00     0.002 A 
ENDROOT
BRANCH   1   7
ATOM      7  C2  UNL d   1       0.357  -0.910   0.241  0.00  0.00     0.056 C 
BRANCH   7   8
ATOM      8  C1  UNL d   1       0.798  -1.029  -1.221  0.00  0.00     0.007 C 
ATOM      9  C   UNL d   1       0.695  -2.447  -1.767  0.00  0.00     0.009 C 
ENDBRANCH   7   8
ENDBRANCH   1   7
TORSDOF 2
ENDMDL
