MODEL 1
REMARK minimizedAffinity 11.8794594
REMARK minimizedRMSD -1
REMARK  0 active torsions:
REMARK  status: ('A' for Active; 'I' for Inactive)
ROOT
ATOM      1  C   UNL d   1      -0.318   0.364   4.218  0.00  0.00     0.023 A 
ATOM      2  C1  UNL d   1       0.919   0.620   3.626  0.00  0.00     0.003 A 
ATOM      3  C2  UNL d   1       1.005   1.485   2.533  0.00  0.00     0.048 A 
ATOM      4  C3  UNL d   1      -0.150   2.090   2.037  0.00  0.00     0.023 A 
ATOM      5  C4  UNL d   1      -1.389   1.837   2.627  0.00  0.00     0.048 A 
ATOM      6  C5  UNL d   1      -1.470   0.972   3.720  0.00  0.00     0.003 A 
ATOM      7  I   UNL d   1      -0.024   3.377   0.410  0.00  0.00    -0.146 I 
ENDROOT
TORSDOF 0
ENDMDL
