MODEL 1
REMARK minimizedAffinity 8.25550079
REMARK minimizedRMSD -1
REMARK  0 active torsions:
REMARK  status: ('A' for Active; 'I' for Inactive)
ROOT
ATOM      1  C   UNL d   1      -5.988  -5.993  -5.023  0.00  0.00     0.023 A 
ATOM      2  C1  UNL d   1      -5.894  -5.835  -3.640  0.00  0.00     0.003 A 
ATOM      3  C2  UNL d   1      -4.644  -5.674  -3.038  0.00  0.00     0.048 A 
ATOM      4  C3  UNL d   1      -3.493  -5.670  -3.825  0.00  0.00     0.023 A 
ATOM      5  C4  UNL d   1      -3.583  -5.826  -5.209  0.00  0.00     0.048 A 
ATOM      6  C5  UNL d   1      -4.835  -5.989  -5.806  0.00  0.00     0.003 A 
ATOM      7  I   UNL d   1      -1.632  -5.429  -2.932  0.00  0.00    -0.146 I 
ENDROOT
TORSDOF 0
ENDMDL
