MODEL 1
REMARK minimizedAffinity 8.13858414
REMARK minimizedRMSD -1
REMARK  0 active torsions:
REMARK  status: ('A' for Active; 'I' for Inactive)
ROOT
ATOM      1  C   UNL d   1       0.033   5.997  -1.239  0.00  0.00     0.023 A 
ATOM      2  C1  UNL d   1      -0.930   5.024  -0.971  0.00  0.00     0.003 A 
ATOM      3  C2  UNL d   1      -0.690   4.050   0.001  0.00  0.00     0.048 A 
ATOM      4  C3  UNL d   1       0.515   4.057   0.703  0.00  0.00     0.023 A 
ATOM      5  C4  UNL d   1       1.481   5.030   0.440  0.00  0.00     0.048 A 
ATOM      6  C5  UNL d   1       1.237   6.000  -0.534  0.00  0.00     0.003 A 
ATOM      7  I   UNL d   1       0.874   2.610   2.151  0.00  0.00    -0.146 I 
ENDROOT
TORSDOF 0
ENDMDL
