MODEL 1
REMARK minimizedAffinity 7.23963881
REMARK minimizedRMSD -1
REMARK  0 active torsions:
REMARK  status: ('A' for Active; 'I' for Inactive)
ROOT
ATOM      1  C   UNL d   1      -0.413   5.962  -0.153  0.00  0.00     0.023 A 
ATOM      2  C1  UNL d   1       0.272   4.810  -0.540  0.00  0.00     0.003 A 
ATOM      3  C2  UNL d   1       0.281   3.689   0.292  0.00  0.00     0.048 A 
ATOM      4  C3  UNL d   1      -0.397   3.725   1.509  0.00  0.00     0.023 A 
ATOM      5  C4  UNL d   1      -1.085   4.875   1.901  0.00  0.00     0.048 A 
ATOM      6  C5  UNL d   1      -1.090   5.994   1.066  0.00  0.00     0.003 A 
ATOM      7  I   UNL d   1      -0.385   2.057   2.749  0.00  0.00    -0.146 I 
ENDROOT
TORSDOF 0
ENDMDL
