MODEL 1
REMARK minimizedAffinity 11.3939476
REMARK minimizedRMSD -1
REMARK  0 active torsions:
REMARK  status: ('A' for Active; 'I' for Inactive)
ROOT
ATOM      1  C   UNL d   1      -1.126  -0.902  -1.642  0.00  0.00     0.023 A 
ATOM      2  C1  UNL d   1      -2.115  -0.055  -1.143  0.00  0.00     0.003 A 
ATOM      3  C2  UNL d   1      -1.759   1.108  -0.456  0.00  0.00     0.048 A 
ATOM      4  C3  UNL d   1      -0.412   1.417  -0.272  0.00  0.00     0.023 A 
ATOM      5  C4  UNL d   1       0.581   0.572  -0.770  0.00  0.00     0.048 A 
ATOM      6  C5  UNL d   1       0.221  -0.589  -1.455  0.00  0.00     0.003 A 
ATOM      7  I   UNL d   1       0.120   3.146   0.751  0.00  0.00    -0.146 I 
ENDROOT
TORSDOF 0
ENDMDL
