MODEL 1
REMARK minimizedAffinity 11.3846388
REMARK minimizedRMSD -1
REMARK  0 active torsions:
REMARK  status: ('A' for Active; 'I' for Inactive)
ROOT
ATOM      1  C   UNL d   1       0.429   4.683  -0.996  0.00  0.00     0.023 A 
ATOM      2  C1  UNL d   1      -0.289   3.582  -0.530  0.00  0.00     0.003 A 
ATOM      3  C2  UNL d   1       0.046   2.994   0.691  0.00  0.00     0.048 A 
ATOM      4  C3  UNL d   1       1.101   3.512   1.441  0.00  0.00     0.023 A 
ATOM      5  C4  UNL d   1       1.822   4.614   0.979  0.00  0.00     0.048 A 
ATOM      6  C5  UNL d   1       1.483   5.199  -0.243  0.00  0.00     0.003 A 
ATOM      7  I   UNL d   1       1.603   2.638   3.259  0.00  0.00    -0.146 I 
ENDROOT
TORSDOF 0
ENDMDL
