MODEL 1
REMARK minimizedAffinity 11.542387
REMARK minimizedRMSD -1
REMARK  0 active torsions:
REMARK  status: ('A' for Active; 'I' for Inactive)
ROOT
ATOM      1  C   UNL d   1      -1.121  -1.030  -1.825  0.00  0.00     0.023 A 
ATOM      2  C1  UNL d   1       0.196  -0.578  -1.749  0.00  0.00     0.003 A 
ATOM      3  C2  UNL d   1       0.509   0.536  -0.967  0.00  0.00     0.048 A 
ATOM      4  C3  UNL d   1      -0.500   1.193  -0.264  0.00  0.00     0.023 A 
ATOM      5  C4  UNL d   1      -1.819   0.743  -0.336  0.00  0.00     0.048 A 
ATOM      6  C5  UNL d   1      -2.128  -0.370  -1.120  0.00  0.00     0.003 A 
ATOM      7  I   UNL d   1      -0.036   2.851   0.900  0.00  0.00    -0.146 I 
ENDROOT
TORSDOF 0
ENDMDL
