MODEL 1
REMARK minimizedAffinity 9.48150349
REMARK minimizedRMSD -1
REMARK  0 active torsions:
REMARK  status: ('A' for Active; 'I' for Inactive)
ROOT
ATOM      1  C   UNL d   1       1.063   4.191  -0.943  0.00  0.00     0.023 A 
ATOM      2  C1  UNL d   1       0.563   5.473  -1.173  0.00  0.00     0.003 A 
ATOM      3  C2  UNL d   1      -0.435   5.994  -0.345  0.00  0.00     0.048 A 
ATOM      4  C3  UNL d   1      -0.927   5.227   0.710  0.00  0.00     0.023 A 
ATOM      5  C4  UNL d   1      -0.429   3.944   0.944  0.00  0.00     0.048 A 
ATOM      6  C5  UNL d   1       0.567   3.428   0.114  0.00  0.00     0.003 A 
ATOM      7  I   UNL d   1      -2.411   6.000   1.943  0.00  0.00    -0.146 I 
ENDROOT
TORSDOF 0
ENDMDL
