MODEL 1
REMARK minimizedAffinity 14.8074017
REMARK minimizedRMSD -1
REMARK  0 active torsions:
REMARK  status: ('A' for Active; 'I' for Inactive)
ROOT
ATOM      1  C   UNL d   1       0.970   2.599   2.532  0.00  0.00     0.023 A 
ATOM      2  C1  UNL d   1      -0.071   1.760   2.930  0.00  0.00     0.003 A 
ATOM      3  C2  UNL d   1       0.209   0.486   3.427  0.00  0.00     0.048 A 
ATOM      4  C3  UNL d   1       1.532   0.057   3.524  0.00  0.00     0.023 A 
ATOM      5  C4  UNL d   1       2.577   0.893   3.128  0.00  0.00     0.048 A 
ATOM      6  C5  UNL d   1       2.292   2.166   2.631  0.00  0.00     0.003 A 
ATOM      7  I   UNL d   1       1.952  -1.840   4.264  0.00  0.00    -0.146 I 
ENDROOT
TORSDOF 0
ENDMDL
