MODEL 1
REMARK minimizedAffinity 9.79213524
REMARK minimizedRMSD -1
REMARK  0 active torsions:
REMARK  status: ('A' for Active; 'I' for Inactive)
ROOT
ATOM      1  C   UNL d   1      -5.956  -5.990  -4.437  0.00  0.00     0.023 A 
ATOM      2  C1  UNL d   1      -5.554  -5.996  -3.101  0.00  0.00     0.003 A 
ATOM      3  C2  UNL d   1      -4.196  -5.999  -2.779  0.00  0.00     0.048 A 
ATOM      4  C3  UNL d   1      -3.243  -5.995  -3.797  0.00  0.00     0.023 A 
ATOM      5  C4  UNL d   1      -3.640  -5.988  -5.136  0.00  0.00     0.048 A 
ATOM      6  C5  UNL d   1      -5.000  -5.986  -5.453  0.00  0.00     0.003 A 
ATOM      7  I   UNL d   1      -1.221  -5.998  -3.320  0.00  0.00    -0.146 I 
ENDROOT
TORSDOF 0
ENDMDL
