MODEL 1
REMARK minimizedAffinity -2.05521011
REMARK minimizedRMSD -1
REMARK  0 active torsions:
REMARK  status: ('A' for Active; 'I' for Inactive)
ROOT
ATOM      1  C   UNL d   1       1.079  -5.100  -3.000  0.00  0.00     0.172 C 
ATOM      2  N   UNL d   1      -0.049  -5.458  -3.827  0.00  0.00    -0.070 N 
ATOM      3  C1  UNL d   1      -1.324  -5.686  -3.383  0.00  0.00    -0.004 A 
ATOM      4  C2  UNL d   1      -2.102  -5.999  -4.476  0.00  0.00    -0.047 A 
ATOM      5  C3  UNL d   1      -1.266  -5.958  -5.617  0.00  0.00    -0.047 A 
ATOM      6  C4  UNL d   1      -0.000  -5.621  -5.186  0.00  0.00    -0.004 A 
ENDROOT
TORSDOF 0
ENDMDL
