MODEL 1
REMARK minimizedAffinity -0.0759550035
REMARK minimizedRMSD -1
REMARK  0 active torsions:
REMARK  status: ('A' for Active; 'I' for Inactive)
ROOT
ATOM      1  C   UNL d   1      -2.098  -6.000  -3.323  0.00  0.00     0.172 C 
ATOM      2  N   UNL d   1      -0.942  -5.882  -4.181  0.00  0.00    -0.070 N 
ATOM      3  C1  UNL d   1       0.364  -5.962  -3.775  0.00  0.00    -0.004 A 
ATOM      4  C2  UNL d   1       1.161  -5.801  -4.887  0.00  0.00    -0.047 A 
ATOM      5  C3  UNL d   1       0.306  -5.617  -5.999  0.00  0.00    -0.047 A 
ATOM      6  C4  UNL d   1      -0.991  -5.672  -5.533  0.00  0.00    -0.004 A 
ENDROOT
TORSDOF 0
ENDMDL
