MODEL 1
REMARK minimizedAffinity -2.07044053
REMARK minimizedRMSD -1
REMARK  0 active torsions:
REMARK  status: ('A' for Active; 'I' for Inactive)
ROOT
ATOM      1  C   UNL d   1       2.157  -5.816  -5.961  0.00  0.00     0.172 C 
ATOM      2  N   UNL d   1       0.856  -5.824  -5.334  0.00  0.00    -0.070 N 
ATOM      3  C1  UNL d   1       0.614  -6.000  -3.998  0.00  0.00    -0.004 A 
ATOM      4  C2  UNL d   1      -0.749  -5.941  -3.804  0.00  0.00    -0.047 A 
ATOM      5  C3  UNL d   1      -1.348  -5.724  -5.068  0.00  0.00    -0.047 A 
ATOM      6  C4  UNL d   1      -0.331  -5.655  -5.997  0.00  0.00    -0.004 A 
ENDROOT
TORSDOF 0
ENDMDL
