MODEL 1
REMARK minimizedAffinity -2.55649924
REMARK minimizedRMSD -1
REMARK  0 active torsions:
REMARK  status: ('A' for Active; 'I' for Inactive)
ROOT
ATOM      1  C   UNL d   1      -1.448  -5.916  -4.438  0.00  0.00     0.172 C 
ATOM      2  N   UNL d   1      -0.016  -5.933  -4.628  0.00  0.00    -0.070 N 
ATOM      3  C1  UNL d   1       0.922  -5.885  -3.633  0.00  0.00    -0.004 A 
ATOM      4  C2  UNL d   1       2.167  -5.923  -4.223  0.00  0.00    -0.047 A 
ATOM      5  C3  UNL d   1       1.969  -5.995  -5.623  0.00  0.00    -0.047 A 
ATOM      6  C4  UNL d   1       0.609  -6.000  -5.846  0.00  0.00    -0.004 A 
ENDROOT
TORSDOF 0
ENDMDL
