MODEL 1
REMARK minimizedAffinity -1.82996869
REMARK minimizedRMSD -1
REMARK  0 active torsions:
REMARK  status: ('A' for Active; 'I' for Inactive)
ROOT
ATOM      1  C   UNL d   1       2.625  -6.000  -5.662  0.00  0.00     0.172 C 
ATOM      2  N   UNL d   1       1.266  -5.991  -5.174  0.00  0.00    -0.070 N 
ATOM      3  C1  UNL d   1       0.138  -6.000  -5.952  0.00  0.00    -0.004 A 
ATOM      4  C2  UNL d   1      -0.954  -5.988  -5.112  0.00  0.00    -0.047 A 
ATOM      5  C3  UNL d   1      -0.466  -5.971  -3.783  0.00  0.00    -0.047 A 
ATOM      6  C4  UNL d   1       0.911  -5.973  -3.851  0.00  0.00    -0.004 A 
ENDROOT
TORSDOF 0
ENDMDL
