MODEL 1
REMARK minimizedAffinity -0.425648004
REMARK minimizedRMSD -1
REMARK  0 active torsions:
REMARK  status: ('A' for Active; 'I' for Inactive)
ROOT
ATOM      1  C   UNL d   1      -0.726  -5.991  -2.252  0.00  0.00     0.172 C 
ATOM      2  N   UNL d   1      -0.734  -5.993  -3.696  0.00  0.00    -0.070 N 
ATOM      3  C1  UNL d   1      -1.852  -6.000  -4.487  0.00  0.00    -0.004 A 
ATOM      4  C2  UNL d   1      -1.438  -5.998  -5.802  0.00  0.00    -0.047 A 
ATOM      5  C3  UNL d   1      -0.023  -5.990  -5.800  0.00  0.00    -0.047 A 
ATOM      6  C4  UNL d   1       0.387  -5.987  -4.483  0.00  0.00    -0.004 A 
ENDROOT
TORSDOF 0
ENDMDL
