MODEL 1
REMARK minimizedAffinity 0.0903333575
REMARK minimizedRMSD -1
REMARK  0 active torsions:
REMARK  status: ('A' for Active; 'I' for Inactive)
ROOT
ATOM      1  C   UNL d   1      -0.209  -5.987  -2.345  0.00  0.00     0.172 C 
ATOM      2  N   UNL d   1      -0.116  -5.988  -3.787  0.00  0.00    -0.070 N 
ATOM      3  C1  UNL d   1       1.046  -5.985  -4.512  0.00  0.00    -0.004 A 
ATOM      4  C2  UNL d   1       0.709  -5.989  -5.848  0.00  0.00    -0.047 A 
ATOM      5  C3  UNL d   1      -0.704  -5.993  -5.929  0.00  0.00    -0.047 A 
ATOM      6  C4  UNL d   1      -1.189  -5.993  -4.638  0.00  0.00    -0.004 A 
ENDROOT
TORSDOF 0
ENDMDL
