MODEL 1
REMARK minimizedAffinity -2.44413996
REMARK minimizedRMSD -1
REMARK  0 active torsions:
REMARK  status: ('A' for Active; 'I' for Inactive)
ROOT
ATOM      1  C   UNL d   1       0.575  -5.492  -4.919  0.00  0.00     0.172 C 
ATOM      2  N   UNL d   1      -0.698  -5.622  -4.250  0.00  0.00    -0.070 N 
ATOM      3  C1  UNL d   1      -1.876  -5.995  -4.840  0.00  0.00    -0.004 A 
ATOM      4  C2  UNL d   1      -2.852  -6.000  -3.867  0.00  0.00    -0.047 A 
ATOM      5  C3  UNL d   1      -2.240  -5.617  -2.650  0.00  0.00    -0.047 A 
ATOM      6  C4  UNL d   1      -0.906  -5.389  -2.916  0.00  0.00    -0.004 A 
ENDROOT
TORSDOF 0
ENDMDL
