MODEL 1
REMARK minimizedAffinity 0.875432789
REMARK minimizedRMSD -1
REMARK  0 active torsions:
REMARK  status: ('A' for Active; 'I' for Inactive)
ROOT
ATOM      1  C   UNL d   1       1.574   0.469  -0.133  0.00  0.00     0.172 C 
ATOM      2  N   UNL d   1       1.135  -0.856   0.235  0.00  0.00    -0.070 N 
ATOM      3  C1  UNL d   1       1.231  -1.411   1.483  0.00  0.00    -0.004 A 
ATOM      4  C2  UNL d   1       0.703  -2.683   1.422  0.00  0.00    -0.047 A 
ATOM      5  C3  UNL d   1       0.276  -2.900   0.090  0.00  0.00    -0.047 A 
ATOM      6  C4  UNL d   1       0.555  -1.753  -0.623  0.00  0.00    -0.004 A 
ENDROOT
TORSDOF 0
ENDMDL
