MODEL 1
REMARK minimizedAffinity -1.70828164
REMARK minimizedRMSD -1
REMARK  0 active torsions:
REMARK  status: ('A' for Active; 'I' for Inactive)
ROOT
ATOM      1  C   UNL d   1       0.911  -5.900  -5.994  0.00  0.00     0.172 C 
ATOM      2  N   UNL d   1      -0.129  -5.939  -4.993  0.00  0.00    -0.070 N 
ATOM      3  C1  UNL d   1      -1.475  -5.957  -5.241  0.00  0.00    -0.004 A 
ATOM      4  C2  UNL d   1      -2.128  -5.995  -4.028  0.00  0.00    -0.047 A 
ATOM      5  C3  UNL d   1      -1.139  -5.999  -3.015  0.00  0.00    -0.047 A 
ATOM      6  C4  UNL d   1       0.089  -5.964  -3.641  0.00  0.00    -0.004 A 
ENDROOT
TORSDOF 0
ENDMDL
