MODEL 1
REMARK minimizedAffinity -2.65296626
REMARK minimizedRMSD -1
REMARK  0 active torsions:
REMARK  status: ('A' for Active; 'I' for Inactive)
ROOT
ATOM      1  C   UNL d   1       0.481  -5.635  -6.000  0.00  0.00     0.172 C 
ATOM      2  N   UNL d   1      -0.541  -5.782  -4.989  0.00  0.00    -0.070 N 
ATOM      3  C1  UNL d   1      -0.322  -5.870  -3.641  0.00  0.00    -0.004 A 
ATOM      4  C2  UNL d   1      -1.547  -5.999  -3.022  0.00  0.00    -0.047 A 
ATOM      5  C3  UNL d   1      -2.536  -5.989  -4.035  0.00  0.00    -0.047 A 
ATOM      6  C4  UNL d   1      -1.885  -5.853  -5.243  0.00  0.00    -0.004 A 
ENDROOT
TORSDOF 0
ENDMDL
