MODEL 1
REMARK minimizedAffinity -2.28699541
REMARK minimizedRMSD -1
REMARK  0 active torsions:
REMARK  status: ('A' for Active; 'I' for Inactive)
ROOT
ATOM      1  C   UNL d   1      -1.865  -5.999  -4.888  0.00  0.00     0.172 C 
ATOM      2  N   UNL d   1      -0.437  -5.788  -4.853  0.00  0.00    -0.070 N 
ATOM      3  C1  UNL d   1       0.362  -5.553  -5.940  0.00  0.00    -0.004 A 
ATOM      4  C2  UNL d   1       1.656  -5.406  -5.488  0.00  0.00    -0.047 A 
ATOM      5  C3  UNL d   1       1.634  -5.560  -4.082  0.00  0.00    -0.047 A 
ATOM      6  C4  UNL d   1       0.325  -5.796  -3.715  0.00  0.00    -0.004 A 
ENDROOT
TORSDOF 0
ENDMDL
