MODEL 1
REMARK minimizedAffinity 5.16380882
REMARK minimizedRMSD -1
REMARK  0 active torsions:
REMARK  status: ('A' for Active; 'I' for Inactive)
ROOT
ATOM      1  C   UNL d   1       0.065  -2.726   0.644  0.00  0.00     0.172 C 
ATOM      2  N   UNL d   1       0.422  -1.369   0.305  0.00  0.00    -0.070 N 
ATOM      3  C1  UNL d   1       1.108  -0.499   1.110  0.00  0.00    -0.004 A 
ATOM      4  C2  UNL d   1       1.248   0.689   0.426  0.00  0.00    -0.047 A 
ATOM      5  C3  UNL d   1       0.625   0.527  -0.835  0.00  0.00    -0.047 A 
ATOM      6  C4  UNL d   1       0.122  -0.756  -0.883  0.00  0.00    -0.004 A 
ENDROOT
TORSDOF 0
ENDMDL
