MODEL 1
REMARK minimizedAffinity 2.326092
REMARK minimizedRMSD -1
REMARK  0 active torsions:
REMARK  status: ('A' for Active; 'I' for Inactive)
ROOT
ATOM      1  C   UNL d   1      -3.039  -6.000  -2.681  0.00  0.00     0.172 C 
ATOM      2  N   UNL d   1      -3.997  -5.966  -1.601  0.00  0.00    -0.070 N 
ATOM      3  C1  UNL d   1      -3.694  -5.895  -0.267  0.00  0.00    -0.004 A 
ATOM      4  C2  UNL d   1      -4.880  -5.883   0.435  0.00  0.00    -0.047 A 
ATOM      5  C3  UNL d   1      -5.932  -5.950  -0.509  0.00  0.00    -0.047 A 
ATOM      6  C4  UNL d   1      -5.357  -6.000  -1.762  0.00  0.00    -0.004 A 
ENDROOT
TORSDOF 0
ENDMDL
