MODEL 1
REMARK minimizedAffinity -0.979343355
REMARK minimizedRMSD -1
REMARK  0 active torsions:
REMARK  status: ('A' for Active; 'I' for Inactive)
ROOT
ATOM      1  C4' PXY d   1      -3.029   3.377  -5.984  0.00  0.00     0.077 C 
ATOM      2  C1' PXY d   1      -4.993  -2.060  -5.989  0.00  0.00     0.077 C 
ATOM      3  C1  PXY d   1      -4.489  -0.630  -5.993  0.00  0.00    -0.082 A 
ATOM      4  C2  PXY d   1      -3.187  -0.395  -5.996  0.00  0.00     0.003 A 
ATOM      5  C3  PXY d   1      -2.714   0.892  -5.967  0.00  0.00     0.003 A 
ATOM      6  C4  PXY d   1      -3.583   1.950  -5.989  0.00  0.00    -0.082 A 
ATOM      7  C5  PXY d   1      -4.913   1.719  -5.997  0.00  0.00     0.003 A 
ATOM      8  C6  PXY d   1      -5.373   0.405  -5.984  0.00  0.00     0.003 A 
ENDROOT
TORSDOF 0
ENDMDL
