MODEL 1
REMARK minimizedAffinity 0.388579667
REMARK minimizedRMSD -1
REMARK  0 active torsions:
REMARK  status: ('A' for Active; 'I' for Inactive)
ROOT
ATOM      1  C4' PXY d   1       3.807  -1.957  -1.678  0.00  0.00     0.077 C 
ATOM      2  C1' PXY d   1      -0.211   1.641   0.403  0.00  0.00     0.077 C 
ATOM      3  C1  PXY d   1       0.847   0.707  -0.151  0.00  0.00    -0.082 A 
ATOM      4  C2  PXY d   1       0.678  -0.602  -0.057  0.00  0.00     0.003 A 
ATOM      5  C3  PXY d   1       1.639  -1.461  -0.523  0.00  0.00     0.003 A 
ATOM      6  C4  PXY d   1       2.761  -0.976  -1.141  0.00  0.00    -0.082 A 
ATOM      7  C5  PXY d   1       2.935   0.358  -1.251  0.00  0.00     0.003 A 
ATOM      8  C6  PXY d   1       1.967   1.214  -0.734  0.00  0.00     0.003 A 
ENDROOT
TORSDOF 0
ENDMDL
