MODEL 1
REMARK minimizedAffinity -3.21407032
REMARK minimizedRMSD -1
REMARK  0 active torsions:
REMARK  status: ('A' for Active; 'I' for Inactive)
ROOT
ATOM      1  C4' PXY d   1       4.107  -0.988  -3.682  0.00  0.00     0.077 C 
ATOM      2  C1' PXY d   1       0.635   0.819   0.571  0.00  0.00     0.077 C 
ATOM      3  C1  PXY d   1       1.555   0.352  -0.539  0.00  0.00    -0.082 A 
ATOM      4  C2  PXY d   1       1.041  -0.039  -1.694  0.00  0.00     0.003 A 
ATOM      5  C3  PXY d   1       1.857  -0.495  -2.698  0.00  0.00     0.003 A 
ATOM      6  C4  PXY d   1       3.217  -0.500  -2.537  0.00  0.00    -0.082 A 
ATOM      7  C5  PXY d   1       3.750  -0.092  -1.365  0.00  0.00     0.003 A 
ATOM      8  C6  PXY d   1       2.902   0.328  -0.345  0.00  0.00     0.003 A 
ENDROOT
TORSDOF 0
ENDMDL
