MODEL 1
REMARK minimizedAffinity 5.71430588
REMARK minimizedRMSD -1
REMARK  0 active torsions:
REMARK  status: ('A' for Active; 'I' for Inactive)
ROOT
ATOM      1  C4' PXY d   1       0.783   0.958   0.876  0.00  0.00     0.077 C 
ATOM      2  C1' PXY d   1       3.276  -1.514  -3.716  0.00  0.00     0.077 C 
ATOM      3  C1  PXY d   1       2.612  -0.863  -2.519  0.00  0.00    -0.082 A 
ATOM      4  C2  PXY d   1       3.356  -0.414  -1.522  0.00  0.00     0.003 A 
ATOM      5  C3  PXY d   1       2.770   0.149  -0.417  0.00  0.00     0.003 A 
ATOM      6  C4  PXY d   1       1.411   0.302  -0.357  0.00  0.00    -0.082 A 
ATOM      7  C5  PXY d   1       0.645  -0.144  -1.375  0.00  0.00     0.003 A 
ATOM      8  C6  PXY d   1       1.257  -0.750  -2.469  0.00  0.00     0.003 A 
ENDROOT
TORSDOF 0
ENDMDL
