MODEL 1
REMARK minimizedAffinity -1.79463065
REMARK minimizedRMSD -1
REMARK  0 active torsions:
REMARK  status: ('A' for Active; 'I' for Inactive)
ROOT
ATOM      1  C4' PXY d   1      -4.118  -1.341  -5.986  0.00  0.00     0.077 C 
ATOM      2  C1' PXY d   1      -4.008   4.439  -5.990  0.00  0.00     0.077 C 
ATOM      3  C1  PXY d   1      -4.049   2.923  -5.984  0.00  0.00    -0.082 A 
ATOM      4  C2  PXY d   1      -2.917   2.238  -5.973  0.00  0.00     0.003 A 
ATOM      5  C3  PXY d   1      -2.935   0.868  -6.000  0.00  0.00     0.003 A 
ATOM      6  C4  PXY d   1      -4.125   0.190  -5.983  0.00  0.00    -0.082 A 
ATOM      7  C5  PXY d   1      -5.284   0.882  -5.983  0.00  0.00     0.003 A 
ATOM      8  C6  PXY d   1      -5.244   2.273  -5.998  0.00  0.00     0.003 A 
ENDROOT
TORSDOF 0
ENDMDL
