MODEL 1
REMARK minimizedAffinity -1.24297404
REMARK minimizedRMSD -1
REMARK  0 active torsions:
REMARK  status: ('A' for Active; 'I' for Inactive)
ROOT
ATOM      1  C4' PXY d   1      -4.491  -0.635  -5.050  0.00  0.00     0.077 C 
ATOM      2  C1' PXY d   1      -3.014   4.879  -5.963  0.00  0.00     0.077 C 
ATOM      3  C1  PXY d   1      -3.414   3.436  -5.723  0.00  0.00    -0.082 A 
ATOM      4  C2  PXY d   1      -2.522   2.580  -5.251  0.00  0.00     0.003 A 
ATOM      5  C3  PXY d   1      -2.858   1.265  -5.057  0.00  0.00     0.003 A 
ATOM      6  C4  PXY d   1      -4.134   0.833  -5.300  0.00  0.00    -0.082 A 
ATOM      7  C5  PXY d   1      -5.053   1.703  -5.771  0.00  0.00     0.003 A 
ATOM      8  C6  PXY d   1      -4.681   3.024  -6.000  0.00  0.00     0.003 A 
ENDROOT
TORSDOF 0
ENDMDL
