MODEL 1
REMARK minimizedAffinity 2.61337113
REMARK minimizedRMSD -1
REMARK  0 active torsions:
REMARK  status: ('A' for Active; 'I' for Inactive)
ROOT
ATOM      1  C4' PXY d   1      -0.889   1.274  -5.227  0.00  0.00     0.077 C 
ATOM      2  C1' PXY d   1      -5.951   3.959  -5.993  0.00  0.00     0.077 C 
ATOM      3  C1  PXY d   1      -4.630   3.244  -5.790  0.00  0.00    -0.082 A 
ATOM      4  C2  PXY d   1      -3.562   3.933  -5.421  0.00  0.00     0.003 A 
ATOM      5  C3  PXY d   1      -2.352   3.307  -5.264  0.00  0.00     0.003 A 
ATOM      6  C4  PXY d   1      -2.246   1.953  -5.434  0.00  0.00    -0.082 A 
ATOM      7  C5  PXY d   1      -3.333   1.241  -5.800  0.00  0.00     0.003 A 
ATOM      8  C6  PXY d   1      -4.542   1.901  -5.994  0.00  0.00     0.003 A 
ENDROOT
TORSDOF 0
ENDMDL
