MODEL 1
REMARK minimizedAffinity -3.54252315
REMARK minimizedRMSD -1
REMARK  0 active torsions:
REMARK  status: ('A' for Active; 'I' for Inactive)
ROOT
ATOM      1  C4' PXY d   1      -5.385  -1.211  -5.998  0.00  0.00     0.077 C 
ATOM      2  C1' PXY d   1      -3.450   4.212  -5.482  0.00  0.00     0.077 C 
ATOM      3  C1  PXY d   1      -3.946   2.786  -5.620  0.00  0.00    -0.082 A 
ATOM      4  C2  PXY d   1      -5.230   2.558  -5.844  0.00  0.00     0.003 A 
ATOM      5  C3  PXY d   1      -5.700   1.274  -5.940  0.00  0.00     0.003 A 
ATOM      6  C4  PXY d   1      -4.839   0.213  -5.860  0.00  0.00    -0.082 A 
ATOM      7  C5  PXY d   1      -3.526   0.437  -5.642  0.00  0.00     0.003 A 
ATOM      8  C6  PXY d   1      -3.075   1.747  -5.507  0.00  0.00     0.003 A 
ENDROOT
TORSDOF 0
ENDMDL
