MODEL 1
REMARK minimizedAffinity -1.29994965
REMARK minimizedRMSD -1
REMARK  0 active torsions:
REMARK  status: ('A' for Active; 'I' for Inactive)
ROOT
ATOM      1  C4' PXY d   1      -4.373  -0.697  -5.965  0.00  0.00     0.077 C 
ATOM      2  C1' PXY d   1      -2.730   4.845  -5.993  0.00  0.00     0.077 C 
ATOM      3  C1  PXY d   1      -3.173   3.395  -5.980  0.00  0.00    -0.082 A 
ATOM      4  C2  PXY d   1      -2.264   2.434  -5.971  0.00  0.00     0.003 A 
ATOM      5  C3  PXY d   1      -2.646   1.117  -5.992  0.00  0.00     0.003 A 
ATOM      6  C4  PXY d   1      -3.973   0.781  -5.969  0.00  0.00    -0.082 A 
ATOM      7  C5  PXY d   1      -4.907   1.756  -5.967  0.00  0.00     0.003 A 
ATOM      8  C6  PXY d   1      -4.498   3.086  -5.987  0.00  0.00     0.003 A 
ENDROOT
TORSDOF 0
ENDMDL
