MODEL 1
REMARK minimizedAffinity -1.27584815
REMARK minimizedRMSD -1
REMARK  0 active torsions:
REMARK  status: ('A' for Active; 'I' for Inactive)
ROOT
ATOM      1  C4' PXY d   1      -3.024  -1.710  -5.979  0.00  0.00     0.077 C 
ATOM      2  C1' PXY d   1      -3.019   4.070  -5.998  0.00  0.00     0.077 C 
ATOM      3  C1  PXY d   1      -3.009   2.554  -5.999  0.00  0.00    -0.082 A 
ATOM      4  C2  PXY d   1      -4.154   1.892  -5.999  0.00  0.00     0.003 A 
ATOM      5  C3  PXY d   1      -4.163   0.521  -5.967  0.00  0.00     0.003 A 
ATOM      6  C4  PXY d   1      -2.987  -0.180  -5.988  0.00  0.00    -0.082 A 
ATOM      7  C5  PXY d   1      -1.814   0.489  -5.999  0.00  0.00     0.003 A 
ATOM      8  C6  PXY d   1      -1.826   1.880  -5.989  0.00  0.00     0.003 A 
ENDROOT
TORSDOF 0
ENDMDL
