MODEL 1
REMARK minimizedAffinity -0.723097742
REMARK minimizedRMSD -1
REMARK  0 active torsions:
REMARK  status: ('A' for Active; 'I' for Inactive)
ROOT
ATOM      1  C4' PXY d   1      -3.080   4.137  -5.999  0.00  0.00     0.077 C 
ATOM      2  C1' PXY d   1      -4.783  -1.387  -5.980  0.00  0.00     0.077 C 
ATOM      3  C1  PXY d   1      -4.348   0.065  -5.990  0.00  0.00    -0.082 A 
ATOM      4  C2  PXY d   1      -3.058   0.362  -6.000  0.00  0.00     0.003 A 
ATOM      5  C3  PXY d   1      -2.647   1.669  -5.977  0.00  0.00     0.003 A 
ATOM      6  C4  PXY d   1      -3.565   2.685  -5.998  0.00  0.00    -0.082 A 
ATOM      7  C5  PXY d   1      -4.883   2.391  -5.999  0.00  0.00     0.003 A 
ATOM      8  C6  PXY d   1      -5.280   1.057  -5.981  0.00  0.00     0.003 A 
ENDROOT
TORSDOF 0
ENDMDL
