MODEL 1
REMARK minimizedAffinity 12.1098652
REMARK minimizedRMSD -1
REMARK  0 active torsions:
REMARK  status: ('A' for Active; 'I' for Inactive)
ROOT
ATOM      1  C4' PXY d   1       1.522   2.213   3.232  0.00  0.00     0.077 C 
ATOM      2  C1' PXY d   1       0.744  -0.348  -1.891  0.00  0.00     0.077 C 
ATOM      3  C1  PXY d   1       0.958   0.330  -0.552  0.00  0.00    -0.082 A 
ATOM      4  C2  PXY d   1       0.528  -0.255   0.554  0.00  0.00     0.003 A 
ATOM      5  C3  PXY d   1       0.685   0.359   1.769  0.00  0.00     0.003 A 
ATOM      6  C4  PXY d   1       1.336   1.561   1.860  0.00  0.00    -0.082 A 
ATOM      7  C5  PXY d   1       1.787   2.159   0.737  0.00  0.00     0.003 A 
ATOM      8  C6  PXY d   1       1.581   1.538  -0.492  0.00  0.00     0.003 A 
ENDROOT
TORSDOF 0
ENDMDL
