MODEL 1
REMARK minimizedAffinity 2.39010835
REMARK minimizedRMSD -1
REMARK  0 active torsions:
REMARK  status: ('A' for Active; 'I' for Inactive)
ROOT
ATOM      1  C4' PXY d   1      -1.108  -1.364  -2.172  0.00  0.00     0.077 C 
ATOM      2  C1' PXY d   1       3.539   1.195   0.125  0.00  0.00     0.077 C 
ATOM      3  C1  PXY d   1       2.315   0.523  -0.466  0.00  0.00    -0.082 A 
ATOM      4  C2  PXY d   1       2.401  -0.075  -1.643  0.00  0.00     0.003 A 
ATOM      5  C3  PXY d   1       1.297  -0.661  -2.206  0.00  0.00     0.003 A 
ATOM      6  C4  PXY d   1       0.104  -0.681  -1.533  0.00  0.00    -0.082 A 
ATOM      7  C5  PXY d   1       0.011  -0.082  -0.327  0.00  0.00     0.003 A 
ATOM      8  C6  PXY d   1       1.134   0.542   0.209  0.00  0.00     0.003 A 
ENDROOT
TORSDOF 0
ENDMDL
