MODEL 1
REMARK minimizedAffinity -1.21205902
REMARK minimizedRMSD -1
REMARK  0 active torsions:
REMARK  status: ('A' for Active; 'I' for Inactive)
ROOT
ATOM      1  C4' PXY d   1      -3.375   4.501  -5.979  0.00  0.00     0.077 C 
ATOM      2  C1' PXY d   1      -4.150  -1.228  -6.000  0.00  0.00     0.077 C 
ATOM      3  C1  PXY d   1      -3.958   0.276  -6.000  0.00  0.00    -0.082 A 
ATOM      4  C2  PXY d   1      -2.735   0.780  -6.000  0.00  0.00     0.003 A 
ATOM      5  C3  PXY d   1      -2.543   2.137  -5.967  0.00  0.00     0.003 A 
ATOM      6  C4  PXY d   1      -3.615   2.989  -5.989  0.00  0.00    -0.082 A 
ATOM      7  C5  PXY d   1      -4.867   2.483  -5.999  0.00  0.00     0.003 A 
ATOM      8  C6  PXY d   1      -5.040   1.102  -5.990  0.00  0.00     0.003 A 
ENDROOT
TORSDOF 0
ENDMDL
