MODEL 1
REMARK minimizedAffinity -0.153573439
REMARK minimizedRMSD -1
REMARK  0 active torsions:
REMARK  status: ('A' for Active; 'I' for Inactive)
ROOT
ATOM      1  C4' PXY d   1      -4.788  -0.155   1.994  0.00  0.00     0.077 C 
ATOM      2  C1' PXY d   1      -2.247  -4.837  -0.252  0.00  0.00     0.077 C 
ATOM      3  C1  PXY d   1      -2.917  -3.605   0.325  0.00  0.00    -0.082 A 
ATOM      4  C2  PXY d   1      -2.517  -3.130   1.494  0.00  0.00     0.003 A 
ATOM      5  C3  PXY d   1      -3.133  -2.036   2.045  0.00  0.00     0.003 A 
ATOM      6  C4  PXY d   1      -4.134  -1.390   1.369  0.00  0.00    -0.082 A 
ATOM      7  C5  PXY d   1      -4.540  -1.863   0.171  0.00  0.00     0.003 A 
ATOM      8  C6  PXY d   1      -3.929  -2.999  -0.352  0.00  0.00     0.003 A 
ENDROOT
TORSDOF 0
ENDMDL
