MODEL 1
REMARK minimizedAffinity -1.18827581
REMARK minimizedRMSD -1
REMARK  0 active torsions:
REMARK  status: ('A' for Active; 'I' for Inactive)
ROOT
ATOM      1  C4' PXY d   1      -2.643   5.557  -5.996  0.00  0.00     0.077 C 
ATOM      2  C1' PXY d   1      -4.116  -0.033  -5.982  0.00  0.00     0.077 C 
ATOM      3  C1  PXY d   1      -3.742   1.436  -5.991  0.00  0.00    -0.082 A 
ATOM      4  C2  PXY d   1      -2.465   1.786  -5.998  0.00  0.00     0.003 A 
ATOM      5  C3  PXY d   1      -2.109   3.109  -5.974  0.00  0.00     0.003 A 
ATOM      6  C4  PXY d   1      -3.068   4.086  -5.997  0.00  0.00    -0.082 A 
ATOM      7  C5  PXY d   1      -4.372   3.738  -6.000  0.00  0.00     0.003 A 
ATOM      8  C6  PXY d   1      -4.714   2.388  -5.983  0.00  0.00     0.003 A 
ENDROOT
TORSDOF 0
ENDMDL
