MODEL 1
REMARK minimizedAffinity -0.259153962
REMARK minimizedRMSD -1
REMARK  0 active torsions:
REMARK  status: ('A' for Active; 'I' for Inactive)
ROOT
ATOM      1  C4' PXY d   1      -2.990   3.847  -5.729  0.00  0.00     0.077 C 
ATOM      2  C1' PXY d   1      -3.782  -1.877  -5.871  0.00  0.00     0.077 C 
ATOM      3  C1  PXY d   1      -3.564  -0.378  -5.827  0.00  0.00    -0.082 A 
ATOM      4  C2  PXY d   1      -4.591   0.438  -6.000  0.00  0.00     0.003 A 
ATOM      5  C3  PXY d   1      -4.406   1.797  -5.994  0.00  0.00     0.003 A 
ATOM      6  C4  PXY d   1      -3.166   2.326  -5.757  0.00  0.00    -0.082 A 
ATOM      7  C5  PXY d   1      -2.114   1.501  -5.568  0.00  0.00     0.003 A 
ATOM      8  C6  PXY d   1      -2.316   0.124  -5.619  0.00  0.00     0.003 A 
ENDROOT
TORSDOF 0
ENDMDL
