MODEL 1
REMARK minimizedAffinity -1.76005411
REMARK minimizedRMSD -1
REMARK  0 active torsions:
REMARK  status: ('A' for Active; 'I' for Inactive)
ROOT
ATOM      1  C4' PXY d   1      -3.737  -2.303  -5.487  0.00  0.00     0.077 C 
ATOM      2  C1' PXY d   1      -2.682   3.358  -6.000  0.00  0.00     0.077 C 
ATOM      3  C1  PXY d   1      -2.948   1.871  -5.872  0.00  0.00    -0.082 A 
ATOM      4  C2  PXY d   1      -4.177   1.444  -5.629  0.00  0.00     0.003 A 
ATOM      5  C3  PXY d   1      -4.429   0.105  -5.479  0.00  0.00     0.003 A 
ATOM      6  C4  PXY d   1      -3.423  -0.811  -5.633  0.00  0.00    -0.082 A 
ATOM      7  C5  PXY d   1      -2.169  -0.385  -5.892  0.00  0.00     0.003 A 
ATOM      8  C6  PXY d   1      -1.926   0.982  -6.000  0.00  0.00     0.003 A 
ENDROOT
TORSDOF 0
ENDMDL
