MODEL 1
REMARK minimizedAffinity -3.10488129
REMARK minimizedRMSD -1
REMARK  0 active torsions:
REMARK  status: ('A' for Active; 'I' for Inactive)
ROOT
ATOM      1  C4' PXY d   1      -1.081  -6.000  -5.516  0.00  0.00     0.077 C 
ATOM      2  C1' PXY d   1      -5.669  -2.517  -6.000  0.00  0.00     0.077 C 
ATOM      3  C1  PXY d   1      -4.473  -3.440  -5.869  0.00  0.00    -0.082 A 
ATOM      4  C2  PXY d   1      -3.274  -2.929  -5.643  0.00  0.00     0.003 A 
ATOM      5  C3  PXY d   1      -2.177  -3.748  -5.554  0.00  0.00     0.003 A 
ATOM      6  C4  PXY d   1      -2.317  -5.106  -5.645  0.00  0.00    -0.082 A 
ATOM      7  C5  PXY d   1      -3.539  -5.636  -5.866  0.00  0.00     0.003 A 
ATOM      8  C6  PXY d   1      -4.634  -4.786  -5.994  0.00  0.00     0.003 A 
ENDROOT
TORSDOF 0
ENDMDL
