MODEL 1
REMARK minimizedAffinity 2.60548615
REMARK minimizedRMSD -1
REMARK  0 active torsions:
REMARK  status: ('A' for Active; 'I' for Inactive)
ROOT
ATOM      1  C4' PXY d   1      -5.897   2.933  -5.962  0.00  0.00     0.077 C 
ATOM      2  C1' PXY d   1      -2.856  -1.980  -5.795  0.00  0.00     0.077 C 
ATOM      3  C1  PXY d   1      -3.664  -0.698  -5.843  0.00  0.00    -0.082 A 
ATOM      4  C2  PXY d   1      -3.042   0.462  -5.974  0.00  0.00     0.003 A 
ATOM      5  C3  PXY d   1      -3.755   1.634  -5.987  0.00  0.00     0.003 A 
ATOM      6  C4  PXY d   1      -5.122   1.613  -5.919  0.00  0.00    -0.082 A 
ATOM      7  C5  PXY d   1      -5.765   0.432  -5.797  0.00  0.00     0.003 A 
ATOM      8  C6  PXY d   1      -5.021  -0.742  -5.744  0.00  0.00     0.003 A 
ENDROOT
TORSDOF 0
ENDMDL
