MODEL 1
REMARK minimizedAffinity 7.28419399
REMARK minimizedRMSD -1
REMARK  0 active torsions:
REMARK  status: ('A' for Active; 'I' for Inactive)
ROOT
ATOM      1  C1  BNZ d   1       0.823   0.882   2.377  0.00  0.00     0.000 A 
ATOM      2  C2  BNZ d   1       0.341   2.095   1.962  0.00  0.00     0.000 A 
ATOM      3  C3  BNZ d   1       0.897   2.740   0.892  0.00  0.00     0.000 A 
ATOM      4  C4  BNZ d   1       1.957   2.191   0.264  0.00  0.00     0.000 A 
ATOM      5  C5  BNZ d   1       2.460   0.973   0.677  0.00  0.00     0.000 A 
ATOM      6  C6  BNZ d   1       1.874   0.308   1.729  0.00  0.00     0.000 A 
ENDROOT
TORSDOF 0
ENDMDL
