MODEL 1
REMARK minimizedAffinity 11.4809265
REMARK minimizedRMSD -1
REMARK  0 active torsions:
REMARK  status: ('A' for Active; 'I' for Inactive)
ROOT
ATOM      1  C1  BNZ d   1      -3.746  -5.627  -1.596  0.00  0.00     0.000 A 
ATOM      2  C2  BNZ d   1      -5.064  -6.000  -1.603  0.00  0.00     0.000 A 
ATOM      3  C3  BNZ d   1      -6.000  -5.251  -2.260  0.00  0.00     0.000 A 
ATOM      4  C4  BNZ d   1      -5.625  -4.110  -2.874  0.00  0.00     0.000 A 
ATOM      5  C5  BNZ d   1      -4.302  -3.716  -2.868  0.00  0.00     0.000 A 
ATOM      6  C6  BNZ d   1      -3.356  -4.493  -2.239  0.00  0.00     0.000 A 
ENDROOT
TORSDOF 0
ENDMDL
