MODEL 1
REMARK minimizedAffinity 7.11716843
REMARK minimizedRMSD -1
REMARK  0 active torsions:
REMARK  status: ('A' for Active; 'I' for Inactive)
ROOT
ATOM      1  C1  BNZ d   1       5.998   4.129  -4.177  0.00  0.00     0.000 A 
ATOM      2  C2  BNZ d   1       5.992   4.616  -5.457  0.00  0.00     0.000 A 
ATOM      3  C3  BNZ d   1       4.852   5.141  -6.000  0.00  0.00     0.000 A 
ATOM      4  C4  BNZ d   1       3.713   5.141  -5.278  0.00  0.00     0.000 A 
ATOM      5  C5  BNZ d   1       3.701   4.645  -3.990  0.00  0.00     0.000 A 
ATOM      6  C6  BNZ d   1       4.859   4.153  -3.433  0.00  0.00     0.000 A 
ENDROOT
TORSDOF 0
ENDMDL
