MODEL 1
REMARK minimizedAffinity 11.9230251
REMARK minimizedRMSD -1
REMARK  0 active torsions:
REMARK  status: ('A' for Active; 'I' for Inactive)
ROOT
ATOM      1  C1  BNZ d   1      -2.115  -2.537  -1.004  0.00  0.00     0.000 A 
ATOM      2  C2  BNZ d   1      -1.448  -2.250  -2.165  0.00  0.00     0.000 A 
ATOM      3  C3  BNZ d   1      -2.003  -2.538  -3.381  0.00  0.00     0.000 A 
ATOM      4  C4  BNZ d   1      -3.204  -3.149  -3.433  0.00  0.00     0.000 A 
ATOM      5  C5  BNZ d   1      -3.885  -3.454  -2.271  0.00  0.00     0.000 A 
ATOM      6  C6  BNZ d   1      -3.341  -3.127  -1.050  0.00  0.00     0.000 A 
ENDROOT
TORSDOF 0
ENDMDL
