MODEL 1
REMARK minimizedAffinity 8.06622314
REMARK minimizedRMSD -1
REMARK  0 active torsions:
REMARK  status: ('A' for Active; 'I' for Inactive)
ROOT
ATOM      1  C1  BNZ d   1       5.045   1.214  -3.081  0.00  0.00     0.000 A 
ATOM      2  C2  BNZ d   1       4.749   0.350  -4.102  0.00  0.00     0.000 A 
ATOM      3  C3  BNZ d   1       3.961   0.744  -5.146  0.00  0.00     0.000 A 
ATOM      4  C4  BNZ d   1       3.436   1.986  -5.149  0.00  0.00     0.000 A 
ATOM      5  C5  BNZ d   1       3.717   2.866  -4.123  0.00  0.00     0.000 A 
ATOM      6  C6  BNZ d   1       4.543   2.479  -3.093  0.00  0.00     0.000 A 
ENDROOT
TORSDOF 0
ENDMDL
