MODEL 1
REMARK minimizedAffinity 6.72425032
REMARK minimizedRMSD -1
REMARK  0 active torsions:
REMARK  status: ('A' for Active; 'I' for Inactive)
ROOT
ATOM      1  C1  BNZ d   1       2.117   1.276   1.490  0.00  0.00     0.000 A 
ATOM      2  C2  BNZ d   1       2.597   2.160   0.562  0.00  0.00     0.000 A 
ATOM      3  C3  BNZ d   1       2.045   3.403   0.427  0.00  0.00     0.000 A 
ATOM      4  C4  BNZ d   1       0.988   3.745   1.193  0.00  0.00     0.000 A 
ATOM      5  C5  BNZ d   1       0.486   2.861   2.127  0.00  0.00     0.000 A 
ATOM      6  C6  BNZ d   1       1.070   1.625   2.286  0.00  0.00     0.000 A 
ENDROOT
TORSDOF 0
ENDMDL
