MODEL 1
REMARK minimizedAffinity 6.4567523
REMARK minimizedRMSD -1
REMARK  0 active torsions:
REMARK  status: ('A' for Active; 'I' for Inactive)
ROOT
ATOM      1  C1  BNZ d   1      -1.780  -4.819  -3.136  0.00  0.00     0.000 A 
ATOM      2  C2  BNZ d   1      -1.639  -3.457  -3.135  0.00  0.00     0.000 A 
ATOM      3  C3  BNZ d   1      -2.604  -2.653  -2.596  0.00  0.00     0.000 A 
ATOM      4  C4  BNZ d   1      -3.726  -3.209  -2.095  0.00  0.00     0.000 A 
ATOM      5  C5  BNZ d   1      -3.888  -4.581  -2.098  0.00  0.00     0.000 A 
ATOM      6  C6  BNZ d   1      -2.896  -5.388  -2.606  0.00  0.00     0.000 A 
ENDROOT
TORSDOF 0
ENDMDL
