MODEL 1
REMARK minimizedAffinity 7.33611202
REMARK minimizedRMSD -1
REMARK  0 active torsions:
REMARK  status: ('A' for Active; 'I' for Inactive)
ROOT
ATOM      1  C1  BNZ d   1       1.775   2.644  -2.912  0.00  0.00     0.000 A 
ATOM      2  C2  BNZ d   1       2.255   2.322  -4.153  0.00  0.00     0.000 A 
ATOM      3  C3  BNZ d   1       3.431   1.639  -4.292  0.00  0.00     0.000 A 
ATOM      4  C4  BNZ d   1       4.145   1.316  -3.194  0.00  0.00     0.000 A 
ATOM      5  C5  BNZ d   1       3.678   1.643  -1.937  0.00  0.00     0.000 A 
ATOM      6  C6  BNZ d   1       2.475   2.295  -1.798  0.00  0.00     0.000 A 
ENDROOT
TORSDOF 0
ENDMDL
