MODEL 1
REMARK minimizedAffinity -1.75934124
REMARK minimizedRMSD -1
REMARK  0 active torsions:
REMARK  status: ('A' for Active; 'I' for Inactive)
ROOT
ATOM      1  C1  BNZ d   1       2.265   5.307  -4.127  0.00  0.00     0.000 A 
ATOM      2  C2  BNZ d   1       2.259   3.938  -4.149  0.00  0.00     0.000 A 
ATOM      3  C3  BNZ d   1       2.994   3.249  -5.073  0.00  0.00     0.000 A 
ATOM      4  C4  BNZ d   1       3.701   3.930  -5.998  0.00  0.00     0.000 A 
ATOM      5  C5  BNZ d   1       3.710   5.310  -5.995  0.00  0.00     0.000 A 
ATOM      6  C6  BNZ d   1       3.000   6.000  -5.039  0.00  0.00     0.000 A 
ENDROOT
TORSDOF 0
ENDMDL
