MODEL 1
REMARK minimizedAffinity 3.70764375
REMARK minimizedRMSD -1
REMARK  0 active torsions:
REMARK  status: ('A' for Active; 'I' for Inactive)
ROOT
ATOM      1  C1  BNZ d   1       2.921   2.118  -4.093  0.00  0.00     0.000 A 
ATOM      2  C2  BNZ d   1       1.774   2.559  -3.488  0.00  0.00     0.000 A 
ATOM      3  C3  BNZ d   1       1.462   2.172  -2.215  0.00  0.00     0.000 A 
ATOM      4  C4  BNZ d   1       2.274   1.314  -1.564  0.00  0.00     0.000 A 
ATOM      5  C5  BNZ d   1       3.428   0.853  -2.164  0.00  0.00     0.000 A 
ATOM      6  C6  BNZ d   1       3.760   1.275  -3.432  0.00  0.00     0.000 A 
ENDROOT
TORSDOF 0
ENDMDL
