MODEL 1
REMARK minimizedAffinity 2.75708008
REMARK minimizedRMSD -1
REMARK  0 active torsions:
REMARK  status: ('A' for Active; 'I' for Inactive)
ROOT
ATOM      1  C1  BNZ d   1      -4.897   2.811   3.730  0.00  0.00     0.000 A 
ATOM      2  C2  BNZ d   1      -5.113   3.595   4.832  0.00  0.00     0.000 A 
ATOM      3  C3  BNZ d   1      -5.646   3.066   5.974  0.00  0.00     0.000 A 
ATOM      4  C4  BNZ d   1      -6.000   1.765   6.000  0.00  0.00     0.000 A 
ATOM      5  C5  BNZ d   1      -5.797   0.964   4.894  0.00  0.00     0.000 A 
ATOM      6  C6  BNZ d   1      -5.225   1.490   3.759  0.00  0.00     0.000 A 
ENDROOT
TORSDOF 0
ENDMDL
