MODEL 1
REMARK minimizedAffinity 3.02847815
REMARK minimizedRMSD -1
REMARK  0 active torsions:
REMARK  status: ('A' for Active; 'I' for Inactive)
ROOT
ATOM      1  C1  BNZ d   1      -6.000  -5.045  -3.041  0.00  0.00     0.000 A 
ATOM      2  C2  BNZ d   1      -5.290  -3.921  -3.368  0.00  0.00     0.000 A 
ATOM      3  C3  BNZ d   1      -4.012  -3.744  -2.917  0.00  0.00     0.000 A 
ATOM      4  C4  BNZ d   1      -3.460  -4.671  -2.108  0.00  0.00     0.000 A 
ATOM      5  C5  BNZ d   1      -4.167  -5.806  -1.761  0.00  0.00     0.000 A 
ATOM      6  C6  BNZ d   1      -5.439  -5.999  -2.249  0.00  0.00     0.000 A 
ENDROOT
TORSDOF 0
ENDMDL
