MODEL 1
REMARK minimizedAffinity 0.50159651
REMARK minimizedRMSD -1
REMARK  0 active torsions:
REMARK  status: ('A' for Active; 'I' for Inactive)
ROOT
ATOM      1  C1  BNZ d   1      -5.999   1.315   5.981  0.00  0.00     0.000 A 
ATOM      2  C2  BNZ d   1      -5.961   2.684   5.999  0.00  0.00     0.000 A 
ATOM      3  C3  BNZ d   1      -5.791   3.394   4.843  0.00  0.00     0.000 A 
ATOM      4  C4  BNZ d   1      -5.620   2.735   3.679  0.00  0.00     0.000 A 
ATOM      5  C5  BNZ d   1      -5.646   1.355   3.646  0.00  0.00     0.000 A 
ATOM      6  C6  BNZ d   1      -5.856   0.644   4.806  0.00  0.00     0.000 A 
ENDROOT
TORSDOF 0
ENDMDL
