MODEL 1
REMARK minimizedAffinity 7.05930662
REMARK minimizedRMSD -1
REMARK  0 active torsions:
REMARK  status: ('A' for Active; 'I' for Inactive)
ROOT
ATOM      1  C1  BNZ d   1       1.866   2.179   2.035  0.00  0.00     0.000 A 
ATOM      2  C2  BNZ d   1       2.975   2.147   1.232  0.00  0.00     0.000 A 
ATOM      3  C3  BNZ d   1       3.152   1.143   0.322  0.00  0.00     0.000 A 
ATOM      4  C4  BNZ d   1       2.241   0.151   0.245  0.00  0.00     0.000 A 
ATOM      5  C5  BNZ d   1       1.123   0.163   1.054  0.00  0.00     0.000 A 
ATOM      6  C6  BNZ d   1       0.928   1.197   1.941  0.00  0.00     0.000 A 
ENDROOT
TORSDOF 0
ENDMDL
