MODEL 1
REMARK minimizedAffinity 0.658131897
REMARK minimizedRMSD -1
REMARK  0 active torsions:
REMARK  status: ('A' for Active; 'I' for Inactive)
ROOT
ATOM      1  C1  BNZ d   1      -4.123   4.224   5.701  0.00  0.00     0.000 A 
ATOM      2  C2  BNZ d   1      -4.154   2.887   5.993  0.00  0.00     0.000 A 
ATOM      3  C3  BNZ d   1      -5.080   2.065   5.415  0.00  0.00     0.000 A 
ATOM      4  C4  BNZ d   1      -5.999   2.587   4.577  0.00  0.00     0.000 A 
ATOM      5  C5  BNZ d   1      -5.987   3.936   4.279  0.00  0.00     0.000 A 
ATOM      6  C6  BNZ d   1      -5.028   4.753   4.833  0.00  0.00     0.000 A 
ENDROOT
TORSDOF 0
ENDMDL
