MODEL 1
REMARK minimizedAffinity 0.592492223
REMARK minimizedRMSD -1
REMARK  0 active torsions:
REMARK  status: ('A' for Active; 'I' for Inactive)
ROOT
ATOM      1  C1  BNZ d   1       0.928   1.871   1.009  0.00  0.00     0.000 A 
ATOM      2  C2  BNZ d   1      -0.151   2.713   1.072  0.00  0.00     0.000 A 
ATOM      3  C3  BNZ d   1      -1.338   2.290   1.602  0.00  0.00     0.000 A 
ATOM      4  C4  BNZ d   1      -1.457   1.017   2.031  0.00  0.00     0.000 A 
ATOM      5  C5  BNZ d   1      -0.381   0.154   1.965  0.00  0.00     0.000 A 
ATOM      6  C6  BNZ d   1       0.824   0.594   1.467  0.00  0.00     0.000 A 
ENDROOT
TORSDOF 0
ENDMDL
