MODEL 1
REMARK minimizedAffinity 6.94971037
REMARK minimizedRMSD -1
REMARK  0 active torsions:
REMARK  status: ('A' for Active; 'I' for Inactive)
ROOT
ATOM      1  C1  BNZ d   1       4.828   3.669   1.648  0.00  0.00     0.000 A 
ATOM      2  C2  BNZ d   1       3.707   3.673   0.861  0.00  0.00     0.000 A 
ATOM      3  C3  BNZ d   1       3.034   4.835   0.606  0.00  0.00     0.000 A 
ATOM      4  C4  BNZ d   1       3.458   5.984   1.170  0.00  0.00     0.000 A 
ATOM      5  C5  BNZ d   1       4.581   5.995   1.974  0.00  0.00     0.000 A 
ATOM      6  C6  BNZ d   1       5.278   4.830   2.197  0.00  0.00     0.000 A 
ENDROOT
TORSDOF 0
ENDMDL
