MODEL 1
REMARK minimizedAffinity 10.6109533
REMARK minimizedRMSD -1
REMARK  0 active torsions:
REMARK  status: ('A' for Active; 'I' for Inactive)
ROOT
ATOM      1  C   UNL d   1      -0.241   1.428   2.749  0.00  0.00    -0.002 A 
ATOM      2  C1  UNL d   1      -1.005   2.569   2.947  0.00  0.00     0.010 A 
ATOM      3  C2  UNL d   1      -2.299   2.656   2.430  0.00  0.00     0.041 A 
ATOM      4  C3  UNL d   1      -2.818   1.565   1.705  0.00  0.00    -0.075 A 
ATOM      5  S   UNL d   1      -4.377   1.445   0.980  0.00  0.00     0.015 SA
ATOM      6  C4  UNL d   1      -4.066  -0.123   0.391  0.00  0.00     0.022 A 
ATOM      7  C5  UNL d   1      -2.807  -0.561   0.730  0.00  0.00     0.026 A 
ATOM      8  C6  UNL d   1      -2.068   0.405   1.493  0.00  0.00    -0.082 A 
ATOM      9  C7  UNL d   1      -0.759   0.348   2.030  0.00  0.00     0.045 A 
ENDROOT
TORSDOF 0
ENDMDL
