MODEL 1
REMARK minimizedAffinity 18.1315441
REMARK minimizedRMSD -1
REMARK  0 active torsions:
REMARK  status: ('A' for Active; 'I' for Inactive)
ROOT
ATOM      1  C   UNL d   1      -0.018   0.457   3.236  0.00  0.00    -0.002 A 
ATOM      2  C1  UNL d   1      -0.021  -0.910   3.474  0.00  0.00     0.010 A 
ATOM      3  C2  UNL d   1      -0.739  -1.774   2.645  0.00  0.00     0.041 A 
ATOM      4  C3  UNL d   1      -1.461  -1.235   1.561  0.00  0.00    -0.075 A 
ATOM      5  S   UNL d   1      -2.412  -2.101   0.413  0.00  0.00     0.015 SA
ATOM      6  C4  UNL d   1      -2.836  -0.676  -0.421  0.00  0.00     0.022 A 
ATOM      7  C5  UNL d   1      -2.275   0.442   0.149  0.00  0.00     0.026 A 
ATOM      8  C6  UNL d   1      -1.472   0.138   1.301  0.00  0.00    -0.082 A 
ATOM      9  C7  UNL d   1      -0.735   0.988   2.160  0.00  0.00     0.045 A 
ENDROOT
TORSDOF 0
ENDMDL
