MODEL 1
REMARK minimizedAffinity 10.5919037
REMARK minimizedRMSD -1
REMARK  0 active torsions:
REMARK  status: ('A' for Active; 'I' for Inactive)
ROOT
ATOM      1  C   UNL d   1      -3.107   1.392   1.724  0.00  0.00    -0.002 A 
ATOM      2  C1  UNL d   1      -2.187   0.359   1.839  0.00  0.00     0.010 A 
ATOM      3  C2  UNL d   1      -2.169  -0.452   2.975  0.00  0.00     0.041 A 
ATOM      4  C3  UNL d   1      -3.100  -0.207   4.003  0.00  0.00    -0.075 A 
ATOM      5  S   UNL d   1      -3.265  -1.072   5.485  0.00  0.00     0.015 SA
ATOM      6  C4  UNL d   1      -4.560  -0.092   6.000  0.00  0.00     0.022 A 
ATOM      7  C5  UNL d   1      -4.873   0.877   5.076  0.00  0.00     0.026 A 
ATOM      8  C6  UNL d   1      -4.037   0.826   3.909  0.00  0.00    -0.082 A 
ATOM      9  C7  UNL d   1      -4.029   1.632   2.745  0.00  0.00     0.045 A 
ENDROOT
TORSDOF 0
ENDMDL
