MODEL 1
REMARK minimizedAffinity 8.24315834
REMARK minimizedRMSD -1
REMARK  0 active torsions:
REMARK  status: ('A' for Active; 'I' for Inactive)
ROOT
ATOM      1  C   UNL d   1      -1.391  -0.888  -5.951  0.00  0.00    -0.002 A 
ATOM      2  C1  UNL d   1      -0.833  -2.159  -5.964  0.00  0.00     0.010 A 
ATOM      3  C2  UNL d   1      -1.648  -3.292  -5.978  0.00  0.00     0.041 A 
ATOM      4  C3  UNL d   1      -3.047  -3.126  -5.981  0.00  0.00    -0.075 A 
ATOM      5  S   UNL d   1      -4.242  -4.369  -5.999  0.00  0.00     0.015 SA
ATOM      6  C4  UNL d   1      -5.521  -3.242  -5.991  0.00  0.00     0.022 A 
ATOM      7  C5  UNL d   1      -5.066  -1.945  -5.974  0.00  0.00     0.026 A 
ATOM      8  C6  UNL d   1      -3.633  -1.857  -5.969  0.00  0.00    -0.082 A 
ATOM      9  C7  UNL d   1      -2.779  -0.727  -5.954  0.00  0.00     0.045 A 
ENDROOT
TORSDOF 0
ENDMDL
