MODEL 1
REMARK minimizedAffinity 11.6883974
REMARK minimizedRMSD -1
REMARK  0 active torsions:
REMARK  status: ('A' for Active; 'I' for Inactive)
ROOT
ATOM      1  C   UNL d   1      -5.993   2.001   4.156  0.00  0.00    -0.002 A 
ATOM      2  C1  UNL d   1      -5.397   0.908   4.768  0.00  0.00     0.010 A 
ATOM      3  C2  UNL d   1      -4.364   0.215   4.135  0.00  0.00     0.041 A 
ATOM      4  C3  UNL d   1      -3.934   0.645   2.864  0.00  0.00    -0.075 A 
ATOM      5  S   UNL d   1      -2.684  -0.049   1.899  0.00  0.00     0.015 SA
ATOM      6  C4  UNL d   1      -2.912   1.090   0.652  0.00  0.00     0.022 A 
ATOM      7  C5  UNL d   1      -3.912   1.985   0.948  0.00  0.00     0.026 A 
ATOM      8  C6  UNL d   1      -4.518   1.744   2.227  0.00  0.00    -0.082 A 
ATOM      9  C7  UNL d   1      -5.564   2.425   2.895  0.00  0.00     0.045 A 
ENDROOT
TORSDOF 0
ENDMDL
