MODEL 1
REMARK minimizedAffinity 13.0808945
REMARK minimizedRMSD -1
REMARK  0 active torsions:
REMARK  status: ('A' for Active; 'I' for Inactive)
ROOT
ATOM      1  C   UNL d   1      -4.516  -0.677   5.999  0.00  0.00    -0.002 A 
ATOM      2  C1  UNL d   1      -3.248  -1.240   6.000  0.00  0.00     0.010 A 
ATOM      3  C2  UNL d   1      -2.373  -1.021   4.934  0.00  0.00     0.041 A 
ATOM      4  C3  UNL d   1      -2.797  -0.216   3.858  0.00  0.00    -0.075 A 
ATOM      5  S   UNL d   1      -1.895   0.191   2.447  0.00  0.00     0.015 SA
ATOM      6  C4  UNL d   1      -3.172   1.123   1.809  0.00  0.00     0.022 A 
ATOM      7  C5  UNL d   1      -4.267   1.133   2.640  0.00  0.00     0.026 A 
ATOM      8  C6  UNL d   1      -4.069   0.362   3.835  0.00  0.00    -0.082 A 
ATOM      9  C7  UNL d   1      -4.934   0.120   4.930  0.00  0.00     0.045 A 
ENDROOT
TORSDOF 0
ENDMDL
