MODEL 1
REMARK minimizedAffinity 15.1054296
REMARK minimizedRMSD -1
REMARK  0 active torsions:
REMARK  status: ('A' for Active; 'I' for Inactive)
ROOT
ATOM      1  C   UNL d   1       0.288  -1.377  -5.135  0.00  0.00    -0.002 A 
ATOM      2  C1  UNL d   1      -0.325  -0.160  -4.872  0.00  0.00     0.010 A 
ATOM      3  C2  UNL d   1      -1.711  -0.024  -4.982  0.00  0.00     0.041 A 
ATOM      4  C3  UNL d   1      -2.477  -1.143  -5.362  0.00  0.00    -0.075 A 
ATOM      5  S   UNL d   1      -4.188  -1.212  -5.561  0.00  0.00     0.015 SA
ATOM      6  C4  UNL d   1      -4.146  -2.859  -5.999  0.00  0.00     0.022 A 
ATOM      7  C5  UNL d   1      -2.866  -3.359  -5.999  0.00  0.00     0.026 A 
ATOM      8  C6  UNL d   1      -1.883  -2.379  -5.632  0.00  0.00    -0.082 A 
ATOM      9  C7  UNL d   1      -0.476  -2.485  -5.512  0.00  0.00     0.045 A 
ENDROOT
TORSDOF 0
ENDMDL
