MODEL 1
REMARK minimizedAffinity 15.0128403
REMARK minimizedRMSD -1
REMARK  0 active torsions:
REMARK  status: ('A' for Active; 'I' for Inactive)
ROOT
ATOM      1  C   UNL d   1       5.873  -4.762   2.663  0.00  0.00    -0.002 A 
ATOM      2  C1  UNL d   1       5.681  -5.572   3.773  0.00  0.00     0.010 A 
ATOM      3  C2  UNL d   1       4.400  -6.000   4.127  0.00  0.00     0.041 A 
ATOM      4  C3  UNL d   1       3.305  -5.596   3.338  0.00  0.00    -0.075 A 
ATOM      5  S   UNL d   1       1.646  -5.998   3.579  0.00  0.00     0.015 SA
ATOM      6  C4  UNL d   1       1.153  -5.104   2.215  0.00  0.00     0.022 A 
ATOM      7  C5  UNL d   1       2.216  -4.507   1.579  0.00  0.00     0.026 A 
ATOM      8  C6  UNL d   1       3.473  -4.781   2.215  0.00  0.00    -0.082 A 
ATOM      9  C7  UNL d   1       4.785  -4.364   1.883  0.00  0.00     0.045 A 
ENDROOT
TORSDOF 0
ENDMDL
