MODEL 1
REMARK minimizedAffinity 5.12782431
REMARK minimizedRMSD -1
REMARK  0 active torsions:
REMARK  status: ('A' for Active; 'I' for Inactive)
ROOT
ATOM      1  C   UNL d   1      -2.718  -0.608  -5.997  0.00  0.00    -0.002 A 
ATOM      2  C1  UNL d   1      -1.803  -1.651  -5.998  0.00  0.00     0.010 A 
ATOM      3  C2  UNL d   1      -2.239  -2.978  -5.997  0.00  0.00     0.041 A 
ATOM      4  C3  UNL d   1      -3.623  -3.240  -5.997  0.00  0.00    -0.075 A 
ATOM      5  S   UNL d   1      -4.389  -4.785  -5.997  0.00  0.00     0.015 SA
ATOM      6  C4  UNL d   1      -5.947  -4.096  -5.997  0.00  0.00     0.022 A 
ATOM      7  C5  UNL d   1      -5.904  -2.722  -5.997  0.00  0.00     0.026 A 
ATOM      8  C6  UNL d   1      -4.564  -2.206  -5.998  0.00  0.00    -0.082 A 
ATOM      9  C7  UNL d   1      -4.090  -0.872  -5.998  0.00  0.00     0.045 A 
ENDROOT
TORSDOF 0
ENDMDL
