MODEL 1
REMARK minimizedAffinity 0.733061612
REMARK minimizedRMSD -1
REMARK  1 active torsions:
REMARK  status: ('A' for Active; 'I' for Inactive)
REMARK    1  A    between atoms: C1_2  and  C2_3 
ROOT
ATOM      1  C2  UNL d   1      -4.359   3.237   4.758  0.00  0.00    -0.081 A 
ATOM      2  C3  UNL d   1      -4.766   2.664   5.970  0.00  0.00     0.006 A 
ATOM      3  C4  UNL d   1      -5.309   1.377   5.998  0.00  0.00     0.002 A 
ATOM      4  C5  UNL d   1      -5.447   0.639   4.817  0.00  0.00    -0.080 A 
ATOM      5  C6  UNL d   1      -6.000  -0.755   4.837  0.00  0.00     0.076 C 
ATOM      6  C7  UNL d   1      -5.056   1.218   3.605  0.00  0.00     0.002 A 
ATOM      7  C8  UNL d   1      -4.514   2.504   3.576  0.00  0.00     0.006 A 
ENDROOT
BRANCH   1   8
ATOM      8  C1  UNL d   1      -3.713   4.598   4.733  0.00  0.00     0.054 C 
ATOM      9  C   UNL d   1      -4.044   5.391   5.990  0.00  0.00     0.018 C 
ENDBRANCH   1   8
TORSDOF 1
ENDMDL
