MODEL 1
REMARK minimizedAffinity 4.33164215
REMARK minimizedRMSD -1
REMARK  1 active torsions:
REMARK  status: ('A' for Active; 'I' for Inactive)
REMARK    1  A    between atoms: C1_2  and  C2_3 
ROOT
ATOM      1  C2  UNL d   1       1.294   1.998  -1.876  0.00  0.00    -0.081 A 
ATOM      2  C3  UNL d   1       2.038   1.165  -1.033  0.00  0.00     0.006 A 
ATOM      3  C4  UNL d   1       2.740   1.698   0.051  0.00  0.00     0.002 A 
ATOM      4  C5  UNL d   1       2.702   3.071   0.315  0.00  0.00    -0.080 A 
ATOM      5  C6  UNL d   1       3.426   3.653   1.493  0.00  0.00     0.076 C 
ATOM      6  C7  UNL d   1       1.972   3.907  -0.538  0.00  0.00     0.002 A 
ATOM      7  C8  UNL d   1       1.271   3.374  -1.622  0.00  0.00     0.006 A 
ENDROOT
BRANCH   1   8
ATOM      8  C1  UNL d   1       0.484   1.418  -3.007  0.00  0.00     0.054 C 
ATOM      9  C   UNL d   1       0.324  -0.088  -2.858  0.00  0.00     0.018 C 
ENDBRANCH   1   8
TORSDOF 1
ENDMDL
