MODEL 1
REMARK minimizedAffinity -3.03245807
REMARK minimizedRMSD -1
REMARK  1 active torsions:
REMARK  status: ('A' for Active; 'I' for Inactive)
REMARK    1  A    between atoms: C1_2  and  C2_3 
ROOT
ATOM      1  C2  UNL d   1       4.984  -1.988   4.668  0.00  0.00    -0.081 A 
ATOM      2  C3  UNL d   1       3.691  -2.509   4.540  0.00  0.00     0.006 A 
ATOM      3  C4  UNL d   1       3.408  -3.812   4.959  0.00  0.00     0.002 A 
ATOM      4  C5  UNL d   1       4.411  -4.611   5.519  0.00  0.00    -0.080 A 
ATOM      5  C6  UNL d   1       4.113  -6.000   6.000  0.00  0.00     0.076 C 
ATOM      6  C7  UNL d   1       5.706  -4.096   5.630  0.00  0.00     0.002 A 
ATOM      7  C8  UNL d   1       5.990  -2.794   5.212  0.00  0.00     0.006 A 
ENDROOT
BRANCH   1   8
ATOM      8  C1  UNL d   1       5.277  -0.562   4.277  0.00  0.00     0.054 C 
ATOM      9  C   UNL d   1       4.917  -0.301   2.822  0.00  0.00     0.018 C 
ENDBRANCH   1   8
TORSDOF 1
ENDMDL
