MODEL 1
REMARK minimizedAffinity 8.21324158
REMARK minimizedRMSD -1
REMARK  1 active torsions:
REMARK  status: ('A' for Active; 'I' for Inactive)
REMARK    1  A    between atoms: C1_2  and  C2_3 
ROOT
ATOM      1  C2  UNL d   1       4.521   1.112  -4.055  0.00  0.00    -0.081 A 
ATOM      2  C3  UNL d   1       4.033   0.555  -2.867  0.00  0.00     0.006 A 
ATOM      3  C4  UNL d   1       2.697   0.733  -2.498  0.00  0.00     0.002 A 
ATOM      4  C5  UNL d   1       1.826   1.462  -3.314  0.00  0.00    -0.080 A 
ATOM      5  C6  UNL d   1       0.383   1.635  -2.945  0.00  0.00     0.076 C 
ATOM      6  C7  UNL d   1       2.318   2.033  -4.493  0.00  0.00     0.002 A 
ATOM      7  C8  UNL d   1       3.653   1.856  -4.862  0.00  0.00     0.006 A 
ENDROOT
BRANCH   1   8
ATOM      8  C1  UNL d   1       5.944   0.868  -4.488  0.00  0.00     0.054 C 
ATOM      9  C   UNL d   1       5.999   0.133  -5.820  0.00  0.00     0.018 C 
ENDBRANCH   1   8
TORSDOF 1
ENDMDL
