MODEL 1
REMARK minimizedAffinity 4.97367859
REMARK minimizedRMSD -1
REMARK  1 active torsions:
REMARK  status: ('A' for Active; 'I' for Inactive)
REMARK    1  A    between atoms: C1_2  and  C2_3 
ROOT
ATOM      1  C2  UNL d   1      -3.399   5.908   2.009  0.00  0.00    -0.081 A 
ATOM      2  C3  UNL d   1      -4.786   5.824   2.185  0.00  0.00     0.006 A 
ATOM      3  C4  UNL d   1      -5.337   5.800   3.468  0.00  0.00     0.002 A 
ATOM      4  C5  UNL d   1      -4.513   5.867   4.596  0.00  0.00    -0.080 A 
ATOM      5  C6  UNL d   1      -5.094   5.873   5.979  0.00  0.00     0.076 C 
ATOM      6  C7  UNL d   1      -3.126   5.933   4.421  0.00  0.00     0.002 A 
ATOM      7  C8  UNL d   1      -2.574   5.956   3.139  0.00  0.00     0.006 A 
ENDROOT
BRANCH   1   8
ATOM      8  C1  UNL d   1      -2.806   5.999   0.627  0.00  0.00     0.054 C 
ATOM      9  C   UNL d   1      -1.285   5.994   0.676  0.00  0.00     0.018 C 
ENDBRANCH   1   8
TORSDOF 1
ENDMDL
