MODEL 1
REMARK minimizedAffinity 1.37579584
REMARK minimizedRMSD -1
REMARK  1 active torsions:
REMARK  status: ('A' for Active; 'I' for Inactive)
REMARK    1  A    between atoms: C1_2  and  C2_3 
ROOT
ATOM      1  C2  UNL d   1      -3.002   4.822   4.074  0.00  0.00    -0.081 A 
ATOM      2  C3  UNL d   1      -2.627   3.639   3.425  0.00  0.00     0.006 A 
ATOM      3  C4  UNL d   1      -2.361   3.637   2.054  0.00  0.00     0.002 A 
ATOM      4  C5  UNL d   1      -2.459   4.817   1.310  0.00  0.00    -0.080 A 
ATOM      5  C6  UNL d   1      -2.148   4.835  -0.157  0.00  0.00     0.076 C 
ATOM      6  C7  UNL d   1      -2.851   5.996   1.955  0.00  0.00     0.002 A 
ATOM      7  C8  UNL d   1      -3.117   5.998   3.326  0.00  0.00     0.006 A 
ENDROOT
BRANCH   1   8
ATOM      8  C1  UNL d   1      -3.225   4.840   5.565  0.00  0.00     0.054 C 
ATOM      9  C   UNL d   1      -4.122   6.000   5.975  0.00  0.00     0.018 C 
ENDBRANCH   1   8
TORSDOF 1
ENDMDL
