MODEL 1
REMARK minimizedAffinity 9.32427502
REMARK minimizedRMSD -1
REMARK  1 active torsions:
REMARK  status: ('A' for Active; 'I' for Inactive)
REMARK    1  A    between atoms: C1_2  and  C2_3 
ROOT
ATOM      1  C2  UNL d   1      -3.548   5.954   4.495  0.00  0.00    -0.081 A 
ATOM      2  C3  UNL d   1      -4.342   5.981   3.342  0.00  0.00     0.006 A 
ATOM      3  C4  UNL d   1      -3.753   5.981   2.076  0.00  0.00     0.002 A 
ATOM      4  C5  UNL d   1      -2.361   5.946   1.941  0.00  0.00    -0.080 A 
ATOM      5  C6  UNL d   1      -1.716   5.915   0.587  0.00  0.00     0.076 C 
ATOM      6  C7  UNL d   1      -1.566   5.937   3.093  0.00  0.00     0.002 A 
ATOM      7  C8  UNL d   1      -2.155   5.938   4.359  0.00  0.00     0.006 A 
ENDROOT
BRANCH   1   8
ATOM      8  C1  UNL d   1      -4.182   5.888   5.861  0.00  0.00     0.054 C 
ATOM      9  C   UNL d   1      -5.699   5.969   5.772  0.00  0.00     0.018 C 
ENDBRANCH   1   8
TORSDOF 1
ENDMDL
