MODEL 1
REMARK minimizedAffinity 12.3310432
REMARK minimizedRMSD -1
REMARK  1 active torsions:
REMARK  status: ('A' for Active; 'I' for Inactive)
REMARK    1  A    between atoms: C1_2  and  C2_3 
ROOT
ATOM      1  C2  UNL d   1      -3.742   5.842   4.649  0.00  0.00    -0.081 A 
ATOM      2  C3  UNL d   1      -5.126   5.662   4.544  0.00  0.00     0.006 A 
ATOM      3  C4  UNL d   1      -5.722   5.466   3.295  0.00  0.00     0.002 A 
ATOM      4  C5  UNL d   1      -4.943   5.439   2.134  0.00  0.00    -0.080 A 
ATOM      5  C6  UNL d   1      -5.567   5.199   0.791  0.00  0.00     0.076 C 
ATOM      6  C7  UNL d   1      -3.562   5.636   2.237  0.00  0.00     0.002 A 
ATOM      7  C8  UNL d   1      -2.966   5.833   3.484  0.00  0.00     0.006 A 
ENDROOT
BRANCH   1   8
ATOM      8  C1  UNL d   1      -3.089   5.989   5.999  0.00  0.00     0.054 C 
ATOM      9  C   UNL d   1      -1.571   5.994   5.882  0.00  0.00     0.018 C 
ENDBRANCH   1   8
TORSDOF 1
ENDMDL
