MODEL 1
REMARK minimizedAffinity 5.59818172
REMARK minimizedRMSD -1
REMARK  1 active torsions:
REMARK  status: ('A' for Active; 'I' for Inactive)
REMARK    1  A    between atoms: C1_2  and  C2_3 
ROOT
ATOM      1  C2  UNL d   1       2.059   2.419  -3.253  0.00  0.00    -0.081 A 
ATOM      2  C3  UNL d   1       0.832   1.782  -3.470  0.00  0.00     0.006 A 
ATOM      3  C4  UNL d   1       0.625   0.473  -3.028  0.00  0.00     0.002 A 
ATOM      4  C5  UNL d   1       1.640  -0.217  -2.355  0.00  0.00    -0.080 A 
ATOM      5  C6  UNL d   1       1.421  -1.612  -1.849  0.00  0.00     0.076 C 
ATOM      6  C7  UNL d   1       2.872   0.413  -2.154  0.00  0.00     0.002 A 
ATOM      7  C8  UNL d   1       3.079   1.722  -2.596  0.00  0.00     0.006 A 
ENDROOT
BRANCH   1   8
ATOM      8  C1  UNL d   1       2.263   3.853  -3.671  0.00  0.00     0.054 C 
ATOM      9  C   UNL d   1       2.127   4.799  -2.487  0.00  0.00     0.018 C 
ENDBRANCH   1   8
TORSDOF 1
ENDMDL
