MODEL 1
REMARK minimizedAffinity -1.3206327
REMARK minimizedRMSD -1
REMARK  1 active torsions:
REMARK  status: ('A' for Active; 'I' for Inactive)
REMARK    1  A    between atoms: C1_2  and  C2_3 
ROOT
ATOM      1  C2  UNL d   1       1.868   0.888  -3.166  0.00  0.00    -0.081 A 
ATOM      2  C3  UNL d   1       0.697   1.637  -2.996  0.00  0.00     0.006 A 
ATOM      3  C4  UNL d   1       0.376   2.663  -3.887  0.00  0.00     0.002 A 
ATOM      4  C5  UNL d   1       1.217   2.954  -4.967  0.00  0.00    -0.080 A 
ATOM      5  C6  UNL d   1       0.869   4.033  -5.948  0.00  0.00     0.076 C 
ATOM      6  C7  UNL d   1       2.396   2.218  -5.128  0.00  0.00     0.002 A 
ATOM      7  C8  UNL d   1       2.717   1.191  -4.236  0.00  0.00     0.006 A 
ENDROOT
BRANCH   1   8
ATOM      8  C1  UNL d   1       2.183  -0.262  -2.245  0.00  0.00     0.054 C 
ATOM      9  C   UNL d   1       1.435  -1.522  -2.656  0.00  0.00     0.018 C 
ENDBRANCH   1   8
TORSDOF 1
ENDMDL
