MODEL 1
REMARK minimizedAffinity 10.494092
REMARK minimizedRMSD -1
REMARK  1 active torsions:
REMARK  status: ('A' for Active; 'I' for Inactive)
REMARK    1  A    between atoms: C1_2  and  C2_3 
ROOT
ATOM      1  C2  UNL d   1      -4.664   5.289   2.708  0.00  0.00    -0.081 A 
ATOM      2  C3  UNL d   1      -4.874   5.747   4.015  0.00  0.00     0.006 A 
ATOM      3  C4  UNL d   1      -3.792   5.964   4.872  0.00  0.00     0.002 A 
ATOM      4  C5  UNL d   1      -2.483   5.734   4.435  0.00  0.00    -0.080 A 
ATOM      5  C6  UNL d   1      -1.312   5.991   5.335  0.00  0.00     0.076 C 
ATOM      6  C7  UNL d   1      -2.274   5.260   3.136  0.00  0.00     0.002 A 
ATOM      7  C8  UNL d   1      -3.355   5.043   2.278  0.00  0.00     0.006 A 
ENDROOT
BRANCH   1   8
ATOM      8  C1  UNL d   1      -5.823   5.117   1.761  0.00  0.00     0.054 C 
ATOM      9  C   UNL d   1      -5.660   5.986   0.522  0.00  0.00     0.018 C 
ENDBRANCH   1   8
TORSDOF 1
ENDMDL
