MODEL 1
REMARK minimizedAffinity 6.30651188
REMARK minimizedRMSD -1
REMARK  1 active torsions:
REMARK  status: ('A' for Active; 'I' for Inactive)
REMARK    1  A    between atoms: C1_2  and  C2_3 
ROOT
ATOM      1  C2  UNL d   1      -1.158  -2.795  -2.899  0.00  0.00    -0.081 A 
ATOM      2  C3  UNL d   1      -1.966  -2.984  -1.771  0.00  0.00     0.006 A 
ATOM      3  C4  UNL d   1      -1.770  -2.214  -0.622  0.00  0.00     0.002 A 
ATOM      4  C5  UNL d   1      -0.769  -1.238  -0.584  0.00  0.00    -0.080 A 
ATOM      5  C6  UNL d   1      -0.567  -0.384   0.632  0.00  0.00     0.076 C 
ATOM      6  C7  UNL d   1       0.050  -1.060  -1.705  0.00  0.00     0.002 A 
ATOM      7  C8  UNL d   1      -0.145  -1.830  -2.853  0.00  0.00     0.006 A 
ENDROOT
BRANCH   1   8
ATOM      8  C1  UNL d   1      -1.408  -3.578  -4.162  0.00  0.00     0.054 C 
ATOM      9  C   UNL d   1      -0.962  -2.802  -5.393  0.00  0.00     0.018 C 
ENDBRANCH   1   8
TORSDOF 1
ENDMDL
