MODEL 1
REMARK minimizedAffinity 12.397191
REMARK minimizedRMSD -1
REMARK  1 active torsions:
REMARK  status: ('A' for Active; 'I' for Inactive)
REMARK    1  A    between atoms: C1_2  and  C2_3 
ROOT
ATOM      1  C2  UNL d   1      -2.139  -0.326   0.934  0.00  0.00    -0.081 A 
ATOM      2  C3  UNL d   1      -0.859   0.148   1.249  0.00  0.00     0.006 A 
ATOM      3  C4  UNL d   1       0.239  -0.202   0.460  0.00  0.00     0.002 A 
ATOM      4  C5  UNL d   1       0.076  -1.022  -0.661  0.00  0.00    -0.080 A 
ATOM      5  C6  UNL d   1       1.242  -1.380  -1.534  0.00  0.00     0.076 C 
ATOM      6  C7  UNL d   1      -1.200  -1.509  -0.966  0.00  0.00     0.002 A 
ATOM      7  C8  UNL d   1      -2.298  -1.161  -0.177  0.00  0.00     0.006 A 
ENDROOT
BRANCH   1   8
ATOM      8  C1  UNL d   1      -3.335   0.101   1.745  0.00  0.00     0.054 C 
ATOM      9  C   UNL d   1      -3.193  -0.314   3.202  0.00  0.00     0.018 C 
ENDBRANCH   1   8
TORSDOF 1
ENDMDL
