MODEL 1
REMARK minimizedAffinity 8.00603008
REMARK minimizedRMSD -1
REMARK  1 active torsions:
REMARK  status: ('A' for Active; 'I' for Inactive)
REMARK    1  A    between atoms: C1_2  and  C2_3 
ROOT
ATOM      1  C2  UNL d   1      -2.020  -2.033  -0.594  0.00  0.00    -0.081 A 
ATOM      2  C3  UNL d   1      -2.400  -1.419   0.606  0.00  0.00     0.006 A 
ATOM      3  C4  UNL d   1      -1.908  -0.156   0.942  0.00  0.00     0.002 A 
ATOM      4  C5  UNL d   1      -1.034   0.518   0.082  0.00  0.00    -0.080 A 
ATOM      5  C6  UNL d   1      -0.522   1.887   0.417  0.00  0.00     0.076 C 
ATOM      6  C7  UNL d   1      -0.641  -0.103  -1.109  0.00  0.00     0.002 A 
ATOM      7  C8  UNL d   1      -1.132  -1.366  -1.446  0.00  0.00     0.006 A 
ENDROOT
BRANCH   1   8
ATOM      8  C1  UNL d   1      -2.600  -3.367  -0.990  0.00  0.00     0.054 C 
ATOM      9  C   UNL d   1      -4.086  -3.255  -1.297  0.00  0.00     0.018 C 
ENDBRANCH   1   8
TORSDOF 1
ENDMDL
