MODEL 1
REMARK minimizedAffinity 6.5500741
REMARK minimizedRMSD -1
REMARK  1 active torsions:
REMARK  status: ('A' for Active; 'I' for Inactive)
REMARK    1  A    between atoms: C1_2  and  C2_3 
ROOT
ATOM      1  C2  UNL d   1       4.620  -3.489  -2.091  0.00  0.00    -0.081 A 
ATOM      2  C3  UNL d   1       4.206  -2.980  -0.854  0.00  0.00     0.006 A 
ATOM      3  C4  UNL d   1       2.935  -2.419  -0.709  0.00  0.00     0.002 A 
ATOM      4  C5  UNL d   1       2.055  -2.364  -1.795  0.00  0.00    -0.080 A 
ATOM      5  C6  UNL d   1       0.676  -1.792  -1.644  0.00  0.00     0.076 C 
ATOM      6  C7  UNL d   1       2.474  -2.857  -3.035  0.00  0.00     0.002 A 
ATOM      7  C8  UNL d   1       3.745  -3.417  -3.181  0.00  0.00     0.006 A 
ENDROOT
BRANCH   1   8
ATOM      8  C1  UNL d   1       5.965  -4.153  -2.236  0.00  0.00     0.054 C 
ATOM      9  C   UNL d   1       6.000  -5.494  -1.518  0.00  0.00     0.018 C 
ENDBRANCH   1   8
TORSDOF 1
ENDMDL
