MODEL 1
REMARK minimizedAffinity 2.24195218
REMARK minimizedRMSD -1
REMARK  1 active torsions:
REMARK  status: ('A' for Active; 'I' for Inactive)
REMARK    1  A    between atoms: C1_2  and  C2_3 
ROOT
ATOM      1  C2  UNL d   1       1.019  -1.314  -0.708  0.00  0.00    -0.081 A 
ATOM      2  C3  UNL d   1       1.676  -0.939  -1.887  0.00  0.00     0.006 A 
ATOM      3  C4  UNL d   1       2.937  -1.457  -2.190  0.00  0.00     0.002 A 
ATOM      4  C5  UNL d   1       3.559  -2.364  -1.324  0.00  0.00    -0.080 A 
ATOM      5  C6  UNL d   1       4.900  -2.950  -1.652  0.00  0.00     0.076 C 
ATOM      6  C7  UNL d   1       2.911  -2.724  -0.138  0.00  0.00     0.002 A 
ATOM      7  C8  UNL d   1       1.650  -2.206   0.166  0.00  0.00     0.006 A 
ENDROOT
BRANCH   1   8
ATOM      8  C1  UNL d   1      -0.369  -0.807  -0.410  0.00  0.00     0.054 C 
ATOM      9  C   UNL d   1      -1.398  -1.925  -0.504  0.00  0.00     0.018 C 
ENDBRANCH   1   8
TORSDOF 1
ENDMDL
