MODEL 1
REMARK minimizedAffinity 4.25998688
REMARK minimizedRMSD -1
REMARK  1 active torsions:
REMARK  status: ('A' for Active; 'I' for Inactive)
REMARK    1  A    between atoms: C1_2  and  C2_3 
ROOT
ATOM      1  C2  UNL d   1      -2.144  -3.147  -2.817  0.00  0.00    -0.081 A 
ATOM      2  C3  UNL d   1      -1.048  -2.275  -2.826  0.00  0.00     0.006 A 
ATOM      3  C4  UNL d   1      -0.800  -1.439  -1.735  0.00  0.00     0.002 A 
ATOM      4  C5  UNL d   1      -1.637  -1.467  -0.615  0.00  0.00    -0.080 A 
ATOM      5  C6  UNL d   1      -1.363  -0.596   0.576  0.00  0.00     0.076 C 
ATOM      6  C7  UNL d   1      -2.741  -2.326  -0.612  0.00  0.00     0.002 A 
ATOM      7  C8  UNL d   1      -2.990  -3.161  -1.703  0.00  0.00     0.006 A 
ENDROOT
BRANCH   1   8
ATOM      8  C1  UNL d   1      -2.377  -4.097  -3.964  0.00  0.00     0.054 C 
ATOM      9  C   UNL d   1      -1.556  -3.703  -5.184  0.00  0.00     0.018 C 
ENDBRANCH   1   8
TORSDOF 1
ENDMDL
