MODEL 1
REMARK minimizedAffinity 16.354557
REMARK minimizedRMSD -1
REMARK  1 active torsions:
REMARK  status: ('A' for Active; 'I' for Inactive)
REMARK    1  A    between atoms: C1_2  and  C2_3 
ROOT
ATOM      1  C2  UNL d   1      -1.458   5.004   3.289  0.00  0.00    -0.081 A 
ATOM      2  C3  UNL d   1      -0.314   4.571   3.970  0.00  0.00     0.006 A 
ATOM      3  C4  UNL d   1       0.757   4.011   3.271  0.00  0.00     0.002 A 
ATOM      4  C5  UNL d   1       0.706   3.882   1.879  0.00  0.00    -0.080 A 
ATOM      5  C6  UNL d   1       1.862   3.311   1.112  0.00  0.00     0.076 C 
ATOM      6  C7  UNL d   1      -0.444   4.299   1.200  0.00  0.00     0.002 A 
ATOM      7  C8  UNL d   1      -1.516   4.858   1.899  0.00  0.00     0.006 A 
ENDROOT
BRANCH   1   8
ATOM      8  C1  UNL d   1      -2.589   5.667   4.034  0.00  0.00     0.054 C 
ATOM      9  C   UNL d   1      -3.195   4.730   5.069  0.00  0.00     0.018 C 
ENDBRANCH   1   8
TORSDOF 1
ENDMDL
