MODEL 1
REMARK minimizedAffinity 7.65370655
REMARK minimizedRMSD -1
REMARK  1 active torsions:
REMARK  status: ('A' for Active; 'I' for Inactive)
REMARK    1  A    between atoms: C1_2  and  C2_3 
ROOT
ATOM      1  C2  UNL d   1      -1.727  -0.117   1.099  0.00  0.00    -0.081 A 
ATOM      2  C3  UNL d   1      -2.556   0.892   0.592  0.00  0.00     0.006 A 
ATOM      3  C4  UNL d   1      -3.677   1.315   1.309  0.00  0.00     0.002 A 
ATOM      4  C5  UNL d   1      -3.984   0.742   2.548  0.00  0.00    -0.080 A 
ATOM      5  C6  UNL d   1      -5.168   1.208   3.343  0.00  0.00     0.076 C 
ATOM      6  C7  UNL d   1      -3.167  -0.278   3.047  0.00  0.00     0.002 A 
ATOM      7  C8  UNL d   1      -2.046  -0.702   2.329  0.00  0.00     0.006 A 
ENDROOT
BRANCH   1   8
ATOM      8  C1  UNL d   1      -0.481  -0.530   0.358  0.00  0.00     0.054 C 
ATOM      9  C   UNL d   1      -0.812  -1.438  -0.818  0.00  0.00     0.018 C 
ENDBRANCH   1   8
TORSDOF 1
ENDMDL
