MODEL 1
REMARK minimizedAffinity 7.85449028
REMARK minimizedRMSD -1
REMARK  1 active torsions:
REMARK  status: ('A' for Active; 'I' for Inactive)
REMARK    1  A    between atoms: C1_2  and  C2_3 
ROOT
ATOM      1  C2  UNL d   1      -1.103  -1.737  -0.966  0.00  0.00    -0.081 A 
ATOM      2  C3  UNL d   1       0.235  -1.355  -1.122  0.00  0.00     0.006 A 
ATOM      3  C4  UNL d   1       0.752  -0.277  -0.400  0.00  0.00     0.002 A 
ATOM      4  C5  UNL d   1      -0.056   0.431   0.495  0.00  0.00    -0.080 A 
ATOM      5  C6  UNL d   1       0.495   1.571   1.299  0.00  0.00     0.076 C 
ATOM      6  C7  UNL d   1      -1.398   0.060   0.639  0.00  0.00     0.002 A 
ATOM      7  C8  UNL d   1      -1.916  -1.017  -0.084  0.00  0.00     0.006 A 
ENDROOT
BRANCH   1   8
ATOM      8  C1  UNL d   1      -1.647  -2.940  -1.695  0.00  0.00     0.054 C 
ATOM      9  C   UNL d   1      -3.169  -2.959  -1.672  0.00  0.00     0.018 C 
ENDBRANCH   1   8
TORSDOF 1
ENDMDL
