MODEL 1
REMARK minimizedAffinity 11.0154104
REMARK minimizedRMSD -1
REMARK  1 active torsions:
REMARK  status: ('A' for Active; 'I' for Inactive)
REMARK    1  A    between atoms: C1_2  and  C2_3 
ROOT
ATOM      1  C2  UNL d   1      -1.132  -1.279  -0.301  0.00  0.00    -0.081 A 
ATOM      2  C3  UNL d   1      -0.279  -0.792  -1.298  0.00  0.00     0.006 A 
ATOM      3  C4  UNL d   1      -0.290  -1.353  -2.577  0.00  0.00     0.002 A 
ATOM      4  C5  UNL d   1      -1.161  -2.404  -2.883  0.00  0.00    -0.080 A 
ATOM      5  C6  UNL d   1      -1.205  -2.996  -4.260  0.00  0.00     0.076 C 
ATOM      6  C7  UNL d   1      -2.001  -2.903  -1.882  0.00  0.00     0.002 A 
ATOM      7  C8  UNL d   1      -1.990  -2.343  -0.602  0.00  0.00     0.006 A 
ENDROOT
BRANCH   1   8
ATOM      8  C1  UNL d   1      -1.168  -0.633   1.061  0.00  0.00     0.054 C 
ATOM      9  C   UNL d   1      -2.584  -0.593   1.617  0.00  0.00     0.018 C 
ENDBRANCH   1   8
TORSDOF 1
ENDMDL
