MODEL 1
REMARK minimizedAffinity 12.4745197
REMARK minimizedRMSD -1
REMARK  1 active torsions:
REMARK  status: ('A' for Active; 'I' for Inactive)
REMARK    1  A    between atoms: C1_2  and  C2_3 
ROOT
ATOM      1  C2  UNL d   1       3.556   2.599  -1.476  0.00  0.00    -0.081 A 
ATOM      2  C3  UNL d   1       4.420   3.194  -2.404  0.00  0.00     0.006 A 
ATOM      3  C4  UNL d   1       4.257   2.963  -3.772  0.00  0.00     0.002 A 
ATOM      4  C5  UNL d   1       3.223   2.142  -4.236  0.00  0.00    -0.080 A 
ATOM      5  C6  UNL d   1       3.019   1.910  -5.703  0.00  0.00     0.076 C 
ATOM      6  C7  UNL d   1       2.371   1.534  -3.308  0.00  0.00     0.002 A 
ATOM      7  C8  UNL d   1       2.534   1.763  -1.940  0.00  0.00     0.006 A 
ENDROOT
BRANCH   1   8
ATOM      8  C1  UNL d   1       3.689   2.897  -0.005  0.00  0.00     0.054 C 
ATOM      9  C   UNL d   1       2.483   3.666   0.515  0.00  0.00     0.018 C 
ENDBRANCH   1   8
TORSDOF 1
ENDMDL
