MODEL 1
REMARK minimizedAffinity 10.3275547
REMARK minimizedRMSD -1
REMARK  1 active torsions:
REMARK  status: ('A' for Active; 'I' for Inactive)
REMARK    1  A    between atoms: C1_2  and  C2_3 
ROOT
ATOM      1  C2  UNL d   1       2.323   3.344   0.679  0.00  0.00    -0.081 A 
ATOM      2  C3  UNL d   1       1.134   2.628   0.863  0.00  0.00     0.006 A 
ATOM      3  C4  UNL d   1       0.119   3.137   1.677  0.00  0.00     0.002 A 
ATOM      4  C5  UNL d   1       0.272   4.374   2.312  0.00  0.00    -0.080 A 
ATOM      5  C6  UNL d   1      -0.822   4.946   3.163  0.00  0.00     0.076 C 
ATOM      6  C7  UNL d   1       1.467   5.082   2.142  0.00  0.00     0.002 A 
ATOM      7  C8  UNL d   1       2.482   4.573   1.329  0.00  0.00     0.006 A 
ENDROOT
BRANCH   1   8
ATOM      8  C1  UNL d   1       3.393   2.828  -0.249  0.00  0.00     0.054 C 
ATOM      9  C   UNL d   1       3.869   3.914  -1.203  0.00  0.00     0.018 C 
ENDBRANCH   1   8
TORSDOF 1
ENDMDL
