MODEL 1
REMARK minimizedAffinity 3.81598544
REMARK minimizedRMSD -1
REMARK  1 active torsions:
REMARK  status: ('A' for Active; 'I' for Inactive)
REMARK    1  A    between atoms: C1_2  and  C2_3 
ROOT
ATOM      1  C2  UNL d   1      -1.575  -3.244  -3.143  0.00  0.00    -0.081 A 
ATOM      2  C3  UNL d   1      -2.607  -3.195  -2.198  0.00  0.00     0.006 A 
ATOM      3  C4  UNL d   1      -2.443  -2.484  -1.007  0.00  0.00     0.002 A 
ATOM      4  C5  UNL d   1      -1.249  -1.804  -0.745  0.00  0.00    -0.080 A 
ATOM      5  C6  UNL d   1      -1.071  -1.012   0.516  0.00  0.00     0.076 C 
ATOM      6  C7  UNL d   1      -0.212  -1.867  -1.682  0.00  0.00     0.002 A 
ATOM      7  C8  UNL d   1      -0.375  -2.578  -2.872  0.00  0.00     0.006 A 
ENDROOT
BRANCH   1   8
ATOM      8  C1  UNL d   1      -1.773  -3.956  -4.457  0.00  0.00     0.054 C 
ATOM      9  C   UNL d   1      -2.344  -5.352  -4.250  0.00  0.00     0.018 C 
ENDBRANCH   1   8
TORSDOF 1
ENDMDL
