MODEL 1
REMARK minimizedAffinity 2.69441485
REMARK minimizedRMSD -1
REMARK  1 active torsions:
REMARK  status: ('A' for Active; 'I' for Inactive)
REMARK    1  A    between atoms: C1_2  and  C2_3 
ROOT
ATOM      1  C2  UNL d   1      -3.831  -0.696   4.726  0.00  0.00    -0.081 A 
ATOM      2  C3  UNL d   1      -4.563   0.389   4.227  0.00  0.00     0.006 A 
ATOM      3  C4  UNL d   1      -4.202   0.991   3.019  0.00  0.00     0.002 A 
ATOM      4  C5  UNL d   1      -3.110   0.514   2.287  0.00  0.00    -0.080 A 
ATOM      5  C6  UNL d   1      -2.731   1.132   0.974  0.00  0.00     0.076 C 
ATOM      6  C7  UNL d   1      -2.368  -0.559   2.794  0.00  0.00     0.002 A 
ATOM      7  C8  UNL d   1      -2.728  -1.160   4.002  0.00  0.00     0.006 A 
ENDROOT
BRANCH   1   8
ATOM      8  C1  UNL d   1      -4.257  -1.388   5.996  0.00  0.00     0.054 C 
ATOM      9  C   UNL d   1      -3.891  -2.865   5.969  0.00  0.00     0.018 C 
ENDBRANCH   1   8
TORSDOF 1
ENDMDL
