MODEL 1
REMARK minimizedAffinity -2.99533391
REMARK minimizedRMSD -1
REMARK  0 active torsions:
REMARK  status: ('A' for Active; 'I' for Inactive)
ROOT
ATOM      1  C1  DEN d   1      -0.257   1.039   1.155  0.00  0.00     0.130 A 
ATOM      2  C2  DEN d   1       0.278   0.637  -0.143  0.00  0.00    -0.031 A 
ATOM      3  C3  DEN d   1      -0.858   0.472  -1.073  0.00  0.00     0.027 A 
ATOM      4  C4  DEN d   1      -3.377   0.804  -0.632  0.00  0.00     0.027 A 
ATOM      5  C5  DEN d   1      -4.317   1.132   0.321  0.00  0.00    -0.003 A 
ATOM      6  C6  DEN d   1      -3.974   1.416   1.616  0.00  0.00     0.001 A 
ATOM      7  C7  DEN d   1      -2.654   1.422   1.984  0.00  0.00     0.017 A 
ATOM      8  C8  DEN d   1      -1.702   1.085   1.031  0.00  0.00    -0.094 A 
ATOM      9  C9  DEN d   1      -2.068   0.813  -0.277  0.00  0.00    -0.072 A 
ENDROOT
TORSDOF 0
ENDMDL
