MODEL 1
REMARK minimizedAffinity 3.05398703
REMARK minimizedRMSD -1
REMARK  0 active torsions:
REMARK  status: ('A' for Active; 'I' for Inactive)
ROOT
ATOM      1  C1  DEN d   1       1.065   1.392  -0.472  0.00  0.00     0.130 A 
ATOM      2  C2  DEN d   1       1.540   2.580   0.232  0.00  0.00    -0.031 A 
ATOM      3  C3  DEN d   1       2.570   2.155   1.200  0.00  0.00     0.027 A 
ATOM      4  C4  DEN d   1       3.475  -0.214   1.673  0.00  0.00     0.027 A 
ATOM      5  C5  DEN d   1       3.368  -1.544   1.333  0.00  0.00    -0.003 A 
ATOM      6  C6  DEN d   1       2.470  -1.990   0.400  0.00  0.00     0.001 A 
ATOM      7  C7  DEN d   1       1.673  -1.091  -0.259  0.00  0.00     0.017 A 
ATOM      8  C8  DEN d   1       1.770   0.251   0.084  0.00  0.00    -0.094 A 
ATOM      9  C9  DEN d   1       2.693   0.683   1.021  0.00  0.00    -0.072 A 
ENDROOT
TORSDOF 0
ENDMDL
