MODEL 1
REMARK minimizedAffinity -5.05377674
REMARK minimizedRMSD -1
REMARK  0 active torsions:
REMARK  status: ('A' for Active; 'I' for Inactive)
ROOT
ATOM      1  C1  DEN d   1       0.059  -0.726   0.736  0.00  0.00     0.130 A 
ATOM      2  C2  DEN d   1       0.429  -0.992  -0.652  0.00  0.00    -0.031 A 
ATOM      3  C3  DEN d   1      -0.474  -0.211  -1.522  0.00  0.00     0.027 A 
ATOM      4  C4  DEN d   1      -2.393   1.378  -0.859  0.00  0.00     0.027 A 
ATOM      5  C5  DEN d   1      -3.091   1.915   0.200  0.00  0.00    -0.003 A 
ATOM      6  C6  DEN d   1      -2.813   1.585   1.500  0.00  0.00     0.001 A 
ATOM      7  C7  DEN d   1      -1.780   0.729   1.777  0.00  0.00     0.017 A 
ATOM      8  C8  DEN d   1      -1.076   0.178   0.714  0.00  0.00    -0.094 A 
ATOM      9  C9  DEN d   1      -1.365   0.533  -0.593  0.00  0.00    -0.072 A 
ENDROOT
TORSDOF 0
ENDMDL
