MODEL 1
REMARK minimizedAffinity -1.68093085
REMARK minimizedRMSD -1
REMARK  0 active torsions:
REMARK  status: ('A' for Active; 'I' for Inactive)
ROOT
ATOM      1  C1  DEN d   1       2.325  -0.439   1.149  0.00  0.00     0.130 A 
ATOM      2  C2  DEN d   1       2.639  -1.845   0.909  0.00  0.00    -0.031 A 
ATOM      3  C3  DEN d   1       1.548  -2.424   0.099  0.00  0.00     0.027 A 
ATOM      4  C4  DEN d   1      -0.581  -1.285  -0.807  0.00  0.00     0.027 A 
ATOM      5  C5  DEN d   1      -1.290  -0.105  -0.853  0.00  0.00    -0.003 A 
ATOM      6  C6  DEN d   1      -0.864   1.028  -0.212  0.00  0.00     0.001 A 
ATOM      7  C7  DEN d   1       0.327   1.017   0.466  0.00  0.00     0.017 A 
ATOM      8  C8  DEN d   1       1.043  -0.171   0.523  0.00  0.00    -0.094 A 
ATOM      9  C9  DEN d   1       0.602  -1.302  -0.142  0.00  0.00    -0.072 A 
ENDROOT
TORSDOF 0
ENDMDL
