MODEL 1
REMARK minimizedAffinity -5.85873413
REMARK minimizedRMSD -1
REMARK  0 active torsions:
REMARK  status: ('A' for Active; 'I' for Inactive)
ROOT
ATOM      1  C1  DEN d   1       0.484  -1.419  -0.749  0.00  0.00     0.130 A 
ATOM      2  C2  DEN d   1      -0.729  -0.606  -0.795  0.00  0.00    -0.031 A 
ATOM      3  C3  DEN d   1      -0.348   0.797  -0.539  0.00  0.00     0.027 A 
ATOM      4  C4  DEN d   1       1.990   1.787  -0.085  0.00  0.00     0.027 A 
ATOM      5  C5  DEN d   1       3.326   1.488   0.064  0.00  0.00    -0.003 A 
ATOM      6  C6  DEN d   1       3.800   0.205  -0.014  0.00  0.00     0.001 A 
ATOM      7  C7  DEN d   1       2.937  -0.822  -0.292  0.00  0.00     0.017 A 
ATOM      8  C8  DEN d   1       1.587  -0.529  -0.435  0.00  0.00    -0.094 A 
ATOM      9  C9  DEN d   1       1.130   0.776  -0.365  0.00  0.00    -0.072 A 
ENDROOT
TORSDOF 0
ENDMDL
