MODEL 1
REMARK minimizedAffinity -5.39386749
REMARK minimizedRMSD -1
REMARK  0 active torsions:
REMARK  status: ('A' for Active; 'I' for Inactive)
ROOT
ATOM      1  C1  DEN d   1      -0.572   0.730  -0.202  0.00  0.00     0.130 A 
ATOM      2  C2  DEN d   1      -1.242  -0.438  -0.767  0.00  0.00    -0.031 A 
ATOM      3  C3  DEN d   1      -0.299  -1.573  -0.721  0.00  0.00     0.027 A 
ATOM      4  C4  DEN d   1       2.121  -1.636   0.170  0.00  0.00     0.027 A 
ATOM      5  C5  DEN d   1       3.129  -0.886   0.735  0.00  0.00    -0.003 A 
ATOM      6  C6  DEN d   1       2.987   0.451   0.994  0.00  0.00     0.001 A 
ATOM      7  C7  DEN d   1       1.794   1.071   0.729  0.00  0.00     0.017 A 
ATOM      8  C8  DEN d   1       0.776   0.323   0.152  0.00  0.00    -0.094 A 
ATOM      9  C9  DEN d   1       0.935  -1.030  -0.091  0.00  0.00    -0.072 A 
ENDROOT
TORSDOF 0
ENDMDL
