MODEL 1
REMARK minimizedAffinity -2.53904033
REMARK minimizedRMSD -1
REMARK  0 active torsions:
REMARK  status: ('A' for Active; 'I' for Inactive)
ROOT
ATOM      1  C1  DEN d   1       0.259  -2.108  -0.207  0.00  0.00     0.130 A 
ATOM      2  C2  DEN d   1       1.716  -2.045  -0.292  0.00  0.00    -0.031 A 
ATOM      3  C3  DEN d   1       2.117  -0.626  -0.212  0.00  0.00     0.027 A 
ATOM      4  C4  DEN d   1       0.632   1.468   0.041  0.00  0.00     0.027 A 
ATOM      5  C5  DEN d   1      -0.666   1.918   0.144  0.00  0.00    -0.003 A 
ATOM      6  C6  DEN d   1      -1.739   1.068   0.103  0.00  0.00     0.001 A 
ATOM      7  C7  DEN d   1      -1.532  -0.282   0.001  0.00  0.00     0.017 A 
ATOM      8  C8  DEN d   1      -0.226  -0.743  -0.110  0.00  0.00    -0.094 A 
ATOM      9  C9  DEN d   1       0.846   0.132  -0.055  0.00  0.00    -0.072 A 
ENDROOT
TORSDOF 0
ENDMDL
