MODEL 1
REMARK minimizedAffinity -5.57732677
REMARK minimizedRMSD -1
REMARK  1 active torsions:
REMARK  status: ('A' for Active; 'I' for Inactive)
REMARK    1  A    between atoms: C1_2  and  C2_3 
ROOT
ATOM      1  C2  UNL d   1       0.959   0.572   0.109  0.00  0.00    -0.077 A 
ATOM      2  C3  UNL d   1       2.331   0.313   0.240  0.00  0.00     0.002 A 
ATOM      3  C4  UNL d   1       3.256   1.357   0.184  0.00  0.00     0.002 A 
ATOM      4  C5  UNL d   1       2.819   2.668   0.002  0.00  0.00    -0.004 A 
ATOM      5  C6  UNL d   1       1.458   2.936  -0.132  0.00  0.00     0.002 A 
ATOM      6  C7  UNL d   1       0.532   1.893  -0.078  0.00  0.00     0.002 A 
ENDROOT
BRANCH   1   7
ATOM      7  C1  UNL d   1      -0.043  -0.546   0.218  0.00  0.00     0.055 C 
ATOM      8  C   UNL d   1      -1.405  -0.029   0.659  0.00  0.00     0.019 C 
ENDBRANCH   1   7
TORSDOF 1
ENDMDL
