MODEL 1
REMARK minimizedAffinity -5.70661974
REMARK minimizedRMSD -1
REMARK  1 active torsions:
REMARK  status: ('A' for Active; 'I' for Inactive)
REMARK    1  A    between atoms: C1_2  and  C2_3 
ROOT
ATOM      1  C2  UNL d   1       1.011   0.839  -0.138  0.00  0.00    -0.077 A 
ATOM      2  C3  UNL d   1      -0.016   1.776  -0.314  0.00  0.00     0.002 A 
ATOM      3  C4  UNL d   1       0.222   3.135  -0.097  0.00  0.00     0.002 A 
ATOM      4  C5  UNL d   1       1.487   3.569   0.293  0.00  0.00    -0.004 A 
ATOM      5  C6  UNL d   1       2.515   2.644   0.474  0.00  0.00     0.002 A 
ATOM      6  C7  UNL d   1       2.279   1.286   0.258  0.00  0.00     0.002 A 
ENDROOT
BRANCH   1   7
ATOM      7  C1  UNL d   1       0.770  -0.621  -0.419  0.00  0.00     0.055 C 
ATOM      8  C   UNL d   1      -0.568  -1.079   0.143  0.00  0.00     0.019 C 
ENDBRANCH   1   7
TORSDOF 1
ENDMDL
