MODEL 1
REMARK minimizedAffinity -3.3095541
REMARK minimizedRMSD -1
REMARK  1 active torsions:
REMARK  status: ('A' for Active; 'I' for Inactive)
REMARK    1  A    between atoms: C1_2  and  C2_3 
ROOT
ATOM      1  C2  UNL d   1       0.004   0.573  -0.026  0.00  0.00    -0.077 A 
ATOM      2  C3  UNL d   1       0.758  -0.574   0.258  0.00  0.00     0.002 A 
ATOM      3  C4  UNL d   1       2.152  -0.507   0.315  0.00  0.00     0.002 A 
ATOM      4  C5  UNL d   1       2.802   0.705   0.095  0.00  0.00    -0.004 A 
ATOM      5  C6  UNL d   1       2.060   1.851  -0.190  0.00  0.00     0.002 A 
ATOM      6  C7  UNL d   1       0.668   1.786  -0.249  0.00  0.00     0.002 A 
ENDROOT
BRANCH   1   7
ATOM      7  C1  UNL d   1      -1.501   0.512  -0.040  0.00  0.00     0.055 C 
ATOM      8  C   UNL d   1      -2.052   0.115   1.322  0.00  0.00     0.019 C 
ENDBRANCH   1   7
TORSDOF 1
ENDMDL
