MODEL 1
REMARK minimizedAffinity -5.76604176
REMARK minimizedRMSD -1
REMARK  1 active torsions:
REMARK  status: ('A' for Active; 'I' for Inactive)
REMARK    1  A    between atoms: C1_2  and  C2_3 
ROOT
ATOM      1  C2  UNL d   1       0.846   2.278   0.562  0.00  0.00    -0.077 A 
ATOM      2  C3  UNL d   1      -0.367   2.975   0.468  0.00  0.00     0.002 A 
ATOM      3  C4  UNL d   1      -1.545   2.301   0.140  0.00  0.00     0.002 A 
ATOM      4  C5  UNL d   1      -1.523   0.928  -0.092  0.00  0.00    -0.004 A 
ATOM      5  C6  UNL d   1      -0.321   0.226  -0.002  0.00  0.00     0.002 A 
ATOM      6  C7  UNL d   1       0.858   0.898   0.324  0.00  0.00     0.002 A 
ENDROOT
BRANCH   1   7
ATOM      7  C1  UNL d   1       2.108   2.995   0.964  0.00  0.00     0.055 C 
ATOM      8  C   UNL d   1       3.265   2.022   1.137  0.00  0.00     0.019 C 
ENDBRANCH   1   7
TORSDOF 1
ENDMDL
