MODEL 1
REMARK minimizedAffinity -4.27232409
REMARK minimizedRMSD -1
REMARK  1 active torsions:
REMARK  status: ('A' for Active; 'I' for Inactive)
REMARK    1  A    between atoms: C1_2  and  C2_3 
ROOT
ATOM      1  C2  UNL d   1      -0.441   1.288   0.502  0.00  0.00    -0.077 A 
ATOM      2  C3  UNL d   1      -1.613   0.620   0.884  0.00  0.00     0.002 A 
ATOM      3  C4  UNL d   1      -1.738  -0.756   0.686  0.00  0.00     0.002 A 
ATOM      4  C5  UNL d   1      -0.695  -1.476   0.109  0.00  0.00    -0.004 A 
ATOM      5  C6  UNL d   1       0.474  -0.821  -0.277  0.00  0.00     0.002 A 
ATOM      6  C7  UNL d   1       0.601   0.555  -0.080  0.00  0.00     0.002 A 
ENDROOT
BRANCH   1   7
ATOM      7  C1  UNL d   1      -0.285   2.764   0.761  0.00  0.00     0.055 C 
ATOM      8  C   UNL d   1       0.470   3.447  -0.370  0.00  0.00     0.019 C 
ENDBRANCH   1   7
TORSDOF 1
ENDMDL
