MODEL 1
REMARK minimizedAffinity -5.12345028
REMARK minimizedRMSD -1
REMARK  1 active torsions:
REMARK  status: ('A' for Active; 'I' for Inactive)
REMARK    1  A    between atoms: C1_2  and  C2_3 
ROOT
ATOM      1  C2  UNL d   1       0.108   0.768   0.017  0.00  0.00    -0.077 A 
ATOM      2  C3  UNL d   1       1.507   0.807  -0.061  0.00  0.00     0.002 A 
ATOM      3  C4  UNL d   1       2.193   2.006   0.148  0.00  0.00     0.002 A 
ATOM      4  C5  UNL d   1       1.488   3.172   0.439  0.00  0.00    -0.004 A 
ATOM      5  C6  UNL d   1       0.096   3.143   0.517  0.00  0.00     0.002 A 
ATOM      6  C7  UNL d   1      -0.591   1.947   0.308  0.00  0.00     0.002 A 
ENDROOT
BRANCH   1   7
ATOM      7  C1  UNL d   1      -0.630  -0.533  -0.158  0.00  0.00     0.055 C 
ATOM      8  C   UNL d   1       0.332  -1.710  -0.234  0.00  0.00     0.019 C 
ENDBRANCH   1   7
TORSDOF 1
ENDMDL
