MODEL 1
REMARK minimizedAffinity -5.31929827
REMARK minimizedRMSD -1
REMARK  1 active torsions:
REMARK  status: ('A' for Active; 'I' for Inactive)
REMARK    1  A    between atoms: C1_2  and  C2_3 
ROOT
ATOM      1  C2  UNL d   1       0.299   1.405  -0.250  0.00  0.00    -0.077 A 
ATOM      2  C3  UNL d   1       1.621   1.000  -0.015  0.00  0.00     0.002 A 
ATOM      3  C4  UNL d   1       2.649   1.942   0.039  0.00  0.00     0.002 A 
ATOM      4  C5  UNL d   1       2.367   3.295  -0.137  0.00  0.00    -0.004 A 
ATOM      5  C6  UNL d   1       1.056   3.708  -0.374  0.00  0.00     0.002 A 
ATOM      6  C7  UNL d   1       0.027   2.767  -0.429  0.00  0.00     0.002 A 
ENDROOT
BRANCH   1   7
ATOM      7  C1  UNL d   1      -0.819   0.395  -0.260  0.00  0.00     0.055 C 
ATOM      8  C   UNL d   1      -0.284  -1.024  -0.130  0.00  0.00     0.019 C 
ENDBRANCH   1   7
TORSDOF 1
ENDMDL
