MODEL 1
REMARK minimizedAffinity -5.75785398
REMARK minimizedRMSD -1
REMARK  1 active torsions:
REMARK  status: ('A' for Active; 'I' for Inactive)
REMARK    1  A    between atoms: C1_2  and  C2_3 
ROOT
ATOM      1  C2  UNL d   1      -0.307   1.178   0.113  0.00  0.00    -0.077 A 
ATOM      2  C3  UNL d   1      -1.184   2.200  -0.276  0.00  0.00     0.002 A 
ATOM      3  C4  UNL d   1      -0.757   3.530  -0.289  0.00  0.00     0.002 A 
ATOM      4  C5  UNL d   1       0.548   3.848   0.082  0.00  0.00    -0.004 A 
ATOM      5  C6  UNL d   1       1.427   2.838   0.472  0.00  0.00     0.002 A 
ATOM      6  C7  UNL d   1       1.001   1.509   0.487  0.00  0.00     0.002 A 
ENDROOT
BRANCH   1   7
ATOM      7  C1  UNL d   1      -0.751  -0.261   0.080  0.00  0.00     0.055 C 
ATOM      8  C   UNL d   1       0.441  -1.208   0.054  0.00  0.00     0.019 C 
ENDBRANCH   1   7
TORSDOF 1
ENDMDL
