MODEL 1
REMARK minimizedAffinity -6.23211718
REMARK minimizedRMSD -1
REMARK  1 active torsions:
REMARK  status: ('A' for Active; 'I' for Inactive)
REMARK    1  A    between atoms: C1_2  and  C2_3 
ROOT
ATOM      1  C2  UNL d   1       1.302   1.873   0.298  0.00  0.00    -0.077 A 
ATOM      2  C3  UNL d   1       0.271   2.812   0.155  0.00  0.00     0.002 A 
ATOM      3  C4  UNL d   1      -1.061   2.396   0.102  0.00  0.00     0.002 A 
ATOM      4  C5  UNL d   1      -1.373   1.041   0.196  0.00  0.00    -0.004 A 
ATOM      5  C6  UNL d   1      -0.355   0.100   0.336  0.00  0.00     0.002 A 
ATOM      6  C7  UNL d   1       0.977   0.514   0.388  0.00  0.00     0.002 A 
ENDROOT
BRANCH   1   7
ATOM      7  C1  UNL d   1       2.736   2.324   0.405  0.00  0.00     0.055 C 
ATOM      8  C   UNL d   1       3.208   2.328   1.852  0.00  0.00     0.019 C 
ENDBRANCH   1   7
TORSDOF 1
ENDMDL
