MODEL 1
REMARK minimizedAffinity -4.76324081
REMARK minimizedRMSD -1
REMARK  1 active torsions:
REMARK  status: ('A' for Active; 'I' for Inactive)
REMARK    1  A    between atoms: C1_2  and  C2_3 
ROOT
ATOM      1  C2  UNL d   1      -0.251   0.970  -0.120  0.00  0.00    -0.077 A 
ATOM      2  C3  UNL d   1       1.101   0.983  -0.488  0.00  0.00     0.002 A 
ATOM      3  C4  UNL d   1       1.800   2.189  -0.566  0.00  0.00     0.002 A 
ATOM      4  C5  UNL d   1       1.156   3.390  -0.274  0.00  0.00    -0.004 A 
ATOM      5  C6  UNL d   1      -0.189   3.387   0.091  0.00  0.00     0.002 A 
ATOM      6  C7  UNL d   1      -0.890   2.183   0.168  0.00  0.00     0.002 A 
ENDROOT
BRANCH   1   7
ATOM      7  C1  UNL d   1      -0.994  -0.334   0.012  0.00  0.00     0.055 C 
ATOM      8  C   UNL d   1      -0.042  -1.520  -0.036  0.00  0.00     0.019 C 
ENDBRANCH   1   7
TORSDOF 1
ENDMDL
