MODEL 1
REMARK minimizedAffinity -5.71484137
REMARK minimizedRMSD -1
REMARK  2 active torsions:
REMARK  status: ('A' for Active; 'I' for Inactive)
REMARK    1  A    between atoms: C2'_3  and  C1'_4 
REMARK    2  A    between atoms: C1'_4  and  C1_5 
ROOT
ATOM      1  C1  I4B d   1       0.355  -0.048  -0.027  0.00  0.00    -0.075 A 
ATOM      2  C2  I4B d   1      -0.490  -0.173   1.048  0.00  0.00     0.003 A 
ATOM      3  C3  I4B d   1      -0.823  -1.456   1.547  0.00  0.00     0.002 A 
ATOM      4  C4  I4B d   1      -0.332  -2.580   0.914  0.00  0.00    -0.004 A 
ATOM      5  C5  I4B d   1       0.543  -2.450  -0.161  0.00  0.00     0.002 A 
ATOM      6  C6  I4B d   1       0.899  -1.176  -0.627  0.00  0.00     0.003 A 
ENDROOT
BRANCH   1   7
ATOM      7  C1' I4B d   1       0.660   1.321  -0.548  0.00  0.00     0.060 C 
BRANCH   7   8
ATOM      8  C2' I4B d   1       1.695   1.948   0.363  0.00  0.00    -0.013 C 
ATOM      9  C4' I4B d   1       3.090   1.709  -0.151  0.00  0.00     0.013 C 
ATOM     10  C3' I4B d   1       1.398   3.415   0.461  0.00  0.00     0.013 C 
ENDBRANCH   7   8
ENDBRANCH   1   7
TORSDOF 2
ENDMDL
