MODEL 1
REMARK minimizedAffinity -4.89007854
REMARK minimizedRMSD -1
REMARK  2 active torsions:
REMARK  status: ('A' for Active; 'I' for Inactive)
REMARK    1  A    between atoms: C2'_3  and  C1'_4 
REMARK    2  A    between atoms: C1'_4  and  C1_5 
ROOT
ATOM      1  C1  I4B d   1      -0.081   0.143  -0.068  0.00  0.00    -0.075 A 
ATOM      2  C2  I4B d   1       0.847  -0.844  -0.286  0.00  0.00     0.003 A 
ATOM      3  C3  I4B d   1       0.612  -2.159   0.182  0.00  0.00     0.002 A 
ATOM      4  C4  I4B d   1      -0.534  -2.430   0.902  0.00  0.00    -0.004 A 
ATOM      5  C5  I4B d   1      -1.485  -1.433   1.101  0.00  0.00     0.002 A 
ATOM      6  C6  I4B d   1      -1.263  -0.141   0.603  0.00  0.00     0.003 A 
ENDROOT
BRANCH   1   7
ATOM      7  C1' I4B d   1       0.215   1.529  -0.547  0.00  0.00     0.060 C 
BRANCH   7   8
ATOM      8  C2' I4B d   1       0.739   2.328   0.629  0.00  0.00    -0.013 C 
ATOM      9  C4' I4B d   1       2.153   2.788   0.388  0.00  0.00     0.013 C 
ATOM     10  C3' I4B d   1      -0.181   3.493   0.844  0.00  0.00     0.013 C 
ENDBRANCH   7   8
ENDBRANCH   1   7
TORSDOF 2
ENDMDL
