MODEL 1
REMARK minimizedAffinity -3.98726487
REMARK minimizedRMSD -1
REMARK  2 active torsions:
REMARK  status: ('A' for Active; 'I' for Inactive)
REMARK    1  A    between atoms: C2'_3  and  C1'_4 
REMARK    2  A    between atoms: C1'_4  and  C1_5 
ROOT
ATOM      1  C1  I4B d   1       0.128   0.989   0.123  0.00  0.00    -0.075 A 
ATOM      2  C2  I4B d   1       0.748   0.313  -0.897  0.00  0.00     0.003 A 
ATOM      3  C3  I4B d   1       0.674  -1.100  -0.965  0.00  0.00     0.002 A 
ATOM      4  C4  I4B d   1       0.016  -1.794   0.030  0.00  0.00    -0.004 A 
ATOM      5  C5  I4B d   1      -0.632  -1.105   1.051  0.00  0.00     0.002 A 
ATOM      6  C6  I4B d   1      -0.587   0.296   1.092  0.00  0.00     0.003 A 
ENDROOT
BRANCH   1   7
ATOM      7  C1' I4B d   1       0.254   2.479   0.182  0.00  0.00     0.060 C 
BRANCH   7   8
ATOM      8  C2' I4B d   1       1.458   2.811   1.039  0.00  0.00    -0.013 C 
ATOM      9  C4' I4B d   1       2.742   2.620   0.274  0.00  0.00     0.013 C 
ATOM     10  C3' I4B d   1       1.314   4.228   1.510  0.00  0.00     0.013 C 
ENDBRANCH   7   8
ENDBRANCH   1   7
TORSDOF 2
ENDMDL
