MODEL 1
REMARK minimizedAffinity -4.85401344
REMARK minimizedRMSD -1
REMARK  2 active torsions:
REMARK  status: ('A' for Active; 'I' for Inactive)
REMARK    1  A    between atoms: C2'_3  and  C1'_4 
REMARK    2  A    between atoms: C1'_4  and  C1_5 
ROOT
ATOM      1  C1  I4B d   1       0.124   0.219  -0.166  0.00  0.00    -0.075 A 
ATOM      2  C2  I4B d   1      -0.754   0.072   0.878  0.00  0.00     0.003 A 
ATOM      3  C3  I4B d   1      -1.009  -1.211   1.421  0.00  0.00     0.002 A 
ATOM      4  C4  I4B d   1      -0.405  -2.318   0.859  0.00  0.00    -0.004 A 
ATOM      5  C5  I4B d   1       0.503  -2.164  -0.184  0.00  0.00     0.002 A 
ATOM      6  C6  I4B d   1       0.779  -0.887  -0.693  0.00  0.00     0.003 A 
ENDROOT
BRANCH   1   7
ATOM      7  C1' I4B d   1       0.345   1.584  -0.736  0.00  0.00     0.060 C 
BRANCH   7   8
ATOM      8  C2' I4B d   1       1.225   2.356   0.226  0.00  0.00    -0.013 C 
ATOM      9  C4' I4B d   1       2.544   2.712  -0.408  0.00  0.00     0.013 C 
ATOM     10  C3' I4B d   1       0.479   3.586   0.651  0.00  0.00     0.013 C 
ENDBRANCH   7   8
ENDBRANCH   1   7
TORSDOF 2
ENDMDL
