MODEL 1
REMARK minimizedAffinity -5.65423918
REMARK minimizedRMSD -1
REMARK  2 active torsions:
REMARK  status: ('A' for Active; 'I' for Inactive)
REMARK    1  A    between atoms: C2'_3  and  C1'_4 
REMARK    2  A    between atoms: C1'_4  and  C1_5 
ROOT
ATOM      1  C1  I4B d   1      -0.022   0.208  -0.186  0.00  0.00    -0.075 A 
ATOM      2  C2  I4B d   1      -0.928   0.159   0.844  0.00  0.00     0.003 A 
ATOM      3  C3  I4B d   1      -1.169  -1.059   1.524  0.00  0.00     0.002 A 
ATOM      4  C4  I4B d   1      -0.523  -2.207   1.112  0.00  0.00    -0.004 A 
ATOM      5  C5  I4B d   1       0.413  -2.150   0.083  0.00  0.00     0.002 A 
ATOM      6  C6  I4B d   1       0.674  -0.933  -0.562  0.00  0.00     0.003 A 
ENDROOT
BRANCH   1   7
ATOM      7  C1' I4B d   1       0.183   1.504  -0.904  0.00  0.00     0.060 C 
BRANCH   7   8
ATOM      8  C2' I4B d   1       0.938   2.437   0.021  0.00  0.00    -0.013 C 
ATOM      9  C4' I4B d   1       2.295   2.777  -0.535  0.00  0.00     0.013 C 
ATOM     10  C3' I4B d   1       0.107   3.670   0.214  0.00  0.00     0.013 C 
ENDBRANCH   7   8
ENDBRANCH   1   7
TORSDOF 2
ENDMDL
