MODEL 1
REMARK minimizedAffinity -1.59093761
REMARK minimizedRMSD -1
REMARK  2 active torsions:
REMARK  status: ('A' for Active; 'I' for Inactive)
REMARK    1  A    between atoms: C2'_3  and  C1'_4 
REMARK    2  A    between atoms: C1'_4  and  C1_5 
ROOT
ATOM      1  C1  I4B d   1       0.844   0.673  -0.630  0.00  0.00    -0.075 A 
ATOM      2  C2  I4B d   1       0.860   0.498  -1.991  0.00  0.00     0.003 A 
ATOM      3  C3  I4B d   1       1.021  -0.796  -2.542  0.00  0.00     0.002 A 
ATOM      4  C4  I4B d   1       1.211  -1.874  -1.701  0.00  0.00    -0.004 A 
ATOM      5  C5  I4B d   1       1.172  -1.698  -0.321  0.00  0.00     0.002 A 
ATOM      6  C6  I4B d   1       0.975  -0.419   0.219  0.00  0.00     0.003 A 
ENDROOT
BRANCH   1   7
ATOM      7  C1' I4B d   1       0.705   2.058  -0.082  0.00  0.00     0.060 C 
BRANCH   7   8
ATOM      8  C2' I4B d   1       2.087   2.550   0.298  0.00  0.00    -0.013 C 
ATOM      9  C4' I4B d   1       2.731   3.299  -0.838  0.00  0.00     0.013 C 
ATOM     10  C3' I4B d   1       1.950   3.420   1.512  0.00  0.00     0.013 C 
ENDBRANCH   7   8
ENDBRANCH   1   7
TORSDOF 2
ENDMDL
