MODEL 1
REMARK minimizedAffinity -5.40213776
REMARK minimizedRMSD -1
REMARK  2 active torsions:
REMARK  status: ('A' for Active; 'I' for Inactive)
REMARK    1  A    between atoms: C2'_3  and  C1'_4 
REMARK    2  A    between atoms: C1'_4  and  C1_5 
ROOT
ATOM      1  C1  I4B d   1       0.611   1.499   0.238  0.00  0.00    -0.075 A 
ATOM      2  C2  I4B d   1       1.149   2.083  -0.882  0.00  0.00     0.003 A 
ATOM      3  C3  I4B d   1       2.047   3.170  -0.757  0.00  0.00     0.002 A 
ATOM      4  C4  I4B d   1       2.338   3.671   0.496  0.00  0.00    -0.004 A 
ATOM      5  C5  I4B d   1       1.810   3.062   1.631  0.00  0.00     0.002 A 
ATOM      6  C6  I4B d   1       0.950   1.962   1.502  0.00  0.00     0.003 A 
ENDROOT
BRANCH   1   7
ATOM      7  C1' I4B d   1      -0.360   0.374   0.068  0.00  0.00     0.060 C 
BRANCH   7   8
ATOM      8  C2' I4B d   1       0.362  -0.919   0.389  0.00  0.00    -0.013 C 
ATOM      9  C4' I4B d   1      -0.082  -1.477   1.716  0.00  0.00     0.013 C 
ATOM     10  C3' I4B d   1       0.094  -1.888  -0.723  0.00  0.00     0.013 C 
ENDBRANCH   7   8
ENDBRANCH   1   7
TORSDOF 2
ENDMDL
