MODEL 1
REMARK minimizedAffinity -6.43564796
REMARK minimizedRMSD -1
REMARK  2 active torsions:
REMARK  status: ('A' for Active; 'I' for Inactive)
REMARK    1  A    between atoms: C2'_3  and  C1'_4 
REMARK    2  A    between atoms: C1'_4  and  C1_5 
ROOT
ATOM      1  C1  I4B d   1       0.604  -0.993  -0.610  0.00  0.00    -0.075 A 
ATOM      2  C2  I4B d   1       0.338  -1.645   0.569  0.00  0.00     0.003 A 
ATOM      3  C3  I4B d   1       0.011  -3.023   0.563  0.00  0.00     0.002 A 
ATOM      4  C4  I4B d   1      -0.087  -3.693  -0.639  0.00  0.00    -0.004 A 
ATOM      5  C5  I4B d   1       0.205  -3.036  -1.831  0.00  0.00     0.002 A 
ATOM      6  C6  I4B d   1       0.565  -1.681  -1.816  0.00  0.00     0.003 A 
ENDROOT
BRANCH   1   7
ATOM      7  C1' I4B d   1       0.913   0.470  -0.570  0.00  0.00     0.060 C 
BRANCH   7   8
ATOM      8  C2' I4B d   1       0.089   1.091   0.539  0.00  0.00    -0.013 C 
ATOM      9  C4' I4B d   1       0.810   2.254   1.168  0.00  0.00     0.013 C 
ATOM     10  C3' I4B d   1      -1.224   1.520  -0.044  0.00  0.00     0.013 C 
ENDBRANCH   7   8
ENDBRANCH   1   7
TORSDOF 2
ENDMDL
