MODEL 1
REMARK minimizedAffinity -3.30936122
REMARK minimizedRMSD -1
REMARK  2 active torsions:
REMARK  status: ('A' for Active; 'I' for Inactive)
REMARK    1  A    between atoms: C2'_3  and  C1'_4 
REMARK    2  A    between atoms: C1'_4  and  C1_5 
ROOT
ATOM      1  C1  I4B d   1      -0.125   0.406   0.121  0.00  0.00    -0.075 A 
ATOM      2  C2  I4B d   1       0.078  -0.838  -0.423  0.00  0.00     0.003 A 
ATOM      3  C3  I4B d   1      -0.387  -1.994   0.249  0.00  0.00     0.002 A 
ATOM      4  C4  I4B d   1      -1.000  -1.865   1.479  0.00  0.00    -0.004 A 
ATOM      5  C5  I4B d   1      -1.225  -0.602   2.018  0.00  0.00     0.002 A 
ATOM      6  C6  I4B d   1      -0.795   0.542   1.329  0.00  0.00     0.003 A 
ENDROOT
BRANCH   1   7
ATOM      7  C1' I4B d   1       0.408   1.603  -0.600  0.00  0.00     0.060 C 
BRANCH   7   8
ATOM      8  C2' I4B d   1       0.834   2.621   0.437  0.00  0.00    -0.013 C 
ATOM      9  C4' I4B d   1       2.305   2.506   0.743  0.00  0.00     0.013 C 
ATOM     10  C3' I4B d   1       0.496   3.985  -0.086  0.00  0.00     0.013 C 
ENDBRANCH   7   8
ENDBRANCH   1   7
TORSDOF 2
ENDMDL
