MODEL 1
REMARK minimizedAffinity -3.88404918
REMARK minimizedRMSD -1
REMARK  2 active torsions:
REMARK  status: ('A' for Active; 'I' for Inactive)
REMARK    1  A    between atoms: C2'_3  and  C1'_4 
REMARK    2  A    between atoms: C1'_4  and  C1_5 
ROOT
ATOM      1  C1  I4B d   1      -0.203   1.225  -0.152  0.00  0.00    -0.075 A 
ATOM      2  C2  I4B d   1       0.781   0.974  -1.075  0.00  0.00     0.003 A 
ATOM      3  C3  I4B d   1       1.823   1.911  -1.278  0.00  0.00     0.002 A 
ATOM      4  C4  I4B d   1       1.815   3.100  -0.577  0.00  0.00    -0.004 A 
ATOM      5  C5  I4B d   1       0.829   3.342   0.375  0.00  0.00     0.002 A 
ATOM      6  C6  I4B d   1      -0.180   2.393   0.599  0.00  0.00     0.003 A 
ENDROOT
BRANCH   1   7
ATOM      7  C1' I4B d   1      -1.307   0.228   0.013  0.00  0.00     0.060 C 
BRANCH   7   8
ATOM      8  C2' I4B d   1      -1.094  -0.489   1.330  0.00  0.00    -0.013 C 
ATOM      9  C4' I4B d   1      -1.991   0.067   2.405  0.00  0.00     0.013 C 
ATOM     10  C3' I4B d   1      -1.356  -1.949   1.109  0.00  0.00     0.013 C 
ENDBRANCH   7   8
ENDBRANCH   1   7
TORSDOF 2
ENDMDL
