MODEL 1
REMARK minimizedAffinity -6.4769721
REMARK minimizedRMSD -1
REMARK  2 active torsions:
REMARK  status: ('A' for Active; 'I' for Inactive)
REMARK    1  A    between atoms: C2'_3  and  C1'_4 
REMARK    2  A    between atoms: C1'_4  and  C1_5 
ROOT
ATOM      1  C1  I4B d   1      -0.269  -2.081   0.109  0.00  0.00    -0.075 A 
ATOM      2  C2  I4B d   1       0.248  -0.810   0.152  0.00  0.00     0.003 A 
ATOM      3  C3  I4B d   1      -0.367   0.183   0.952  0.00  0.00     0.002 A 
ATOM      4  C4  I4B d   1      -1.519  -0.121   1.647  0.00  0.00    -0.004 A 
ATOM      5  C5  I4B d   1      -2.030  -1.416   1.620  0.00  0.00     0.002 A 
ATOM      6  C6  I4B d   1      -1.394  -2.406   0.856  0.00  0.00     0.003 A 
ENDROOT
BRANCH   1   7
ATOM      7  C1' I4B d   1       0.387  -3.097  -0.771  0.00  0.00     0.060 C 
BRANCH   7   8
ATOM      8  C2' I4B d   1       0.518  -2.499  -2.157  0.00  0.00    -0.013 C 
ATOM      9  C4' I4B d   1       1.830  -2.878  -2.792  0.00  0.00     0.013 C 
ATOM     10  C3' I4B d   1      -0.640  -2.978  -2.980  0.00  0.00     0.013 C 
ENDBRANCH   7   8
ENDBRANCH   1   7
TORSDOF 2
ENDMDL
