MODEL 1
REMARK minimizedAffinity -2.29920053
REMARK minimizedRMSD -1
REMARK  2 active torsions:
REMARK  status: ('A' for Active; 'I' for Inactive)
REMARK    1  A    between atoms: C2'_3  and  C1'_4 
REMARK    2  A    between atoms: C1'_4  and  C1_5 
ROOT
ATOM      1  C1  I4B d   1      -0.549   0.236   0.567  0.00  0.00    -0.075 A 
ATOM      2  C2  I4B d   1      -0.905   0.577   1.848  0.00  0.00     0.003 A 
ATOM      3  C3  I4B d   1      -1.534  -0.372   2.690  0.00  0.00     0.002 A 
ATOM      4  C4  I4B d   1      -1.833  -1.625   2.197  0.00  0.00    -0.004 A 
ATOM      5  C5  I4B d   1      -1.451  -1.977   0.905  0.00  0.00     0.002 A 
ATOM      6  C6  I4B d   1      -0.794  -1.045   0.089  0.00  0.00     0.003 A 
ENDROOT
BRANCH   1   7
ATOM      7  C1' I4B d   1       0.084   1.273  -0.305  0.00  0.00     0.060 C 
BRANCH   7   8
ATOM      8  C2' I4B d   1       0.733   2.306   0.593  0.00  0.00    -0.013 C 
ATOM      9  C4' I4B d   1       2.095   2.694   0.081  0.00  0.00     0.013 C 
ATOM     10  C3' I4B d   1      -0.178   3.495   0.665  0.00  0.00     0.013 C 
ENDBRANCH   7   8
ENDBRANCH   1   7
TORSDOF 2
ENDMDL
