MODEL 1
REMARK minimizedAffinity -1.56656015
REMARK minimizedRMSD -1
REMARK  0 active torsions:
REMARK  status: ('A' for Active; 'I' for Inactive)
ROOT
ATOM      1  C1  BNZ d   1      -0.024  -0.228  -0.214  0.00  0.00     0.000 A 
ATOM      2  C2  BNZ d   1       0.394  -1.363   0.428  0.00  0.00     0.000 A 
ATOM      3  C3  BNZ d   1       1.716  -1.556   0.717  0.00  0.00     0.000 A 
ATOM      4  C4  BNZ d   1       2.621  -0.635   0.329  0.00  0.00     0.000 A 
ATOM      5  C5  BNZ d   1       2.216   0.510  -0.329  0.00  0.00     0.000 A 
ATOM      6  C6  BNZ d   1       0.880   0.719  -0.583  0.00  0.00     0.000 A 
ENDROOT
TORSDOF 0
ENDMDL
