MODEL 1
REMARK minimizedAffinity -2.89767742
REMARK minimizedRMSD -1
REMARK  0 active torsions:
REMARK  status: ('A' for Active; 'I' for Inactive)
ROOT
ATOM      1  C1  BNZ d   1       0.311   0.294  -0.144  0.00  0.00     0.000 A 
ATOM      2  C2  BNZ d   1       1.536  -0.254  -0.416  0.00  0.00     0.000 A 
ATOM      3  C3  BNZ d   1       2.038  -1.264   0.357  0.00  0.00     0.000 A 
ATOM      4  C4  BNZ d   1       1.334  -1.696   1.423  0.00  0.00     0.000 A 
ATOM      5  C5  BNZ d   1       0.101  -1.147   1.715  0.00  0.00     0.000 A 
ATOM      6  C6  BNZ d   1      -0.418  -0.157   0.912  0.00  0.00     0.000 A 
ENDROOT
TORSDOF 0
ENDMDL
