MODEL 1
REMARK minimizedAffinity -2.75423694
REMARK minimizedRMSD -1
REMARK  0 active torsions:
REMARK  status: ('A' for Active; 'I' for Inactive)
ROOT
ATOM      1  C1  BNZ d   1      -0.775   1.300  -0.924  0.00  0.00     0.000 A 
ATOM      2  C2  BNZ d   1       0.011   1.349   0.197  0.00  0.00     0.000 A 
ATOM      3  C3  BNZ d   1       0.987   0.416   0.408  0.00  0.00     0.000 A 
ATOM      4  C4  BNZ d   1       1.150  -0.586  -0.479  0.00  0.00     0.000 A 
ATOM      5  C5  BNZ d   1       0.359  -0.655  -1.609  0.00  0.00     0.000 A 
ATOM      6  C6  BNZ d   1      -0.596   0.308  -1.838  0.00  0.00     0.000 A 
ENDROOT
TORSDOF 0
ENDMDL
