MODEL 1
REMARK minimizedAffinity -3.60950351
REMARK minimizedRMSD -1
REMARK  0 active torsions:
REMARK  status: ('A' for Active; 'I' for Inactive)
ROOT
ATOM      1  C1  BNZ d   1       0.483  -1.197   1.666  0.00  0.00     0.000 A 
ATOM      2  C2  BNZ d   1       1.620  -1.852   1.273  0.00  0.00     0.000 A 
ATOM      3  C3  BNZ d   1       2.095  -1.724  -0.003  0.00  0.00     0.000 A 
ATOM      4  C4  BNZ d   1       1.412  -0.976  -0.893  0.00  0.00     0.000 A 
ATOM      5  C5  BNZ d   1       0.259  -0.317  -0.514  0.00  0.00     0.000 A 
ATOM      6  C6  BNZ d   1      -0.195  -0.416   0.782  0.00  0.00     0.000 A 
ENDROOT
TORSDOF 0
ENDMDL
