MODEL 1
REMARK minimizedAffinity 0.389893711
REMARK minimizedRMSD -1
REMARK  0 active torsions:
REMARK  status: ('A' for Active; 'I' for Inactive)
ROOT
ATOM      1  C1  BNZ d   1      -3.030  -5.624  -4.872  0.00  0.00     0.000 A 
ATOM      2  C2  BNZ d   1      -2.335  -5.973  -6.000  0.00  0.00     0.000 A 
ATOM      3  C3  BNZ d   1      -0.969  -5.999  -6.000  0.00  0.00     0.000 A 
ATOM      4  C4  BNZ d   1      -0.299  -5.639  -4.886  0.00  0.00     0.000 A 
ATOM      5  C5  BNZ d   1      -0.984  -5.276  -3.744  0.00  0.00     0.000 A 
ATOM      6  C6  BNZ d   1      -2.360  -5.288  -3.736  0.00  0.00     0.000 A 
ENDROOT
TORSDOF 0
ENDMDL
