MODEL 1
REMARK minimizedAffinity -3.44992256
REMARK minimizedRMSD -1
REMARK  0 active torsions:
REMARK  status: ('A' for Active; 'I' for Inactive)
ROOT
ATOM      1  C1  BNZ d   1       2.155  -1.366   0.416  0.00  0.00     0.000 A 
ATOM      2  C2  BNZ d   1       1.740  -0.436  -0.500  0.00  0.00     0.000 A 
ATOM      3  C3  BNZ d   1       0.498   0.127  -0.412  0.00  0.00     0.000 A 
ATOM      4  C4  BNZ d   1      -0.342  -0.269   0.566  0.00  0.00     0.000 A 
ATOM      5  C5  BNZ d   1       0.058  -1.213   1.491  0.00  0.00     0.000 A 
ATOM      6  C6  BNZ d   1       1.324  -1.748   1.423  0.00  0.00     0.000 A 
ENDROOT
TORSDOF 0
ENDMDL
