MODEL 1
REMARK minimizedAffinity -3.04017258
REMARK minimizedRMSD -1
REMARK  0 active torsions:
REMARK  status: ('A' for Active; 'I' for Inactive)
ROOT
ATOM      1  C1  BNZ d   1      -2.304   0.549  -2.335  0.00  0.00     0.000 A 
ATOM      2  C2  BNZ d   1      -1.517  -0.083  -1.409  0.00  0.00     0.000 A 
ATOM      3  C3  BNZ d   1      -0.622   0.621  -0.653  0.00  0.00     0.000 A 
ATOM      4  C4  BNZ d   1      -0.487   1.948  -0.851  0.00  0.00     0.000 A 
ATOM      5  C5  BNZ d   1      -1.267   2.598  -1.786  0.00  0.00     0.000 A 
ATOM      6  C6  BNZ d   1      -2.193   1.893  -2.519  0.00  0.00     0.000 A 
ENDROOT
TORSDOF 0
ENDMDL
