MODEL 1
REMARK minimizedAffinity -3.40734363
REMARK minimizedRMSD -1
REMARK  0 active torsions:
REMARK  status: ('A' for Active; 'I' for Inactive)
ROOT
ATOM      1  C1  BNZ d   1       2.273  -1.223   0.284  0.00  0.00     0.000 A 
ATOM      2  C2  BNZ d   1       1.727  -0.321  -0.590  0.00  0.00     0.000 A 
ATOM      3  C3  BNZ d   1       0.582   0.354  -0.273  0.00  0.00     0.000 A 
ATOM      4  C4  BNZ d   1      -0.038   0.097   0.897  0.00  0.00     0.000 A 
ATOM      5  C5  BNZ d   1       0.495  -0.817   1.784  0.00  0.00     0.000 A 
ATOM      6  C6  BNZ d   1       1.670  -1.466   1.479  0.00  0.00     0.000 A 
ENDROOT
TORSDOF 0
ENDMDL
