MODEL 1
REMARK minimizedAffinity -3.50407052
REMARK minimizedRMSD -1
REMARK  0 active torsions:
REMARK  status: ('A' for Active; 'I' for Inactive)
ROOT
ATOM      1  C1  BNZ d   1      -0.290   0.389   0.035  0.00  0.00     0.000 A 
ATOM      2  C2  BNZ d   1       0.962  -0.038  -0.318  0.00  0.00     0.000 A 
ATOM      3  C3  BNZ d   1       1.579  -1.045   0.370  0.00  0.00     0.000 A 
ATOM      4  C4  BNZ d   1       0.960  -1.597   1.434  0.00  0.00     0.000 A 
ATOM      5  C5  BNZ d   1      -0.299  -1.171   1.808  0.00  0.00     0.000 A 
ATOM      6  C6  BNZ d   1      -0.932  -0.183   1.089  0.00  0.00     0.000 A 
ENDROOT
TORSDOF 0
ENDMDL
