MODEL 1
REMARK minimizedAffinity -2.0890646
REMARK minimizedRMSD -1
REMARK  0 active torsions:
REMARK  status: ('A' for Active; 'I' for Inactive)
ROOT
ATOM      1  C1  BNZ d   1      -0.095  -1.335   1.416  0.00  0.00     0.000 A 
ATOM      2  C2  BNZ d   1       0.677  -0.835   0.402  0.00  0.00     0.000 A 
ATOM      3  C3  BNZ d   1       0.434   0.407  -0.115  0.00  0.00     0.000 A 
ATOM      4  C4  BNZ d   1      -0.603   1.130   0.356  0.00  0.00     0.000 A 
ATOM      5  C5  BNZ d   1      -1.396   0.635   1.372  0.00  0.00     0.000 A 
ATOM      6  C6  BNZ d   1      -1.125  -0.599   1.916  0.00  0.00     0.000 A 
ENDROOT
TORSDOF 0
ENDMDL
