MODEL 1
REMARK minimizedAffinity -3.62441897
REMARK minimizedRMSD -1
REMARK  0 active torsions:
REMARK  status: ('A' for Active; 'I' for Inactive)
ROOT
ATOM      1  C1  BNZ d   1      -1.478   2.038  -1.088  0.00  0.00     0.000 A 
ATOM      2  C2  BNZ d   1      -1.040   0.745  -1.190  0.00  0.00     0.000 A 
ATOM      3  C3  BNZ d   1      -1.378  -0.026  -2.267  0.00  0.00     0.000 A 
ATOM      4  C4  BNZ d   1      -2.186   0.484  -3.220  0.00  0.00     0.000 A 
ATOM      5  C5  BNZ d   1      -2.643   1.784  -3.126  0.00  0.00     0.000 A 
ATOM      6  C6  BNZ d   1      -2.268   2.569  -2.060  0.00  0.00     0.000 A 
ENDROOT
TORSDOF 0
ENDMDL
