MODEL 1
REMARK minimizedAffinity -3.35424876
REMARK minimizedRMSD -1
REMARK  0 active torsions:
REMARK  status: ('A' for Active; 'I' for Inactive)
ROOT
ATOM      1  C1  BNZ d   1       2.507  -1.589  -0.392  0.00  0.00     0.000 A 
ATOM      2  C2  BNZ d   1       1.991  -0.680  -1.277  0.00  0.00     0.000 A 
ATOM      3  C3  BNZ d   1       1.048   0.227  -0.878  0.00  0.00     0.000 A 
ATOM      4  C4  BNZ d   1       0.595   0.197   0.392  0.00  0.00     0.000 A 
ATOM      5  C5  BNZ d   1       1.100  -0.719   1.293  0.00  0.00     0.000 A 
ATOM      6  C6  BNZ d   1       2.076  -1.605   0.898  0.00  0.00     0.000 A 
ENDROOT
TORSDOF 0
ENDMDL
