MODEL 1
REMARK minimizedAffinity -3.91716576
REMARK minimizedRMSD -1
REMARK  0 active torsions:
REMARK  status: ('A' for Active; 'I' for Inactive)
ROOT
ATOM      1  C1  BNZ d   1       1.520   0.187  -0.010  0.00  0.00     0.000 A 
ATOM      2  C2  BNZ d   1       2.054  -1.044   0.264  0.00  0.00     0.000 A 
ATOM      3  C3  BNZ d   1       1.303  -2.014   0.869  0.00  0.00     0.000 A 
ATOM      4  C4  BNZ d   1       0.035  -1.738   1.235  0.00  0.00     0.000 A 
ATOM      5  C5  BNZ d   1      -0.514  -0.498   0.974  0.00  0.00     0.000 A 
ATOM      6  C6  BNZ d   1       0.232   0.462   0.331  0.00  0.00     0.000 A 
ENDROOT
TORSDOF 0
ENDMDL
