MODEL 1
REMARK minimizedAffinity -2.10035753
REMARK minimizedRMSD -1
REMARK  0 active torsions:
REMARK  status: ('A' for Active; 'I' for Inactive)
ROOT
ATOM      1  C1  BNZ d   1      -0.772   1.207  -0.736  0.00  0.00     0.000 A 
ATOM      2  C2  BNZ d   1      -1.905   1.397   0.010  0.00  0.00     0.000 A 
ATOM      3  C3  BNZ d   1      -2.117   0.682   1.155  0.00  0.00     0.000 A 
ATOM      4  C4  BNZ d   1      -1.218  -0.250   1.531  0.00  0.00     0.000 A 
ATOM      5  C5  BNZ d   1      -0.075  -0.461   0.785  0.00  0.00     0.000 A 
ATOM      6  C6  BNZ d   1       0.154   0.289  -0.346  0.00  0.00     0.000 A 
ENDROOT
TORSDOF 0
ENDMDL
