MODEL 1
REMARK minimizedAffinity -3.71092916
REMARK minimizedRMSD -1
REMARK  0 active torsions:
REMARK  status: ('A' for Active; 'I' for Inactive)
ROOT
ATOM      1  C1  BNZ d   1      -3.034   0.845  -1.587  0.00  0.00     0.000 A 
ATOM      2  C2  BNZ d   1      -2.585   0.184  -0.475  0.00  0.00     0.000 A 
ATOM      3  C3  BNZ d   1      -1.346   0.443   0.042  0.00  0.00     0.000 A 
ATOM      4  C4  BNZ d   1      -0.543   1.332  -0.577  0.00  0.00     0.000 A 
ATOM      5  C5  BNZ d   1      -0.977   2.000  -1.705  0.00  0.00     0.000 A 
ATOM      6  C6  BNZ d   1      -2.239   1.765  -2.199  0.00  0.00     0.000 A 
ENDROOT
TORSDOF 0
ENDMDL
