MODEL 1
REMARK minimizedAffinity 8.42880535
REMARK minimizedRMSD -1
REMARK  1 active torsions:
REMARK  status: ('A' for Active; 'I' for Inactive)
REMARK    1  A    between atoms: C1_2  and  C2_3 
ROOT
ATOM      1  C2  UNL d   1       0.859   2.970  -0.258  0.00  0.00    -0.073 A 
ATOM      2  C3  UNL d   1       2.033   2.332   0.159  0.00  0.00    -0.002 A 
ATOM      3  C4  UNL d   1       2.019   0.976   0.487  0.00  0.00     0.004 A 
ATOM      4  C5  UNL d   1       0.836   0.243   0.396  0.00  0.00    -0.004 A 
ATOM      5  C6  UNL d   1      -0.345   0.860  -0.030  0.00  0.00    -0.075 A 
ATOM      6  C7  UNL d   1      -1.626   0.086  -0.131  0.00  0.00     0.076 C 
ATOM      7  C8  UNL d   1      -0.324   2.223  -0.356  0.00  0.00     0.001 A 
ENDROOT
BRANCH   1   8
ATOM      8  C1  UNL d   1       0.870   4.432  -0.620  0.00  0.00     0.053 C 
ATOM      9  C   UNL d   1       1.135   4.651  -2.102  0.00  0.00     0.018 C 
ENDBRANCH   1   8
TORSDOF 1
ENDMDL
