MODEL 1
REMARK minimizedAffinity 4.67052794
REMARK minimizedRMSD -1
REMARK  1 active torsions:
REMARK  status: ('A' for Active; 'I' for Inactive)
REMARK    1  A    between atoms: C1_2  and  C2_3 
ROOT
ATOM      1  C2  UNL d   1       3.545  -3.141   3.494  0.00  0.00    -0.073 A 
ATOM      2  C3  UNL d   1       2.405  -3.942   3.628  0.00  0.00    -0.002 A 
ATOM      3  C4  UNL d   1       1.157  -3.464   3.227  0.00  0.00     0.004 A 
ATOM      4  C5  UNL d   1       1.036  -2.185   2.683  0.00  0.00    -0.004 A 
ATOM      5  C6  UNL d   1       2.165  -1.374   2.531  0.00  0.00    -0.075 A 
ATOM      6  C7  UNL d   1       2.052   0.005   1.950  0.00  0.00     0.076 C 
ATOM      7  C8  UNL d   1       3.415  -1.860   2.938  0.00  0.00     0.001 A 
ENDROOT
BRANCH   1   8
ATOM      8  C1  UNL d   1       4.896  -3.655   3.919  0.00  0.00     0.053 C 
ATOM      9  C   UNL d   1       5.971  -2.584   3.821  0.00  0.00     0.018 C 
ENDBRANCH   1   8
TORSDOF 1
ENDMDL
