MODEL 1
REMARK minimizedAffinity 5.36911058
REMARK minimizedRMSD -1
REMARK  1 active torsions:
REMARK  status: ('A' for Active; 'I' for Inactive)
REMARK    1  A    between atoms: C1_2  and  C2_3 
ROOT
ATOM      1  C2  UNL d   1       3.156  -4.829   0.120  0.00  0.00    -0.073 A 
ATOM      2  C3  UNL d   1       2.843  -5.999   0.820  0.00  0.00    -0.002 A 
ATOM      3  C4  UNL d   1       2.227  -5.930   2.070  0.00  0.00     0.004 A 
ATOM      4  C5  UNL d   1       1.913  -4.692   2.630  0.00  0.00    -0.004 A 
ATOM      5  C6  UNL d   1       2.207  -3.511   1.941  0.00  0.00    -0.075 A 
ATOM      6  C7  UNL d   1       1.878  -2.171   2.531  0.00  0.00     0.076 C 
ATOM      7  C8  UNL d   1       2.828  -3.589   0.687  0.00  0.00     0.001 A 
ENDROOT
BRANCH   1   8
ATOM      8  C1  UNL d   1       3.815  -4.898  -1.233  0.00  0.00     0.053 C 
ATOM      9  C   UNL d   1       4.862  -5.999  -1.301  0.00  0.00     0.018 C 
ENDBRANCH   1   8
TORSDOF 1
ENDMDL
