MODEL 1
REMARK minimizedAffinity 2.96963525
REMARK minimizedRMSD -1
REMARK  1 active torsions:
REMARK  status: ('A' for Active; 'I' for Inactive)
REMARK    1  A    between atoms: C1_2  and  C2_3 
ROOT
ATOM      1  C2  UNL d   1       2.601  -5.779  -3.491  0.00  0.00    -0.073 A 
ATOM      2  C3  UNL d   1       3.921  -5.408  -3.771  0.00  0.00    -0.002 A 
ATOM      3  C4  UNL d   1       4.833  -5.211  -2.733  0.00  0.00     0.004 A 
ATOM      4  C5  UNL d   1       4.437  -5.390  -1.408  0.00  0.00    -0.004 A 
ATOM      5  C6  UNL d   1       3.126  -5.773  -1.109  0.00  0.00    -0.075 A 
ATOM      6  C7  UNL d   1       2.684  -5.967   0.312  0.00  0.00     0.076 C 
ATOM      7  C8  UNL d   1       2.215  -5.966  -2.156  0.00  0.00     0.001 A 
ENDROOT
BRANCH   1   8
ATOM      8  C1  UNL d   1       1.614  -5.999  -4.609  0.00  0.00     0.053 C 
ATOM      9  C   UNL d   1       2.284  -5.974  -5.974  0.00  0.00     0.018 C 
ENDBRANCH   1   8
TORSDOF 1
ENDMDL
