MODEL 1
REMARK minimizedAffinity -0.370163441
REMARK minimizedRMSD -1
REMARK  1 active torsions:
REMARK  status: ('A' for Active; 'I' for Inactive)
REMARK    1  A    between atoms: C1_2  and  C2_3 
ROOT
ATOM      1  C2  UNL d   1       2.361  -5.975  -3.412  0.00  0.00    -0.073 A 
ATOM      2  C3  UNL d   1       3.747  -5.949  -3.604  0.00  0.00    -0.002 A 
ATOM      3  C4  UNL d   1       4.611  -5.932  -2.508  0.00  0.00     0.004 A 
ATOM      4  C5  UNL d   1       4.099  -5.948  -1.211  0.00  0.00    -0.004 A 
ATOM      5  C6  UNL d   1       2.717  -5.985  -0.998  0.00  0.00    -0.075 A 
ATOM      6  C7  UNL d   1       2.151  -6.000   0.391  0.00  0.00     0.076 C 
ATOM      7  C8  UNL d   1       1.856  -5.999  -2.104  0.00  0.00     0.001 A 
ENDROOT
BRANCH   1   8
ATOM      8  C1  UNL d   1       1.424  -6.000  -4.592  0.00  0.00     0.053 C 
ATOM      9  C   UNL d   1       2.174  -5.989  -5.915  0.00  0.00     0.018 C 
ENDBRANCH   1   8
TORSDOF 1
ENDMDL
