MODEL 1
REMARK minimizedAffinity 6.2331996
REMARK minimizedRMSD -1
REMARK  0 active torsions:
REMARK  status: ('A' for Active; 'I' for Inactive)
ROOT
ATOM      1  C   UNL d   1      -2.315  -5.996   0.520  0.00  0.00     0.078 C 
ATOM      2  C1  UNL d   1      -2.668  -5.859   1.971  0.00  0.00    -0.077 A 
ATOM      3  C2  UNL d   1      -1.683  -5.604   2.932  0.00  0.00    -0.001 A 
ATOM      4  C3  UNL d   1      -2.025  -5.489   4.280  0.00  0.00     0.003 A 
ATOM      5  C4  UNL d   1      -3.352  -5.627   4.680  0.00  0.00    -0.005 A 
ATOM      6  C5  UNL d   1      -4.340  -5.883   3.731  0.00  0.00     0.003 A 
ATOM      7  C6  UNL d   1      -4.000  -5.999   2.382  0.00  0.00    -0.001 A 
ENDROOT
TORSDOF 0
ENDMDL
