MODEL 1
REMARK minimizedAffinity 4.37255573
REMARK minimizedRMSD -1
REMARK  0 active torsions:
REMARK  status: ('A' for Active; 'I' for Inactive)
ROOT
ATOM      1  C   UNL d   1       1.511   2.297   0.584  0.00  0.00     0.078 C 
ATOM      2  C1  UNL d   1       2.152   2.466   1.929  0.00  0.00    -0.077 A 
ATOM      3  C2  UNL d   1       1.632   1.826   3.061  0.00  0.00    -0.001 A 
ATOM      4  C3  UNL d   1       2.233   1.999   4.308  0.00  0.00     0.003 A 
ATOM      5  C4  UNL d   1       3.357   2.813   4.436  0.00  0.00    -0.005 A 
ATOM      6  C5  UNL d   1       3.881   3.455   3.316  0.00  0.00     0.003 A 
ATOM      7  C6  UNL d   1       3.280   3.283   2.067  0.00  0.00    -0.001 A 
ENDROOT
TORSDOF 0
ENDMDL
