MODEL 1
REMARK minimizedAffinity 6.6499815
REMARK minimizedRMSD -1
REMARK  0 active torsions:
REMARK  status: ('A' for Active; 'I' for Inactive)
ROOT
ATOM      1  C   UNL d   1       2.476   2.009   3.992  0.00  0.00     0.078 C 
ATOM      2  C1  UNL d   1       3.697   2.518   4.699  0.00  0.00    -0.077 A 
ATOM      3  C2  UNL d   1       3.758   3.834   5.175  0.00  0.00    -0.001 A 
ATOM      4  C3  UNL d   1       4.904   4.298   5.822  0.00  0.00     0.003 A 
ATOM      5  C4  UNL d   1       5.999   3.454   5.998  0.00  0.00    -0.005 A 
ATOM      6  C5  UNL d   1       5.948   2.144   5.525  0.00  0.00     0.003 A 
ATOM      7  C6  UNL d   1       4.803   1.678   4.878  0.00  0.00    -0.001 A 
ENDROOT
TORSDOF 0
ENDMDL
