MODEL 1
REMARK minimizedAffinity 3.0433023
REMARK minimizedRMSD -1
REMARK  0 active torsions:
REMARK  status: ('A' for Active; 'I' for Inactive)
ROOT
ATOM      1  C   UNL d   1       5.949  -0.898  -5.897  0.00  0.00     0.078 C 
ATOM      2  C1  UNL d   1       5.955   0.417  -5.177  0.00  0.00    -0.077 A 
ATOM      3  C2  UNL d   1       5.964   1.626  -5.883  0.00  0.00    -0.001 A 
ATOM      4  C3  UNL d   1       5.979   2.843  -5.199  0.00  0.00     0.003 A 
ATOM      5  C4  UNL d   1       5.987   2.862  -3.805  0.00  0.00    -0.005 A 
ATOM      6  C5  UNL d   1       5.979   1.664  -3.094  0.00  0.00     0.003 A 
ATOM      7  C6  UNL d   1       5.964   0.446  -3.776  0.00  0.00    -0.001 A 
ENDROOT
TORSDOF 0
ENDMDL
