MODEL 1
REMARK minimizedAffinity 1.47702944
REMARK minimizedRMSD -1
REMARK  0 active torsions:
REMARK  status: ('A' for Active; 'I' for Inactive)
ROOT
ATOM      1  C   UNL d   1      -0.861   1.239   1.168  0.00  0.00     0.078 C 
ATOM      2  C1  UNL d   1      -1.844   0.393   1.921  0.00  0.00    -0.077 A 
ATOM      3  C2  UNL d   1      -3.055   0.928   2.376  0.00  0.00    -0.001 A 
ATOM      4  C3  UNL d   1      -3.956   0.131   3.084  0.00  0.00     0.003 A 
ATOM      5  C4  UNL d   1      -3.655  -1.204   3.344  0.00  0.00    -0.005 A 
ATOM      6  C5  UNL d   1      -2.451  -1.745   2.897  0.00  0.00     0.003 A 
ATOM      7  C6  UNL d   1      -1.549  -0.949   2.189  0.00  0.00    -0.001 A 
ENDROOT
TORSDOF 0
ENDMDL
