MODEL 1
REMARK minimizedAffinity 4.92187262
REMARK minimizedRMSD -1
REMARK  0 active torsions:
REMARK  status: ('A' for Active; 'I' for Inactive)
ROOT
ATOM      1  C   UNL d   1       4.711   1.732  -5.924  0.00  0.00     0.078 C 
ATOM      2  C1  UNL d   1       4.523   3.220  -5.936  0.00  0.00    -0.077 A 
ATOM      3  C2  UNL d   1       5.622   4.086  -5.999  0.00  0.00    -0.001 A 
ATOM      4  C3  UNL d   1       5.432   5.468  -5.999  0.00  0.00     0.003 A 
ATOM      5  C4  UNL d   1       4.145   5.998  -5.935  0.00  0.00    -0.005 A 
ATOM      6  C5  UNL d   1       3.045   5.144  -5.869  0.00  0.00     0.003 A 
ATOM      7  C6  UNL d   1       3.233   3.761  -5.869  0.00  0.00    -0.001 A 
ENDROOT
TORSDOF 0
ENDMDL
