MODEL 1
REMARK minimizedAffinity -0.497280091
REMARK minimizedRMSD -1
REMARK  0 active torsions:
REMARK  status: ('A' for Active; 'I' for Inactive)
ROOT
ATOM      1  C   UNL d   1      -2.147  -0.148   2.038  0.00  0.00     0.078 C 
ATOM      2  C1  UNL d   1      -0.928   0.713   1.888  0.00  0.00    -0.077 A 
ATOM      3  C2  UNL d   1      -0.617   1.695   2.836  0.00  0.00    -0.001 A 
ATOM      4  C3  UNL d   1       0.515   2.495   2.678  0.00  0.00     0.003 A 
ATOM      5  C4  UNL d   1       1.346   2.322   1.572  0.00  0.00    -0.005 A 
ATOM      6  C5  UNL d   1       1.044   1.349   0.623  0.00  0.00     0.003 A 
ATOM      7  C6  UNL d   1      -0.089   0.548   0.779  0.00  0.00    -0.001 A 
ENDROOT
TORSDOF 0
ENDMDL
