MODEL 1
REMARK minimizedAffinity -0.538117886
REMARK minimizedRMSD -1
REMARK  0 active torsions:
REMARK  status: ('A' for Active; 'I' for Inactive)
ROOT
ATOM      1  C   UNL d   1       0.097  -3.194  -3.324  0.00  0.00     0.078 C 
ATOM      2  C1  UNL d   1      -0.965  -3.338  -2.275  0.00  0.00    -0.077 A 
ATOM      3  C2  UNL d   1      -1.013  -2.475  -1.173  0.00  0.00    -0.001 A 
ATOM      4  C3  UNL d   1      -2.002  -2.628  -0.200  0.00  0.00     0.003 A 
ATOM      5  C4  UNL d   1      -2.949  -3.643  -0.317  0.00  0.00    -0.005 A 
ATOM      6  C5  UNL d   1      -2.908  -4.508  -1.409  0.00  0.00     0.003 A 
ATOM      7  C6  UNL d   1      -1.920  -4.357  -2.383  0.00  0.00    -0.001 A 
ENDROOT
TORSDOF 0
ENDMDL
