MODEL 1
REMARK minimizedAffinity 0.384851396
REMARK minimizedRMSD -1
REMARK  0 active torsions:
REMARK  status: ('A' for Active; 'I' for Inactive)
ROOT
ATOM      1  C   UNL d   1      -5.989   5.990  -5.970  0.00  0.00     0.078 C 
ATOM      2  C1  UNL d   1      -4.780   5.441  -5.273  0.00  0.00    -0.077 A 
ATOM      3  C2  UNL d   1      -3.681   4.968  -6.000  0.00  0.00    -0.001 A 
ATOM      4  C3  UNL d   1      -2.566   4.451  -5.338  0.00  0.00     0.003 A 
ATOM      5  C4  UNL d   1      -2.540   4.401  -3.945  0.00  0.00    -0.005 A 
ATOM      6  C5  UNL d   1      -3.630   4.867  -3.213  0.00  0.00     0.003 A 
ATOM      7  C6  UNL d   1      -4.746   5.385  -3.874  0.00  0.00    -0.001 A 
ENDROOT
TORSDOF 0
ENDMDL
