MODEL 1
REMARK minimizedAffinity 1.89924514
REMARK minimizedRMSD -1
REMARK  0 active torsions:
REMARK  status: ('A' for Active; 'I' for Inactive)
ROOT
ATOM      1  C   UNL d   1       3.526  -2.449  -0.165  0.00  0.00     0.078 C 
ATOM      2  C1  UNL d   1       2.618  -2.779  -1.313  0.00  0.00    -0.077 A 
ATOM      3  C2  UNL d   1       1.400  -2.109  -1.484  0.00  0.00    -0.001 A 
ATOM      4  C3  UNL d   1       0.561  -2.433  -2.551  0.00  0.00     0.003 A 
ATOM      5  C4  UNL d   1       0.929  -3.428  -3.454  0.00  0.00    -0.005 A 
ATOM      6  C5  UNL d   1       2.138  -4.102  -3.290  0.00  0.00     0.003 A 
ATOM      7  C6  UNL d   1       2.978  -3.779  -2.224  0.00  0.00    -0.001 A 
ENDROOT
TORSDOF 0
ENDMDL
