MODEL 1
REMARK minimizedAffinity 2.96779132
REMARK minimizedRMSD -1
REMARK  0 active torsions:
REMARK  status: ('A' for Active; 'I' for Inactive)
ROOT
ATOM      1  C   UNL d   1      -2.893   0.831   1.270  0.00  0.00     0.078 C 
ATOM      2  C1  UNL d   1      -3.456  -0.262   2.128  0.00  0.00    -0.077 A 
ATOM      3  C2  UNL d   1      -4.726  -0.144   2.707  0.00  0.00    -0.001 A 
ATOM      4  C3  UNL d   1      -5.233  -1.165   3.512  0.00  0.00     0.003 A 
ATOM      5  C4  UNL d   1      -4.476  -2.312   3.747  0.00  0.00    -0.005 A 
ATOM      6  C5  UNL d   1      -3.211  -2.437   3.178  0.00  0.00     0.003 A 
ATOM      7  C6  UNL d   1      -2.702  -1.417   2.372  0.00  0.00    -0.001 A 
ENDROOT
TORSDOF 0
ENDMDL
