MODEL 1
REMARK minimizedAffinity 5.67385483
REMARK minimizedRMSD -1
REMARK  0 active torsions:
REMARK  status: ('A' for Active; 'I' for Inactive)
ROOT
ATOM      1  C   UNL d   1       2.761   2.669   3.760  0.00  0.00     0.078 C 
ATOM      2  C1  UNL d   1       3.827   3.372   4.546  0.00  0.00    -0.077 A 
ATOM      3  C2  UNL d   1       3.683   4.715   4.916  0.00  0.00    -0.001 A 
ATOM      4  C3  UNL d   1       4.688   5.359   5.640  0.00  0.00     0.003 A 
ATOM      5  C4  UNL d   1       5.845   4.669   5.999  0.00  0.00    -0.005 A 
ATOM      6  C5  UNL d   1       5.998   3.334   5.633  0.00  0.00     0.003 A 
ATOM      7  C6  UNL d   1       4.994   2.688   4.909  0.00  0.00    -0.001 A 
ENDROOT
TORSDOF 0
ENDMDL
