MODEL 1
REMARK minimizedAffinity 4.47826338
REMARK minimizedRMSD -1
REMARK  0 active torsions:
REMARK  status: ('A' for Active; 'I' for Inactive)
ROOT
ATOM      1  C   UNL d   1       4.887   4.692   1.738  0.00  0.00     0.078 C 
ATOM      2  C1  UNL d   1       4.809   4.873   3.225  0.00  0.00    -0.077 A 
ATOM      3  C2  UNL d   1       3.914   4.121   3.997  0.00  0.00    -0.001 A 
ATOM      4  C3  UNL d   1       3.845   4.307   5.378  0.00  0.00     0.003 A 
ATOM      5  C4  UNL d   1       4.667   5.245   6.000  0.00  0.00    -0.005 A 
ATOM      6  C5  UNL d   1       5.558   6.000   5.240  0.00  0.00     0.003 A 
ATOM      7  C6  UNL d   1       5.629   5.815   3.858  0.00  0.00    -0.001 A 
ENDROOT
TORSDOF 0
ENDMDL
