MODEL 1
REMARK minimizedAffinity 5.48921728
REMARK minimizedRMSD -1
REMARK  0 active torsions:
REMARK  status: ('A' for Active; 'I' for Inactive)
ROOT
ATOM      1  C   UNL d   1       3.011   2.998   3.382  0.00  0.00     0.078 C 
ATOM      2  C1  UNL d   1       4.018   3.626   4.299  0.00  0.00    -0.077 A 
ATOM      3  C2  UNL d   1       3.952   4.988   4.619  0.00  0.00    -0.001 A 
ATOM      4  C3  UNL d   1       4.901   5.561   5.466  0.00  0.00     0.003 A 
ATOM      5  C4  UNL d   1       5.924   4.780   6.000  0.00  0.00    -0.005 A 
ATOM      6  C5  UNL d   1       6.000   3.425   5.686  0.00  0.00     0.003 A 
ATOM      7  C6  UNL d   1       5.051   2.850   4.839  0.00  0.00    -0.001 A 
ENDROOT
TORSDOF 0
ENDMDL
