MODEL 1
REMARK minimizedAffinity 9.24184227
REMARK minimizedRMSD -1
REMARK  0 active torsions:
REMARK  status: ('A' for Active; 'I' for Inactive)
ROOT
ATOM      1  C   UNL d   1       2.617   2.999   3.674  0.00  0.00     0.078 C 
ATOM      2  C1  UNL d   1       3.712   3.613   4.493  0.00  0.00    -0.077 A 
ATOM      3  C2  UNL d   1       3.506   4.807   5.194  0.00  0.00    -0.001 A 
ATOM      4  C3  UNL d   1       4.538   5.373   5.945  0.00  0.00     0.003 A 
ATOM      5  C4  UNL d   1       5.784   4.752   6.000  0.00  0.00    -0.005 A 
ATOM      6  C5  UNL d   1       6.000   3.565   5.303  0.00  0.00     0.003 A 
ATOM      7  C6  UNL d   1       4.969   2.998   4.553  0.00  0.00    -0.001 A 
ENDROOT
TORSDOF 0
ENDMDL
