MODEL 1
REMARK minimizedAffinity -1.50603807
REMARK minimizedRMSD -1
REMARK  0 active torsions:
REMARK  status: ('A' for Active; 'I' for Inactive)
ROOT
ATOM      1  C   UNL d   1       2.386   3.030  -4.846  0.00  0.00     0.078 C 
ATOM      2  C1  UNL d   1       3.635   3.760  -5.240  0.00  0.00    -0.077 A 
ATOM      3  C2  UNL d   1       3.675   5.159  -5.263  0.00  0.00    -0.001 A 
ATOM      4  C3  UNL d   1       4.842   5.826  -5.641  0.00  0.00     0.003 A 
ATOM      5  C4  UNL d   1       5.977   5.101  -5.999  0.00  0.00    -0.005 A 
ATOM      6  C5  UNL d   1       5.946   3.708  -5.982  0.00  0.00     0.003 A 
ATOM      7  C6  UNL d   1       4.780   3.040  -5.604  0.00  0.00    -0.001 A 
ENDROOT
TORSDOF 0
ENDMDL
