MODEL 1
REMARK minimizedAffinity 2.20509291
REMARK minimizedRMSD -1
REMARK  0 active torsions:
REMARK  status: ('A' for Active; 'I' for Inactive)
ROOT
ATOM      1  C   UNL d   1       1.436   3.401  -5.993  0.00  0.00     0.078 C 
ATOM      2  C1  UNL d   1       2.847   2.894  -5.999  0.00  0.00    -0.077 A 
ATOM      3  C2  UNL d   1       3.121   1.520  -5.992  0.00  0.00    -0.001 A 
ATOM      4  C3  UNL d   1       4.439   1.063  -5.988  0.00  0.00     0.003 A 
ATOM      5  C4  UNL d   1       5.495   1.972  -5.990  0.00  0.00    -0.005 A 
ATOM      6  C5  UNL d   1       5.233   3.341  -5.996  0.00  0.00     0.003 A 
ATOM      7  C6  UNL d   1       3.915   3.800  -6.000  0.00  0.00    -0.001 A 
ENDROOT
TORSDOF 0
ENDMDL
