MODEL 1
REMARK minimizedAffinity 47.8193092
REMARK minimizedRMSD -1
REMARK  0 active torsions:
REMARK  status: ('A' for Active; 'I' for Inactive)
ROOT
ATOM      1  C1  BNZ d   1       5.031  -4.993  -1.754  0.00  0.00     0.000 A 
ATOM      2  C2  BNZ d   1       4.835  -3.977  -2.651  0.00  0.00     0.000 A 
ATOM      3  C3  BNZ d   1       3.726  -3.952  -3.450  0.00  0.00     0.000 A 
ATOM      4  C4  BNZ d   1       2.835  -4.962  -3.379  0.00  0.00     0.000 A 
ATOM      5  C5  BNZ d   1       3.023  -5.999  -2.486  0.00  0.00     0.000 A 
ATOM      6  C6  BNZ d   1       4.121  -6.000  -1.656  0.00  0.00     0.000 A 
ENDROOT
TORSDOF 0
ENDMDL
