MODEL 1
REMARK minimizedAffinity -2.10944271
REMARK minimizedRMSD -1
REMARK  0 active torsions:
REMARK  status: ('A' for Active; 'I' for Inactive)
ROOT
ATOM      1  C1  BNZ d   1       3.729  -2.513  -2.538  0.00  0.00     0.000 A 
ATOM      2  C2  BNZ d   1       4.423  -2.871  -1.413  0.00  0.00     0.000 A 
ATOM      3  C3  BNZ d   1       4.853  -4.156  -1.235  0.00  0.00     0.000 A 
ATOM      4  C4  BNZ d   1       4.555  -5.089  -2.162  0.00  0.00     0.000 A 
ATOM      5  C5  BNZ d   1       3.848  -4.746  -3.297  0.00  0.00     0.000 A 
ATOM      6  C6  BNZ d   1       3.450  -3.443  -3.491  0.00  0.00     0.000 A 
ENDROOT
TORSDOF 0
ENDMDL
