MODEL 1
REMARK minimizedAffinity -1.7737937
REMARK minimizedRMSD -1
REMARK  0 active torsions:
REMARK  status: ('A' for Active; 'I' for Inactive)
ROOT
ATOM      1  C1  BNZ d   1       4.245  -5.219  -1.518  0.00  0.00     0.000 A 
ATOM      2  C2  BNZ d   1       4.512  -4.269  -0.569  0.00  0.00     0.000 A 
ATOM      3  C3  BNZ d   1       4.621  -2.950  -0.910  0.00  0.00     0.000 A 
ATOM      4  C4  BNZ d   1       4.502  -2.588  -2.204  0.00  0.00     0.000 A 
ATOM      5  C5  BNZ d   1       4.242  -3.535  -3.174  0.00  0.00     0.000 A 
ATOM      6  C6  BNZ d   1       4.095  -4.857  -2.821  0.00  0.00     0.000 A 
ENDROOT
TORSDOF 0
ENDMDL
