MODEL 1
REMARK minimizedAffinity 3.22836208
REMARK minimizedRMSD -1
REMARK  0 active torsions:
REMARK  status: ('A' for Active; 'I' for Inactive)
ROOT
ATOM      1  C1  BNZ d   1       2.977  -2.597  -0.419  0.00  0.00     0.000 A 
ATOM      2  C2  BNZ d   1       4.001  -1.968  -1.074  0.00  0.00     0.000 A 
ATOM      3  C3  BNZ d   1       5.138  -2.647  -1.412  0.00  0.00     0.000 A 
ATOM      4  C4  BNZ d   1       5.266  -3.943  -1.060  0.00  0.00     0.000 A 
ATOM      5  C5  BNZ d   1       4.246  -4.589  -0.391  0.00  0.00     0.000 A 
ATOM      6  C6  BNZ d   1       3.087  -3.912  -0.087  0.00  0.00     0.000 A 
ENDROOT
TORSDOF 0
ENDMDL
