MODEL 1
REMARK minimizedAffinity 0.0326051004
REMARK minimizedRMSD -1
REMARK  0 active torsions:
REMARK  status: ('A' for Active; 'I' for Inactive)
ROOT
ATOM      1  C1  BNZ d   1       4.902  -4.554  -1.334  0.00  0.00     0.000 A 
ATOM      2  C2  BNZ d   1       5.536  -5.527  -2.059  0.00  0.00     0.000 A 
ATOM      3  C3  BNZ d   1       5.081  -5.886  -3.297  0.00  0.00     0.000 A 
ATOM      4  C4  BNZ d   1       3.971  -5.300  -3.790  0.00  0.00     0.000 A 
ATOM      5  C5  BNZ d   1       3.315  -4.324  -3.067  0.00  0.00     0.000 A 
ATOM      6  C6  BNZ d   1       3.799  -3.939  -1.838  0.00  0.00     0.000 A 
ENDROOT
TORSDOF 0
ENDMDL
