MODEL 1
REMARK minimizedAffinity 2.25862813
REMARK minimizedRMSD -1
REMARK  0 active torsions:
REMARK  status: ('A' for Active; 'I' for Inactive)
ROOT
ATOM      1  C1  BNZ d   1      -1.838   1.180  -1.492  0.00  0.00     0.000 A 
ATOM      2  C2  BNZ d   1      -0.789   1.957  -1.077  0.00  0.00     0.000 A 
ATOM      3  C3  BNZ d   1      -0.739   3.288  -1.384  0.00  0.00     0.000 A 
ATOM      4  C4  BNZ d   1      -1.715   3.831  -2.140  0.00  0.00     0.000 A 
ATOM      5  C5  BNZ d   1      -2.774   3.059  -2.574  0.00  0.00     0.000 A 
ATOM      6  C6  BNZ d   1      -2.841   1.728  -2.230  0.00  0.00     0.000 A 
ENDROOT
TORSDOF 0
ENDMDL
