MODEL 1
REMARK minimizedAffinity -4.46533489
REMARK minimizedRMSD -1
REMARK  0 active torsions:
REMARK  status: ('A' for Active; 'I' for Inactive)
ROOT
ATOM      1  C1  BNZ d   1       4.472  -4.743  -1.829  0.00  0.00     0.000 A 
ATOM      2  C2  BNZ d   1       4.876  -3.963  -0.778  0.00  0.00     0.000 A 
ATOM      3  C3  BNZ d   1       4.563  -2.633  -0.733  0.00  0.00     0.000 A 
ATOM      4  C4  BNZ d   1       3.881  -2.077  -1.755  0.00  0.00     0.000 A 
ATOM      5  C5  BNZ d   1       3.475  -2.849  -2.826  0.00  0.00     0.000 A 
ATOM      6  C6  BNZ d   1       3.758  -4.195  -2.850  0.00  0.00     0.000 A 
ENDROOT
TORSDOF 0
ENDMDL
