MODEL 1
REMARK minimizedAffinity 0.496493697
REMARK minimizedRMSD -1
REMARK  0 active torsions:
REMARK  status: ('A' for Active; 'I' for Inactive)
ROOT
ATOM      1  C1  BNZ d   1       4.013  -5.078  -2.636  0.00  0.00     0.000 A 
ATOM      2  C2  BNZ d   1       3.859  -3.717  -2.612  0.00  0.00     0.000 A 
ATOM      3  C3  BNZ d   1       4.520  -2.954  -1.691  0.00  0.00     0.000 A 
ATOM      4  C4  BNZ d   1       5.301  -3.554  -0.771  0.00  0.00     0.000 A 
ATOM      5  C5  BNZ d   1       5.459  -4.925  -0.775  0.00  0.00     0.000 A 
ATOM      6  C6  BNZ d   1       4.823  -5.687  -1.728  0.00  0.00     0.000 A 
ENDROOT
TORSDOF 0
ENDMDL
