MODEL 1
REMARK minimizedAffinity -2.59308767
REMARK minimizedRMSD -1
REMARK  0 active torsions:
REMARK  status: ('A' for Active; 'I' for Inactive)
ROOT
ATOM      1  C1  BNZ d   1       5.458  -3.736  -0.586  0.00  0.00     0.000 A 
ATOM      2  C2  BNZ d   1       5.035  -2.602   0.055  0.00  0.00     0.000 A 
ATOM      3  C3  BNZ d   1       4.032  -1.836  -0.468  0.00  0.00     0.000 A 
ATOM      4  C4  BNZ d   1       3.480  -2.181  -1.649  0.00  0.00     0.000 A 
ATOM      5  C5  BNZ d   1       3.902  -3.316  -2.312  0.00  0.00     0.000 A 
ATOM      6  C6  BNZ d   1       4.885  -4.107  -1.764  0.00  0.00     0.000 A 
ENDROOT
TORSDOF 0
ENDMDL
