MODEL 1
REMARK minimizedAffinity -3.32159781
REMARK minimizedRMSD -1
REMARK  0 active torsions:
REMARK  status: ('A' for Active; 'I' for Inactive)
ROOT
ATOM      1  O1  BZF d   1       1.409   0.417  -0.255  0.00  0.00    -0.204 OA
ATOM      2  C2  BZF d   1       0.059   0.129  -0.309  0.00  0.00     0.174 A 
ATOM      3  C3  BZF d   1      -0.676   1.222  -0.020  0.00  0.00    -0.012 A 
ATOM      4  C3A BZF d   1       0.272   2.281   0.140  0.00  0.00    -0.107 A 
ATOM      5  C4  BZF d   1       0.154   3.612   0.422  0.00  0.00     0.055 A 
ATOM      6  C5  BZF d   1       1.280   4.356   0.583  0.00  0.00    -0.016 A 
ATOM      7  C6  BZF d   1       2.539   3.800   0.475  0.00  0.00     0.022 A 
ATOM      8  C7  BZF d   1       2.706   2.486   0.192  0.00  0.00     0.029 A 
ATOM      9  C7A BZF d   1       1.570   1.739  -0.004  0.00  0.00     0.058 A 
ENDROOT
TORSDOF 0
ENDMDL
