MODEL 1
REMARK minimizedAffinity 3.14639306
REMARK minimizedRMSD -1
REMARK  0 active torsions:
REMARK  status: ('A' for Active; 'I' for Inactive)
ROOT
ATOM      1  O1  BZF d   1      -2.255   0.280  -0.304  0.00  0.00    -0.204 OA
ATOM      2  C2  BZF d   1      -0.931   0.366   0.079  0.00  0.00     0.174 A 
ATOM      3  C3  BZF d   1      -0.158   0.755  -0.955  0.00  0.00    -0.012 A 
ATOM      4  C3A BZF d   1      -1.068   1.013  -2.029  0.00  0.00    -0.107 A 
ATOM      5  C4  BZF d   1      -0.905   1.444  -3.314  0.00  0.00     0.055 A 
ATOM      6  C5  BZF d   1      -1.991   1.522  -4.127  0.00  0.00    -0.016 A 
ATOM      7  C6  BZF d   1      -3.252   1.171  -3.690  0.00  0.00     0.022 A 
ATOM      8  C7  BZF d   1      -3.464   0.743  -2.422  0.00  0.00     0.029 A 
ATOM      9  C7A BZF d   1      -2.373   0.695  -1.588  0.00  0.00     0.058 A 
ENDROOT
TORSDOF 0
ENDMDL
