MODEL 1
REMARK minimizedAffinity -0.308097959
REMARK minimizedRMSD -1
REMARK  0 active torsions:
REMARK  status: ('A' for Active; 'I' for Inactive)
ROOT
ATOM      1  O1  BZF d   1       2.529  -0.340   0.628  0.00  0.00    -0.204 OA
ATOM      2  C2  BZF d   1       3.061  -1.328   1.434  0.00  0.00     0.174 A 
ATOM      3  C3  BZF d   1       2.086  -2.123   1.923  0.00  0.00    -0.012 A 
ATOM      4  C3A BZF d   1       0.879  -1.654   1.315  0.00  0.00    -0.107 A 
ATOM      5  C4  BZF d   1      -0.426  -2.050   1.392  0.00  0.00     0.055 A 
ATOM      6  C5  BZF d   1      -1.373  -1.336   0.730  0.00  0.00    -0.016 A 
ATOM      7  C6  BZF d   1      -1.053  -0.219  -0.013  0.00  0.00     0.022 A 
ATOM      8  C7  BZF d   1       0.228   0.210  -0.124  0.00  0.00     0.029 A 
ATOM      9  C7A BZF d   1       1.192  -0.530   0.517  0.00  0.00     0.058 A 
ENDROOT
TORSDOF 0
ENDMDL
