MODEL 1
REMARK minimizedAffinity -5.05233908
REMARK minimizedRMSD -1
REMARK  0 active torsions:
REMARK  status: ('A' for Active; 'I' for Inactive)
ROOT
ATOM      1  O1  BZF d   1       0.352   3.944   0.515  0.00  0.00    -0.204 OA
ATOM      2  C2  BZF d   1       1.684   4.297   0.616  0.00  0.00     0.174 A 
ATOM      3  C3  BZF d   1       2.478   3.223   0.432  0.00  0.00    -0.012 A 
ATOM      4  C3A BZF d   1       1.590   2.149   0.110  0.00  0.00    -0.107 A 
ATOM      5  C4  BZF d   1       1.781   0.831  -0.195  0.00  0.00     0.055 A 
ATOM      6  C5  BZF d   1       0.698   0.033  -0.387  0.00  0.00    -0.016 A 
ATOM      7  C6  BZF d   1      -0.589   0.518  -0.277  0.00  0.00     0.022 A 
ATOM      8  C7  BZF d   1      -0.829   1.818   0.019  0.00  0.00     0.029 A 
ATOM      9  C7A BZF d   1       0.264   2.635   0.181  0.00  0.00     0.058 A 
ENDROOT
TORSDOF 0
ENDMDL
