MODEL 1
REMARK minimizedAffinity -4.26622343
REMARK minimizedRMSD -1
REMARK  0 active torsions:
REMARK  status: ('A' for Active; 'I' for Inactive)
ROOT
ATOM      1  O1  BZF d   1      -0.165   2.204  -0.329  0.00  0.00    -0.204 OA
ATOM      2  C2  BZF d   1      -0.834   1.020  -0.089  0.00  0.00     0.174 A 
ATOM      3  C3  BZF d   1      -1.527   0.633  -1.179  0.00  0.00    -0.012 A 
ATOM      4  C3A BZF d   1      -1.202   1.590  -2.191  0.00  0.00    -0.107 A 
ATOM      5  C4  BZF d   1      -1.566   1.734  -3.500  0.00  0.00     0.055 A 
ATOM      6  C5  BZF d   1      -1.130   2.819  -4.191  0.00  0.00    -0.016 A 
ATOM      7  C6  BZF d   1      -0.333   3.781  -3.606  0.00  0.00     0.022 A 
ATOM      8  C7  BZF d   1       0.059   3.679  -2.313  0.00  0.00     0.029 A 
ATOM      9  C7A BZF d   1      -0.353   2.567  -1.620  0.00  0.00     0.058 A 
ENDROOT
TORSDOF 0
ENDMDL
