MODEL 1
REMARK minimizedAffinity -2.41871691
REMARK minimizedRMSD -1
REMARK  0 active torsions:
REMARK  status: ('A' for Active; 'I' for Inactive)
ROOT
ATOM      1  O1  BZF d   1      -1.104   3.240  -2.038  0.00  0.00    -0.204 OA
ATOM      2  C2  BZF d   1      -0.956   2.727  -0.764  0.00  0.00     0.174 A 
ATOM      3  C3  BZF d   1      -1.533   1.511  -0.667  0.00  0.00    -0.012 A 
ATOM      4  C3A BZF d   1      -1.994   1.208  -1.987  0.00  0.00    -0.107 A 
ATOM      5  C4  BZF d   1      -2.636   0.134  -2.534  0.00  0.00     0.055 A 
ATOM      6  C5  BZF d   1      -3.011   0.182  -3.839  0.00  0.00    -0.016 A 
ATOM      7  C6  BZF d   1      -2.765   1.289  -4.625  0.00  0.00     0.022 A 
ATOM      8  C7  BZF d   1      -2.127   2.377  -4.128  0.00  0.00     0.029 A 
ATOM      9  C7A BZF d   1      -1.717   2.318  -2.819  0.00  0.00     0.058 A 
ENDROOT
TORSDOF 0
ENDMDL
