MODEL 1
REMARK minimizedAffinity -5.40385342
REMARK minimizedRMSD -1
REMARK  0 active torsions:
REMARK  status: ('A' for Active; 'I' for Inactive)
ROOT
ATOM      1  O1  BZF d   1      -1.133   1.494  -0.569  0.00  0.00    -0.204 OA
ATOM      2  C2  BZF d   1      -1.176   0.194  -1.035  0.00  0.00     0.174 A 
ATOM      3  C3  BZF d   1       0.064  -0.333  -1.096  0.00  0.00    -0.012 A 
ATOM      4  C3A BZF d   1       0.927   0.671  -0.552  0.00  0.00    -0.107 A 
ATOM      5  C4  BZF d   1       2.273   0.732  -0.331  0.00  0.00     0.055 A 
ATOM      6  C5  BZF d   1       2.812   1.885   0.147  0.00  0.00    -0.016 A 
ATOM      7  C6  BZF d   1       2.036   2.995   0.409  0.00  0.00     0.022 A 
ATOM      8  C7  BZF d   1       0.696   2.980   0.210  0.00  0.00     0.029 A 
ATOM      9  C7A BZF d   1       0.144   1.806  -0.241  0.00  0.00     0.058 A 
ENDROOT
TORSDOF 0
ENDMDL
