MODEL 1
REMARK minimizedAffinity -2.91122293
REMARK minimizedRMSD -1
REMARK  0 active torsions:
REMARK  status: ('A' for Active; 'I' for Inactive)
ROOT
ATOM      1  O1  BZF d   1      -0.930  -0.120  -2.742  0.00  0.00    -0.204 OA
ATOM      2  C2  BZF d   1      -1.608   1.065  -2.952  0.00  0.00     0.174 A 
ATOM      3  C3  BZF d   1      -1.991   1.611  -1.780  0.00  0.00    -0.012 A 
ATOM      4  C3A BZF d   1      -1.443   0.758  -0.770  0.00  0.00    -0.107 A 
ATOM      5  C4  BZF d   1      -1.466   0.785   0.595  0.00  0.00     0.055 A 
ATOM      6  C5  BZF d   1      -0.895  -0.237   1.285  0.00  0.00    -0.016 A 
ATOM      7  C6  BZF d   1      -0.298  -1.302   0.643  0.00  0.00     0.022 A 
ATOM      8  C7  BZF d   1      -0.245  -1.370  -0.710  0.00  0.00     0.029 A 
ATOM      9  C7A BZF d   1      -0.792  -0.322  -1.409  0.00  0.00     0.058 A 
ENDROOT
TORSDOF 0
ENDMDL
