MODEL 1
REMARK minimizedAffinity -4.11580229
REMARK minimizedRMSD -1
REMARK  0 active torsions:
REMARK  status: ('A' for Active; 'I' for Inactive)
ROOT
ATOM      1  O1  BZF d   1       2.809   2.349   0.219  0.00  0.00    -0.204 OA
ATOM      2  C2  BZF d   1       2.238   3.599   0.354  0.00  0.00     0.174 A 
ATOM      3  C3  BZF d   1       0.903   3.537   0.176  0.00  0.00    -0.012 A 
ATOM      4  C3A BZF d   1       0.611   2.147   0.004  0.00  0.00    -0.107 A 
ATOM      5  C4  BZF d   1      -0.545   1.449  -0.198  0.00  0.00     0.055 A 
ATOM      6  C5  BZF d   1      -0.480   0.106  -0.400  0.00  0.00    -0.016 A 
ATOM      7  C6  BZF d   1       0.724  -0.568  -0.411  0.00  0.00     0.022 A 
ATOM      8  C7  BZF d   1       1.897   0.081  -0.210  0.00  0.00     0.029 A 
ATOM      9  C7A BZF d   1       1.831   1.432   0.027  0.00  0.00     0.058 A 
ENDROOT
TORSDOF 0
ENDMDL
