MODEL 1
REMARK minimizedAffinity -2.09555531
REMARK minimizedRMSD -1
REMARK  0 active torsions:
REMARK  status: ('A' for Active; 'I' for Inactive)
ROOT
ATOM      1  O1  BZF d   1      -0.581   1.010   0.066  0.00  0.00    -0.204 OA
ATOM      2  C2  BZF d   1       0.345   0.004  -0.134  0.00  0.00     0.174 A 
ATOM      3  C3  BZF d   1       0.120  -0.627  -1.305  0.00  0.00    -0.012 A 
ATOM      4  C3A BZF d   1      -0.960   0.085  -1.915  0.00  0.00    -0.107 A 
ATOM      5  C4  BZF d   1      -1.627  -0.053  -3.099  0.00  0.00     0.055 A 
ATOM      6  C5  BZF d   1      -2.682   0.761  -3.362  0.00  0.00    -0.016 A 
ATOM      7  C6  BZF d   1      -3.102   1.719  -2.463  0.00  0.00     0.022 A 
ATOM      8  C7  BZF d   1      -2.469   1.898  -1.278  0.00  0.00     0.029 A 
ATOM      9  C7A BZF d   1      -1.381   1.099  -1.023  0.00  0.00     0.058 A 
ENDROOT
TORSDOF 0
ENDMDL
