MODEL 1
REMARK minimizedAffinity 0.222922489
REMARK minimizedRMSD -1
REMARK  0 active torsions:
REMARK  status: ('A' for Active; 'I' for Inactive)
ROOT
ATOM      1  O1  BZF d   1      -2.096   0.246  -1.214  0.00  0.00    -0.204 OA
ATOM      2  C2  BZF d   1      -1.482   0.409  -2.441  0.00  0.00     0.174 A 
ATOM      3  C3  BZF d   1      -0.173   0.091  -2.367  0.00  0.00    -0.012 A 
ATOM      4  C3A BZF d   1       0.024  -0.382  -1.031  0.00  0.00    -0.107 A 
ATOM      5  C4  BZF d   1       1.110  -0.858  -0.354  0.00  0.00     0.055 A 
ATOM      6  C5  BZF d   1       0.985  -1.167   0.963  0.00  0.00    -0.016 A 
ATOM      7  C6  BZF d   1      -0.209  -1.007   1.636  0.00  0.00     0.022 A 
ATOM      8  C7  BZF d   1      -1.316  -0.543   1.006  0.00  0.00     0.029 A 
ATOM      9  C7A BZF d   1      -1.200  -0.261  -0.334  0.00  0.00     0.058 A 
ENDROOT
TORSDOF 0
ENDMDL
