MODEL 1
REMARK minimizedAffinity -1.94975197
REMARK minimizedRMSD -1
REMARK  0 active torsions:
REMARK  status: ('A' for Active; 'I' for Inactive)
ROOT
ATOM      1  O1  BZF d   1      -0.790   0.860   0.748  0.00  0.00    -0.204 OA
ATOM      2  C2  BZF d   1      -1.823   0.497   1.590  0.00  0.00     0.174 A 
ATOM      3  C3  BZF d   1      -1.695  -0.789   1.978  0.00  0.00    -0.012 A 
ATOM      4  C3A BZF d   1      -0.457  -1.231   1.412  0.00  0.00    -0.107 A 
ATOM      5  C4  BZF d   1       0.226  -2.412   1.455  0.00  0.00     0.055 A 
ATOM      6  C5  BZF d   1       1.370  -2.540   0.733  0.00  0.00    -0.016 A 
ATOM      7  C6  BZF d   1       1.857  -1.510  -0.045  0.00  0.00     0.022 A 
ATOM      8  C7  BZF d   1       1.217  -0.318  -0.115  0.00  0.00     0.029 A 
ATOM      9  C7A BZF d   1       0.078  -0.174   0.639  0.00  0.00     0.058 A 
ENDROOT
TORSDOF 0
ENDMDL
