MODEL 1
REMARK minimizedAffinity -4.22736835
REMARK minimizedRMSD -1
REMARK  0 active torsions:
REMARK  status: ('A' for Active; 'I' for Inactive)
ROOT
ATOM      1  O1  BZF d   1       0.069   1.106   0.033  0.00  0.00    -0.204 OA
ATOM      2  C2  BZF d   1      -1.179   0.876  -0.512  0.00  0.00     0.174 A 
ATOM      3  C3  BZF d   1      -1.356  -0.437  -0.763  0.00  0.00    -0.012 A 
ATOM      4  C3A BZF d   1      -0.179  -1.078  -0.264  0.00  0.00    -0.107 A 
ATOM      5  C4  BZF d   1       0.230  -2.380  -0.209  0.00  0.00     0.055 A 
ATOM      6  C5  BZF d   1       1.468  -2.664   0.275  0.00  0.00    -0.016 A 
ATOM      7  C6  BZF d   1       2.323  -1.671   0.708  0.00  0.00     0.022 A 
ATOM      8  C7  BZF d   1       1.960  -0.366   0.677  0.00  0.00     0.029 A 
ATOM      9  C7A BZF d   1       0.697  -0.079   0.219  0.00  0.00     0.058 A 
ENDROOT
TORSDOF 0
ENDMDL
