MODEL 1
REMARK minimizedAffinity -2.23373532
REMARK minimizedRMSD -1
REMARK  0 active torsions:
REMARK  status: ('A' for Active; 'I' for Inactive)
ROOT
ATOM      1  O1  BZF d   1      -1.783   0.881   0.428  0.00  0.00    -0.204 OA
ATOM      2  C2  BZF d   1      -1.121   1.307  -0.708  0.00  0.00     0.174 A 
ATOM      3  C3  BZF d   1      -0.044   0.534  -0.953  0.00  0.00    -0.012 A 
ATOM      4  C3A BZF d   1      -0.083  -0.493   0.043  0.00  0.00    -0.107 A 
ATOM      5  C4  BZF d   1       0.712  -1.570   0.313  0.00  0.00     0.055 A 
ATOM      6  C5  BZF d   1       0.440  -2.334   1.404  0.00  0.00    -0.016 A 
ATOM      7  C6  BZF d   1      -0.613  -2.048   2.247  0.00  0.00     0.022 A 
ATOM      8  C7  BZF d   1      -1.433  -0.993   2.017  0.00  0.00     0.029 A 
ATOM      9  C7A BZF d   1      -1.181  -0.238   0.898  0.00  0.00     0.058 A 
ENDROOT
TORSDOF 0
ENDMDL
