MODEL 1
REMARK minimizedAffinity -3.37791276
REMARK minimizedRMSD -1
REMARK  0 active torsions:
REMARK  status: ('A' for Active; 'I' for Inactive)
ROOT
ATOM      1  O1  BZF d   1       2.224  -2.527   0.798  0.00  0.00    -0.204 OA
ATOM      2  C2  BZF d   1       1.051  -3.234   0.981  0.00  0.00     0.174 A 
ATOM      3  C3  BZF d   1      -0.019  -2.473   0.670  0.00  0.00    -0.012 A 
ATOM      4  C3A BZF d   1       0.523  -1.243   0.181  0.00  0.00    -0.107 A 
ATOM      5  C4  BZF d   1      -0.039  -0.094  -0.297  0.00  0.00     0.055 A 
ATOM      6  C5  BZF d   1       0.768   0.950  -0.624  0.00  0.00    -0.016 A 
ATOM      7  C6  BZF d   1       2.138   0.881  -0.481  0.00  0.00     0.022 A 
ATOM      8  C7  BZF d   1       2.742  -0.240  -0.015  0.00  0.00     0.029 A 
ATOM      9  C7A BZF d   1       1.932  -1.308   0.285  0.00  0.00     0.058 A 
ENDROOT
TORSDOF 0
ENDMDL
