MODEL 1
REMARK minimizedAffinity -4.62174463
REMARK minimizedRMSD -1
REMARK  0 active torsions:
REMARK  status: ('A' for Active; 'I' for Inactive)
ROOT
ATOM      1  O1  BZF d   1      -0.214   1.314  -0.046  0.00  0.00    -0.204 OA
ATOM      2  C2  BZF d   1       0.190   0.022  -0.323  0.00  0.00     0.174 A 
ATOM      3  C3  BZF d   1       1.508  -0.018  -0.604  0.00  0.00    -0.012 A 
ATOM      4  C3A BZF d   1       1.976   1.320  -0.406  0.00  0.00    -0.107 A 
ATOM      5  C4  BZF d   1       3.202   1.912  -0.513  0.00  0.00     0.055 A 
ATOM      6  C5  BZF d   1       3.307   3.253  -0.322  0.00  0.00    -0.016 A 
ATOM      7  C6  BZF d   1       2.207   4.033  -0.028  0.00  0.00     0.022 A 
ATOM      8  C7  BZF d   1       0.971   3.490   0.093  0.00  0.00     0.029 A 
ATOM      9  C7A BZF d   1       0.867   2.130  -0.067  0.00  0.00     0.058 A 
ENDROOT
TORSDOF 0
ENDMDL
