MODEL 1
REMARK minimizedAffinity -3.94243002
REMARK minimizedRMSD -1
REMARK  0 active torsions:
REMARK  status: ('A' for Active; 'I' for Inactive)
ROOT
ATOM      1  O1  BZF d   1      -0.392   1.424   0.097  0.00  0.00    -0.204 OA
ATOM      2  C2  BZF d   1      -0.255   0.106  -0.293  0.00  0.00     0.174 A 
ATOM      3  C3  BZF d   1       0.987  -0.127  -0.765  0.00  0.00    -0.012 A 
ATOM      4  C3A BZF d   1       1.697   1.101  -0.577  0.00  0.00    -0.107 A 
ATOM      5  C4  BZF d   1       2.979   1.493  -0.836  0.00  0.00     0.055 A 
ATOM      6  C5  BZF d   1       3.335   2.784  -0.603  0.00  0.00    -0.016 A 
ATOM      7  C6  BZF d   1       2.434   3.709  -0.117  0.00  0.00     0.022 A 
ATOM      8  C7  BZF d   1       1.152   3.366   0.160  0.00  0.00     0.029 A 
ATOM      9  C7A BZF d   1       0.799   2.054  -0.044  0.00  0.00     0.058 A 
ENDROOT
TORSDOF 0
ENDMDL
