MODEL 1
REMARK minimizedAffinity -5.09608459
REMARK minimizedRMSD -1
REMARK  0 active torsions:
REMARK  status: ('A' for Active; 'I' for Inactive)
ROOT
ATOM      1  C1  BNZ d   1       2.321   2.380   0.266  0.00  0.00     0.000 A 
ATOM      2  C2  BNZ d   1       1.057   2.075  -0.164  0.00  0.00     0.000 A 
ATOM      3  C3  BNZ d   1       0.136   3.061  -0.387  0.00  0.00     0.000 A 
ATOM      4  C4  BNZ d   1       0.467   4.345  -0.141  0.00  0.00     0.000 A 
ATOM      5  C5  BNZ d   1       1.735   4.668   0.302  0.00  0.00     0.000 A 
ATOM      6  C6  BNZ d   1       2.671   3.676   0.488  0.00  0.00     0.000 A 
ENDROOT
TORSDOF 0
ENDMDL
