MODEL 1
REMARK minimizedAffinity -0.223277554
REMARK minimizedRMSD -1
REMARK  0 active torsions:
REMARK  status: ('A' for Active; 'I' for Inactive)
ROOT
ATOM      1  C1  BNZ d   1       1.352   1.992   2.320  0.00  0.00     0.000 A 
ATOM      2  C2  BNZ d   1       0.324   2.894   2.385  0.00  0.00     0.000 A 
ATOM      3  C3  BNZ d   1      -0.061   3.598   1.278  0.00  0.00     0.000 A 
ATOM      4  C4  BNZ d   1       0.608   3.428   0.119  0.00  0.00     0.000 A 
ATOM      5  C5  BNZ d   1       1.653   2.529   0.040  0.00  0.00     0.000 A 
ATOM      6  C6  BNZ d   1       2.012   1.794   1.147  0.00  0.00     0.000 A 
ENDROOT
TORSDOF 0
ENDMDL
