MODEL 1
REMARK minimizedAffinity 3.23643231
REMARK minimizedRMSD -1
REMARK  0 active torsions:
REMARK  status: ('A' for Active; 'I' for Inactive)
ROOT
ATOM      1  C1  BNZ d   1      -0.002   2.375   1.022  0.00  0.00     0.000 A 
ATOM      2  C2  BNZ d   1       0.952   3.063   0.320  0.00  0.00     0.000 A 
ATOM      3  C3  BNZ d   1       0.607   3.850  -0.743  0.00  0.00     0.000 A 
ATOM      4  C4  BNZ d   1      -0.684   3.917  -1.127  0.00  0.00     0.000 A 
ATOM      5  C5  BNZ d   1      -1.656   3.223  -0.435  0.00  0.00     0.000 A 
ATOM      6  C6  BNZ d   1      -1.311   2.462   0.659  0.00  0.00     0.000 A 
ENDROOT
TORSDOF 0
ENDMDL
