MODEL 1
REMARK minimizedAffinity 4.97947502
REMARK minimizedRMSD -1
REMARK  0 active torsions:
REMARK  status: ('A' for Active; 'I' for Inactive)
ROOT
ATOM      1  C1  BNZ d   1      -1.185   2.942   1.124  0.00  0.00     0.000 A 
ATOM      2  C2  BNZ d   1      -2.456   2.805   0.634  0.00  0.00     0.000 A 
ATOM      3  C3  BNZ d   1      -3.203   1.697   0.925  0.00  0.00     0.000 A 
ATOM      4  C4  BNZ d   1      -2.664   0.712   1.671  0.00  0.00     0.000 A 
ATOM      5  C5  BNZ d   1      -1.380   0.831   2.165  0.00  0.00     0.000 A 
ATOM      6  C6  BNZ d   1      -0.646   1.964   1.903  0.00  0.00     0.000 A 
ENDROOT
TORSDOF 0
ENDMDL
