MODEL 1
REMARK minimizedAffinity -0.0853816643
REMARK minimizedRMSD -1
REMARK  0 active torsions:
REMARK  status: ('A' for Active; 'I' for Inactive)
ROOT
ATOM      1  C1  BNZ d   1       0.052   3.359   0.754  0.00  0.00     0.000 A 
ATOM      2  C2  BNZ d   1      -1.158   3.603   0.160  0.00  0.00     0.000 A 
ATOM      3  C3  BNZ d   1      -2.124   2.637   0.120  0.00  0.00     0.000 A 
ATOM      4  C4  BNZ d   1      -1.866   1.419   0.638  0.00  0.00     0.000 A 
ATOM      5  C5  BNZ d   1      -0.648   1.155   1.231  0.00  0.00     0.000 A 
ATOM      6  C6  BNZ d   1       0.308   2.141   1.304  0.00  0.00     0.000 A 
ENDROOT
TORSDOF 0
ENDMDL
