MODEL 1
REMARK minimizedAffinity -1.27625608
REMARK minimizedRMSD -1
REMARK  0 active torsions:
REMARK  status: ('A' for Active; 'I' for Inactive)
ROOT
ATOM      1  C1  BNZ d   1      -0.657  -4.137   3.453  0.00  0.00     0.000 A 
ATOM      2  C2  BNZ d   1      -1.368  -5.307   3.441  0.00  0.00     0.000 A 
ATOM      3  C3  BNZ d   1      -2.043  -5.705   2.321  0.00  0.00     0.000 A 
ATOM      4  C4  BNZ d   1      -2.040  -4.913   1.229  0.00  0.00     0.000 A 
ATOM      5  C5  BNZ d   1      -1.336  -3.725   1.229  0.00  0.00     0.000 A 
ATOM      6  C6  BNZ d   1      -0.625  -3.348   2.345  0.00  0.00     0.000 A 
ENDROOT
TORSDOF 0
ENDMDL
