MODEL 1
REMARK minimizedAffinity -3.26577878
REMARK minimizedRMSD -1
REMARK  0 active torsions:
REMARK  status: ('A' for Active; 'I' for Inactive)
ROOT
ATOM      1  C1  BNZ d   1      -0.885   3.032   0.187  0.00  0.00     0.000 A 
ATOM      2  C2  BNZ d   1       0.441   3.373   0.142  0.00  0.00     0.000 A 
ATOM      3  C3  BNZ d   1       1.413   2.435   0.348  0.00  0.00     0.000 A 
ATOM      4  C4  BNZ d   1       1.059   1.166   0.639  0.00  0.00     0.000 A 
ATOM      5  C5  BNZ d   1      -0.274   0.808   0.698  0.00  0.00     0.000 A 
ATOM      6  C6  BNZ d   1      -1.249   1.747   0.451  0.00  0.00     0.000 A 
ENDROOT
TORSDOF 0
ENDMDL
