MODEL 1
REMARK minimizedAffinity 1.43579078
REMARK minimizedRMSD -1
REMARK  0 active torsions:
REMARK  status: ('A' for Active; 'I' for Inactive)
ROOT
ATOM      1  C1  BNZ d   1      -6.000   5.663  -1.572  0.00  0.00     0.000 A 
ATOM      2  C2  BNZ d   1      -5.986   4.960  -0.397  0.00  0.00     0.000 A 
ATOM      3  C3  BNZ d   1      -5.953   3.593  -0.400  0.00  0.00     0.000 A 
ATOM      4  C4  BNZ d   1      -5.975   2.931  -1.575  0.00  0.00     0.000 A 
ATOM      5  C5  BNZ d   1      -5.999   3.626  -2.768  0.00  0.00     0.000 A 
ATOM      6  C6  BNZ d   1      -5.992   5.002  -2.762  0.00  0.00     0.000 A 
ENDROOT
TORSDOF 0
ENDMDL
