MODEL 1
REMARK minimizedAffinity 0.450896531
REMARK minimizedRMSD -1
REMARK  0 active torsions:
REMARK  status: ('A' for Active; 'I' for Inactive)
ROOT
ATOM      1  C1  BNZ d   1       0.898   3.356   0.766  0.00  0.00     0.000 A 
ATOM      2  C2  BNZ d   1       2.251   3.359   0.978  0.00  0.00     0.000 A 
ATOM      3  C3  BNZ d   1       2.983   2.213   0.843  0.00  0.00     0.000 A 
ATOM      4  C4  BNZ d   1       2.357   1.058   0.537  0.00  0.00     0.000 A 
ATOM      5  C5  BNZ d   1       0.992   1.036   0.330  0.00  0.00     0.000 A 
ATOM      6  C6  BNZ d   1       0.264   2.200   0.428  0.00  0.00     0.000 A 
ENDROOT
TORSDOF 0
ENDMDL
