MODEL 1
REMARK minimizedAffinity -1.70295906
REMARK minimizedRMSD -1
REMARK  0 active torsions:
REMARK  status: ('A' for Active; 'I' for Inactive)
ROOT
ATOM      1  C1  BNZ d   1       0.941   1.701   0.941  0.00  0.00     0.000 A 
ATOM      2  C2  BNZ d   1       0.377   2.895   0.577  0.00  0.00     0.000 A 
ATOM      3  C3  BNZ d   1       0.904   3.636  -0.443  0.00  0.00     0.000 A 
ATOM      4  C4  BNZ d   1       2.018   3.203  -1.070  0.00  0.00     0.000 A 
ATOM      5  C5  BNZ d   1       2.604   2.007  -0.708  0.00  0.00     0.000 A 
ATOM      6  C6  BNZ d   1       2.047   1.244   0.293  0.00  0.00     0.000 A 
ENDROOT
TORSDOF 0
ENDMDL
