MODEL 1
REMARK minimizedAffinity 4.5681262
REMARK minimizedRMSD -1
REMARK  0 active torsions:
REMARK  status: ('A' for Active; 'I' for Inactive)
ROOT
ATOM      1  C1  BNZ d   1       1.873  -1.044   0.177  0.00  0.00     0.000 A 
ATOM      2  C2  BNZ d   1       1.587  -1.678  -1.003  0.00  0.00     0.000 A 
ATOM      3  C3  BNZ d   1       1.750  -1.036  -2.199  0.00  0.00     0.000 A 
ATOM      4  C4  BNZ d   1       2.159   0.248  -2.212  0.00  0.00     0.000 A 
ATOM      5  C5  BNZ d   1       2.443   0.904  -1.031  0.00  0.00     0.000 A 
ATOM      6  C6  BNZ d   1       2.315   0.243   0.169  0.00  0.00     0.000 A 
ENDROOT
TORSDOF 0
ENDMDL
