MODEL 1
REMARK minimizedAffinity 1.70453799
REMARK minimizedRMSD -1
REMARK  0 active torsions:
REMARK  status: ('A' for Active; 'I' for Inactive)
ROOT
ATOM      1  C1  BNZ d   1       1.973   0.730  -0.507  0.00  0.00     0.000 A 
ATOM      2  C2  BNZ d   1       1.799   1.215  -1.776  0.00  0.00     0.000 A 
ATOM      3  C3  BNZ d   1       1.611   0.366  -2.830  0.00  0.00     0.000 A 
ATOM      4  C4  BNZ d   1       1.636  -0.966  -2.622  0.00  0.00     0.000 A 
ATOM      5  C5  BNZ d   1       1.820  -1.471  -1.350  0.00  0.00     0.000 A 
ATOM      6  C6  BNZ d   1       1.971  -0.613  -0.285  0.00  0.00     0.000 A 
ENDROOT
TORSDOF 0
ENDMDL
