MODEL 1
REMARK minimizedAffinity -1.62607431
REMARK minimizedRMSD -1
REMARK  0 active torsions:
REMARK  status: ('A' for Active; 'I' for Inactive)
ROOT
ATOM      1  C1  BNZ d   1      -1.172   3.231   0.362  0.00  0.00     0.000 A 
ATOM      2  C2  BNZ d   1       0.090   3.760   0.402  0.00  0.00     0.000 A 
ATOM      3  C3  BNZ d   1       1.165   2.981   0.731  0.00  0.00     0.000 A 
ATOM      4  C4  BNZ d   1       0.971   1.687   1.058  0.00  0.00     0.000 A 
ATOM      5  C5  BNZ d   1      -0.297   1.142   1.031  0.00  0.00     0.000 A 
ATOM      6  C6  BNZ d   1      -1.371   1.918   0.661  0.00  0.00     0.000 A 
ENDROOT
TORSDOF 0
ENDMDL
