MODEL 1
REMARK minimizedAffinity 0.440795809
REMARK minimizedRMSD -1
REMARK  0 active torsions:
REMARK  status: ('A' for Active; 'I' for Inactive)
ROOT
ATOM      1  C1  BNZ d   1      -0.432   0.922   1.148  0.00  0.00     0.000 A 
ATOM      2  C2  BNZ d   1      -1.782   1.150   1.124  0.00  0.00     0.000 A 
ATOM      3  C3  BNZ d   1      -2.280   2.367   0.750  0.00  0.00     0.000 A 
ATOM      4  C4  BNZ d   1      -1.428   3.365   0.440  0.00  0.00     0.000 A 
ATOM      5  C5  BNZ d   1      -0.064   3.154   0.468  0.00  0.00     0.000 A 
ATOM      6  C6  BNZ d   1       0.433   1.917   0.807  0.00  0.00     0.000 A 
ENDROOT
TORSDOF 0
ENDMDL
