MODEL 1
REMARK minimizedAffinity -0.518133819
REMARK minimizedRMSD -1
REMARK  0 active torsions:
REMARK  status: ('A' for Active; 'I' for Inactive)
ROOT
ATOM      1  C1  BNZ d   1       0.272   4.178  -0.495  0.00  0.00     0.000 A 
ATOM      2  C2  BNZ d   1       1.635   4.311  -0.535  0.00  0.00     0.000 A 
ATOM      3  C3  BNZ d   1       2.441   3.464   0.173  0.00  0.00     0.000 A 
ATOM      4  C4  BNZ d   1       1.884   2.513   0.951  0.00  0.00     0.000 A 
ATOM      5  C5  BNZ d   1       0.512   2.373   1.009  0.00  0.00     0.000 A 
ATOM      6  C6  BNZ d   1      -0.296   3.202   0.264  0.00  0.00     0.000 A 
ENDROOT
TORSDOF 0
ENDMDL
