MODEL 1
REMARK minimizedAffinity 3.07359767
REMARK minimizedRMSD -1
REMARK  0 active torsions:
REMARK  status: ('A' for Active; 'I' for Inactive)
ROOT
ATOM      1  C1  BNZ d   1       0.396   0.260   0.796  0.00  0.00     0.000 A 
ATOM      2  C2  BNZ d   1       1.405  -0.622   0.513  0.00  0.00     0.000 A 
ATOM      3  C3  BNZ d   1       2.701  -0.199   0.426  0.00  0.00     0.000 A 
ATOM      4  C4  BNZ d   1       2.983   1.111   0.583  0.00  0.00     0.000 A 
ATOM      5  C5  BNZ d   1       1.976   2.014   0.860  0.00  0.00     0.000 A 
ATOM      6  C6  BNZ d   1       0.677   1.578   0.984  0.00  0.00     0.000 A 
ENDROOT
TORSDOF 0
ENDMDL
