MODEL 1
REMARK minimizedAffinity 3.61081791
REMARK minimizedRMSD -1
REMARK  0 active torsions:
REMARK  status: ('A' for Active; 'I' for Inactive)
ROOT
ATOM      1  C1  BNZ d   1       2.505   3.763  -0.434  0.00  0.00     0.000 A 
ATOM      2  C2  BNZ d   1       2.975   2.717   0.316  0.00  0.00     0.000 A 
ATOM      3  C3  BNZ d   1       2.111   1.854   0.931  0.00  0.00     0.000 A 
ATOM      4  C4  BNZ d   1       0.782   2.060   0.828  0.00  0.00     0.000 A 
ATOM      5  C5  BNZ d   1       0.294   3.115   0.083  0.00  0.00     0.000 A 
ATOM      6  C6  BNZ d   1       1.165   3.959  -0.566  0.00  0.00     0.000 A 
ENDROOT
TORSDOF 0
ENDMDL
