MODEL 1
REMARK minimizedAffinity 8.12623692
REMARK minimizedRMSD -1
REMARK  0 active torsions:
REMARK  status: ('A' for Active; 'I' for Inactive)
ROOT
ATOM      1  C1  BNZ d   1       0.005   2.255   2.567  0.00  0.00     0.000 A 
ATOM      2  C2  BNZ d   1      -1.310   2.414   2.221  0.00  0.00     0.000 A 
ATOM      3  C3  BNZ d   1      -1.655   2.989   1.030  0.00  0.00     0.000 A 
ATOM      4  C4  BNZ d   1      -0.687   3.441   0.206  0.00  0.00     0.000 A 
ATOM      5  C5  BNZ d   1       0.643   3.297   0.546  0.00  0.00     0.000 A 
ATOM      6  C6  BNZ d   1       0.988   2.682   1.728  0.00  0.00     0.000 A 
ENDROOT
TORSDOF 0
ENDMDL
