MODEL 1
REMARK minimizedAffinity 5.83823776
REMARK minimizedRMSD -1
REMARK  1 active torsions:
REMARK  status: ('A' for Active; 'I' for Inactive)
REMARK    1  A    between atoms: C1_2  and  C2_3 
ROOT
ATOM      1  C2  UNL d   1      -1.626   5.550  -3.983  0.00  0.00    -0.081 A 
ATOM      2  C3  UNL d   1      -2.751   5.804  -3.189  0.00  0.00     0.006 A 
ATOM      3  C4  UNL d   1      -4.012   5.949  -3.774  0.00  0.00     0.002 A 
ATOM      4  C5  UNL d   1      -4.169   5.834  -5.159  0.00  0.00    -0.080 A 
ATOM      5  C6  UNL d   1      -5.521   5.957  -5.796  0.00  0.00     0.076 C 
ATOM      6  C7  UNL d   1      -3.042   5.596  -5.953  0.00  0.00     0.002 A 
ATOM      7  C8  UNL d   1      -1.782   5.453  -5.370  0.00  0.00     0.006 A 
ENDROOT
BRANCH   1   8
ATOM      8  C1  UNL d   1      -0.276   5.329  -3.349  0.00  0.00     0.054 C 
ATOM      9  C   UNL d   1      -0.189   5.997  -1.985  0.00  0.00     0.018 C 
ENDBRANCH   1   8
TORSDOF 1
ENDMDL
