MODEL 1
REMARK minimizedAffinity 7.48689938
REMARK minimizedRMSD -1
REMARK  1 active torsions:
REMARK  status: ('A' for Active; 'I' for Inactive)
REMARK    1  A    between atoms: C1_2  and  C2_3 
ROOT
ATOM      1  C2  UNL d   1      -3.112   0.300   4.131  0.00  0.00    -0.081 A 
ATOM      2  C3  UNL d   1      -4.108  -0.503   4.701  0.00  0.00     0.006 A 
ATOM      3  C4  UNL d   1      -4.733  -1.499   3.946  0.00  0.00     0.002 A 
ATOM      4  C5  UNL d   1      -4.368  -1.713   2.613  0.00  0.00    -0.080 A 
ATOM      5  C6  UNL d   1      -5.009  -2.798   1.801  0.00  0.00     0.076 C 
ATOM      6  C7  UNL d   1      -3.386  -0.899   2.038  0.00  0.00     0.002 A 
ATOM      7  C8  UNL d   1      -2.761   0.097   2.792  0.00  0.00     0.006 A 
ENDROOT
BRANCH   1   8
ATOM      8  C1  UNL d   1      -2.391   1.332   4.960  0.00  0.00     0.054 C 
ATOM      9  C   UNL d   1      -1.492   0.676   5.999  0.00  0.00     0.018 C 
ENDBRANCH   1   8
TORSDOF 1
ENDMDL
