MODEL 1
REMARK minimizedAffinity 18.5527439
REMARK minimizedRMSD -1
REMARK  1 active torsions:
REMARK  status: ('A' for Active; 'I' for Inactive)
REMARK    1  A    between atoms: C1_2  and  C2_3 
ROOT
ATOM      1  C2  UNL d   1      -5.624   1.640  -1.434  0.00  0.00    -0.081 A 
ATOM      2  C3  UNL d   1      -5.888   1.457  -2.797  0.00  0.00     0.006 A 
ATOM      3  C4  UNL d   1      -5.998   0.171  -3.331  0.00  0.00     0.002 A 
ATOM      4  C5  UNL d   1      -5.854  -0.953  -2.511  0.00  0.00    -0.080 A 
ATOM      5  C6  UNL d   1      -6.000  -2.339  -3.065  0.00  0.00     0.076 C 
ATOM      6  C7  UNL d   1      -5.572  -0.771  -1.152  0.00  0.00     0.002 A 
ATOM      7  C8  UNL d   1      -5.461   0.515  -0.618  0.00  0.00     0.006 A 
ENDROOT
BRANCH   1   8
ATOM      8  C1  UNL d   1      -5.568   3.025  -0.843  0.00  0.00     0.054 C 
ATOM      9  C   UNL d   1      -4.463   3.855  -1.481  0.00  0.00     0.018 C 
ENDBRANCH   1   8
TORSDOF 1
ENDMDL
