MODEL 1
REMARK minimizedAffinity 20.4729824
REMARK minimizedRMSD -1
REMARK  1 active torsions:
REMARK  status: ('A' for Active; 'I' for Inactive)
REMARK    1  A    between atoms: C1_2  and  C2_3 
ROOT
ATOM      1  C2  UNL d   1       2.043  -0.026   1.360  0.00  0.00    -0.081 A 
ATOM      2  C3  UNL d   1       0.734  -0.455   1.616  0.00  0.00     0.006 A 
ATOM      3  C4  UNL d   1       0.488  -1.445   2.569  0.00  0.00     0.002 A 
ATOM      4  C5  UNL d   1       1.543  -2.018   3.287  0.00  0.00    -0.080 A 
ATOM      5  C6  UNL d   1       1.289  -3.060   4.335  0.00  0.00     0.076 C 
ATOM      6  C7  UNL d   1       2.851  -1.602   3.019  0.00  0.00     0.002 A 
ATOM      7  C8  UNL d   1       3.099  -0.612   2.066  0.00  0.00     0.006 A 
ENDROOT
BRANCH   1   8
ATOM      8  C1  UNL d   1       2.306   1.088   0.379  0.00  0.00     0.054 C 
ATOM      9  C   UNL d   1       3.540   1.889   0.769  0.00  0.00     0.018 C 
ENDBRANCH   1   8
TORSDOF 1
ENDMDL
