MODEL 1
REMARK minimizedAffinity 9.39220905
REMARK minimizedRMSD -1
REMARK  1 active torsions:
REMARK  status: ('A' for Active; 'I' for Inactive)
REMARK    1  A    between atoms: C1_2  and  C2_3 
ROOT
ATOM      1  C2  UNL d   1      -4.858  -3.142   2.973  0.00  0.00    -0.081 A 
ATOM      2  C3  UNL d   1      -4.890  -4.510   2.676  0.00  0.00     0.006 A 
ATOM      3  C4  UNL d   1      -5.246  -5.439   3.657  0.00  0.00     0.002 A 
ATOM      4  C5  UNL d   1      -5.583  -5.015   4.947  0.00  0.00    -0.080 A 
ATOM      5  C6  UNL d   1      -5.997  -6.000   6.000  0.00  0.00     0.076 C 
ATOM      6  C7  UNL d   1      -5.534  -3.650   5.248  0.00  0.00     0.002 A 
ATOM      7  C8  UNL d   1      -5.177  -2.721   4.268  0.00  0.00     0.006 A 
ENDROOT
BRANCH   1   8
ATOM      8  C1  UNL d   1      -4.537  -2.132   1.900  0.00  0.00     0.054 C 
ATOM      9  C   UNL d   1      -3.223  -1.419   2.187  0.00  0.00     0.018 C 
ENDBRANCH   1   8
TORSDOF 1
ENDMDL
