MODEL 1
REMARK minimizedAffinity 19.5329876
REMARK minimizedRMSD -1
REMARK  1 active torsions:
REMARK  status: ('A' for Active; 'I' for Inactive)
REMARK    1  A    between atoms: C1_2  and  C2_3 
ROOT
ATOM      1  C2  UNL d   1      -4.195   2.241   5.351  0.00  0.00    -0.081 A 
ATOM      2  C3  UNL d   1      -3.702   1.103   6.000  0.00  0.00     0.006 A 
ATOM      3  C4  UNL d   1      -2.676   0.349   5.424  0.00  0.00     0.002 A 
ATOM      4  C5  UNL d   1      -2.122   0.725   4.196  0.00  0.00    -0.080 A 
ATOM      5  C6  UNL d   1      -0.999  -0.058   3.582  0.00  0.00     0.076 C 
ATOM      6  C7  UNL d   1      -2.627   1.853   3.540  0.00  0.00     0.002 A 
ATOM      7  C8  UNL d   1      -3.653   2.607   4.115  0.00  0.00     0.006 A 
ENDROOT
BRANCH   1   8
ATOM      8  C1  UNL d   1      -5.257   3.093   6.000  0.00  0.00     0.054 C 
ATOM      9  C   UNL d   1      -4.863   4.563   6.000  0.00  0.00     0.018 C 
ENDBRANCH   1   8
TORSDOF 1
ENDMDL
