MODEL 1
REMARK minimizedAffinity 7.13728714
REMARK minimizedRMSD -1
REMARK  1 active torsions:
REMARK  status: ('A' for Active; 'I' for Inactive)
REMARK    1  A    between atoms: C1_2  and  C2_3 
ROOT
ATOM      1  C2  UNL d   1      -0.168  -2.972   1.757  0.00  0.00    -0.081 A 
ATOM      2  C3  UNL d   1       0.548  -2.918   2.960  0.00  0.00     0.006 A 
ATOM      3  C4  UNL d   1       0.176  -2.023   3.966  0.00  0.00     0.002 A 
ATOM      4  C5  UNL d   1      -0.922  -1.174   3.790  0.00  0.00    -0.080 A 
ATOM      5  C6  UNL d   1      -1.351  -0.231   4.874  0.00  0.00     0.076 C 
ATOM      6  C7  UNL d   1      -1.627  -1.216   2.582  0.00  0.00     0.002 A 
ATOM      7  C8  UNL d   1      -1.254  -2.110   1.575  0.00  0.00     0.006 A 
ENDROOT
BRANCH   1   8
ATOM      8  C1  UNL d   1       0.192  -3.981   0.696  0.00  0.00     0.054 C 
ATOM      9  C   UNL d   1      -1.035  -4.415  -0.093  0.00  0.00     0.018 C 
ENDBRANCH   1   8
TORSDOF 1
ENDMDL
