MODEL 1
REMARK minimizedAffinity 5.46128893
REMARK minimizedRMSD -1
REMARK  1 active torsions:
REMARK  status: ('A' for Active; 'I' for Inactive)
REMARK    1  A    between atoms: C1_2  and  C2_3 
ROOT
ATOM      1  C2  UNL d   1      -3.008   5.989  -4.617  0.00  0.00    -0.081 A 
ATOM      2  C3  UNL d   1      -2.431   5.964  -3.342  0.00  0.00     0.006 A 
ATOM      3  C4  UNL d   1      -3.236   5.940  -2.201  0.00  0.00     0.002 A 
ATOM      4  C5  UNL d   1      -4.631   5.932  -2.316  0.00  0.00    -0.080 A 
ATOM      5  C6  UNL d   1      -5.507   5.876  -1.100  0.00  0.00     0.076 C 
ATOM      6  C7  UNL d   1      -5.207   5.975  -3.590  0.00  0.00     0.002 A 
ATOM      7  C8  UNL d   1      -4.402   6.000  -4.731  0.00  0.00     0.006 A 
ENDROOT
BRANCH   1   8
ATOM      8  C1  UNL d   1      -2.142   5.950  -5.851  0.00  0.00     0.054 C 
ATOM      9  C   UNL d   1      -0.832   5.221  -5.585  0.00  0.00     0.018 C 
ENDBRANCH   1   8
TORSDOF 1
ENDMDL
