MODEL 1
REMARK minimizedAffinity 19.3938236
REMARK minimizedRMSD -1
REMARK  1 active torsions:
REMARK  status: ('A' for Active; 'I' for Inactive)
REMARK    1  A    between atoms: C1_2  and  C2_3 
ROOT
ATOM      1  C2  UNL d   1       5.063   4.804  -2.186  0.00  0.00    -0.081 A 
ATOM      2  C3  UNL d   1       3.792   4.233  -2.331  0.00  0.00     0.006 A 
ATOM      3  C4  UNL d   1       3.379   3.729  -3.567  0.00  0.00     0.002 A 
ATOM      4  C5  UNL d   1       4.232   3.780  -4.675  0.00  0.00    -0.080 A 
ATOM      5  C6  UNL d   1       3.812   3.215  -5.999  0.00  0.00     0.076 C 
ATOM      6  C7  UNL d   1       5.494   4.365  -4.534  0.00  0.00     0.002 A 
ATOM      7  C8  UNL d   1       5.908   4.870  -3.300  0.00  0.00     0.006 A 
ENDROOT
BRANCH   1   8
ATOM      8  C1  UNL d   1       5.535   5.290  -0.840  0.00  0.00     0.054 C 
ATOM      9  C   UNL d   1       6.000   4.133   0.034  0.00  0.00     0.018 C 
ENDBRANCH   1   8
TORSDOF 1
ENDMDL
