MODEL 1
REMARK minimizedAffinity 6.55618811
REMARK minimizedRMSD -1
REMARK  1 active torsions:
REMARK  status: ('A' for Active; 'I' for Inactive)
REMARK    1  A    between atoms: C1_2  and  C2_3 
ROOT
ATOM      1  C2  UNL d   1      -4.356  -3.242   2.906  0.00  0.00    -0.081 A 
ATOM      2  C3  UNL d   1      -4.809  -4.508   2.513  0.00  0.00     0.006 A 
ATOM      3  C4  UNL d   1      -5.324  -5.400   3.456  0.00  0.00     0.002 A 
ATOM      4  C5  UNL d   1      -5.401  -5.040   4.806  0.00  0.00    -0.080 A 
ATOM      5  C6  UNL d   1      -5.980  -5.977   5.824  0.00  0.00     0.076 C 
ATOM      6  C7  UNL d   1      -4.933  -3.782   5.201  0.00  0.00     0.002 A 
ATOM      7  C8  UNL d   1      -4.417  -2.890   4.259  0.00  0.00     0.006 A 
ENDROOT
BRANCH   1   8
ATOM      8  C1  UNL d   1      -3.860  -2.253   1.882  0.00  0.00     0.054 C 
ATOM      9  C   UNL d   1      -2.603  -1.543   2.362  0.00  0.00     0.018 C 
ENDBRANCH   1   8
TORSDOF 1
ENDMDL
