MODEL 1
REMARK minimizedAffinity 12.958168
REMARK minimizedRMSD -1
REMARK  1 active torsions:
REMARK  status: ('A' for Active; 'I' for Inactive)
REMARK    1  A    between atoms: C1_2  and  C2_3 
ROOT
ATOM      1  C2  UNL d   1       3.011   3.529  -3.703  0.00  0.00    -0.081 A 
ATOM      2  C3  UNL d   1       1.637   3.412  -3.944  0.00  0.00     0.006 A 
ATOM      3  C4  UNL d   1       0.724   4.201  -3.240  0.00  0.00     0.002 A 
ATOM      4  C5  UNL d   1       1.170   5.125  -2.290  0.00  0.00    -0.080 A 
ATOM      5  C6  UNL d   1       0.203   6.000  -1.549  0.00  0.00     0.076 C 
ATOM      6  C7  UNL d   1       2.542   5.231  -2.036  0.00  0.00     0.002 A 
ATOM      7  C8  UNL d   1       3.455   4.441  -2.739  0.00  0.00     0.006 A 
ENDROOT
BRANCH   1   8
ATOM      8  C1  UNL d   1       4.002   2.726  -4.506  0.00  0.00     0.054 C 
ATOM      9  C   UNL d   1       3.727   2.841  -5.998  0.00  0.00     0.018 C 
ENDBRANCH   1   8
TORSDOF 1
ENDMDL
