MODEL 1
REMARK minimizedAffinity 13.2626476
REMARK minimizedRMSD -1
REMARK  1 active torsions:
REMARK  status: ('A' for Active; 'I' for Inactive)
REMARK    1  A    between atoms: C1_2  and  C2_3 
ROOT
ATOM      1  C2  UNL d   1      -1.953  -1.944   1.219  0.00  0.00    -0.081 A 
ATOM      2  C3  UNL d   1      -1.094  -3.046   1.315  0.00  0.00     0.006 A 
ATOM      3  C4  UNL d   1       0.172  -2.910   1.890  0.00  0.00     0.002 A 
ATOM      4  C5  UNL d   1       0.596  -1.672   2.387  0.00  0.00    -0.080 A 
ATOM      5  C6  UNL d   1       1.940  -1.520   3.035  0.00  0.00     0.076 C 
ATOM      6  C7  UNL d   1      -0.255  -0.568   2.276  0.00  0.00     0.002 A 
ATOM      7  C8  UNL d   1      -1.520  -0.703   1.700  0.00  0.00     0.006 A 
ENDROOT
BRANCH   1   8
ATOM      8  C1  UNL d   1      -3.343  -2.102   0.658  0.00  0.00     0.054 C 
ATOM      9  C   UNL d   1      -3.985  -3.399   1.128  0.00  0.00     0.018 C 
ENDBRANCH   1   8
TORSDOF 1
ENDMDL
