MODEL 1
REMARK minimizedAffinity 12.5952787
REMARK minimizedRMSD -1
REMARK  1 active torsions:
REMARK  status: ('A' for Active; 'I' for Inactive)
REMARK    1  A    between atoms: C1_2  and  C2_3 
ROOT
ATOM      1  C2  UNL d   1       2.128   4.332  -2.704  0.00  0.00    -0.081 A 
ATOM      2  C3  UNL d   1       3.209   5.106  -2.264  0.00  0.00     0.006 A 
ATOM      3  C4  UNL d   1       4.467   4.968  -2.857  0.00  0.00     0.002 A 
ATOM      4  C5  UNL d   1       4.662   4.061  -3.904  0.00  0.00    -0.080 A 
ATOM      5  C6  UNL d   1       6.000   3.925  -4.569  0.00  0.00     0.076 C 
ATOM      6  C7  UNL d   1       3.587   3.275  -4.332  0.00  0.00     0.002 A 
ATOM      7  C8  UNL d   1       2.330   3.411  -3.739  0.00  0.00     0.006 A 
ENDROOT
BRANCH   1   8
ATOM      8  C1  UNL d   1       0.756   4.524  -2.111  0.00  0.00     0.054 C 
ATOM      9  C   UNL d   1       0.401   6.000  -2.004  0.00  0.00     0.018 C 
ENDBRANCH   1   8
TORSDOF 1
ENDMDL
