MODEL 1
REMARK minimizedAffinity 15.5234776
REMARK minimizedRMSD -1
REMARK  1 active torsions:
REMARK  status: ('A' for Active; 'I' for Inactive)
REMARK    1  A    between atoms: C1_2  and  C2_3 
ROOT
ATOM      1  C2  UNL d   1       1.987   5.259  -0.006  0.00  0.00    -0.081 A 
ATOM      2  C3  UNL d   1       1.978   3.860   0.042  0.00  0.00     0.006 A 
ATOM      3  C4  UNL d   1       0.850   3.175   0.498  0.00  0.00     0.002 A 
ATOM      4  C5  UNL d   1      -0.290   3.876   0.905  0.00  0.00    -0.080 A 
ATOM      5  C6  UNL d   1      -1.519   3.151   1.368  0.00  0.00     0.076 C 
ATOM      6  C7  UNL d   1      -0.275   5.274   0.873  0.00  0.00     0.002 A 
ATOM      7  C8  UNL d   1       0.853   5.960   0.418  0.00  0.00     0.006 A 
ENDROOT
BRANCH   1   8
ATOM      8  C1  UNL d   1       3.179   5.999  -0.559  0.00  0.00     0.054 C 
ATOM      9  C   UNL d   1       4.484   5.412  -0.040  0.00  0.00     0.018 C 
ENDBRANCH   1   8
TORSDOF 1
ENDMDL
