MODEL 1
REMARK minimizedAffinity -2.73828626
REMARK minimizedRMSD -1
REMARK  1 active torsions:
REMARK  status: ('A' for Active; 'I' for Inactive)
REMARK    1  A    between atoms: C1_2  and  C2_3 
ROOT
ATOM      1  C2  UNL d   1       1.527   0.123   1.083  0.00  0.00    -0.081 A 
ATOM      2  C3  UNL d   1       1.158   1.424   0.720  0.00  0.00     0.006 A 
ATOM      3  C4  UNL d   1       0.184   1.636  -0.259  0.00  0.00     0.002 A 
ATOM      4  C5  UNL d   1      -0.442   0.553  -0.885  0.00  0.00    -0.080 A 
ATOM      5  C6  UNL d   1      -1.510   0.767  -1.915  0.00  0.00     0.076 C 
ATOM      6  C7  UNL d   1      -0.060  -0.747  -0.535  0.00  0.00     0.002 A 
ATOM      7  C8  UNL d   1       0.914  -0.960   0.443  0.00  0.00     0.006 A 
ENDROOT
BRANCH   1   8
ATOM      8  C1  UNL d   1       2.530  -0.110   2.183  0.00  0.00     0.054 C 
ATOM      9  C   UNL d   1       2.242  -1.405   2.930  0.00  0.00     0.018 C 
ENDBRANCH   1   8
TORSDOF 1
ENDMDL
