MODEL 1
REMARK minimizedAffinity 10.4166412
REMARK minimizedRMSD -1
REMARK  1 active torsions:
REMARK  status: ('A' for Active; 'I' for Inactive)
REMARK    1  A    between atoms: C1_2  and  C2_3 
ROOT
ATOM      1  C2  UNL d   1       0.553  -2.604   2.942  0.00  0.00    -0.081 A 
ATOM      2  C3  UNL d   1       0.836  -3.165   4.194  0.00  0.00     0.006 A 
ATOM      3  C4  UNL d   1       1.473  -2.409   5.181  0.00  0.00     0.002 A 
ATOM      4  C5  UNL d   1       1.830  -1.078   4.936  0.00  0.00    -0.080 A 
ATOM      5  C6  UNL d   1       2.487  -0.247   5.997  0.00  0.00     0.076 C 
ATOM      6  C7  UNL d   1       1.564  -0.524   3.680  0.00  0.00     0.002 A 
ATOM      7  C8  UNL d   1       0.927  -1.279   2.692  0.00  0.00     0.006 A 
ENDROOT
BRANCH   1   8
ATOM      8  C1  UNL d   1      -0.191  -3.396   1.898  0.00  0.00     0.054 C 
ATOM      9  C   UNL d   1      -1.465  -2.683   1.466  0.00  0.00     0.018 C 
ENDBRANCH   1   8
TORSDOF 1
ENDMDL
