MODEL 1
REMARK minimizedAffinity 14.5156765
REMARK minimizedRMSD -1
REMARK  1 active torsions:
REMARK  status: ('A' for Active; 'I' for Inactive)
REMARK    1  A    between atoms: C1_2  and  C2_3 
ROOT
ATOM      1  C2  UNL d   1      -4.004   3.600  -2.786  0.00  0.00    -0.081 A 
ATOM      2  C3  UNL d   1      -3.365   3.252  -3.983  0.00  0.00     0.006 A 
ATOM      3  C4  UNL d   1      -2.893   1.953  -4.182  0.00  0.00     0.002 A 
ATOM      4  C5  UNL d   1      -3.058   0.978  -3.192  0.00  0.00    -0.080 A 
ATOM      5  C6  UNL d   1      -2.583  -0.428  -3.404  0.00  0.00     0.076 C 
ATOM      6  C7  UNL d   1      -3.680   1.331  -1.989  0.00  0.00     0.002 A 
ATOM      7  C8  UNL d   1      -4.152   2.630  -1.789  0.00  0.00     0.006 A 
ENDROOT
BRANCH   1   8
ATOM      8  C1  UNL d   1      -4.571   4.983  -2.595  0.00  0.00     0.054 C 
ATOM      9  C   UNL d   1      -5.928   4.934  -1.906  0.00  0.00     0.018 C 
ENDBRANCH   1   8
TORSDOF 1
ENDMDL
