MODEL 1
REMARK minimizedAffinity 5.74323702
REMARK minimizedRMSD -1
REMARK  1 active torsions:
REMARK  status: ('A' for Active; 'I' for Inactive)
REMARK    1  A    between atoms: C1_2  and  C2_3 
ROOT
ATOM      1  C2  UNL d   1      -3.530   2.945  -2.528  0.00  0.00    -0.081 A 
ATOM      2  C3  UNL d   1      -3.216   2.386  -3.773  0.00  0.00     0.006 A 
ATOM      3  C4  UNL d   1      -2.699   1.091  -3.858  0.00  0.00     0.002 A 
ATOM      4  C5  UNL d   1      -2.495   0.331  -2.701  0.00  0.00    -0.080 A 
ATOM      5  C6  UNL d   1      -1.970  -1.071  -2.781  0.00  0.00     0.076 C 
ATOM      6  C7  UNL d   1      -2.792   0.895  -1.456  0.00  0.00     0.002 A 
ATOM      7  C8  UNL d   1      -3.308   2.190  -1.370  0.00  0.00     0.006 A 
ENDROOT
BRANCH   1   8
ATOM      8  C1  UNL d   1      -4.148   4.317  -2.437  0.00  0.00     0.054 C 
ATOM      9  C   UNL d   1      -5.667   4.239  -2.411  0.00  0.00     0.018 C 
ENDBRANCH   1   8
TORSDOF 1
ENDMDL
