MODEL 1
REMARK minimizedAffinity 4.8631587
REMARK minimizedRMSD -1
REMARK  1 active torsions:
REMARK  status: ('A' for Active; 'I' for Inactive)
REMARK    1  A    between atoms: C1_2  and  C2_3 
ROOT
ATOM      1  C2  UNL d   1      -3.017   2.699  -2.672  0.00  0.00    -0.081 A 
ATOM      2  C3  UNL d   1      -2.462   1.942  -1.634  0.00  0.00     0.006 A 
ATOM      3  C4  UNL d   1      -2.002   0.644  -1.871  0.00  0.00     0.002 A 
ATOM      4  C5  UNL d   1      -2.084   0.085  -3.151  0.00  0.00    -0.080 A 
ATOM      5  C6  UNL d   1      -1.567  -1.295  -3.426  0.00  0.00     0.076 C 
ATOM      6  C7  UNL d   1      -2.654   0.836  -4.185  0.00  0.00     0.002 A 
ATOM      7  C8  UNL d   1      -3.114   2.133  -3.948  0.00  0.00     0.006 A 
ENDROOT
BRANCH   1   8
ATOM      8  C1  UNL d   1      -3.454   4.122  -2.434  0.00  0.00     0.054 C 
ATOM      9  C   UNL d   1      -4.967   4.223  -2.311  0.00  0.00     0.018 C 
ENDBRANCH   1   8
TORSDOF 1
ENDMDL
