MODEL 1
REMARK minimizedAffinity 5.16987276
REMARK minimizedRMSD -1
REMARK  1 active torsions:
REMARK  status: ('A' for Active; 'I' for Inactive)
REMARK    1  A    between atoms: C1_2  and  C2_3 
ROOT
ATOM      1  C2  UNL d   1       2.266   0.493   4.189  0.00  0.00    -0.081 A 
ATOM      2  C3  UNL d   1       2.037   0.039   2.884  0.00  0.00     0.006 A 
ATOM      3  C4  UNL d   1       1.981  -1.330   2.611  0.00  0.00     0.002 A 
ATOM      4  C5  UNL d   1       2.145  -2.266   3.637  0.00  0.00    -0.080 A 
ATOM      5  C6  UNL d   1       2.057  -3.738   3.362  0.00  0.00     0.076 C 
ATOM      6  C7  UNL d   1       2.392  -1.812   4.937  0.00  0.00     0.002 A 
ATOM      7  C8  UNL d   1       2.449  -0.444   5.211  0.00  0.00     0.006 A 
ENDROOT
BRANCH   1   8
ATOM      8  C1  UNL d   1       2.263   1.969   4.498  0.00  0.00     0.054 C 
ATOM      9  C   UNL d   1       2.945   2.257   5.828  0.00  0.00     0.018 C 
ENDBRANCH   1   8
TORSDOF 1
ENDMDL
