MODEL 1
REMARK minimizedAffinity -5.91326666
REMARK minimizedRMSD -1
REMARK  0 active torsions:
REMARK  status: ('A' for Active; 'I' for Inactive)
ROOT
ATOM      1  C   UNL d   1      -0.103   3.245  -1.441  0.00  0.00     0.077 C 
ATOM      2  C1  UNL d   1      -0.648   2.558  -0.224  0.00  0.00    -0.074 A 
ATOM      3  C2  UNL d   1      -1.680   3.134   0.525  0.00  0.00    -0.005 A 
ATOM      4  C3  UNL d   1      -2.183   2.479   1.649  0.00  0.00     0.006 A 
ATOM      5  C4  UNL d   1      -1.661   1.244   2.034  0.00  0.00    -0.005 A 
ATOM      6  C5  UNL d   1      -0.630   0.652   1.297  0.00  0.00    -0.074 A 
ATOM      7  C6  UNL d   1      -0.065  -0.680   1.692  0.00  0.00     0.077 C 
ATOM      8  C7  UNL d   1      -0.134   1.313   0.165  0.00  0.00    -0.001 A 
ENDROOT
TORSDOF 0
ENDMDL
