MODEL 1
REMARK minimizedAffinity -5.89537621
REMARK minimizedRMSD -1
REMARK  0 active torsions:
REMARK  status: ('A' for Active; 'I' for Inactive)
ROOT
ATOM      1  C   UNL d   1      -1.365   3.373   0.457  0.00  0.00     0.077 C 
ATOM      2  C1  UNL d   1      -1.010   1.950   0.770  0.00  0.00    -0.074 A 
ATOM      3  C2  UNL d   1      -1.319   1.388   2.012  0.00  0.00    -0.005 A 
ATOM      4  C3  UNL d   1      -0.991   0.060   2.285  0.00  0.00     0.006 A 
ATOM      5  C4  UNL d   1      -0.351  -0.718   1.320  0.00  0.00    -0.005 A 
ATOM      6  C5  UNL d   1      -0.034  -0.174   0.071  0.00  0.00    -0.074 A 
ATOM      7  C6  UNL d   1       0.645  -0.999  -0.981  0.00  0.00     0.077 C 
ATOM      8  C7  UNL d   1      -0.373   1.159  -0.198  0.00  0.00    -0.001 A 
ENDROOT
TORSDOF 0
ENDMDL
