MODEL 1
REMARK minimizedAffinity -3.48916698
REMARK minimizedRMSD -1
REMARK  0 active torsions:
REMARK  status: ('A' for Active; 'I' for Inactive)
ROOT
ATOM      1  C   UNL d   1      -2.209   2.159   1.330  0.00  0.00     0.077 C 
ATOM      2  C1  UNL d   1      -1.337   0.950   1.165  0.00  0.00    -0.074 A 
ATOM      3  C2  UNL d   1      -1.040   0.124   2.254  0.00  0.00    -0.005 A 
ATOM      4  C3  UNL d   1      -0.235  -1.002   2.084  0.00  0.00     0.006 A 
ATOM      5  C4  UNL d   1       0.279  -1.315   0.825  0.00  0.00    -0.005 A 
ATOM      6  C5  UNL d   1      -0.009  -0.502  -0.276  0.00  0.00    -0.074 A 
ATOM      7  C6  UNL d   1       0.528  -0.828  -1.638  0.00  0.00     0.077 C 
ATOM      8  C7  UNL d   1      -0.823   0.625  -0.098  0.00  0.00    -0.001 A 
ENDROOT
TORSDOF 0
ENDMDL
