MODEL 1
REMARK minimizedAffinity -4.64856482
REMARK minimizedRMSD -1
REMARK  0 active torsions:
REMARK  status: ('A' for Active; 'I' for Inactive)
ROOT
ATOM      1  C   UNL d   1      -1.130   2.971   0.783  0.00  0.00     0.077 C 
ATOM      2  C1  UNL d   1      -0.797   1.517   0.937  0.00  0.00    -0.074 A 
ATOM      3  C2  UNL d   1      -1.045   0.846   2.139  0.00  0.00    -0.005 A 
ATOM      4  C3  UNL d   1      -0.738  -0.509   2.265  0.00  0.00     0.006 A 
ATOM      5  C4  UNL d   1      -0.180  -1.205   1.192  0.00  0.00    -0.005 A 
ATOM      6  C5  UNL d   1       0.075  -0.551  -0.018  0.00  0.00    -0.074 A 
ATOM      7  C6  UNL d   1       0.665  -1.287  -1.184  0.00  0.00     0.077 C 
ATOM      8  C7  UNL d   1      -0.243   0.809  -0.139  0.00  0.00    -0.001 A 
ENDROOT
TORSDOF 0
ENDMDL
