MODEL 1
REMARK minimizedAffinity -2.45794582
REMARK minimizedRMSD -1
REMARK  0 active torsions:
REMARK  status: ('A' for Active; 'I' for Inactive)
ROOT
ATOM      1  C   UNL d   1      -1.531   0.696   1.047  0.00  0.00     0.077 C 
ATOM      2  C1  UNL d   1      -0.603  -0.155   0.234  0.00  0.00    -0.074 A 
ATOM      3  C2  UNL d   1       0.782   0.028   0.297  0.00  0.00    -0.005 A 
ATOM      4  C3  UNL d   1       1.633  -0.778  -0.459  0.00  0.00     0.006 A 
ATOM      5  C4  UNL d   1       1.110  -1.774  -1.283  0.00  0.00    -0.005 A 
ATOM      6  C5  UNL d   1      -0.273  -1.973  -1.359  0.00  0.00    -0.074 A 
ATOM      7  C6  UNL d   1      -0.852  -3.046  -2.232  0.00  0.00     0.077 C 
ATOM      8  C7  UNL d   1      -1.121  -1.164  -0.591  0.00  0.00    -0.001 A 
ENDROOT
TORSDOF 0
ENDMDL
