MODEL 1
REMARK minimizedAffinity -4.29289961
REMARK minimizedRMSD -1
REMARK  0 active torsions:
REMARK  status: ('A' for Active; 'I' for Inactive)
ROOT
ATOM      1  C   UNL d   1       0.698  -1.399  -1.663  0.00  0.00     0.077 C 
ATOM      2  C1  UNL d   1       0.187  -0.879  -0.352  0.00  0.00    -0.074 A 
ATOM      3  C2  UNL d   1       0.274  -1.651   0.811  0.00  0.00    -0.005 A 
ATOM      4  C3  UNL d   1      -0.196  -1.150   2.025  0.00  0.00     0.006 A 
ATOM      5  C4  UNL d   1      -0.757   0.127   2.088  0.00  0.00    -0.005 A 
ATOM      6  C5  UNL d   1      -0.851   0.914   0.936  0.00  0.00    -0.074 A 
ATOM      7  C6  UNL d   1      -1.441   2.291   0.988  0.00  0.00     0.077 C 
ATOM      8  C7  UNL d   1      -0.370   0.406  -0.279  0.00  0.00    -0.001 A 
ENDROOT
TORSDOF 0
ENDMDL
