MODEL 1
REMARK minimizedAffinity -1.17075384
REMARK minimizedRMSD -1
REMARK  0 active torsions:
REMARK  status: ('A' for Active; 'I' for Inactive)
ROOT
ATOM      1  C   UNL d   1      -2.414   2.568   1.146  0.00  0.00     0.077 C 
ATOM      2  C1  UNL d   1      -1.313   1.618   0.780  0.00  0.00    -0.074 A 
ATOM      3  C2  UNL d   1      -0.578   1.788  -0.398  0.00  0.00    -0.005 A 
ATOM      4  C3  UNL d   1       0.449   0.902  -0.720  0.00  0.00     0.006 A 
ATOM      5  C4  UNL d   1       0.752  -0.162   0.131  0.00  0.00    -0.005 A 
ATOM      6  C5  UNL d   1       0.029  -0.348   1.313  0.00  0.00    -0.074 A 
ATOM      7  C6  UNL d   1       0.348  -1.480   2.243  0.00  0.00     0.077 C 
ATOM      8  C7  UNL d   1      -0.998   0.551   1.633  0.00  0.00    -0.001 A 
ENDROOT
TORSDOF 0
ENDMDL
