MODEL 1
REMARK minimizedAffinity -3.94450426
REMARK minimizedRMSD -1
REMARK  0 active torsions:
REMARK  status: ('A' for Active; 'I' for Inactive)
ROOT
ATOM      1  C   UNL d   1      -2.194   3.005   1.470  0.00  0.00     0.077 C 
ATOM      2  C1  UNL d   1      -1.721   1.661   1.002  0.00  0.00    -0.074 A 
ATOM      3  C2  UNL d   1      -2.397   0.493   1.371  0.00  0.00    -0.005 A 
ATOM      4  C3  UNL d   1      -1.951  -0.749   0.920  0.00  0.00     0.006 A 
ATOM      5  C4  UNL d   1      -0.826  -0.836   0.098  0.00  0.00    -0.005 A 
ATOM      6  C5  UNL d   1      -0.138   0.321  -0.281  0.00  0.00    -0.074 A 
ATOM      7  C6  UNL d   1       1.066   0.246  -1.172  0.00  0.00     0.077 C 
ATOM      8  C7  UNL d   1      -0.597   1.566   0.170  0.00  0.00    -0.001 A 
ENDROOT
TORSDOF 0
ENDMDL
