MODEL 1
REMARK minimizedAffinity -3.88209391
REMARK minimizedRMSD -1
REMARK  0 active torsions:
REMARK  status: ('A' for Active; 'I' for Inactive)
ROOT
ATOM      1  C   UNL d   1      -2.461   1.893   1.234  0.00  0.00     0.077 C 
ATOM      2  C1  UNL d   1      -1.331   1.467   0.345  0.00  0.00    -0.074 A 
ATOM      3  C2  UNL d   1      -0.755   2.360  -0.565  0.00  0.00    -0.005 A 
ATOM      4  C3  UNL d   1       0.302   1.951  -1.378  0.00  0.00     0.006 A 
ATOM      5  C4  UNL d   1       0.793   0.648  -1.291  0.00  0.00    -0.005 A 
ATOM      6  C5  UNL d   1       0.231  -0.259  -0.386  0.00  0.00    -0.074 A 
ATOM      7  C6  UNL d   1       0.753  -1.660  -0.273  0.00  0.00     0.077 C 
ATOM      8  C7  UNL d   1      -0.827   0.161   0.432  0.00  0.00    -0.001 A 
ENDROOT
TORSDOF 0
ENDMDL
