MODEL 1
REMARK minimizedAffinity -1.74704599
REMARK minimizedRMSD -1
REMARK  0 active torsions:
REMARK  status: ('A' for Active; 'I' for Inactive)
ROOT
ATOM      1  C   UNL d   1       1.479  -2.606  -1.381  0.00  0.00     0.077 C 
ATOM      2  C1  UNL d   1       0.819  -1.502  -0.610  0.00  0.00    -0.074 A 
ATOM      3  C2  UNL d   1       0.369  -1.708   0.698  0.00  0.00    -0.005 A 
ATOM      4  C3  UNL d   1      -0.235  -0.669   1.406  0.00  0.00     0.006 A 
ATOM      5  C4  UNL d   1      -0.394   0.584   0.814  0.00  0.00    -0.005 A 
ATOM      6  C5  UNL d   1       0.050   0.809  -0.492  0.00  0.00    -0.074 A 
ATOM      7  C6  UNL d   1      -0.105   2.154  -1.140  0.00  0.00     0.077 C 
ATOM      8  C7  UNL d   1       0.662  -0.238  -1.195  0.00  0.00    -0.001 A 
ENDROOT
TORSDOF 0
ENDMDL
