MODEL 1
REMARK minimizedAffinity -1.53289175
REMARK minimizedRMSD -1
REMARK  0 active torsions:
REMARK  status: ('A' for Active; 'I' for Inactive)
ROOT
ATOM      1  C   UNL d   1       1.112  -1.165  -0.743  0.00  0.00     0.077 C 
ATOM      2  C1  UNL d   1       0.372  -0.339   0.267  0.00  0.00    -0.074 A 
ATOM      3  C2  UNL d   1      -0.161  -0.922   1.421  0.00  0.00    -0.005 A 
ATOM      4  C3  UNL d   1      -0.838  -0.139   2.356  0.00  0.00     0.006 A 
ATOM      5  C4  UNL d   1      -0.990   1.232   2.147  0.00  0.00    -0.005 A 
ATOM      6  C5  UNL d   1      -0.463   1.832   0.999  0.00  0.00    -0.074 A 
ATOM      7  C6  UNL d   1      -0.609   3.307   0.763  0.00  0.00     0.077 C 
ATOM      8  C7  UNL d   1       0.222   1.041   0.067  0.00  0.00    -0.001 A 
ENDROOT
TORSDOF 0
ENDMDL
