MODEL 1
REMARK minimizedAffinity -5.09149122
REMARK minimizedRMSD -1
REMARK  0 active torsions:
REMARK  status: ('A' for Active; 'I' for Inactive)
ROOT
ATOM      1  C   UNL d   1      -1.914   1.300   1.797  0.00  0.00     0.077 C 
ATOM      2  C1  UNL d   1      -0.709   1.085   0.932  0.00  0.00    -0.074 A 
ATOM      3  C2  UNL d   1      -0.283   2.069   0.034  0.00  0.00    -0.005 A 
ATOM      4  C3  UNL d   1       0.846   1.858  -0.758  0.00  0.00     0.006 A 
ATOM      5  C4  UNL d   1       1.559   0.663  -0.660  0.00  0.00    -0.005 A 
ATOM      6  C5  UNL d   1       1.149  -0.332   0.232  0.00  0.00    -0.074 A 
ATOM      7  C6  UNL d   1       1.910  -1.619   0.356  0.00  0.00     0.077 C 
ATOM      8  C7  UNL d   1       0.018  -0.110   1.029  0.00  0.00    -0.001 A 
ENDROOT
TORSDOF 0
ENDMDL
