MODEL 1
REMARK minimizedAffinity -5.10293722
REMARK minimizedRMSD -1
REMARK  0 active torsions:
REMARK  status: ('A' for Active; 'I' for Inactive)
ROOT
ATOM      1  C   UNL d   1      -2.282   1.486   0.420  0.00  0.00     0.077 C 
ATOM      2  C1  UNL d   1      -0.978   1.162  -0.247  0.00  0.00    -0.074 A 
ATOM      3  C2  UNL d   1      -0.248   2.150  -0.916  0.00  0.00    -0.005 A 
ATOM      4  C3  UNL d   1       0.967   1.837  -1.524  0.00  0.00     0.006 A 
ATOM      5  C4  UNL d   1       1.465   0.534  -1.468  0.00  0.00    -0.005 A 
ATOM      6  C5  UNL d   1       0.750  -0.467  -0.803  0.00  0.00    -0.074 A 
ATOM      7  C6  UNL d   1       1.276  -1.869  -0.725  0.00  0.00     0.077 C 
ATOM      8  C7  UNL d   1      -0.467  -0.142  -0.189  0.00  0.00    -0.001 A 
ENDROOT
TORSDOF 0
ENDMDL
