MODEL 1
REMARK minimizedAffinity -4.02072573
REMARK minimizedRMSD -1
REMARK  0 active torsions:
REMARK  status: ('A' for Active; 'I' for Inactive)
ROOT
ATOM      1  C   UNL d   1       1.066  -0.770  -0.574  0.00  0.00     0.077 C 
ATOM      2  C1  UNL d   1       0.569   0.618  -0.295  0.00  0.00    -0.074 A 
ATOM      3  C2  UNL d   1       0.971   1.698  -1.088  0.00  0.00    -0.005 A 
ATOM      4  C3  UNL d   1       0.494   2.981  -0.823  0.00  0.00     0.006 A 
ATOM      5  C4  UNL d   1      -0.389   3.197   0.236  0.00  0.00    -0.005 A 
ATOM      6  C5  UNL d   1      -0.802   2.130   1.039  0.00  0.00    -0.074 A 
ATOM      7  C6  UNL d   1      -1.758   2.343   2.175  0.00  0.00     0.077 C 
ATOM      8  C7  UNL d   1      -0.324   0.842   0.762  0.00  0.00    -0.001 A 
ENDROOT
TORSDOF 0
ENDMDL
