MODEL 1
REMARK minimizedAffinity -5.95910311
REMARK minimizedRMSD -1
REMARK  0 active torsions:
REMARK  status: ('A' for Active; 'I' for Inactive)
ROOT
ATOM      1  C   UNL d   1      -1.705   3.711   0.905  0.00  0.00     0.077 C 
ATOM      2  C1  UNL d   1      -1.064   2.593   0.138  0.00  0.00    -0.074 A 
ATOM      3  C2  UNL d   1      -0.508   2.814  -1.126  0.00  0.00    -0.005 A 
ATOM      4  C3  UNL d   1       0.094   1.766  -1.822  0.00  0.00     0.006 A 
ATOM      5  C4  UNL d   1       0.146   0.489  -1.263  0.00  0.00    -0.005 A 
ATOM      6  C5  UNL d   1      -0.404   0.249   0.000  0.00  0.00    -0.074 A 
ATOM      7  C6  UNL d   1      -0.349  -1.116   0.620  0.00  0.00     0.077 C 
ATOM      8  C7  UNL d   1      -1.001   1.309   0.697  0.00  0.00    -0.001 A 
ENDROOT
TORSDOF 0
ENDMDL
