MODEL 1
REMARK minimizedAffinity -1.7846607
REMARK minimizedRMSD -1
REMARK  0 active torsions:
REMARK  status: ('A' for Active; 'I' for Inactive)
ROOT
ATOM      1  C   UNL d   1       1.258   1.044  -1.616  0.00  0.00     0.077 C 
ATOM      2  C1  UNL d   1       0.460   0.632  -0.415  0.00  0.00    -0.074 A 
ATOM      3  C2  UNL d   1       0.798  -0.512   0.315  0.00  0.00    -0.005 A 
ATOM      4  C3  UNL d   1       0.052  -0.877   1.436  0.00  0.00     0.006 A 
ATOM      5  C4  UNL d   1      -1.037  -0.103   1.837  0.00  0.00    -0.005 A 
ATOM      6  C5  UNL d   1      -1.390   1.044   1.120  0.00  0.00    -0.074 A 
ATOM      7  C6  UNL d   1      -2.553   1.892   1.543  0.00  0.00     0.077 C 
ATOM      8  C7  UNL d   1      -0.632   1.408  -0.001  0.00  0.00    -0.001 A 
ENDROOT
TORSDOF 0
ENDMDL
