MODEL 1
REMARK minimizedAffinity -2.3704145
REMARK minimizedRMSD -1
REMARK  0 active torsions:
REMARK  status: ('A' for Active; 'I' for Inactive)
ROOT
ATOM      1  N1  IND d   1       1.627   0.116   3.466  0.00  0.00    -0.196 N 
ATOM      2  C2  IND d   1       0.295   0.373   3.632  0.00  0.00     0.054 A 
ATOM      3  C3  IND d   1      -0.387   0.067   2.505  0.00  0.00    -0.031 A 
ATOM      4  C4  IND d   1       0.467  -0.961   0.305  0.00  0.00     0.051 A 
ATOM      5  C5  IND d   1       1.615  -1.337  -0.334  0.00  0.00    -0.031 A 
ATOM      6  C6  IND d   1       2.851  -1.249   0.274  0.00  0.00     0.015 A 
ATOM      7  C7  IND d   1       2.983  -0.789   1.554  0.00  0.00    -0.016 A 
ATOM      8  C8  IND d   1       1.820  -0.400   2.203  0.00  0.00    -0.047 A 
ATOM      9  C9  IND d   1       0.569  -0.448   1.576  0.00  0.00    -0.096 A 
ATOM     10  HN1 IND d   1       2.241   0.255   4.051  0.00  0.00     0.298 HD
ENDROOT
TORSDOF 0
ENDMDL
