MODEL 1
REMARK minimizedAffinity -2.14050889
REMARK minimizedRMSD -1
REMARK  0 active torsions:
REMARK  status: ('A' for Active; 'I' for Inactive)
ROOT
ATOM      1  N1  IND d   1       3.666  -1.434  -1.497  0.00  0.00    -0.196 N 
ATOM      2  C2  IND d   1       4.102  -0.269  -2.062  0.00  0.00     0.054 A 
ATOM      3  C3  IND d   1       3.382   0.777  -1.598  0.00  0.00    -0.031 A 
ATOM      4  C4  IND d   1       1.511   0.819   0.170  0.00  0.00     0.051 A 
ATOM      5  C5  IND d   1       0.742  -0.004   0.943  0.00  0.00    -0.031 A 
ATOM      6  C6  IND d   1       0.913  -1.373   0.945  0.00  0.00     0.015 A 
ATOM      7  C7  IND d   1       1.872  -1.972   0.178  0.00  0.00    -0.016 A 
ATOM      8  C8  IND d   1       2.650  -1.140  -0.614  0.00  0.00    -0.047 A 
ATOM      9  C9  IND d   1       2.453   0.246  -0.652  0.00  0.00    -0.096 A 
ATOM     10  HN1 IND d   1       3.974  -2.220  -1.665  0.00  0.00     0.298 HD
ENDROOT
TORSDOF 0
ENDMDL
