MODEL 1
REMARK minimizedAffinity -2.03842235
REMARK minimizedRMSD -1
REMARK  0 active torsions:
REMARK  status: ('A' for Active; 'I' for Inactive)
ROOT
ATOM      1  N1  IND d   1       0.785   0.528   1.325  0.00  0.00    -0.196 N 
ATOM      2  C2  IND d   1      -0.047  -0.534   1.544  0.00  0.00     0.054 A 
ATOM      3  C3  IND d   1       0.311  -1.580   0.765  0.00  0.00    -0.031 A 
ATOM      4  C4  IND d   1       2.291  -1.802  -0.865  0.00  0.00     0.051 A 
ATOM      5  C5  IND d   1       3.309  -1.085  -1.428  0.00  0.00    -0.031 A 
ATOM      6  C6  IND d   1       3.544   0.233  -1.093  0.00  0.00     0.015 A 
ATOM      7  C7  IND d   1       2.773   0.882  -0.171  0.00  0.00    -0.016 A 
ATOM      8  C8  IND d   1       1.734   0.158   0.398  0.00  0.00    -0.047 A 
ATOM      9  C9  IND d   1       1.465  -1.166   0.031  0.00  0.00    -0.096 A 
ATOM     10  HN1 IND d   1       0.725   1.298   1.703  0.00  0.00     0.298 HD
ENDROOT
TORSDOF 0
ENDMDL
