MODEL 1
REMARK minimizedAffinity -3.40474081
REMARK minimizedRMSD -1
REMARK  0 active torsions:
REMARK  status: ('A' for Active; 'I' for Inactive)
ROOT
ATOM      1  N1  IND d   1       1.559  -1.296   1.068  0.00  0.00    -0.196 N 
ATOM      2  C2  IND d   1       0.735  -0.213   1.192  0.00  0.00     0.054 A 
ATOM      3  C3  IND d   1       1.055   0.730   0.277  0.00  0.00    -0.031 A 
ATOM      4  C4  IND d   1       2.828   0.662  -1.588  0.00  0.00     0.051 A 
ATOM      5  C5  IND d   1       3.850  -0.103  -2.076  0.00  0.00    -0.031 A 
ATOM      6  C6  IND d   1       4.165  -1.332  -1.531  0.00  0.00     0.015 A 
ATOM      7  C7  IND d   1       3.460  -1.847  -0.481  0.00  0.00    -0.016 A 
ATOM      8  C8  IND d   1       2.426  -1.070   0.021  0.00  0.00    -0.047 A 
ATOM      9  C9  IND d   1       2.129   0.196  -0.500  0.00  0.00    -0.096 A 
ATOM     10  HN1 IND d   1       1.540  -2.000   1.560  0.00  0.00     0.298 HD
ENDROOT
TORSDOF 0
ENDMDL
