MODEL 1
REMARK minimizedAffinity -0.300089359
REMARK minimizedRMSD -1
REMARK  0 active torsions:
REMARK  status: ('A' for Active; 'I' for Inactive)
ROOT
ATOM      1  N1  IND d   1       4.061   1.001  -1.953  0.00  0.00    -0.196 N 
ATOM      2  C2  IND d   1       4.953   0.044  -2.353  0.00  0.00     0.054 A 
ATOM      3  C3  IND d   1       4.635  -1.151  -1.808  0.00  0.00    -0.031 A 
ATOM      4  C4  IND d   1       2.639  -1.789  -0.313  0.00  0.00     0.051 A 
ATOM      5  C5  IND d   1       1.573  -1.248   0.351  0.00  0.00    -0.031 A 
ATOM      6  C6  IND d   1       1.276   0.098   0.276  0.00  0.00     0.015 A 
ATOM      7  C7  IND d   1       2.029   0.954  -0.477  0.00  0.00    -0.016 A 
ATOM      8  C8  IND d   1       3.115   0.409  -1.146  0.00  0.00    -0.047 A 
ATOM      9  C9  IND d   1       3.447  -0.948  -1.041  0.00  0.00    -0.096 A 
ATOM     10  HN1 IND d   1       4.088   1.833  -2.169  0.00  0.00     0.298 HD
ENDROOT
TORSDOF 0
ENDMDL
