MODEL 1
REMARK minimizedAffinity -3.53863788
REMARK minimizedRMSD -1
REMARK  0 active torsions:
REMARK  status: ('A' for Active; 'I' for Inactive)
ROOT
ATOM      1  N1  IND d   1       3.982  -1.142  -1.626  0.00  0.00    -0.196 N 
ATOM      2  C2  IND d   1       4.510  -0.225  -2.492  0.00  0.00     0.054 A 
ATOM      3  C3  IND d   1       3.836   0.944  -2.408  0.00  0.00    -0.031 A 
ATOM      4  C4  IND d   1       1.902   1.608  -0.844  0.00  0.00     0.051 A 
ATOM      5  C5  IND d   1       1.054   1.096   0.097  0.00  0.00    -0.031 A 
ATOM      6  C6  IND d   1       1.143  -0.214   0.524  0.00  0.00     0.015 A 
ATOM      7  C7  IND d   1       2.094  -1.061   0.030  0.00  0.00    -0.016 A 
ATOM      8  C8  IND d   1       2.952  -0.547  -0.932  0.00  0.00    -0.047 A 
ATOM      9  C9  IND d   1       2.840   0.769  -1.399  0.00  0.00    -0.096 A 
ATOM     10  HN1 IND d   1       4.249  -1.954  -1.530  0.00  0.00     0.298 HD
ENDROOT
TORSDOF 0
ENDMDL
