MODEL 1
REMARK minimizedAffinity 3.98628545
REMARK minimizedRMSD -1
REMARK  0 active torsions:
REMARK  status: ('A' for Active; 'I' for Inactive)
ROOT
ATOM      1  N1  IND d   1       3.684  -0.653  -1.523  0.00  0.00    -0.196 N 
ATOM      2  C2  IND d   1       3.500  -1.969  -1.848  0.00  0.00     0.054 A 
ATOM      3  C3  IND d   1       2.428  -2.468  -1.193  0.00  0.00    -0.031 A 
ATOM      4  C4  IND d   1       0.772  -1.280   0.380  0.00  0.00     0.051 A 
ATOM      5  C5  IND d   1       0.549  -0.086   1.006  0.00  0.00    -0.031 A 
ATOM      6  C6  IND d   1       1.375   1.003   0.815  0.00  0.00     0.015 A 
ATOM      7  C7  IND d   1       2.453   0.941  -0.022  0.00  0.00    -0.016 A 
ATOM      8  C8  IND d   1       2.686  -0.272  -0.654  0.00  0.00    -0.047 A 
ATOM      9  C9  IND d   1       1.876  -1.393  -0.431  0.00  0.00    -0.096 A 
ATOM     10  HN1 IND d   1       4.317  -0.149  -1.814  0.00  0.00     0.298 HD
ENDROOT
TORSDOF 0
ENDMDL
