MODEL 1
REMARK minimizedAffinity -0.384952068
REMARK minimizedRMSD -1
REMARK  0 active torsions:
REMARK  status: ('A' for Active; 'I' for Inactive)
ROOT
ATOM      1  N1  IND d   1       3.233  -1.755  -1.901  0.00  0.00    -0.196 N 
ATOM      2  C2  IND d   1       4.005  -0.651  -2.133  0.00  0.00     0.054 A 
ATOM      3  C3  IND d   1       3.670   0.345  -1.282  0.00  0.00    -0.031 A 
ATOM      4  C4  IND d   1       1.955   0.348   0.637  0.00  0.00     0.051 A 
ATOM      5  C5  IND d   1       0.982  -0.419   1.214  0.00  0.00    -0.031 A 
ATOM      6  C6  IND d   1       0.705  -1.698   0.774  0.00  0.00     0.015 A 
ATOM      7  C7  IND d   1       1.403  -2.263  -0.256  0.00  0.00    -0.016 A 
ATOM      8  C8  IND d   1       2.387  -1.485  -0.848  0.00  0.00    -0.047 A 
ATOM      9  C9  IND d   1       2.643  -0.171  -0.434  0.00  0.00    -0.096 A 
ATOM     10  HN1 IND d   1       3.269  -2.494  -2.339  0.00  0.00     0.298 HD
ENDROOT
TORSDOF 0
ENDMDL
