MODEL 1
REMARK minimizedAffinity -0.0992466733
REMARK minimizedRMSD -1
REMARK  0 active torsions:
REMARK  status: ('A' for Active; 'I' for Inactive)
ROOT
ATOM      1  N1  IND d   1       0.345  -2.689   1.386  0.00  0.00    -0.196 N 
ATOM      2  C2  IND d   1      -0.585  -1.774   1.795  0.00  0.00     0.054 A 
ATOM      3  C3  IND d   1      -0.226  -0.531   1.403  0.00  0.00    -0.031 A 
ATOM      4  C4  IND d   1       1.792   0.220  -0.007  0.00  0.00     0.051 A 
ATOM      5  C5  IND d   1       2.939  -0.250  -0.582  0.00  0.00    -0.031 A 
ATOM      6  C6  IND d   1       3.286  -1.585  -0.532  0.00  0.00     0.015 A 
ATOM      7  C7  IND d   1       2.489  -2.505   0.088  0.00  0.00    -0.016 A 
ATOM      8  C8  IND d   1       1.327  -2.030   0.680  0.00  0.00    -0.047 A 
ATOM      9  C9  IND d   1       0.991  -0.670   0.669  0.00  0.00    -0.096 A 
ATOM     10  HN1 IND d   1       0.321  -3.534   1.544  0.00  0.00     0.298 HD
ENDROOT
TORSDOF 0
ENDMDL
