MODEL 1
REMARK minimizedAffinity -0.265229821
REMARK minimizedRMSD -1
REMARK  0 active torsions:
REMARK  status: ('A' for Active; 'I' for Inactive)
ROOT
ATOM      1  N1  IND d   1       2.264   2.732   1.393  0.00  0.00    -0.196 N 
ATOM      2  C2  IND d   1       2.058   3.526   0.300  0.00  0.00     0.054 A 
ATOM      3  C3  IND d   1       1.592   2.791  -0.734  0.00  0.00    -0.031 A 
ATOM      4  C4  IND d   1       0.997   0.288  -0.824  0.00  0.00     0.051 A 
ATOM      5  C5  IND d   1       1.048  -0.859  -0.083  0.00  0.00    -0.031 A 
ATOM      6  C6  IND d   1       1.515  -0.867   1.216  0.00  0.00     0.015 A 
ATOM      7  C7  IND d   1       1.938   0.279   1.828  0.00  0.00    -0.016 A 
ATOM      8  C8  IND d   1       1.894   1.444   1.075  0.00  0.00    -0.047 A 
ATOM      9  C9  IND d   1       1.461   1.451  -0.257  0.00  0.00    -0.096 A 
ATOM     10  HN1 IND d   1       2.573   2.993   2.152  0.00  0.00     0.298 HD
ENDROOT
TORSDOF 0
ENDMDL
