MODEL 1
REMARK minimizedAffinity -2.85911369
REMARK minimizedRMSD -1
REMARK  0 active torsions:
REMARK  status: ('A' for Active; 'I' for Inactive)
ROOT
ATOM      1  N1  IND d   1       3.955  -1.450  -1.366  0.00  0.00    -0.196 N 
ATOM      2  C2  IND d   1       4.430  -0.259  -1.839  0.00  0.00     0.054 A 
ATOM      3  C3  IND d   1       3.567   0.740  -1.548  0.00  0.00    -0.031 A 
ATOM      4  C4  IND d   1       1.365   0.664  -0.216  0.00  0.00     0.051 A 
ATOM      5  C5  IND d   1       0.500  -0.207   0.385  0.00  0.00    -0.031 A 
ATOM      6  C6  IND d   1       0.749  -1.563   0.438  0.00  0.00     0.015 A 
ATOM      7  C7  IND d   1       1.883  -2.100  -0.103  0.00  0.00    -0.016 A 
ATOM      8  C8  IND d   1       2.760  -1.221  -0.721  0.00  0.00    -0.047 A 
ATOM      9  C9  IND d   1       2.492   0.151  -0.814  0.00  0.00    -0.096 A 
ATOM     10  HN1 IND d   1       4.338  -2.215  -1.457  0.00  0.00     0.298 HD
ENDROOT
TORSDOF 0
ENDMDL
