MODEL 1
REMARK minimizedAffinity -3.8036027
REMARK minimizedRMSD -1
REMARK  0 active torsions:
REMARK  status: ('A' for Active; 'I' for Inactive)
ROOT
ATOM      1  N1  IND d   1       4.450  -1.188  -1.792  0.00  0.00    -0.196 N 
ATOM      2  C2  IND d   1       4.598   0.077  -2.287  0.00  0.00     0.054 A 
ATOM      3  C3  IND d   1       3.547   0.848  -1.930  0.00  0.00    -0.031 A 
ATOM      4  C4  IND d   1       1.523   0.270  -0.448  0.00  0.00     0.051 A 
ATOM      5  C5  IND d   1       0.930  -0.774   0.206  0.00  0.00    -0.031 A 
ATOM      6  C6  IND d   1       1.493  -2.033   0.231  0.00  0.00     0.015 A 
ATOM      7  C7  IND d   1       2.681  -2.295  -0.391  0.00  0.00    -0.016 A 
ATOM      8  C8  IND d   1       3.282  -1.240  -1.063  0.00  0.00    -0.047 A 
ATOM      9  C9  IND d   1       2.694   0.030  -1.127  0.00  0.00    -0.096 A 
ATOM     10  HN1 IND d   1       4.994  -1.842  -1.914  0.00  0.00     0.298 HD
ENDROOT
TORSDOF 0
ENDMDL
