MODEL 1
REMARK minimizedAffinity -3.60547733
REMARK minimizedRMSD -1
REMARK  0 active torsions:
REMARK  status: ('A' for Active; 'I' for Inactive)
ROOT
ATOM      1  N1  IND d   1       3.547   0.902  -1.715  0.00  0.00    -0.196 N 
ATOM      2  C2  IND d   1       4.385  -0.097  -2.125  0.00  0.00     0.054 A 
ATOM      3  C3  IND d   1       4.018  -1.275  -1.571  0.00  0.00    -0.031 A 
ATOM      4  C4  IND d   1       2.015  -1.811  -0.045  0.00  0.00     0.051 A 
ATOM      5  C5  IND d   1       0.988  -1.217   0.633  0.00  0.00    -0.031 A 
ATOM      6  C6  IND d   1       0.755   0.141   0.559  0.00  0.00     0.015 A 
ATOM      7  C7  IND d   1       1.537   0.957  -0.208  0.00  0.00    -0.016 A 
ATOM      8  C8  IND d   1       2.586   0.359  -0.892  0.00  0.00    -0.047 A 
ATOM      9  C9  IND d   1       2.853  -1.013  -0.787  0.00  0.00    -0.096 A 
ATOM     10  HN1 IND d   1       3.611   1.731  -1.934  0.00  0.00     0.298 HD
ENDROOT
TORSDOF 0
ENDMDL
