MODEL 1
REMARK minimizedAffinity -6.11412001
REMARK minimizedRMSD -1
REMARK  0 active torsions:
REMARK  status: ('A' for Active; 'I' for Inactive)
ROOT
ATOM      1  N1  IND d   1       1.298  -0.993   0.339  0.00  0.00    -0.196 N 
ATOM      2  C2  IND d   1       0.569   0.158   0.454  0.00  0.00     0.054 A 
ATOM      3  C3  IND d   1       1.171   1.165  -0.219  0.00  0.00    -0.031 A 
ATOM      4  C4  IND d   1       3.301   1.124  -1.663  0.00  0.00     0.051 A 
ATOM      5  C5  IND d   1       4.332   0.309  -2.039  0.00  0.00    -0.031 A 
ATOM      6  C6  IND d   1       4.404  -1.009  -1.636  0.00  0.00     0.015 A 
ATOM      7  C7  IND d   1       3.438  -1.567  -0.848  0.00  0.00    -0.016 A 
ATOM      8  C8  IND d   1       2.393  -0.740  -0.458  0.00  0.00    -0.047 A 
ATOM      9  C9  IND d   1       2.337   0.610  -0.828  0.00  0.00    -0.096 A 
ATOM     10  HN1 IND d   1       1.105  -1.748   0.702  0.00  0.00     0.298 HD
ENDROOT
TORSDOF 0
ENDMDL
