MODEL 1
REMARK minimizedAffinity -3.00757599
REMARK minimizedRMSD -1
REMARK  0 active torsions:
REMARK  status: ('A' for Active; 'I' for Inactive)
ROOT
ATOM      1  N1  IND d   1       3.820  -1.202  -1.561  0.00  0.00    -0.196 N 
ATOM      2  C2  IND d   1       3.985  -0.030  -2.245  0.00  0.00     0.054 A 
ATOM      3  C3  IND d   1       3.070   0.881  -1.845  0.00  0.00    -0.031 A 
ATOM      4  C4  IND d   1       1.272   0.696  -0.011  0.00  0.00     0.051 A 
ATOM      5  C5  IND d   1       0.713  -0.193   0.864  0.00  0.00    -0.031 A 
ATOM      6  C6  IND d   1       1.172  -1.489   0.979  0.00  0.00     0.015 A 
ATOM      7  C7  IND d   1       2.220  -1.943   0.229  0.00  0.00    -0.016 A 
ATOM      8  C8  IND d   1       2.785  -1.045  -0.666  0.00  0.00    -0.047 A 
ATOM      9  C9  IND d   1       2.296   0.259  -0.817  0.00  0.00    -0.096 A 
ATOM     10  HN1 IND d   1       4.285  -1.917  -1.672  0.00  0.00     0.298 HD
ENDROOT
TORSDOF 0
ENDMDL
