MODEL 1
REMARK minimizedAffinity -1.71391034
REMARK minimizedRMSD -1
REMARK  0 active torsions:
REMARK  status: ('A' for Active; 'I' for Inactive)
ROOT
ATOM      1  N1  IND d   1       5.107  -1.134  -2.216  0.00  0.00    -0.196 N 
ATOM      2  C2  IND d   1       5.500   0.020  -2.833  0.00  0.00     0.054 A 
ATOM      3  C3  IND d   1       4.660   1.032  -2.518  0.00  0.00    -0.031 A 
ATOM      4  C4  IND d   1       2.637   1.042  -0.927  0.00  0.00     0.051 A 
ATOM      5  C5  IND d   1       1.866   0.214  -0.158  0.00  0.00    -0.031 A 
ATOM      6  C6  IND d   1       2.144  -1.131  -0.032  0.00  0.00     0.015 A 
ATOM      7  C7  IND d   1       3.214  -1.700  -0.663  0.00  0.00    -0.016 A 
ATOM      8  C8  IND d   1       3.994  -0.865  -1.449  0.00  0.00    -0.047 A 
ATOM      9  C9  IND d   1       3.693   0.493  -1.616  0.00  0.00    -0.096 A 
ATOM     10  HN1 IND d   1       5.490  -1.900  -2.293  0.00  0.00     0.298 HD
ENDROOT
TORSDOF 0
ENDMDL
