MODEL 1
REMARK minimizedAffinity -4.43517494
REMARK minimizedRMSD -1
REMARK  0 active torsions:
REMARK  status: ('A' for Active; 'I' for Inactive)
ROOT
ATOM      1  N1  IND d   1       3.535   0.817  -2.085  0.00  0.00    -0.196 N 
ATOM      2  C2  IND d   1       4.367  -0.203  -2.454  0.00  0.00     0.054 A 
ATOM      3  C3  IND d   1       4.052  -1.334  -1.784  0.00  0.00    -0.031 A 
ATOM      4  C4  IND d   1       2.145  -1.765  -0.109  0.00  0.00     0.051 A 
ATOM      5  C5  IND d   1       1.144  -1.129   0.571  0.00  0.00    -0.031 A 
ATOM      6  C6  IND d   1       0.882   0.215   0.395  0.00  0.00     0.015 A 
ATOM      7  C7  IND d   1       1.607   0.973  -0.480  0.00  0.00    -0.016 A 
ATOM      8  C8  IND d   1       2.628   0.332  -1.167  0.00  0.00    -0.047 A 
ATOM      9  C9  IND d   1       2.926  -1.021  -0.962  0.00  0.00    -0.096 A 
ATOM     10  HN1 IND d   1       3.571   1.625  -2.377  0.00  0.00     0.298 HD
ENDROOT
TORSDOF 0
ENDMDL
