MODEL 1
REMARK minimizedAffinity -0.745599747
REMARK minimizedRMSD -1
REMARK  0 active torsions:
REMARK  status: ('A' for Active; 'I' for Inactive)
ROOT
ATOM      1  C4' PXY d   1       5.996   0.912   0.762  0.00  0.00     0.077 C 
ATOM      2  C1' PXY d   1       1.432  -2.628   0.996  0.00  0.00     0.077 C 
ATOM      3  C1  PXY d   1       2.636  -1.709   0.940  0.00  0.00    -0.082 A 
ATOM      4  C2  PXY d   1       2.457  -0.401   0.846  0.00  0.00     0.003 A 
ATOM      5  C3  PXY d   1       3.535   0.442   0.763  0.00  0.00     0.003 A 
ATOM      6  C4  PXY d   1       4.809  -0.053   0.830  0.00  0.00    -0.082 A 
ATOM      7  C5  PXY d   1       5.000  -1.385   0.937  0.00  0.00     0.003 A 
ATOM      8  C6  PXY d   1       3.893  -2.228   0.978  0.00  0.00     0.003 A 
ENDROOT
TORSDOF 0
ENDMDL
