MODEL 1
REMARK minimizedAffinity 1.35648775
REMARK minimizedRMSD -1
REMARK  0 active torsions:
REMARK  status: ('A' for Active; 'I' for Inactive)
ROOT
ATOM      1  C4' PXY d   1       0.976   4.605  -4.032  0.00  0.00     0.077 C 
ATOM      2  C1' PXY d   1      -3.384   1.595  -1.720  0.00  0.00     0.077 C 
ATOM      3  C1  PXY d   1      -2.232   2.380  -2.318  0.00  0.00    -0.082 A 
ATOM      4  C2  PXY d   1      -2.481   3.470  -3.024  0.00  0.00     0.003 A 
ATOM      5  C3  PXY d   1      -1.453   4.174  -3.598  0.00  0.00     0.003 A 
ATOM      6  C4  PXY d   1      -0.154   3.787  -3.403  0.00  0.00    -0.082 A 
ATOM      7  C5  PXY d   1       0.108   2.681  -2.674  0.00  0.00     0.003 A 
ATOM      8  C6  PXY d   1      -0.952   1.958  -2.134  0.00  0.00     0.003 A 
ENDROOT
TORSDOF 0
ENDMDL
