MODEL 1
REMARK minimizedAffinity 3.95111823
REMARK minimizedRMSD -1
REMARK  0 active torsions:
REMARK  status: ('A' for Active; 'I' for Inactive)
ROOT
ATOM      1  C4' PXY d   1       5.969  -2.953   0.897  0.00  0.00     0.077 C 
ATOM      2  C1' PXY d   1       5.999   2.800   0.336  0.00  0.00     0.077 C 
ATOM      3  C1  PXY d   1       5.996   1.292   0.495  0.00  0.00    -0.082 A 
ATOM      4  C2  PXY d   1       5.994   0.521  -0.580  0.00  0.00     0.003 A 
ATOM      5  C3  PXY d   1       5.959  -0.844  -0.455  0.00  0.00     0.003 A 
ATOM      6  C4  PXY d   1       5.981  -1.426   0.784  0.00  0.00    -0.082 A 
ATOM      7  C5  PXY d   1       5.994  -0.647   1.886  0.00  0.00     0.003 A 
ATOM      8  C6  PXY d   1       5.987   0.737   1.737  0.00  0.00     0.003 A 
ENDROOT
TORSDOF 0
ENDMDL
