MODEL 1
REMARK minimizedAffinity 2.9891212
REMARK minimizedRMSD -1
REMARK  0 active torsions:
REMARK  status: ('A' for Active; 'I' for Inactive)
ROOT
ATOM      1  C4' PXY d   1       3.314  -3.103   1.066  0.00  0.00     0.077 C 
ATOM      2  C1' PXY d   1      -1.770  -0.747   2.485  0.00  0.00     0.077 C 
ATOM      3  C1  PXY d   1      -0.442  -1.369   2.101  0.00  0.00    -0.082 A 
ATOM      4  C2  PXY d   1       0.423  -1.698   3.047  0.00  0.00     0.003 A 
ATOM      5  C3  PXY d   1       1.642  -2.232   2.716  0.00  0.00     0.003 A 
ATOM      6  C4  PXY d   1       1.957  -2.481   1.407  0.00  0.00    -0.082 A 
ATOM      7  C5  PXY d   1       1.075  -2.158   0.437  0.00  0.00     0.003 A 
ATOM      8  C6  PXY d   1      -0.140  -1.579   0.791  0.00  0.00     0.003 A 
ENDROOT
TORSDOF 0
ENDMDL
