MODEL 1
REMARK minimizedAffinity 3.25291967
REMARK minimizedRMSD -1
REMARK  0 active torsions:
REMARK  status: ('A' for Active; 'I' for Inactive)
ROOT
ATOM      1  C4' PXY d   1       2.335  -3.840   0.881  0.00  0.00     0.077 C 
ATOM      2  C1' PXY d   1      -1.809  -0.420   3.014  0.00  0.00     0.077 C 
ATOM      3  C1  PXY d   1      -0.721  -1.309   2.445  0.00  0.00    -0.082 A 
ATOM      4  C2  PXY d   1      -0.676  -2.587   2.783  0.00  0.00     0.003 A 
ATOM      5  C3  PXY d   1       0.320  -3.398   2.303  0.00  0.00     0.003 A 
ATOM      6  C4  PXY d   1       1.249  -2.907   1.424  0.00  0.00    -0.082 A 
ATOM      7  C5  PXY d   1       1.204  -1.607   1.066  0.00  0.00     0.003 A 
ATOM      8  C6  PXY d   1       0.209  -0.791   1.597  0.00  0.00     0.003 A 
ENDROOT
TORSDOF 0
ENDMDL
