MODEL 1
REMARK minimizedAffinity 5.56706524
REMARK minimizedRMSD -1
REMARK  0 active torsions:
REMARK  status: ('A' for Active; 'I' for Inactive)
ROOT
ATOM      1  C4' PXY d   1       2.219  -3.612   1.291  0.00  0.00     0.077 C 
ATOM      2  C1' PXY d   1      -1.873   0.091   3.009  0.00  0.00     0.077 C 
ATOM      3  C1  PXY d   1      -0.806  -0.882   2.547  0.00  0.00    -0.082 A 
ATOM      4  C2  PXY d   1      -0.090  -1.541   3.443  0.00  0.00     0.003 A 
ATOM      5  C3  PXY d   1       0.900  -2.400   3.043  0.00  0.00     0.003 A 
ATOM      6  C4  PXY d   1       1.125  -2.627   1.712  0.00  0.00    -0.082 A 
ATOM      7  C5  PXY d   1       0.391  -1.967   0.791  0.00  0.00     0.003 A 
ATOM      8  C6  PXY d   1      -0.582  -1.067   1.218  0.00  0.00     0.003 A 
ENDROOT
TORSDOF 0
ENDMDL
