MODEL 1
REMARK minimizedAffinity 1.85968602
REMARK minimizedRMSD -1
REMARK  0 active torsions:
REMARK  status: ('A' for Active; 'I' for Inactive)
ROOT
ATOM      1  C4' PXY d   1       2.091   2.479  -5.822  0.00  0.00     0.077 C 
ATOM      2  C1' PXY d   1      -2.241   2.091  -2.015  0.00  0.00     0.077 C 
ATOM      3  C1  PXY d   1      -1.103   2.205  -3.010  0.00  0.00    -0.082 A 
ATOM      4  C2  PXY d   1      -1.056   1.385  -4.047  0.00  0.00     0.003 A 
ATOM      5  C3  PXY d   1      -0.017   1.453  -4.939  0.00  0.00     0.003 A 
ATOM      6  C4  PXY d   1       0.956   2.406  -4.798  0.00  0.00    -0.082 A 
ATOM      7  C5  PXY d   1       0.909   3.253  -3.748  0.00  0.00     0.003 A 
ATOM      8  C6  PXY d   1      -0.132   3.141  -2.831  0.00  0.00     0.003 A 
ENDROOT
TORSDOF 0
ENDMDL
