MODEL 1
REMARK minimizedAffinity -0.506741226
REMARK minimizedRMSD -1
REMARK  0 active torsions:
REMARK  status: ('A' for Active; 'I' for Inactive)
ROOT
ATOM      1  C4' PXY d   1      -2.555   0.193   3.914  0.00  0.00     0.077 C 
ATOM      2  C1' PXY d   1       1.421  -2.753   0.926  0.00  0.00     0.077 C 
ATOM      3  C1  PXY d   1       0.385  -1.982   1.721  0.00  0.00    -0.082 A 
ATOM      4  C2  PXY d   1      -0.858  -1.908   1.275  0.00  0.00     0.003 A 
ATOM      5  C3  PXY d   1      -1.800  -1.188   1.965  0.00  0.00     0.003 A 
ATOM      6  C4  PXY d   1      -1.479  -0.582   3.150  0.00  0.00    -0.082 A 
ATOM      7  C5  PXY d   1      -0.214  -0.662   3.616  0.00  0.00     0.003 A 
ATOM      8  C6  PXY d   1       0.737  -1.363   2.880  0.00  0.00     0.003 A 
ENDROOT
TORSDOF 0
ENDMDL
