MODEL 1
REMARK minimizedAffinity -0.344573408
REMARK minimizedRMSD -1
REMARK  0 active torsions:
REMARK  status: ('A' for Active; 'I' for Inactive)
ROOT
ATOM      1  C4' PXY d   1      -1.538   0.526   3.009  0.00  0.00     0.077 C 
ATOM      2  C1' PXY d   1       1.952  -3.566   0.889  0.00  0.00     0.077 C 
ATOM      3  C1  PXY d   1       1.035  -2.500   1.456  0.00  0.00    -0.082 A 
ATOM      4  C2  PXY d   1       0.394  -1.685   0.635  0.00  0.00     0.003 A 
ATOM      5  C3  PXY d   1      -0.415  -0.695   1.131  0.00  0.00     0.003 A 
ATOM      6  C4  PXY d   1      -0.610  -0.571   2.481  0.00  0.00    -0.082 A 
ATOM      7  C5  PXY d   1       0.033  -1.406   3.325  0.00  0.00     0.003 A 
ATOM      8  C6  PXY d   1       0.881  -2.378   2.802  0.00  0.00     0.003 A 
ENDROOT
TORSDOF 0
ENDMDL
