MODEL 1
REMARK minimizedAffinity 3.78997612
REMARK minimizedRMSD -1
REMARK  0 active torsions:
REMARK  status: ('A' for Active; 'I' for Inactive)
ROOT
ATOM      1  C4' PXY d   1       1.150  -2.126   2.290  0.00  0.00     0.077 C 
ATOM      2  C1' PXY d   1      -3.761   0.861   2.898  0.00  0.00     0.077 C 
ATOM      3  C1  PXY d   1      -2.467   0.089   2.738  0.00  0.00    -0.082 A 
ATOM      4  C2  PXY d   1      -2.493  -1.137   2.240  0.00  0.00     0.003 A 
ATOM      5  C3  PXY d   1      -1.335  -1.861   2.119  0.00  0.00     0.003 A 
ATOM      6  C4  PXY d   1      -0.131  -1.306   2.460  0.00  0.00    -0.082 A 
ATOM      7  C5  PXY d   1      -0.095  -0.052   2.959  0.00  0.00     0.003 A 
ATOM      8  C6  PXY d   1      -1.286   0.651   3.113  0.00  0.00     0.003 A 
ENDROOT
TORSDOF 0
ENDMDL
