MODEL 1
REMARK minimizedAffinity -3.97980118
REMARK minimizedRMSD -1
REMARK  0 active torsions:
REMARK  status: ('A' for Active; 'I' for Inactive)
ROOT
ATOM      1  C   UNL d   1      -2.249   0.441   0.042  0.00  0.00     0.023 A 
ATOM      2  C1  UNL d   1      -2.363   1.070   1.282  0.00  0.00     0.003 A 
ATOM      3  C2  UNL d   1      -1.370   0.898   2.248  0.00  0.00     0.048 A 
ATOM      4  C3  UNL d   1      -0.264   0.096   1.967  0.00  0.00     0.023 A 
ATOM      5  C4  UNL d   1      -0.145  -0.535   0.728  0.00  0.00     0.048 A 
ATOM      6  C5  UNL d   1      -1.142  -0.360  -0.234  0.00  0.00     0.003 A 
ATOM      7  I   UNL d   1       1.216  -0.162   3.403  0.00  0.00    -0.146 I 
ENDROOT
TORSDOF 0
ENDMDL
