MODEL 1
REMARK minimizedAffinity -3.35862088
REMARK minimizedRMSD -1
REMARK  0 active torsions:
REMARK  status: ('A' for Active; 'I' for Inactive)
ROOT
ATOM      1  C   UNL d   1      -1.132   0.777   1.655  0.00  0.00     0.023 A 
ATOM      2  C1  UNL d   1      -1.878   0.792   0.477  0.00  0.00     0.003 A 
ATOM      3  C2  UNL d   1      -1.241   0.638  -0.756  0.00  0.00     0.048 A 
ATOM      4  C3  UNL d   1       0.142   0.468  -0.804  0.00  0.00     0.023 A 
ATOM      5  C4  UNL d   1       0.893   0.452   0.373  0.00  0.00     0.048 A 
ATOM      6  C5  UNL d   1       0.252   0.608   1.603  0.00  0.00     0.003 A 
ATOM      7  I   UNL d   1       1.092   0.238  -2.638  0.00  0.00    -0.146 I 
ENDROOT
TORSDOF 0
ENDMDL
