MODEL 1
REMARK minimizedAffinity 1.00966465
REMARK minimizedRMSD -1
REMARK  0 active torsions:
REMARK  status: ('A' for Active; 'I' for Inactive)
ROOT
ATOM      1  C   UNL d   1      -1.673   0.498   1.141  0.00  0.00     0.023 A 
ATOM      2  C1  UNL d   1      -0.663   0.278   0.204  0.00  0.00     0.003 A 
ATOM      3  C2  UNL d   1       0.626  -0.050   0.628  0.00  0.00     0.048 A 
ATOM      4  C3  UNL d   1       0.898  -0.158   1.992  0.00  0.00     0.023 A 
ATOM      5  C4  UNL d   1      -0.109   0.060   2.933  0.00  0.00     0.048 A 
ATOM      6  C5  UNL d   1      -1.396   0.389   2.504  0.00  0.00     0.003 A 
ATOM      7  I   UNL d   1       2.816  -0.647   2.626  0.00  0.00    -0.146 I 
ENDROOT
TORSDOF 0
ENDMDL
