MODEL 1
REMARK minimizedAffinity -5.24286699
REMARK minimizedRMSD -1
REMARK  0 active torsions:
REMARK  status: ('A' for Active; 'I' for Inactive)
ROOT
ATOM      1  C   UNL d   1      -0.104   1.102   3.413  0.00  0.00     0.023 A 
ATOM      2  C1  UNL d   1      -1.044   1.308   2.404  0.00  0.00     0.003 A 
ATOM      3  C2  UNL d   1      -0.788   0.859   1.107  0.00  0.00     0.048 A 
ATOM      4  C3  UNL d   1       0.410   0.203   0.826  0.00  0.00     0.023 A 
ATOM      5  C4  UNL d   1       1.354  -0.007   1.834  0.00  0.00     0.048 A 
ATOM      6  C5  UNL d   1       1.094   0.445   3.129  0.00  0.00     0.003 A 
ATOM      7  I   UNL d   1       0.794  -0.468  -1.103  0.00  0.00    -0.146 I 
ENDROOT
TORSDOF 0
ENDMDL
