MODEL 1
REMARK minimizedAffinity -0.098188892
REMARK minimizedRMSD -1
REMARK  0 active torsions:
REMARK  status: ('A' for Active; 'I' for Inactive)
ROOT
ATOM      1  C   UNL d   1      -0.635  -0.301   1.694  0.00  0.00     0.023 A 
ATOM      2  C1  UNL d   1      -1.558  -0.052   0.678  0.00  0.00     0.003 A 
ATOM      3  C2  UNL d   1      -1.141  -0.028  -0.655  0.00  0.00     0.048 A 
ATOM      4  C3  UNL d   1       0.200  -0.256  -0.964  0.00  0.00     0.023 A 
ATOM      5  C4  UNL d   1       1.126  -0.507   0.050  0.00  0.00     0.048 A 
ATOM      6  C5  UNL d   1       0.705  -0.528   1.381  0.00  0.00     0.003 A 
ATOM      7  I   UNL d   1       0.822  -0.222  -2.946  0.00  0.00    -0.146 I 
ENDROOT
TORSDOF 0
ENDMDL
