MODEL 1
REMARK minimizedAffinity 9.90182686
REMARK minimizedRMSD -1
REMARK  0 active torsions:
REMARK  status: ('A' for Active; 'I' for Inactive)
ROOT
ATOM      1  C   UNL d   1       1.351  -1.518   3.204  0.00  0.00     0.020 A 
ATOM      2  C1  UNL d   1       0.251  -2.241   2.745  0.00  0.00     0.020 A 
ATOM      3  C2  UNL d   1       0.117  -2.519   1.383  0.00  0.00     0.034 A 
ATOM      4  C3  UNL d   1       1.085  -2.074   0.475  0.00  0.00     0.017 A 
ATOM      5  C4  UNL d   1       2.189  -1.349   0.937  0.00  0.00     0.017 A 
ATOM      6  C5  UNL d   1       2.318  -1.073   2.301  0.00  0.00     0.034 A 
ATOM      7 Cl   UNL d   1       3.424  -0.766  -0.123  0.00  0.00    -0.070 Cl
ATOM      8 Cl1  UNL d   1       0.855  -2.455  -1.195  0.00  0.00    -0.070 Cl
ENDROOT
TORSDOF 0
ENDMDL
