MODEL 1
REMARK minimizedAffinity 10.1133556
REMARK minimizedRMSD -1
REMARK  0 active torsions:
REMARK  status: ('A' for Active; 'I' for Inactive)
ROOT
ATOM      1  C   UNL d   1       1.337  -2.306   2.693  0.00  0.00     0.020 A 
ATOM      2  C1  UNL d   1       0.917  -1.895   3.957  0.00  0.00     0.020 A 
ATOM      3  C2  UNL d   1       1.015  -0.550   4.322  0.00  0.00     0.034 A 
ATOM      4  C3  UNL d   1       1.536   0.387   3.422  0.00  0.00     0.017 A 
ATOM      5  C4  UNL d   1       1.958  -0.027   2.154  0.00  0.00     0.017 A 
ATOM      6  C5  UNL d   1       1.857  -1.375   1.793  0.00  0.00     0.034 A 
ATOM      7 Cl   UNL d   1       2.611   1.071   0.990  0.00  0.00    -0.070 Cl
ATOM      8 Cl1  UNL d   1       1.629   2.033   3.940  0.00  0.00    -0.070 Cl
ENDROOT
TORSDOF 0
ENDMDL
