MODEL 1
REMARK minimizedAffinity 7.40802813
REMARK minimizedRMSD -1
REMARK  0 active torsions:
REMARK  status: ('A' for Active; 'I' for Inactive)
ROOT
ATOM      1  C   UNL d   1       1.690  -0.887   2.876  0.00  0.00     0.020 A 
ATOM      2  C1  UNL d   1       1.544  -1.808   1.840  0.00  0.00     0.020 A 
ATOM      3  C2  UNL d   1       1.787  -3.164   2.071  0.00  0.00     0.034 A 
ATOM      4  C3  UNL d   1       2.177  -3.602   3.342  0.00  0.00     0.017 A 
ATOM      5  C4  UNL d   1       2.323  -2.677   4.382  0.00  0.00     0.017 A 
ATOM      6  C5  UNL d   1       2.079  -1.321   4.145  0.00  0.00     0.034 A 
ATOM      7 Cl   UNL d   1       2.801  -3.142   5.976  0.00  0.00    -0.070 Cl
ATOM      8 Cl1  UNL d   1       2.460  -5.293   3.556  0.00  0.00    -0.070 Cl
ENDROOT
TORSDOF 0
ENDMDL
