MODEL 1
REMARK minimizedAffinity 3.74192548
REMARK minimizedRMSD -1
REMARK  0 active torsions:
REMARK  status: ('A' for Active; 'I' for Inactive)
ROOT
ATOM      1  C   UNL d   1       3.000  -5.984  -5.999  0.00  0.00     0.020 A 
ATOM      2  C1  UNL d   1       4.388  -5.999  -5.875  0.00  0.00     0.020 A 
ATOM      3  C2  UNL d   1       4.976  -6.000  -4.609  0.00  0.00     0.034 A 
ATOM      4  C3  UNL d   1       4.176  -5.986  -3.461  0.00  0.00     0.017 A 
ATOM      5  C4  UNL d   1       2.782  -5.972  -3.586  0.00  0.00     0.017 A 
ATOM      6  C5  UNL d   1       2.198  -5.970  -4.857  0.00  0.00     0.034 A 
ATOM      7 Cl   UNL d   1       1.728  -5.954  -2.216  0.00  0.00    -0.070 Cl
ATOM      8 Cl1  UNL d   1       4.970  -5.989  -1.927  0.00  0.00    -0.070 Cl
ENDROOT
TORSDOF 0
ENDMDL
