MODEL 1
REMARK minimizedAffinity 2.6177125
REMARK minimizedRMSD -1
REMARK  0 active torsions:
REMARK  status: ('A' for Active; 'I' for Inactive)
ROOT
ATOM      1  C   UNL d   1      -1.517   0.490  -1.166  0.00  0.00     0.020 A 
ATOM      2  C1  UNL d   1      -1.534   1.209   0.029  0.00  0.00     0.020 A 
ATOM      3  C2  UNL d   1      -2.455   2.243   0.209  0.00  0.00     0.034 A 
ATOM      4  C3  UNL d   1      -3.363   2.561  -0.807  0.00  0.00     0.017 A 
ATOM      5  C4  UNL d   1      -3.345   1.839  -2.006  0.00  0.00     0.017 A 
ATOM      6  C5  UNL d   1      -2.421   0.805  -2.181  0.00  0.00     0.034 A 
ATOM      7 Cl   UNL d   1      -4.435   2.174  -3.306  0.00  0.00    -0.070 Cl
ATOM      8 Cl1  UNL d   1      -4.475   3.852  -0.517  0.00  0.00    -0.070 Cl
ENDROOT
TORSDOF 0
ENDMDL
