MODEL 1
REMARK minimizedAffinity 12.8304129
REMARK minimizedRMSD -1
REMARK  0 active torsions:
REMARK  status: ('A' for Active; 'I' for Inactive)
ROOT
ATOM      1  C   UNL d   1       1.427  -4.928   2.594  0.00  0.00     0.020 A 
ATOM      2  C1  UNL d   1       1.834  -4.450   1.349  0.00  0.00     0.020 A 
ATOM      3  C2  UNL d   1       1.986  -3.078   1.144  0.00  0.00     0.034 A 
ATOM      4  C3  UNL d   1       1.730  -2.177   2.184  0.00  0.00     0.017 A 
ATOM      5  C4  UNL d   1       1.321  -2.658   3.434  0.00  0.00     0.017 A 
ATOM      6  C5  UNL d   1       1.171  -4.033   3.634  0.00  0.00     0.034 A 
ATOM      7 Cl   UNL d   1       0.987  -1.609   4.766  0.00  0.00    -0.070 Cl
ATOM      8 Cl1  UNL d   1       1.939  -0.493   1.859  0.00  0.00    -0.070 Cl
ENDROOT
TORSDOF 0
ENDMDL
