MODEL 1
REMARK minimizedAffinity -0.893570721
REMARK minimizedRMSD -1
REMARK  0 active torsions:
REMARK  status: ('A' for Active; 'I' for Inactive)
ROOT
ATOM      1  C4' PXY d   1       5.283  -0.512   4.794  0.00  0.00     0.077 C 
ATOM      2  C1' PXY d   1       5.254   4.859   2.657  0.00  0.00     0.077 C 
ATOM      3  C1  PXY d   1       5.250   3.448   3.212  0.00  0.00    -0.082 A 
ATOM      4  C2  PXY d   1       5.967   3.166   4.287  0.00  0.00     0.003 A 
ATOM      5  C3  PXY d   1       6.000   1.888   4.784  0.00  0.00     0.003 A 
ATOM      6  C4  PXY d   1       5.249   0.901   4.204  0.00  0.00    -0.082 A 
ATOM      7  C5  PXY d   1       4.507   1.183   3.113  0.00  0.00     0.003 A 
ATOM      8  C6  PXY d   1       4.519   2.476   2.600  0.00  0.00     0.003 A 
ENDROOT
TORSDOF 0
ENDMDL
