MODEL 1
REMARK minimizedAffinity -0.288747042
REMARK minimizedRMSD -1
REMARK  0 active torsions:
REMARK  status: ('A' for Active; 'I' for Inactive)
ROOT
ATOM      1  C4' PXY d   1       6.000   4.154   2.692  0.00  0.00     0.077 C 
ATOM      2  C1' PXY d   1       5.958  -0.651   5.905  0.00  0.00     0.077 C 
ATOM      3  C1  PXY d   1       5.974   0.603   5.052  0.00  0.00    -0.082 A 
ATOM      4  C2  PXY d   1       5.999   1.790   5.635  0.00  0.00     0.003 A 
ATOM      5  C3  PXY d   1       5.981   2.934   4.880  0.00  0.00     0.003 A 
ATOM      6  C4  PXY d   1       5.992   2.862   3.513  0.00  0.00    -0.082 A 
ATOM      7  C5  PXY d   1       5.978   1.654   2.910  0.00  0.00     0.003 A 
ATOM      8  C6  PXY d   1       5.954   0.505   3.695  0.00  0.00     0.003 A 
ENDROOT
TORSDOF 0
ENDMDL
