MODEL 1
REMARK minimizedAffinity 0.869722366
REMARK minimizedRMSD -1
REMARK  0 active torsions:
REMARK  status: ('A' for Active; 'I' for Inactive)
ROOT
ATOM      1  C4' PXY d   1       5.940   5.998   1.461  0.00  0.00     0.077 C 
ATOM      2  C1' PXY d   1       5.998   1.931   5.569  0.00  0.00     0.077 C 
ATOM      3  C1  PXY d   1       5.977   3.006   4.500  0.00  0.00    -0.082 A 
ATOM      4  C2  PXY d   1       5.983   2.659   3.223  0.00  0.00     0.003 A 
ATOM      5  C3  PXY d   1       5.997   3.619   2.244  0.00  0.00     0.003 A 
ATOM      6  C4  PXY d   1       5.950   4.947   2.574  0.00  0.00    -0.082 A 
ATOM      7  C5  PXY d   1       5.933   5.309   3.875  0.00  0.00     0.003 A 
ATOM      8  C6  PXY d   1       5.961   4.320   4.854  0.00  0.00     0.003 A 
ENDROOT
TORSDOF 0
ENDMDL
