MODEL 1
REMARK minimizedAffinity -0.692692816
REMARK minimizedRMSD -1
REMARK  0 active torsions:
REMARK  status: ('A' for Active; 'I' for Inactive)
ROOT
ATOM      1  C4' PXY d   1       5.965   0.224   2.919  0.00  0.00     0.077 C 
ATOM      2  C1' PXY d   1       6.000   5.271   5.736  0.00  0.00     0.077 C 
ATOM      3  C1  PXY d   1       5.986   3.953   4.987  0.00  0.00    -0.082 A 
ATOM      4  C2  PXY d   1       5.974   2.816   5.663  0.00  0.00     0.003 A 
ATOM      5  C3  PXY d   1       5.993   1.615   5.002  0.00  0.00     0.003 A 
ATOM      6  C4  PXY d   1       5.970   1.578   3.634  0.00  0.00    -0.082 A 
ATOM      7  C5  PXY d   1       5.971   2.733   2.936  0.00  0.00     0.003 A 
ATOM      8  C6  PXY d   1       5.993   3.942   3.626  0.00  0.00     0.003 A 
ENDROOT
TORSDOF 0
ENDMDL
