MODEL 1
REMARK minimizedAffinity -1.38727236
REMARK minimizedRMSD -1
REMARK  0 active torsions:
REMARK  status: ('A' for Active; 'I' for Inactive)
ROOT
ATOM      1  C4' PXY d   1       5.637  -2.949   4.963  0.00  0.00     0.077 C 
ATOM      2  C1' PXY d   1       5.992   2.815   4.711  0.00  0.00     0.077 C 
ATOM      3  C1  PXY d   1       5.895   1.303   4.764  0.00  0.00    -0.082 A 
ATOM      4  C2  PXY d   1       5.717   0.700   5.929  0.00  0.00     0.003 A 
ATOM      5  C3  PXY d   1       5.660  -0.668   5.999  0.00  0.00     0.003 A 
ATOM      6  C4  PXY d   1       5.731  -1.424   4.860  0.00  0.00    -0.082 A 
ATOM      7  C5  PXY d   1       5.902  -0.816   3.667  0.00  0.00     0.003 A 
ATOM      8  C6  PXY d   1       5.999   0.572   3.622  0.00  0.00     0.003 A 
ENDROOT
TORSDOF 0
ENDMDL
