MODEL 1
REMARK minimizedAffinity -3.0047009
REMARK minimizedRMSD -1
REMARK  0 active torsions:
REMARK  status: ('A' for Active; 'I' for Inactive)
ROOT
ATOM      1  C4' PXY d   1       5.999   5.868   3.003  0.00  0.00     0.077 C 
ATOM      2  C1' PXY d   1       5.602   0.303   4.514  0.00  0.00     0.077 C 
ATOM      3  C1  PXY d   1       5.709   1.759   4.105  0.00  0.00    -0.082 A 
ATOM      4  C2  PXY d   1       5.926   2.682   5.028  0.00  0.00     0.003 A 
ATOM      5  C3  PXY d   1       5.995   4.007   4.680  0.00  0.00     0.003 A 
ATOM      6  C4  PXY d   1       5.893   4.385   3.368  0.00  0.00    -0.082 A 
ATOM      7  C5  PXY d   1       5.682   3.448   2.420  0.00  0.00     0.003 A 
ATOM      8  C6  PXY d   1       5.575   2.113   2.799  0.00  0.00     0.003 A 
ENDROOT
TORSDOF 0
ENDMDL
