MODEL 1
REMARK minimizedAffinity 6.92502165
REMARK minimizedRMSD -1
REMARK  0 active torsions:
REMARK  status: ('A' for Active; 'I' for Inactive)
ROOT
ATOM      1  C4' PXY d   1      -1.084   4.961   3.282  0.00  0.00     0.077 C 
ATOM      2  C1' PXY d   1      -1.085  -0.819   3.300  0.00  0.00     0.077 C 
ATOM      3  C1  PXY d   1      -1.075   0.697   3.287  0.00  0.00    -0.082 A 
ATOM      4  C2  PXY d   1      -1.594   1.363   4.305  0.00  0.00     0.003 A 
ATOM      5  C3  PXY d   1      -1.622   2.734   4.295  0.00  0.00     0.003 A 
ATOM      6  C4  PXY d   1      -1.064   3.430   3.256  0.00  0.00    -0.082 A 
ATOM      7  C5  PXY d   1      -0.523   2.758   2.219  0.00  0.00     0.003 A 
ATOM      8  C6  PXY d   1      -0.542   1.366   2.229  0.00  0.00     0.003 A 
ENDROOT
TORSDOF 0
ENDMDL
