MODEL 1
REMARK minimizedAffinity -2.41271353
REMARK minimizedRMSD -1
REMARK  0 active torsions:
REMARK  status: ('A' for Active; 'I' for Inactive)
ROOT
ATOM      1  C4' PXY d   1       5.985  -0.810   5.775  0.00  0.00     0.077 C 
ATOM      2  C1' PXY d   1       5.987   3.770   2.248  0.00  0.00     0.077 C 
ATOM      3  C1  PXY d   1       5.981   2.562   3.163  0.00  0.00    -0.082 A 
ATOM      4  C2  PXY d   1       5.972   2.735   4.475  0.00  0.00     0.003 A 
ATOM      5  C3  PXY d   1       5.999   1.654   5.318  0.00  0.00     0.003 A 
ATOM      6  C4  PXY d   1       5.981   0.381   4.812  0.00  0.00    -0.082 A 
ATOM      7  C5  PXY d   1       5.980   0.196   3.475  0.00  0.00     0.003 A 
ATOM      8  C6  PXY d   1       5.994   1.307   2.637  0.00  0.00     0.003 A 
ENDROOT
TORSDOF 0
ENDMDL
