MODEL 1
REMARK minimizedAffinity -2.96711111
REMARK minimizedRMSD -1
REMARK  0 active torsions:
REMARK  status: ('A' for Active; 'I' for Inactive)
ROOT
ATOM      1  C4' PXY d   1       6.000  -0.841   4.852  0.00  0.00     0.077 C 
ATOM      2  C1' PXY d   1       5.978   4.360   2.329  0.00  0.00     0.077 C 
ATOM      3  C1  PXY d   1       5.989   3.001   3.002  0.00  0.00    -0.082 A 
ATOM      4  C2  PXY d   1       5.997   1.905   2.261  0.00  0.00     0.003 A 
ATOM      5  C3  PXY d   1       5.975   0.668   2.852  0.00  0.00     0.003 A 
ATOM      6  C4  PXY d   1       5.998   0.552   4.217  0.00  0.00    -0.082 A 
ATOM      7  C5  PXY d   1       6.000   1.666   4.979  0.00  0.00     0.003 A 
ATOM      8  C6  PXY d   1       5.981   2.912   4.359  0.00  0.00     0.003 A 
ENDROOT
TORSDOF 0
ENDMDL
