MODEL 1
REMARK minimizedAffinity 2.21771073
REMARK minimizedRMSD -1
REMARK  0 active torsions:
REMARK  status: ('A' for Active; 'I' for Inactive)
ROOT
ATOM      1  C4' PXY d   1       5.948   3.237   5.284  0.00  0.00     0.077 C 
ATOM      2  C1' PXY d   1       5.918   5.980   0.195  0.00  0.00     0.077 C 
ATOM      3  C1  PXY d   1       5.921   5.250   1.524  0.00  0.00    -0.082 A 
ATOM      4  C2  PXY d   1       5.855   5.941   2.650  0.00  0.00     0.003 A 
ATOM      5  C3  PXY d   1       5.890   5.299   3.861  0.00  0.00     0.003 A 
ATOM      6  C4  PXY d   1       5.938   3.932   3.919  0.00  0.00    -0.082 A 
ATOM      7  C5  PXY d   1       5.994   3.219   2.774  0.00  0.00     0.003 A 
ATOM      8  C6  PXY d   1       6.000   3.892   1.556  0.00  0.00     0.003 A 
ENDROOT
TORSDOF 0
ENDMDL
