MODEL 1
REMARK minimizedAffinity -0.31832993
REMARK minimizedRMSD -1
REMARK  0 active torsions:
REMARK  status: ('A' for Active; 'I' for Inactive)
ROOT
ATOM      1  C4' PXY d   1       5.950  -0.106   5.817  0.00  0.00     0.077 C 
ATOM      2  C1' PXY d   1       5.998   4.499   2.323  0.00  0.00     0.077 C 
ATOM      3  C1  PXY d   1       5.980   3.284   3.230  0.00  0.00    -0.082 A 
ATOM      4  C2  PXY d   1       5.981   3.448   4.543  0.00  0.00     0.003 A 
ATOM      5  C3  PXY d   1       5.997   2.360   5.377  0.00  0.00     0.003 A 
ATOM      6  C4  PXY d   1       5.958   1.092   4.863  0.00  0.00    -0.082 A 
ATOM      7  C5  PXY d   1       5.946   0.917   3.524  0.00  0.00     0.003 A 
ATOM      8  C6  PXY d   1       5.972   2.033   2.694  0.00  0.00     0.003 A 
ENDROOT
TORSDOF 0
ENDMDL
