MODEL 1
REMARK minimizedAffinity 2.19294643
REMARK minimizedRMSD -1
REMARK  0 active torsions:
REMARK  status: ('A' for Active; 'I' for Inactive)
ROOT
ATOM      1  C4' PXY d   1       5.999   5.015   1.994  0.00  0.00     0.077 C 
ATOM      2  C1' PXY d   1       5.946   0.833   5.984  0.00  0.00     0.077 C 
ATOM      3  C1  PXY d   1       5.965   1.922   4.929  0.00  0.00    -0.082 A 
ATOM      4  C2  PXY d   1       5.999   3.191   5.300  0.00  0.00     0.003 A 
ATOM      5  C3  PXY d   1       5.984   4.189   4.359  0.00  0.00     0.003 A 
ATOM      6  C4  PXY d   1       5.988   3.883   3.025  0.00  0.00    -0.082 A 
ATOM      7  C5  PXY d   1       5.964   2.590   2.638  0.00  0.00     0.003 A 
ATOM      8  C6  PXY d   1       5.938   1.592   3.609  0.00  0.00     0.003 A 
ENDROOT
TORSDOF 0
ENDMDL
