MODEL 1
REMARK minimizedAffinity -1.83962989
REMARK minimizedRMSD -1
REMARK  0 active torsions:
REMARK  status: ('A' for Active; 'I' for Inactive)
ROOT
ATOM      1  C4' PXY d   1       5.883  -0.996   5.628  0.00  0.00     0.077 C 
ATOM      2  C1' PXY d   1       5.994   4.210   3.119  0.00  0.00     0.077 C 
ATOM      3  C1  PXY d   1       5.959   2.840   3.766  0.00  0.00    -0.082 A 
ATOM      4  C2  PXY d   1       5.998   2.738   5.085  0.00  0.00     0.003 A 
ATOM      5  C3  PXY d   1       6.000   1.506   5.686  0.00  0.00     0.003 A 
ATOM      6  C4  PXY d   1       5.907   0.367   4.932  0.00  0.00    -0.082 A 
ATOM      7  C5  PXY d   1       5.856   0.463   3.586  0.00  0.00     0.003 A 
ATOM      8  C6  PXY d   1       5.897   1.722   2.994  0.00  0.00     0.003 A 
ENDROOT
TORSDOF 0
ENDMDL
