MODEL 1
REMARK minimizedAffinity -2.27542019
REMARK minimizedRMSD -1
REMARK  0 active torsions:
REMARK  status: ('A' for Active; 'I' for Inactive)
ROOT
ATOM      1  C4' PXY d   1       5.971   4.500   2.950  0.00  0.00     0.077 C 
ATOM      2  C1' PXY d   1       6.000  -0.993   4.752  0.00  0.00     0.077 C 
ATOM      3  C1  PXY d   1       5.987   0.451   4.291  0.00  0.00    -0.082 A 
ATOM      4  C2  PXY d   1       5.978   0.725   2.996  0.00  0.00     0.003 A 
ATOM      5  C3  PXY d   1       5.999   2.025   2.562  0.00  0.00     0.003 A 
ATOM      6  C4  PXY d   1       5.975   3.057   3.461  0.00  0.00    -0.082 A 
ATOM      7  C5  PXY d   1       5.973   2.786   4.784  0.00  0.00     0.003 A 
ATOM      8  C6  PXY d   1       5.994   1.459   5.205  0.00  0.00     0.003 A 
ENDROOT
TORSDOF 0
ENDMDL
