MODEL 1
REMARK minimizedAffinity 1.15659547
REMARK minimizedRMSD -1
REMARK  0 active torsions:
REMARK  status: ('A' for Active; 'I' for Inactive)
ROOT
ATOM      1  C4' PXY d   1       5.563  -1.146   4.497  0.00  0.00     0.077 C 
ATOM      2  C1' PXY d   1       6.000   4.586   5.101  0.00  0.00     0.077 C 
ATOM      3  C1  PXY d   1       5.882   3.084   4.930  0.00  0.00    -0.082 A 
ATOM      4  C2  PXY d   1       5.673   2.320   5.989  0.00  0.00     0.003 A 
ATOM      5  C3  PXY d   1       5.595   0.957   5.857  0.00  0.00     0.003 A 
ATOM      6  C4  PXY d   1       5.679   0.375   4.621  0.00  0.00    -0.082 A 
ATOM      7  C5  PXY d   1       5.882   1.149   3.534  0.00  0.00     0.003 A 
ATOM      8  C6  PXY d   1       5.999   2.527   3.694  0.00  0.00     0.003 A 
ENDROOT
TORSDOF 0
ENDMDL
