MODEL 1
REMARK minimizedAffinity 13.4574375
REMARK minimizedRMSD -1
REMARK  0 active torsions:
REMARK  status: ('A' for Active; 'I' for Inactive)
ROOT
ATOM      1  C4' PXY d   1      -3.402   4.728   4.964  0.00  0.00     0.077 C 
ATOM      2  C1' PXY d   1       0.474   3.219   0.950  0.00  0.00     0.077 C 
ATOM      3  C1  PXY d   1      -0.532   3.616   2.011  0.00  0.00    -0.082 A 
ATOM      4  C2  PXY d   1      -1.779   3.182   1.926  0.00  0.00     0.003 A 
ATOM      5  C3  PXY d   1      -2.710   3.558   2.859  0.00  0.00     0.003 A 
ATOM      6  C4  PXY d   1      -2.349   4.344   3.920  0.00  0.00    -0.082 A 
ATOM      7  C5  PXY d   1      -1.077   4.783   4.020  0.00  0.00     0.003 A 
ATOM      8  C6  PXY d   1      -0.156   4.424   3.040  0.00  0.00     0.003 A 
ENDROOT
TORSDOF 0
ENDMDL
