MODEL 1
REMARK minimizedAffinity -0.175677806
REMARK minimizedRMSD -1
REMARK  0 active torsions:
REMARK  status: ('A' for Active; 'I' for Inactive)
ROOT
ATOM      1  C4' PXY d   1       5.972   0.040   3.402  0.00  0.00     0.077 C 
ATOM      2  C1' PXY d   1       6.000   5.533   5.203  0.00  0.00     0.077 C 
ATOM      3  C1  PXY d   1       5.998   4.089   4.742  0.00  0.00    -0.082 A 
ATOM      4  C2  PXY d   1       5.995   3.816   3.447  0.00  0.00     0.003 A 
ATOM      5  C3  PXY d   1       5.961   2.515   3.013  0.00  0.00     0.003 A 
ATOM      6  C4  PXY d   1       5.984   1.484   3.913  0.00  0.00    -0.082 A 
ATOM      7  C5  PXY d   1       5.997   1.755   5.236  0.00  0.00     0.003 A 
ATOM      8  C6  PXY d   1       5.990   3.081   5.656  0.00  0.00     0.003 A 
ENDROOT
TORSDOF 0
ENDMDL
