MODEL 1
REMARK minimizedAffinity -1.95872808
REMARK minimizedRMSD -1
REMARK  0 active torsions:
REMARK  status: ('A' for Active; 'I' for Inactive)
ROOT
ATOM      1  C4' PXY d   1       5.994  -1.386   5.545  0.00  0.00     0.077 C 
ATOM      2  C1' PXY d   1       5.970   3.661   2.727  0.00  0.00     0.077 C 
ATOM      3  C1  PXY d   1       5.982   2.343   3.476  0.00  0.00    -0.082 A 
ATOM      4  C2  PXY d   1       6.000   1.206   2.800  0.00  0.00     0.003 A 
ATOM      5  C3  PXY d   1       5.978   0.005   3.462  0.00  0.00     0.003 A 
ATOM      6  C4  PXY d   1       5.991  -0.032   4.830  0.00  0.00    -0.082 A 
ATOM      7  C5  PXY d   1       5.984   1.124   5.527  0.00  0.00     0.003 A 
ATOM      8  C6  PXY d   1       5.964   2.332   4.837  0.00  0.00     0.003 A 
ENDROOT
TORSDOF 0
ENDMDL
