MODEL 1
REMARK minimizedAffinity -3.13369012
REMARK minimizedRMSD -1
REMARK  0 active torsions:
REMARK  status: ('A' for Active; 'I' for Inactive)
ROOT
ATOM      1  C4' PXY d   1       5.947  -1.709   5.697  0.00  0.00     0.077 C 
ATOM      2  C1' PXY d   1       5.999   3.670   3.582  0.00  0.00     0.077 C 
ATOM      3  C1  PXY d   1       5.980   2.255   4.125  0.00  0.00    -0.082 A 
ATOM      4  C2  PXY d   1       5.973   2.057   5.433  0.00  0.00     0.003 A 
ATOM      5  C3  PXY d   1       5.988   0.784   5.942  0.00  0.00     0.003 A 
ATOM      6  C4  PXY d   1       5.956  -0.298   5.104  0.00  0.00    -0.082 A 
ATOM      7  C5  PXY d   1       5.953  -0.104   3.768  0.00  0.00     0.003 A 
ATOM      8  C6  PXY d   1       5.979   1.196   3.271  0.00  0.00     0.003 A 
ENDROOT
TORSDOF 0
ENDMDL
