MODEL 1
REMARK minimizedAffinity 3.16175199
REMARK minimizedRMSD -1
REMARK  0 active torsions:
REMARK  status: ('A' for Active; 'I' for Inactive)
ROOT
ATOM      1  C4' PXY d   1       5.973   3.031   3.371  0.00  0.00     0.077 C 
ATOM      2  C1' PXY d   1       6.000  -2.589   4.721  0.00  0.00     0.077 C 
ATOM      3  C1  PXY d   1       5.998  -1.118   4.355  0.00  0.00    -0.082 A 
ATOM      4  C2  PXY d   1       5.997  -0.206   5.314  0.00  0.00     0.003 A 
ATOM      5  C3  PXY d   1       5.963   1.129   5.001  0.00  0.00     0.003 A 
ATOM      6  C4  PXY d   1       5.984   1.535   3.693  0.00  0.00    -0.082 A 
ATOM      7  C5  PXY d   1       5.996   0.610   2.710  0.00  0.00     0.003 A 
ATOM      8  C6  PXY d   1       5.989  -0.740   3.048  0.00  0.00     0.003 A 
ENDROOT
TORSDOF 0
ENDMDL
