MODEL 1
REMARK minimizedAffinity -0.312270701
REMARK minimizedRMSD -1
REMARK  0 active torsions:
REMARK  status: ('A' for Active; 'I' for Inactive)
ROOT
ATOM      1  C   UNL d   1       1.521   1.002  -4.259  0.00  0.00     0.124 A 
ATOM      2  C1  UNL d   1       2.662   0.316  -3.865  0.00  0.00     0.062 A 
ATOM      3  C2  UNL d   1       2.754  -0.209  -2.580  0.00  0.00     0.162 A 
ATOM      4  C3  UNL d   1       1.702  -0.050  -1.678  0.00  0.00    -0.034 A 
ATOM      5  C4  UNL d   1       0.559   0.642  -2.081  0.00  0.00     0.162 A 
ATOM      6  C5  UNL d   1       0.471   1.164  -3.367  0.00  0.00     0.062 A 
ATOM      7  F   UNL d   1      -0.632   1.827  -3.745  0.00  0.00    -0.097 F 
ATOM      8  F1  UNL d   1      -0.472   0.812  -1.239  0.00  0.00    -0.096 F 
ATOM      9  I   UNL d   1       1.836  -0.834   0.246  0.00  0.00    -0.060 I 
ATOM     10  F2  UNL d   1       3.868  -0.867  -2.227  0.00  0.00    -0.096 F 
ATOM     11  F3  UNL d   1       3.678   0.159  -4.726  0.00  0.00    -0.097 F 
ATOM     12  F4  UNL d   1       1.436   1.507  -5.497  0.00  0.00    -0.092 F 
ENDROOT
TORSDOF 0
ENDMDL
