MODEL 1
REMARK minimizedAffinity 5.59230995
REMARK minimizedRMSD -1
REMARK  0 active torsions:
REMARK  status: ('A' for Active; 'I' for Inactive)
ROOT
ATOM      1  C   UNL d   1       1.810   2.687   0.356  0.00  0.00     0.124 A 
ATOM      2  C1  UNL d   1       1.421   1.432  -0.092  0.00  0.00     0.062 A 
ATOM      3  C2  UNL d   1       1.652   1.057  -1.412  0.00  0.00     0.162 A 
ATOM      4  C3  UNL d   1       2.277   1.938  -2.295  0.00  0.00    -0.034 A 
ATOM      5  C4  UNL d   1       2.665   3.199  -1.837  0.00  0.00     0.162 A 
ATOM      6  C5  UNL d   1       2.431   3.569  -0.517  0.00  0.00     0.062 A 
ATOM      7  F   UNL d   1       2.808   4.781  -0.086  0.00  0.00    -0.097 F 
ATOM      8  F1  UNL d   1       3.268   4.071  -2.659  0.00  0.00    -0.096 F 
ATOM      9  I   UNL d   1       2.625   1.382  -4.270  0.00  0.00    -0.060 I 
ATOM     10  F2  UNL d   1       1.266  -0.162  -1.818  0.00  0.00    -0.096 F 
ATOM     11  F3  UNL d   1       0.819   0.578   0.749  0.00  0.00    -0.097 F 
ATOM     12  F4  UNL d   1       1.585   3.045   1.626  0.00  0.00    -0.092 F 
ENDROOT
TORSDOF 0
ENDMDL
