MODEL 1
REMARK minimizedAffinity 13.6019478
REMARK minimizedRMSD -1
REMARK  0 active torsions:
REMARK  status: ('A' for Active; 'I' for Inactive)
ROOT
ATOM      1  C   UNL d   1       2.820   1.854   0.982  0.00  0.00     0.124 A 
ATOM      2  C1  UNL d   1       2.753   1.462  -0.348  0.00  0.00     0.062 A 
ATOM      3  C2  UNL d   1       1.823   0.509  -0.751  0.00  0.00     0.162 A 
ATOM      4  C3  UNL d   1       0.951  -0.060   0.177  0.00  0.00    -0.034 A 
ATOM      5  C4  UNL d   1       1.025   0.338   1.513  0.00  0.00     0.162 A 
ATOM      6  C5  UNL d   1       1.956   1.291   1.911  0.00  0.00     0.062 A 
ATOM      7  F   UNL d   1       2.020   1.668   3.197  0.00  0.00    -0.097 F 
ATOM      8  F1  UNL d   1       0.201  -0.189   2.432  0.00  0.00    -0.096 F 
ATOM      9  I   UNL d   1      -0.441  -1.486  -0.422  0.00  0.00    -0.060 I 
ATOM     10  F2  UNL d   1       1.781   0.150  -2.043  0.00  0.00    -0.096 F 
ATOM     11  F3  UNL d   1       3.588   2.004  -1.247  0.00  0.00    -0.097 F 
ATOM     12  F4  UNL d   1       3.717   2.771   1.368  0.00  0.00    -0.092 F 
ENDROOT
TORSDOF 0
ENDMDL
