MODEL 1
REMARK minimizedAffinity 8.03373337
REMARK minimizedRMSD -1
REMARK  0 active torsions:
REMARK  status: ('A' for Active; 'I' for Inactive)
ROOT
ATOM      1  C   UNL d   1       0.624  -0.250   0.343  0.00  0.00     0.124 A 
ATOM      2  C1  UNL d   1       0.291  -0.309  -1.003  0.00  0.00     0.062 A 
ATOM      3  C2  UNL d   1       1.278  -0.539  -1.958  0.00  0.00     0.162 A 
ATOM      4  C3  UNL d   1       2.606  -0.712  -1.570  0.00  0.00    -0.034 A 
ATOM      5  C4  UNL d   1       2.933  -0.649  -0.215  0.00  0.00     0.162 A 
ATOM      6  C5  UNL d   1       1.944  -0.419   0.736  0.00  0.00     0.062 A 
ATOM      7  F   UNL d   1       2.267  -0.362   2.036  0.00  0.00    -0.097 F 
ATOM      8  F1  UNL d   1       4.201  -0.811   0.193  0.00  0.00    -0.096 F 
ATOM      9  I   UNL d   1       4.084  -1.056  -2.995  0.00  0.00    -0.060 I 
ATOM     10  F2  UNL d   1       0.928  -0.592  -3.252  0.00  0.00    -0.096 F 
ATOM     11  F3  UNL d   1      -0.983  -0.145  -1.385  0.00  0.00    -0.097 F 
ATOM     12  F4  UNL d   1      -0.327  -0.027   1.260  0.00  0.00    -0.092 F 
ENDROOT
TORSDOF 0
ENDMDL
