MODEL 1
REMARK minimizedAffinity 15.6766253
REMARK minimizedRMSD -1
REMARK  0 active torsions:
REMARK  status: ('A' for Active; 'I' for Inactive)
ROOT
ATOM      1  C   UNL d   1      -0.845  -1.351   4.741  0.00  0.00     0.124 A 
ATOM      2  C1  UNL d   1      -2.083  -1.913   4.463  0.00  0.00     0.062 A 
ATOM      3  C2  UNL d   1      -2.560  -1.944   3.155  0.00  0.00     0.162 A 
ATOM      4  C3  UNL d   1      -1.798  -1.411   2.115  0.00  0.00    -0.034 A 
ATOM      5  C4  UNL d   1      -0.554  -0.847   2.403  0.00  0.00     0.162 A 
ATOM      6  C5  UNL d   1      -0.081  -0.819   3.711  0.00  0.00     0.062 A 
ATOM      7  F   UNL d   1       1.115  -0.275   3.978  0.00  0.00    -0.097 F 
ATOM      8  F1  UNL d   1       0.205  -0.327   1.427  0.00  0.00    -0.096 F 
ATOM      9  I   UNL d   1      -2.507  -1.456   0.159  0.00  0.00    -0.060 I 
ATOM     10  F2  UNL d   1      -3.760  -2.493   2.916  0.00  0.00    -0.096 F 
ATOM     11  F3  UNL d   1      -2.823  -2.427   5.456  0.00  0.00    -0.097 F 
ATOM     12  F4  UNL d   1      -0.389  -1.322   6.000  0.00  0.00    -0.092 F 
ENDROOT
TORSDOF 0
ENDMDL
