MODEL 1
REMARK minimizedAffinity 8.59739017
REMARK minimizedRMSD -1
REMARK  0 active torsions:
REMARK  status: ('A' for Active; 'I' for Inactive)
ROOT
ATOM      1  C   UNL d   1       1.179   0.743   3.279  0.00  0.00     0.124 A 
ATOM      2  C1  UNL d   1       2.012   0.812   2.171  0.00  0.00     0.062 A 
ATOM      3  C2  UNL d   1       1.620   0.240   0.964  0.00  0.00     0.162 A 
ATOM      4  C3  UNL d   1       0.388  -0.406   0.858  0.00  0.00    -0.034 A 
ATOM      5  C4  UNL d   1      -0.444  -0.472   1.977  0.00  0.00     0.162 A 
ATOM      6  C5  UNL d   1      -0.048   0.102   3.181  0.00  0.00     0.062 A 
ATOM      7  F   UNL d   1      -0.854   0.034   4.251  0.00  0.00    -0.097 F 
ATOM      8  F1  UNL d   1      -1.635  -1.084   1.910  0.00  0.00    -0.096 F 
ATOM      9  I   UNL d   1      -0.202  -1.262  -0.945  0.00  0.00    -0.060 I 
ATOM     10  F2  UNL d   1       2.445   0.321  -0.091  0.00  0.00    -0.096 F 
ATOM     11  F3  UNL d   1       3.198   1.430   2.263  0.00  0.00    -0.097 F 
ATOM     12  F4  UNL d   1       1.559   1.293   4.439  0.00  0.00    -0.092 F 
ENDROOT
TORSDOF 0
ENDMDL
