MODEL 1
REMARK minimizedAffinity 10.1073475
REMARK minimizedRMSD -1
REMARK  0 active torsions:
REMARK  status: ('A' for Active; 'I' for Inactive)
ROOT
ATOM      1  C   UNL d   1      -2.009   0.148   2.317  0.00  0.00     0.124 A 
ATOM      2  C1  UNL d   1      -2.301   1.277   1.564  0.00  0.00     0.062 A 
ATOM      3  C2  UNL d   1      -3.182   1.194   0.490  0.00  0.00     0.162 A 
ATOM      4  C3  UNL d   1      -3.779  -0.024   0.162  0.00  0.00    -0.034 A 
ATOM      5  C4  UNL d   1      -3.480  -1.155   0.924  0.00  0.00     0.162 A 
ATOM      6  C5  UNL d   1      -2.599  -1.066   1.996  0.00  0.00     0.062 A 
ATOM      7  F   UNL d   1      -2.318  -2.158   2.723  0.00  0.00    -0.097 F 
ATOM      8  F1  UNL d   1      -4.036  -2.341   0.636  0.00  0.00    -0.096 F 
ATOM      9  I   UNL d   1      -5.097  -0.153  -1.443  0.00  0.00    -0.060 I 
ATOM     10  F2  UNL d   1      -3.445   2.301  -0.220  0.00  0.00    -0.096 F 
ATOM     11  F3  UNL d   1      -1.731   2.452   1.871  0.00  0.00    -0.097 F 
ATOM     12  F4  UNL d   1      -1.160   0.231   3.349  0.00  0.00    -0.092 F 
ENDROOT
TORSDOF 0
ENDMDL
