MODEL 1
REMARK minimizedAffinity -2.57434845
REMARK minimizedRMSD -1
REMARK  0 active torsions:
REMARK  status: ('A' for Active; 'I' for Inactive)
ROOT
ATOM      1  C   UNL d   1       5.094   5.338  -6.000  0.00  0.00     0.020 A 
ATOM      2  C1  UNL d   1       6.000   4.278  -5.977  0.00  0.00     0.020 A 
ATOM      3  C2  UNL d   1       5.567   2.998  -5.623  0.00  0.00     0.034 A 
ATOM      4  C3  UNL d   1       4.226   2.775  -5.291  0.00  0.00     0.017 A 
ATOM      5  C4  UNL d   1       3.318   3.840  -5.315  0.00  0.00     0.017 A 
ATOM      6  C5  UNL d   1       3.756   5.119  -5.670  0.00  0.00     0.034 A 
ATOM      7 Cl   UNL d   1       1.647   3.642  -4.918  0.00  0.00    -0.070 Cl
ATOM      8 Cl1  UNL d   1       3.761   1.167  -4.864  0.00  0.00    -0.070 Cl
ENDROOT
TORSDOF 0
ENDMDL
