MODEL 1
REMARK minimizedAffinity -2.25299621
REMARK minimizedRMSD -1
REMARK  0 active torsions:
REMARK  status: ('A' for Active; 'I' for Inactive)
ROOT
ATOM      1  C   UNL d   1       5.189   5.356  -6.000  0.00  0.00     0.020 A 
ATOM      2  C1  UNL d   1       5.999   4.231  -5.851  0.00  0.00     0.020 A 
ATOM      3  C2  UNL d   1       5.423   2.984  -5.598  0.00  0.00     0.034 A 
ATOM      4  C3  UNL d   1       4.033   2.859  -5.493  0.00  0.00     0.017 A 
ATOM      5  C4  UNL d   1       3.221   3.989  -5.642  0.00  0.00     0.017 A 
ATOM      6  C5  UNL d   1       3.803   5.235  -5.896  0.00  0.00     0.034 A 
ATOM      7 Cl   UNL d   1       1.498   3.913  -5.526  0.00  0.00    -0.070 Cl
ATOM      8 Cl1  UNL d   1       3.390   1.287  -5.179  0.00  0.00    -0.070 Cl
ENDROOT
TORSDOF 0
ENDMDL
