MODEL 1
REMARK minimizedAffinity 0.0358487964
REMARK minimizedRMSD -1
REMARK  0 active torsions:
REMARK  status: ('A' for Active; 'I' for Inactive)
ROOT
ATOM      1  C   UNL d   1       5.983   4.483  -6.000  0.00  0.00     0.020 A 
ATOM      2  C1  UNL d   1       5.178   5.594  -5.750  0.00  0.00     0.020 A 
ATOM      3  C2  UNL d   1       3.822   5.423  -5.464  0.00  0.00     0.034 A 
ATOM      4  C3  UNL d   1       3.266   4.139  -5.427  0.00  0.00     0.017 A 
ATOM      5  C4  UNL d   1       4.075   3.025  -5.679  0.00  0.00     0.017 A 
ATOM      6  C5  UNL d   1       5.432   3.201  -5.964  0.00  0.00     0.034 A 
ATOM      7 Cl   UNL d   1       3.461   1.410  -5.651  0.00  0.00    -0.070 Cl
ATOM      8 Cl1  UNL d   1       1.582   4.003  -5.067  0.00  0.00    -0.070 Cl
ENDROOT
TORSDOF 0
ENDMDL
