MODEL 1
REMARK minimizedAffinity -0.7813766
REMARK minimizedRMSD -1
REMARK  0 active torsions:
REMARK  status: ('A' for Active; 'I' for Inactive)
ROOT
ATOM      1  C   UNL d   1       4.878   5.245  -6.000  0.00  0.00     0.020 A 
ATOM      2  C1  UNL d   1       5.664   4.094  -5.999  0.00  0.00     0.020 A 
ATOM      3  C2  UNL d   1       5.065   2.839  -5.867  0.00  0.00     0.034 A 
ATOM      4  C3  UNL d   1       3.675   2.733  -5.735  0.00  0.00     0.017 A 
ATOM      5  C4  UNL d   1       2.887   3.890  -5.735  0.00  0.00     0.017 A 
ATOM      6  C5  UNL d   1       3.492   5.143  -5.868  0.00  0.00     0.034 A 
ATOM      7 Cl   UNL d   1       1.167   3.839  -5.577  0.00  0.00    -0.070 Cl
ATOM      8 Cl1  UNL d   1       3.002   1.150  -5.575  0.00  0.00    -0.070 Cl
ENDROOT
TORSDOF 0
ENDMDL
