MODEL 1
REMARK minimizedAffinity 2.60609508
REMARK minimizedRMSD -1
REMARK  0 active torsions:
REMARK  status: ('A' for Active; 'I' for Inactive)
ROOT
ATOM      1  C   UNL d   1       5.999   1.519   2.010  0.00  0.00     0.020 A 
ATOM      2  C1  UNL d   1       5.750   0.148   2.051  0.00  0.00     0.020 A 
ATOM      3  C2  UNL d   1       4.592  -0.370   1.468  0.00  0.00     0.034 A 
ATOM      4  C3  UNL d   1       3.678   0.485   0.841  0.00  0.00     0.017 A 
ATOM      5  C4  UNL d   1       3.929   1.861   0.800  0.00  0.00     0.017 A 
ATOM      6  C5  UNL d   1       5.090   2.374   1.386  0.00  0.00     0.034 A 
ATOM      7 Cl   UNL d   1       2.848   2.978   0.044  0.00  0.00    -0.070 Cl
ATOM      8 Cl1  UNL d   1       2.266  -0.223   0.140  0.00  0.00    -0.070 Cl
ENDROOT
TORSDOF 0
ENDMDL
