MODEL 1
REMARK minimizedAffinity -3.68404961
REMARK minimizedRMSD -1
REMARK  0 active torsions:
REMARK  status: ('A' for Active; 'I' for Inactive)
ROOT
ATOM      1  C   UNL d   1       1.559   5.696  -5.824  0.00  0.00     0.020 A 
ATOM      2  C1  UNL d   1       0.915   4.581  -5.287  0.00  0.00     0.020 A 
ATOM      3  C2  UNL d   1       1.656   3.454  -4.926  0.00  0.00     0.034 A 
ATOM      4  C3  UNL d   1       3.044   3.438  -5.102  0.00  0.00     0.017 A 
ATOM      5  C4  UNL d   1       3.689   4.557  -5.641  0.00  0.00     0.017 A 
ATOM      6  C5  UNL d   1       2.943   5.683  -6.000  0.00  0.00     0.034 A 
ATOM      7 Cl   UNL d   1       5.399   4.612  -5.887  0.00  0.00    -0.070 Cl
ATOM      8 Cl1  UNL d   1       3.897   2.010  -4.634  0.00  0.00    -0.070 Cl
ENDROOT
TORSDOF 0
ENDMDL
