MODEL 1
REMARK minimizedAffinity -2.07278395
REMARK minimizedRMSD -1
REMARK  0 active torsions:
REMARK  status: ('A' for Active; 'I' for Inactive)
ROOT
ATOM      1  C   UNL d   1       1.598   4.908  -5.314  0.00  0.00     0.020 A 
ATOM      2  C1  UNL d   1       2.457   5.898  -5.789  0.00  0.00     0.020 A 
ATOM      3  C2  UNL d   1       3.809   5.610  -5.994  0.00  0.00     0.034 A 
ATOM      4  C3  UNL d   1       4.304   4.330  -5.723  0.00  0.00     0.017 A 
ATOM      5  C4  UNL d   1       3.441   3.336  -5.247  0.00  0.00     0.017 A 
ATOM      6  C5  UNL d   1       2.089   3.630  -5.043  0.00  0.00     0.034 A 
ATOM      7 Cl   UNL d   1       3.979   1.733  -4.891  0.00  0.00    -0.070 Cl
ATOM      8 Cl1  UNL d   1       5.986   4.044  -6.000  0.00  0.00    -0.070 Cl
ENDROOT
TORSDOF 0
ENDMDL
