MODEL 1
REMARK minimizedAffinity 2.74383903
REMARK minimizedRMSD -1
REMARK  0 active torsions:
REMARK  status: ('A' for Active; 'I' for Inactive)
ROOT
ATOM      1  C   UNL d   1       2.180   4.911  -5.722  0.00  0.00     0.020 A 
ATOM      2  C1  UNL d   1       1.556   3.843  -5.079  0.00  0.00     0.020 A 
ATOM      3  C2  UNL d   1       2.298   2.719  -4.709  0.00  0.00     0.034 A 
ATOM      4  C3  UNL d   1       3.669   2.661  -4.983  0.00  0.00     0.017 A 
ATOM      5  C4  UNL d   1       4.295   3.733  -5.629  0.00  0.00     0.017 A 
ATOM      6  C5  UNL d   1       3.547   4.856  -5.996  0.00  0.00     0.034 A 
ATOM      7 Cl   UNL d   1       5.984   3.734  -6.000  0.00  0.00    -0.070 Cl
ATOM      8 Cl1  UNL d   1       4.525   1.240  -4.498  0.00  0.00    -0.070 Cl
ENDROOT
TORSDOF 0
ENDMDL
