MODEL 1
REMARK minimizedAffinity -1.21039844
REMARK minimizedRMSD -1
REMARK  0 active torsions:
REMARK  status: ('A' for Active; 'I' for Inactive)
ROOT
ATOM      1  C   UNL d   1       5.317   5.349  -5.936  0.00  0.00     0.020 A 
ATOM      2  C1  UNL d   1       5.977   4.130  -5.786  0.00  0.00     0.020 A 
ATOM      3  C2  UNL d   1       5.244   2.945  -5.700  0.00  0.00     0.034 A 
ATOM      4  C3  UNL d   1       3.846   2.976  -5.763  0.00  0.00     0.017 A 
ATOM      5  C4  UNL d   1       3.184   4.199  -5.913  0.00  0.00     0.017 A 
ATOM      6  C5  UNL d   1       3.923   5.383  -6.000  0.00  0.00     0.034 A 
ATOM      7 Cl   UNL d   1       1.462   4.318  -5.999  0.00  0.00    -0.070 Cl
ATOM      8 Cl1  UNL d   1       3.003   1.471  -5.649  0.00  0.00    -0.070 Cl
ENDROOT
TORSDOF 0
ENDMDL
