MODEL 1
REMARK minimizedAffinity 4.12162733
REMARK minimizedRMSD -1
REMARK  0 active torsions:
REMARK  status: ('A' for Active; 'I' for Inactive)
ROOT
ATOM      1  C   UNL d   1       3.144   1.312  -5.589  0.00  0.00     0.020 A 
ATOM      2  C1  UNL d   1       4.498   1.643  -5.629  0.00  0.00     0.020 A 
ATOM      3  C2  UNL d   1       4.886   2.979  -5.756  0.00  0.00     0.034 A 
ATOM      4  C3  UNL d   1       3.920   3.987  -5.844  0.00  0.00     0.017 A 
ATOM      5  C4  UNL d   1       2.561   3.653  -5.804  0.00  0.00     0.017 A 
ATOM      6  C5  UNL d   1       2.178   2.315  -5.676  0.00  0.00     0.034 A 
ATOM      7 Cl   UNL d   1       1.311   4.842  -5.907  0.00  0.00    -0.070 Cl
ATOM      8 Cl1  UNL d   1       4.471   5.617  -6.000  0.00  0.00    -0.070 Cl
ENDROOT
TORSDOF 0
ENDMDL
