MODEL 1
REMARK minimizedAffinity -0.219804525
REMARK minimizedRMSD -1
REMARK  0 active torsions:
REMARK  status: ('A' for Active; 'I' for Inactive)
ROOT
ATOM      1  C   UNL d   1       1.178   4.527  -5.316  0.00  0.00     0.020 A 
ATOM      2  C1  UNL d   1       1.834   5.659  -5.796  0.00  0.00     0.020 A 
ATOM      3  C2  UNL d   1       3.215   5.632  -6.000  0.00  0.00     0.034 A 
ATOM      4  C3  UNL d   1       3.945   4.470  -5.724  0.00  0.00     0.017 A 
ATOM      5  C4  UNL d   1       3.285   3.333  -5.243  0.00  0.00     0.017 A 
ATOM      6  C5  UNL d   1       1.902   3.366  -5.040  0.00  0.00     0.034 A 
ATOM      7 Cl   UNL d   1       4.117   1.862  -4.880  0.00  0.00    -0.070 Cl
ATOM      8 Cl1  UNL d   1       5.650   4.507  -6.000  0.00  0.00    -0.070 Cl
ENDROOT
TORSDOF 0
ENDMDL
