MODEL 1
REMARK minimizedAffinity 4.56349516
REMARK minimizedRMSD -1
REMARK  0 active torsions:
REMARK  status: ('A' for Active; 'I' for Inactive)
ROOT
ATOM      1  C   UNL d   1       2.140   0.337   1.442  0.00  0.00     0.020 A 
ATOM      2  C1  UNL d   1       2.140   1.578   0.808  0.00  0.00     0.020 A 
ATOM      3  C2  UNL d   1       3.343   2.258   0.604  0.00  0.00     0.034 A 
ATOM      4  C3  UNL d   1       4.551   1.697   1.035  0.00  0.00     0.017 A 
ATOM      5  C4  UNL d   1       4.550   0.451   1.671  0.00  0.00     0.017 A 
ATOM      6  C5  UNL d   1       3.343  -0.226   1.873  0.00  0.00     0.034 A 
ATOM      7 Cl   UNL d   1       6.000  -0.306   2.231  0.00  0.00    -0.070 Cl
ATOM      8 Cl1  UNL d   1       6.000   2.593   0.749  0.00  0.00    -0.070 Cl
ENDROOT
TORSDOF 0
ENDMDL
