MODEL 1
REMARK minimizedAffinity -1.65358698
REMARK minimizedRMSD -1
REMARK  0 active torsions:
REMARK  status: ('A' for Active; 'I' for Inactive)
ROOT
ATOM      1  C   UNL d   1       1.851   4.546  -5.997  0.00  0.00     0.020 A 
ATOM      2  C1  UNL d   1       2.027   3.163  -5.983  0.00  0.00     0.020 A 
ATOM      3  C2  UNL d   1       3.315   2.624  -5.973  0.00  0.00     0.034 A 
ATOM      4  C3  UNL d   1       4.432   3.468  -5.977  0.00  0.00     0.017 A 
ATOM      5  C4  UNL d   1       4.254   4.856  -5.990  0.00  0.00     0.017 A 
ATOM      6  C5  UNL d   1       2.962   5.391  -6.000  0.00  0.00     0.034 A 
ATOM      7 Cl   UNL d   1       5.583   5.961  -5.995  0.00  0.00    -0.070 Cl
ATOM      8 Cl1  UNL d   1       5.995   2.732  -5.963  0.00  0.00    -0.070 Cl
ENDROOT
TORSDOF 0
ENDMDL
