MODEL 1
REMARK minimizedAffinity -2.13567638
REMARK minimizedRMSD -1
REMARK  0 active torsions:
REMARK  status: ('A' for Active; 'I' for Inactive)
ROOT
ATOM      1  C   UNL d   1       0.887   4.762  -5.794  0.00  0.00     0.020 A 
ATOM      2  C1  UNL d   1       1.557   5.975  -5.942  0.00  0.00     0.020 A 
ATOM      3  C2  UNL d   1       2.953   6.000  -5.999  0.00  0.00     0.034 A 
ATOM      4  C3  UNL d   1       3.682   4.809  -5.908  0.00  0.00     0.017 A 
ATOM      5  C4  UNL d   1       3.008   3.591  -5.761  0.00  0.00     0.017 A 
ATOM      6  C5  UNL d   1       1.611   3.572  -5.704  0.00  0.00     0.034 A 
ATOM      7 Cl   UNL d   1       3.839   2.080  -5.643  0.00  0.00    -0.070 Cl
ATOM      8 Cl1  UNL d   1       5.405   4.913  -5.987  0.00  0.00    -0.070 Cl
ENDROOT
TORSDOF 0
ENDMDL
