MODEL 1
REMARK minimizedAffinity -3.15774012
REMARK minimizedRMSD -1
REMARK  0 active torsions:
REMARK  status: ('A' for Active; 'I' for Inactive)
ROOT
ATOM      1  C   UNL d   1       2.425   5.880  -5.925  0.00  0.00     0.020 A 
ATOM      2  C1  UNL d   1       1.493   4.855  -5.768  0.00  0.00     0.020 A 
ATOM      3  C2  UNL d   1       1.922   3.529  -5.681  0.00  0.00     0.034 A 
ATOM      4  C3  UNL d   1       3.286   3.224  -5.750  0.00  0.00     0.017 A 
ATOM      5  C4  UNL d   1       4.221   4.254  -5.907  0.00  0.00     0.017 A 
ATOM      6  C5  UNL d   1       3.786   5.580  -5.994  0.00  0.00     0.034 A 
ATOM      7 Cl   UNL d   1       5.921   3.957  -6.000  0.00  0.00    -0.070 Cl
ATOM      8 Cl1  UNL d   1       3.745   1.563  -5.634  0.00  0.00    -0.070 Cl
ENDROOT
TORSDOF 0
ENDMDL
