MODEL 1
REMARK minimizedAffinity 2.66844893
REMARK minimizedRMSD -1
REMARK  0 active torsions:
REMARK  status: ('A' for Active; 'I' for Inactive)
ROOT
ATOM      1  C   UNL d   1       3.200   2.063  -5.560  0.00  0.00     0.020 A 
ATOM      2  C1  UNL d   1       3.988   2.531  -4.509  0.00  0.00     0.020 A 
ATOM      3  C2  UNL d   1       3.684   3.749  -3.897  0.00  0.00     0.034 A 
ATOM      4  C3  UNL d   1       2.589   4.503  -4.336  0.00  0.00     0.017 A 
ATOM      5  C4  UNL d   1       1.799   4.033  -5.391  0.00  0.00     0.017 A 
ATOM      6  C5  UNL d   1       2.108   2.813  -6.000  0.00  0.00     0.034 A 
ATOM      7 Cl   UNL d   1       0.432   4.907  -5.987  0.00  0.00    -0.070 Cl
ATOM      8 Cl1  UNL d   1       2.271   6.000  -3.532  0.00  0.00    -0.070 Cl
ENDROOT
TORSDOF 0
ENDMDL
