MODEL 1
REMARK minimizedAffinity -0.646744668
REMARK minimizedRMSD -1
REMARK  0 active torsions:
REMARK  status: ('A' for Active; 'I' for Inactive)
ROOT
ATOM      1  C   UNL d   1       5.192   5.515  -6.000  0.00  0.00     0.020 A 
ATOM      2  C1  UNL d   1       6.000   4.379  -5.965  0.00  0.00     0.020 A 
ATOM      3  C2  UNL d   1       5.421   3.114  -5.844  0.00  0.00     0.034 A 
ATOM      4  C3  UNL d   1       4.030   2.982  -5.757  0.00  0.00     0.017 A 
ATOM      5  C4  UNL d   1       3.220   4.123  -5.792  0.00  0.00     0.017 A 
ATOM      6  C5  UNL d   1       3.805   5.387  -5.913  0.00  0.00     0.034 A 
ATOM      7 Cl   UNL d   1       1.497   4.039  -5.689  0.00  0.00    -0.070 Cl
ATOM      8 Cl1  UNL d   1       3.383   1.387  -5.608  0.00  0.00    -0.070 Cl
ENDROOT
TORSDOF 0
ENDMDL
