MODEL 1
REMARK minimizedAffinity -1.46713686
REMARK minimizedRMSD -1
REMARK  0 active torsions:
REMARK  status: ('A' for Active; 'I' for Inactive)
ROOT
ATOM      1  C   UNL d   1       5.905   4.893  -5.848  0.00  0.00     0.020 A 
ATOM      2  C1  UNL d   1       4.945   5.893  -5.999  0.00  0.00     0.020 A 
ATOM      3  C2  UNL d   1       3.593   5.597  -5.810  0.00  0.00     0.034 A 
ATOM      4  C3  UNL d   1       3.197   4.298  -5.470  0.00  0.00     0.017 A 
ATOM      5  C4  UNL d   1       4.162   3.295  -5.319  0.00  0.00     0.017 A 
ATOM      6  C5  UNL d   1       5.514   3.597  -5.509  0.00  0.00     0.034 A 
ATOM      7 Cl   UNL d   1       3.750   1.670  -4.900  0.00  0.00    -0.070 Cl
ATOM      8 Cl1  UNL d   1       1.509   4.004  -5.252  0.00  0.00    -0.070 Cl
ENDROOT
TORSDOF 0
ENDMDL
