MODEL 1
REMARK minimizedAffinity -1.26894629
REMARK minimizedRMSD -1
REMARK  2 active torsions:
REMARK  status: ('A' for Active; 'I' for Inactive)
REMARK    1  A    between atoms: C2'_3  and  C1'_4 
REMARK    2  A    between atoms: C1'_4  and  C1_5 
ROOT
ATOM      1  C1  I4B d   1      -4.887   3.151  -3.240  0.00  0.00    -0.075 A 
ATOM      2  C2  I4B d   1      -5.999   3.404  -4.003  0.00  0.00     0.003 A 
ATOM      3  C3  I4B d   1      -5.885   3.532  -5.409  0.00  0.00     0.002 A 
ATOM      4  C4  I4B d   1      -4.641   3.450  -6.000  0.00  0.00    -0.004 A 
ATOM      5  C5  I4B d   1      -3.518   3.171  -5.227  0.00  0.00     0.002 A 
ATOM      6  C6  I4B d   1      -3.643   3.008  -3.839  0.00  0.00     0.003 A 
ENDROOT
BRANCH   1   7
ATOM      7  C1' I4B d   1      -5.039   3.054  -1.755  0.00  0.00     0.060 C 
BRANCH   7   8
ATOM      8  C2' I4B d   1      -5.170   1.589  -1.393  0.00  0.00    -0.013 C 
ATOM      9  C4' I4B d   1      -5.583   0.768  -2.586  0.00  0.00     0.013 C 
ATOM     10  C3' I4B d   1      -3.852   1.126  -0.848  0.00  0.00     0.013 C 
ENDBRANCH   7   8
ENDBRANCH   1   7
TORSDOF 2
ENDMDL
