MODEL 1
REMARK minimizedAffinity -2.43652368
REMARK minimizedRMSD -1
REMARK  2 active torsions:
REMARK  status: ('A' for Active; 'I' for Inactive)
REMARK    1  A    between atoms: C2'_3  and  C1'_4 
REMARK    2  A    between atoms: C1'_4  and  C1_5 
ROOT
ATOM      1  C1  I4B d   1      -2.280   0.185  -2.649  0.00  0.00    -0.075 A 
ATOM      2  C2  I4B d   1      -2.118  -0.054  -3.991  0.00  0.00     0.003 A 
ATOM      3  C3  I4B d   1      -2.452   0.945  -4.938  0.00  0.00     0.002 A 
ATOM      4  C4  I4B d   1      -2.988   2.140  -4.504  0.00  0.00    -0.004 A 
ATOM      5  C5  I4B d   1      -3.129   2.389  -3.142  0.00  0.00     0.002 A 
ATOM      6  C6  I4B d   1      -2.762   1.411  -2.207  0.00  0.00     0.003 A 
ENDROOT
BRANCH   1   7
ATOM      7  C1' I4B d   1      -1.948  -0.903  -1.678  0.00  0.00     0.060 C 
BRANCH   7   8
ATOM      8  C2' I4B d   1      -0.582  -1.450  -2.038  0.00  0.00    -0.013 C 
ATOM      9  C4' I4B d   1       0.496  -0.826  -1.191  0.00  0.00     0.013 C 
ATOM     10  C3' I4B d   1      -0.617  -2.939  -1.859  0.00  0.00     0.013 C 
ENDBRANCH   7   8
ENDBRANCH   1   7
TORSDOF 2
ENDMDL
