MODEL 1
REMARK minimizedAffinity 0.862300158
REMARK minimizedRMSD -1
REMARK  2 active torsions:
REMARK  status: ('A' for Active; 'I' for Inactive)
REMARK    1  A    between atoms: C2'_3  and  C1'_4 
REMARK    2  A    between atoms: C1'_4  and  C1_5 
ROOT
ATOM      1  C1  I4B d   1      -0.724   1.503  -1.535  0.00  0.00    -0.075 A 
ATOM      2  C2  I4B d   1      -1.221   0.531  -0.705  0.00  0.00     0.003 A 
ATOM      3  C3  I4B d   1      -1.159  -0.832  -1.085  0.00  0.00     0.002 A 
ATOM      4  C4  I4B d   1      -0.639  -1.170  -2.318  0.00  0.00    -0.004 A 
ATOM      5  C5  I4B d   1      -0.114  -0.185  -3.148  0.00  0.00     0.002 A 
ATOM      6  C6  I4B d   1      -0.145   1.160  -2.750  0.00  0.00     0.003 A 
ENDROOT
BRANCH   1   7
ATOM      7  C1' I4B d   1      -0.836   2.935  -1.117  0.00  0.00     0.060 C 
BRANCH   7   8
ATOM      8  C2' I4B d   1       0.493   3.353  -0.521  0.00  0.00    -0.013 C 
ATOM      9  C4' I4B d   1       0.740   4.825  -0.718  0.00  0.00     0.013 C 
ATOM     10  C3' I4B d   1       0.479   2.997   0.936  0.00  0.00     0.013 C 
ENDBRANCH   7   8
ENDBRANCH   1   7
TORSDOF 2
ENDMDL
