MODEL 1
REMARK minimizedAffinity 3.90427279
REMARK minimizedRMSD -1
REMARK  2 active torsions:
REMARK  status: ('A' for Active; 'I' for Inactive)
REMARK    1  A    between atoms: C2'_3  and  C1'_4 
REMARK    2  A    between atoms: C1'_4  and  C1_5 
ROOT
ATOM      1  C1  I4B d   1      -0.545  -2.913  -2.497  0.00  0.00    -0.075 A 
ATOM      2  C2  I4B d   1      -1.801  -3.341  -2.847  0.00  0.00     0.003 A 
ATOM      3  C3  I4B d   1      -2.166  -3.442  -4.211  0.00  0.00     0.002 A 
ATOM      4  C4  I4B d   1      -1.267  -3.059  -5.185  0.00  0.00    -0.004 A 
ATOM      5  C5  I4B d   1       0.014  -2.646  -4.829  0.00  0.00     0.002 A 
ATOM      6  C6  I4B d   1       0.382  -2.585  -3.477  0.00  0.00     0.003 A 
ENDROOT
BRANCH   1   7
ATOM      7  C1' I4B d   1      -0.205  -2.787  -1.046  0.00  0.00     0.060 C 
BRANCH   7   8
ATOM      8  C2' I4B d   1       0.997  -3.668  -0.770  0.00  0.00    -0.013 C 
ATOM      9  C4' I4B d   1       1.807  -3.140   0.384  0.00  0.00     0.013 C 
ATOM     10  C3' I4B d   1       0.500  -5.055  -0.493  0.00  0.00     0.013 C 
ENDBRANCH   7   8
ENDBRANCH   1   7
TORSDOF 2
ENDMDL
