MODEL 1
REMARK minimizedAffinity 7.96043777
REMARK minimizedRMSD -1
REMARK  2 active torsions:
REMARK  status: ('A' for Active; 'I' for Inactive)
REMARK    1  A    between atoms: C2'_3  and  C1'_4 
REMARK    2  A    between atoms: C1'_4  and  C1_5 
ROOT
ATOM      1  C1  I4B d   1       0.725   1.541  -0.557  0.00  0.00    -0.075 A 
ATOM      2  C2  I4B d   1      -0.245   2.180  -1.288  0.00  0.00     0.003 A 
ATOM      3  C3  I4B d   1      -0.969   3.257  -0.723  0.00  0.00     0.002 A 
ATOM      4  C4  I4B d   1      -0.727   3.628   0.585  0.00  0.00    -0.004 A 
ATOM      5  C5  I4B d   1       0.273   2.994   1.316  0.00  0.00     0.002 A 
ATOM      6  C6  I4B d   1       1.012   1.952   0.738  0.00  0.00     0.003 A 
ENDROOT
BRANCH   1   7
ATOM      7  C1' I4B d   1       1.448   0.385  -1.173  0.00  0.00     0.060 C 
BRANCH   7   8
ATOM      8  C2' I4B d   1       0.437  -0.441  -1.943  0.00  0.00    -0.013 C 
ATOM      9  C4' I4B d   1       0.717  -0.404  -3.422  0.00  0.00     0.013 C 
ATOM     10  C3' I4B d   1       0.489  -1.844  -1.416  0.00  0.00     0.013 C 
ENDBRANCH   7   8
ENDBRANCH   1   7
TORSDOF 2
ENDMDL
