MODEL 1
REMARK minimizedAffinity 4.03411627
REMARK minimizedRMSD -1
REMARK  2 active torsions:
REMARK  status: ('A' for Active; 'I' for Inactive)
REMARK    1  A    between atoms: C2'_3  and  C1'_4 
REMARK    2  A    between atoms: C1'_4  and  C1_5 
ROOT
ATOM      1  C1  I4B d   1       1.000  -0.218  -0.711  0.00  0.00    -0.075 A 
ATOM      2  C2  I4B d   1      -0.040  -1.006  -1.137  0.00  0.00     0.003 A 
ATOM      3  C3  I4B d   1      -0.090  -2.375  -0.779  0.00  0.00     0.002 A 
ATOM      4  C4  I4B d   1       0.940  -2.922  -0.041  0.00  0.00    -0.004 A 
ATOM      5  C5  I4B d   1       1.982  -2.116   0.409  0.00  0.00     0.002 A 
ATOM      6  C6  I4B d   1       2.006  -0.753   0.083  0.00  0.00     0.003 A 
ENDROOT
BRANCH   1   7
ATOM      7  C1' I4B d   1       1.038   1.216  -1.135  0.00  0.00     0.060 C 
BRANCH   7   8
ATOM      8  C2' I4B d   1       0.078   1.989  -0.254  0.00  0.00    -0.013 C 
ATOM      9  C4' I4B d   1       0.793   2.610   0.917  0.00  0.00     0.013 C 
ATOM     10  C3' I4B d   1      -0.586   3.035  -1.100  0.00  0.00     0.013 C 
ENDBRANCH   7   8
ENDBRANCH   1   7
TORSDOF 2
ENDMDL
