MODEL 1
REMARK minimizedAffinity 0.217868865
REMARK minimizedRMSD -1
REMARK  2 active torsions:
REMARK  status: ('A' for Active; 'I' for Inactive)
REMARK    1  A    between atoms: C2'_3  and  C1'_4 
REMARK    2  A    between atoms: C1'_4  and  C1_5 
ROOT
ATOM      1  C1  I4B d   1      -0.294   1.138  -1.181  0.00  0.00    -0.075 A 
ATOM      2  C2  I4B d   1       0.217  -0.002  -1.750  0.00  0.00     0.003 A 
ATOM      3  C3  I4B d   1      -0.565  -1.181  -1.807  0.00  0.00     0.002 A 
ATOM      4  C4  I4B d   1      -1.823  -1.190  -1.242  0.00  0.00    -0.004 A 
ATOM      5  C5  I4B d   1      -2.348  -0.027  -0.686  0.00  0.00     0.002 A 
ATOM      6  C6  I4B d   1      -1.583   1.148  -0.666  0.00  0.00     0.003 A 
ENDROOT
BRANCH   1   7
ATOM      7  C1' I4B d   1       0.571   2.357  -1.108  0.00  0.00     0.060 C 
BRANCH   7   8
ATOM      8  C2' I4B d   1      -0.040   3.303  -0.095  0.00  0.00    -0.013 C 
ATOM      9  C4' I4B d   1       0.482   3.030   1.291  0.00  0.00     0.013 C 
ATOM     10  C3' I4B d   1       0.272   4.706  -0.524  0.00  0.00     0.013 C 
ENDBRANCH   7   8
ENDBRANCH   1   7
TORSDOF 2
ENDMDL
