MODEL 1
REMARK minimizedAffinity -5.40742445
REMARK minimizedRMSD -1
REMARK  1 active torsions:
REMARK  status: ('A' for Active; 'I' for Inactive)
REMARK    1  A    between atoms: C1_2  and  C2_3 
ROOT
ATOM      1  C2  UNL d   1      -3.862   3.215  -2.549  0.00  0.00    -0.081 A 
ATOM      2  C3  UNL d   1      -2.905   4.182  -2.214  0.00  0.00     0.006 A 
ATOM      3  C4  UNL d   1      -1.594   3.806  -1.913  0.00  0.00     0.002 A 
ATOM      4  C5  UNL d   1      -1.216   2.459  -1.949  0.00  0.00    -0.080 A 
ATOM      5  C6  UNL d   1       0.196   2.045  -1.657  0.00  0.00     0.076 C 
ATOM      6  C7  UNL d   1      -2.176   1.492  -2.266  0.00  0.00     0.002 A 
ATOM      7  C8  UNL d   1      -3.487   1.868  -2.567  0.00  0.00     0.006 A 
ENDROOT
BRANCH   1   8
ATOM      8  C1  UNL d   1      -5.260   3.623  -2.937  0.00  0.00     0.054 C 
ATOM      9  C   UNL d   1      -5.997   2.485  -3.627  0.00  0.00     0.018 C 
ENDBRANCH   1   8
TORSDOF 1
ENDMDL
