MODEL 1
REMARK minimizedAffinity -3.99686193
REMARK minimizedRMSD -1
REMARK  1 active torsions:
REMARK  status: ('A' for Active; 'I' for Inactive)
REMARK    1  A    between atoms: C1_2  and  C2_3 
ROOT
ATOM      1  C2  UNL d   1       0.234  -0.169  -1.091  0.00  0.00    -0.081 A 
ATOM      2  C3  UNL d   1      -0.671   0.053  -0.045  0.00  0.00     0.006 A 
ATOM      3  C4  UNL d   1      -0.300  -0.196   1.278  0.00  0.00     0.002 A 
ATOM      4  C5  UNL d   1       0.984  -0.663   1.579  0.00  0.00    -0.080 A 
ATOM      5  C6  UNL d   1       1.405  -0.905   2.998  0.00  0.00     0.076 C 
ATOM      6  C7  UNL d   1       1.882  -0.902   0.534  0.00  0.00     0.002 A 
ATOM      7  C8  UNL d   1       1.511  -0.654  -0.790  0.00  0.00     0.006 A 
ENDROOT
BRANCH   1   8
ATOM      8  C1  UNL d   1      -0.142   0.159  -2.513  0.00  0.00     0.054 C 
ATOM      9  C   UNL d   1      -0.561   1.616  -2.652  0.00  0.00     0.018 C 
ENDBRANCH   1   8
TORSDOF 1
ENDMDL
