MODEL 1
REMARK minimizedAffinity -0.871918678
REMARK minimizedRMSD -1
REMARK  1 active torsions:
REMARK  status: ('A' for Active; 'I' for Inactive)
REMARK    1  A    between atoms: C1_2  and  C2_3 
ROOT
ATOM      1  C2  UNL d   1      -0.267   0.571  -1.352  0.00  0.00    -0.081 A 
ATOM      2  C3  UNL d   1      -1.138   0.820  -0.285  0.00  0.00     0.006 A 
ATOM      3  C4  UNL d   1      -0.995   0.132   0.922  0.00  0.00     0.002 A 
ATOM      4  C5  UNL d   1       0.026  -0.811   1.084  0.00  0.00    -0.080 A 
ATOM      5  C6  UNL d   1       0.210  -1.535   2.385  0.00  0.00     0.076 C 
ATOM      6  C7  UNL d   1       0.886  -1.073   0.012  0.00  0.00     0.002 A 
ATOM      7  C8  UNL d   1       0.742  -0.385  -1.195  0.00  0.00     0.006 A 
ENDROOT
BRANCH   1   8
ATOM      8  C1  UNL d   1      -0.379   1.358  -2.633  0.00  0.00     0.054 C 
ATOM      9  C   UNL d   1      -1.780   1.924  -2.814  0.00  0.00     0.018 C 
ENDBRANCH   1   8
TORSDOF 1
ENDMDL
