MODEL 1
REMARK minimizedAffinity -4.61657906
REMARK minimizedRMSD -1
REMARK  1 active torsions:
REMARK  status: ('A' for Active; 'I' for Inactive)
REMARK    1  A    between atoms: C1_2  and  C2_3 
ROOT
ATOM      1  C2  UNL d   1      -1.015   0.745  -1.215  0.00  0.00    -0.081 A 
ATOM      2  C3  UNL d   1      -1.654   0.758   0.031  0.00  0.00     0.006 A 
ATOM      3  C4  UNL d   1      -1.118   0.050   1.109  0.00  0.00     0.002 A 
ATOM      4  C5  UNL d   1       0.069  -0.675   0.962  0.00  0.00    -0.080 A 
ATOM      5  C6  UNL d   1       0.672  -1.415   2.119  0.00  0.00     0.076 C 
ATOM      6  C7  UNL d   1       0.698  -0.703  -0.288  0.00  0.00     0.002 A 
ATOM      7  C8  UNL d   1       0.162   0.004  -1.366  0.00  0.00     0.006 A 
ENDROOT
BRANCH   1   8
ATOM      8  C1  UNL d   1      -1.556   1.560  -2.362  0.00  0.00     0.054 C 
ATOM      9  C   UNL d   1      -2.230   2.832  -1.868  0.00  0.00     0.018 C 
ENDBRANCH   1   8
TORSDOF 1
ENDMDL
