MODEL 1
REMARK minimizedAffinity 0.0549621284
REMARK minimizedRMSD -1
REMARK  1 active torsions:
REMARK  status: ('A' for Active; 'I' for Inactive)
REMARK    1  A    between atoms: C1_2  and  C2_3 
ROOT
ATOM      1  C2  UNL d   1      -0.979   1.250  -1.813  0.00  0.00    -0.081 A 
ATOM      2  C3  UNL d   1      -2.211   1.916  -1.811  0.00  0.00     0.006 A 
ATOM      3  C4  UNL d   1      -2.322   3.201  -2.347  0.00  0.00     0.002 A 
ATOM      4  C5  UNL d   1      -1.206   3.838  -2.901  0.00  0.00    -0.080 A 
ATOM      5  C6  UNL d   1      -1.318   5.205  -3.508  0.00  0.00     0.076 C 
ATOM      6  C7  UNL d   1       0.028   3.180  -2.888  0.00  0.00     0.002 A 
ATOM      7  C8  UNL d   1       0.140   1.895  -2.351  0.00  0.00     0.006 A 
ENDROOT
BRANCH   1   8
ATOM      8  C1  UNL d   1      -0.870  -0.161  -1.294  0.00  0.00     0.054 C 
ATOM      9  C   UNL d   1      -0.224  -0.195   0.084  0.00  0.00     0.018 C 
ENDBRANCH   1   8
TORSDOF 1
ENDMDL
