MODEL 1
REMARK minimizedAffinity -6.3309145
REMARK minimizedRMSD -1
REMARK  3 active torsions:
REMARK  status: ('A' for Active; 'I' for Inactive)
REMARK    1  A    between atoms: C3'_2  and  C2'_3 
REMARK    2  A    between atoms: C2'_3  and  C1'_4 
REMARK    3  A    between atoms: C1'_4  and  C1_5 
ROOT
ATOM      1  C1  N4B d   1       0.189  -0.062  -0.080  0.00  0.00    -0.075 A 
ATOM      2  C2  N4B d   1      -0.739   0.242   0.941  0.00  0.00     0.002 A 
ATOM      3  C3  N4B d   1      -0.622   1.414   1.647  0.00  0.00     0.002 A 
ATOM      4  C4  N4B d   1       0.419   2.285   1.364  0.00  0.00    -0.004 A 
ATOM      5  C5  N4B d   1       1.295   1.996   0.359  0.00  0.00     0.002 A 
ATOM      6  C6  N4B d   1       1.188   0.824  -0.361  0.00  0.00     0.002 A 
ENDROOT
BRANCH   1   7
ATOM      7  C1' N4B d   1       0.153  -1.371  -0.821  0.00  0.00     0.057 C 
BRANCH   7   8
ATOM      8  C2' N4B d   1      -1.267  -1.626  -1.318  0.00  0.00     0.009 C 
BRANCH   8   9
ATOM      9  C3' N4B d   1      -1.496  -1.050  -2.705  0.00  0.00     0.004 C 
ATOM     10  C4' N4B d   1      -2.947  -0.994  -3.078  0.00  0.00     0.003 C 
ENDBRANCH   8   9
ENDBRANCH   7   8
ENDBRANCH   1   7
TORSDOF 3
ENDMDL
