MODEL 1
REMARK minimizedAffinity -4.54048586
REMARK minimizedRMSD -1
REMARK  3 active torsions:
REMARK  status: ('A' for Active; 'I' for Inactive)
REMARK    1  A    between atoms: C3'_2  and  C2'_3 
REMARK    2  A    between atoms: C2'_3  and  C1'_4 
REMARK    3  A    between atoms: C1'_4  and  C1_5 
ROOT
ATOM      1  C1  N4B d   1       0.255  -0.003  -0.066  0.00  0.00    -0.075 A 
ATOM      2  C2  N4B d   1      -0.575   0.158   1.065  0.00  0.00     0.002 A 
ATOM      3  C3  N4B d   1      -0.385   1.224   1.909  0.00  0.00     0.002 A 
ATOM      4  C4  N4B d   1       0.635   2.128   1.654  0.00  0.00    -0.004 A 
ATOM      5  C5  N4B d   1       1.416   1.980   0.545  0.00  0.00     0.002 A 
ATOM      6  C6  N4B d   1       1.234   0.915  -0.314  0.00  0.00     0.002 A 
ENDROOT
BRANCH   1   7
ATOM      7  C1' N4B d   1       0.141  -1.200  -0.971  0.00  0.00     0.057 C 
BRANCH   7   8
ATOM      8  C2' N4B d   1      -1.291  -1.725  -0.929  0.00  0.00     0.009 C 
BRANCH   8   9
ATOM      9  C3' N4B d   1      -1.941  -1.712  -2.302  0.00  0.00     0.004 C 
ATOM     10  C4' N4B d   1      -1.069  -1.091  -3.352  0.00  0.00     0.003 C 
ENDBRANCH   8   9
ENDBRANCH   7   8
ENDBRANCH   1   7
TORSDOF 3
ENDMDL
