MODEL 1
REMARK minimizedAffinity -6.29826593
REMARK minimizedRMSD -1
REMARK  3 active torsions:
REMARK  status: ('A' for Active; 'I' for Inactive)
REMARK    1  A    between atoms: C3'_2  and  C2'_3 
REMARK    2  A    between atoms: C2'_3  and  C1'_4 
REMARK    3  A    between atoms: C1'_4  and  C1_5 
ROOT
ATOM      1  C1  N4B d   1      -0.072   0.159   0.158  0.00  0.00    -0.075 A 
ATOM      2  C2  N4B d   1       0.882   1.052  -0.377  0.00  0.00     0.002 A 
ATOM      3  C3  N4B d   1       1.094   2.270   0.221  0.00  0.00     0.002 A 
ATOM      4  C4  N4B d   1       0.354   2.623   1.340  0.00  0.00    -0.004 A 
ATOM      5  C5  N4B d   1      -0.548   1.744   1.866  0.00  0.00     0.002 A 
ATOM      6  C6  N4B d   1      -0.768   0.515   1.277  0.00  0.00     0.002 A 
ENDROOT
BRANCH   1   7
ATOM      7  C1' N4B d   1      -0.399  -1.148  -0.511  0.00  0.00     0.057 C 
BRANCH   7   8
ATOM      8  C2' N4B d   1       0.062  -1.096  -1.964  0.00  0.00     0.009 C 
BRANCH   8   9
ATOM      9  C3' N4B d   1      -1.060  -1.438  -2.929  0.00  0.00     0.004 C 
ATOM     10  C4' N4B d   1      -2.354  -1.738  -2.232  0.00  0.00     0.003 C 
ENDBRANCH   8   9
ENDBRANCH   7   8
ENDBRANCH   1   7
TORSDOF 3
ENDMDL
