MODEL 1
REMARK minimizedAffinity -3.75002575
REMARK minimizedRMSD -1
REMARK  3 active torsions:
REMARK  status: ('A' for Active; 'I' for Inactive)
REMARK    1  A    between atoms: C3'_2  and  C2'_3 
REMARK    2  A    between atoms: C2'_3  and  C1'_4 
REMARK    3  A    between atoms: C1'_4  and  C1_5 
ROOT
ATOM      1  C1  N4B d   1      -1.014  -1.564  -1.494  0.00  0.00    -0.075 A 
ATOM      2  C2  N4B d   1      -2.382  -1.669  -1.157  0.00  0.00     0.002 A 
ATOM      3  C3  N4B d   1      -3.338  -1.593  -2.139  0.00  0.00     0.002 A 
ATOM      4  C4  N4B d   1      -2.954  -1.393  -3.457  0.00  0.00    -0.004 A 
ATOM      5  C5  N4B d   1      -1.630  -1.318  -3.777  0.00  0.00     0.002 A 
ATOM      6  C6  N4B d   1      -0.658  -1.397  -2.800  0.00  0.00     0.002 A 
ENDROOT
BRANCH   1   7
ATOM      7  C1' N4B d   1       0.064  -1.556  -0.444  0.00  0.00     0.057 C 
BRANCH   7   8
ATOM      8  C2' N4B d   1       0.341  -0.116  -0.022  0.00  0.00     0.009 C 
BRANCH   8   9
ATOM      9  C3' N4B d   1      -0.418   0.264   1.237  0.00  0.00     0.004 C 
ATOM     10  C4' N4B d   1       0.395   1.108   2.173  0.00  0.00     0.003 C 
ENDBRANCH   8   9
ENDBRANCH   7   8
ENDBRANCH   1   7
TORSDOF 3
ENDMDL
