MODEL 1
REMARK minimizedAffinity -3.1061039
REMARK minimizedRMSD -1
REMARK  3 active torsions:
REMARK  status: ('A' for Active; 'I' for Inactive)
REMARK    1  A    between atoms: C3'_2  and  C2'_3 
REMARK    2  A    between atoms: C2'_3  and  C1'_4 
REMARK    3  A    between atoms: C1'_4  and  C1_5 
ROOT
ATOM      1  C1  N4B d   1       0.011  -0.639  -0.721  0.00  0.00    -0.075 A 
ATOM      2  C2  N4B d   1      -0.577   0.273   0.182  0.00  0.00     0.002 A 
ATOM      3  C3  N4B d   1       0.196   1.228   0.795  0.00  0.00     0.002 A 
ATOM      4  C4  N4B d   1       1.558   1.278   0.536  0.00  0.00    -0.004 A 
ATOM      5  C5  N4B d   1       2.114   0.410  -0.358  0.00  0.00     0.002 A 
ATOM      6  C6  N4B d   1       1.348  -0.552  -0.985  0.00  0.00     0.002 A 
ENDROOT
BRANCH   1   7
ATOM      7  C1' N4B d   1      -0.778  -1.754  -1.350  0.00  0.00     0.057 C 
BRANCH   7   8
ATOM      8  C2' N4B d   1      -0.971  -1.457  -2.834  0.00  0.00     0.009 C 
BRANCH   8   9
ATOM      9  C3' N4B d   1      -2.356  -1.851  -3.317  0.00  0.00     0.004 C 
ATOM     10  C4' N4B d   1      -3.423  -1.595  -2.294  0.00  0.00     0.003 C 
ENDBRANCH   8   9
ENDBRANCH   7   8
ENDBRANCH   1   7
TORSDOF 3
ENDMDL
