MODEL 1
REMARK minimizedAffinity -5.81147528
REMARK minimizedRMSD -1
REMARK  3 active torsions:
REMARK  status: ('A' for Active; 'I' for Inactive)
REMARK    1  A    between atoms: C3'_2  and  C2'_3 
REMARK    2  A    between atoms: C2'_3  and  C1'_4 
REMARK    3  A    between atoms: C1'_4  and  C1_5 
ROOT
ATOM      1  C1  N4B d   1      -0.191  -0.870  -0.710  0.00  0.00    -0.075 A 
ATOM      2  C2  N4B d   1       0.252  -2.209  -0.778  0.00  0.00     0.002 A 
ATOM      3  C3  N4B d   1      -0.390  -3.103  -1.600  0.00  0.00     0.002 A 
ATOM      4  C4  N4B d   1      -1.482  -2.687  -2.345  0.00  0.00    -0.004 A 
ATOM      5  C5  N4B d   1      -1.888  -1.386  -2.294  0.00  0.00     0.002 A 
ATOM      6  C6  N4B d   1      -1.250  -0.475  -1.475  0.00  0.00     0.002 A 
ENDROOT
BRANCH   1   7
ATOM      7  C1' N4B d   1       0.424   0.123   0.239  0.00  0.00     0.057 C 
BRANCH   7   8
ATOM      8  C2' N4B d   1      -0.679   0.982   0.849  0.00  0.00     0.009 C 
BRANCH   8   9
ATOM      9  C3' N4B d   1      -0.207   1.710   2.096  0.00  0.00     0.004 C 
ATOM     10  C4' N4B d   1       1.117   2.387   1.908  0.00  0.00     0.003 C 
ENDBRANCH   8   9
ENDBRANCH   7   8
ENDBRANCH   1   7
TORSDOF 3
ENDMDL
