MODEL 1
REMARK minimizedAffinity -6.02113914
REMARK minimizedRMSD -1
REMARK  3 active torsions:
REMARK  status: ('A' for Active; 'I' for Inactive)
REMARK    1  A    between atoms: C3'_2  and  C2'_3 
REMARK    2  A    between atoms: C2'_3  and  C1'_4 
REMARK    3  A    between atoms: C1'_4  and  C1_5 
ROOT
ATOM      1  C1  N4B d   1       0.353   0.335   0.050  0.00  0.00    -0.075 A 
ATOM      2  C2  N4B d   1      -0.506   0.908   1.014  0.00  0.00     0.002 A 
ATOM      3  C3  N4B d   1      -0.069   1.956   1.786  0.00  0.00     0.002 A 
ATOM      4  C4  N4B d   1       1.223   2.434   1.626  0.00  0.00    -0.004 A 
ATOM      5  C5  N4B d   1       2.038   1.892   0.675  0.00  0.00     0.002 A 
ATOM      6  C6  N4B d   1       1.611   0.841  -0.111  0.00  0.00     0.002 A 
ENDROOT
BRANCH   1   7
ATOM      7  C1' N4B d   1      -0.050  -0.868  -0.757  0.00  0.00     0.057 C 
BRANCH   7   8
ATOM      8  C2' N4B d   1      -1.552  -0.814  -1.022  0.00  0.00     0.009 C 
BRANCH   8   9
ATOM      9  C3' N4B d   1      -1.924  -1.491  -2.329  0.00  0.00     0.004 C 
ATOM     10  C4' N4B d   1      -2.950  -0.724  -3.109  0.00  0.00     0.003 C 
ENDBRANCH   8   9
ENDBRANCH   7   8
ENDBRANCH   1   7
TORSDOF 3
ENDMDL
