MODEL 1
REMARK minimizedAffinity -2.72129679
REMARK minimizedRMSD -1
REMARK  3 active torsions:
REMARK  status: ('A' for Active; 'I' for Inactive)
REMARK    1  A    between atoms: C3'_2  and  C2'_3 
REMARK    2  A    between atoms: C2'_3  and  C1'_4 
REMARK    3  A    between atoms: C1'_4  and  C1_5 
ROOT
ATOM      1  C1  N4B d   1       0.622   0.168  -0.087  0.00  0.00    -0.075 A 
ATOM      2  C2  N4B d   1      -0.102   0.464   1.089  0.00  0.00     0.002 A 
ATOM      3  C3  N4B d   1       0.089   1.664   1.729  0.00  0.00     0.002 A 
ATOM      4  C4  N4B d   1       1.007   2.572   1.224  0.00  0.00    -0.004 A 
ATOM      5  C5  N4B d   1       1.683   2.290   0.073  0.00  0.00     0.002 A 
ATOM      6  C6  N4B d   1       1.498   1.090  -0.582  0.00  0.00     0.002 A 
ENDROOT
BRANCH   1   7
ATOM      7  C1' N4B d   1       0.511  -1.165  -0.774  0.00  0.00     0.057 C 
BRANCH   7   8
ATOM      8  C2' N4B d   1      -0.938  -1.641  -0.712  0.00  0.00     0.009 C 
BRANCH   8   9
ATOM      9  C3' N4B d   1      -1.509  -1.903  -2.095  0.00  0.00     0.004 C 
ATOM     10  C4' N4B d   1      -2.983  -2.181  -2.072  0.00  0.00     0.003 C 
ENDBRANCH   8   9
ENDBRANCH   7   8
ENDBRANCH   1   7
TORSDOF 3
ENDMDL
