MODEL 1
REMARK minimizedAffinity -0.500221729
REMARK minimizedRMSD -1
REMARK  1 active torsions:
REMARK  status: ('A' for Active; 'I' for Inactive)
REMARK    1  A    between atoms: C1_2  and  C2_3 
ROOT
ATOM      1  C2  UNL d   1       2.190   5.805  -4.811  0.00  0.00    -0.077 A 
ATOM      2  C3  UNL d   1       1.447   5.826  -5.999  0.00  0.00     0.002 A 
ATOM      3  C4  UNL d   1       0.054   5.921  -5.960  0.00  0.00     0.002 A 
ATOM      4  C5  UNL d   1      -0.606   5.999  -4.735  0.00  0.00    -0.004 A 
ATOM      5  C6  UNL d   1       0.125   5.977  -3.548  0.00  0.00     0.002 A 
ATOM      6  C7  UNL d   1       1.516   5.881  -3.585  0.00  0.00     0.002 A 
ENDROOT
BRANCH   1   7
ATOM      7  C1  UNL d   1       3.695   5.753  -4.853  0.00  0.00     0.055 C 
ATOM      8  C   UNL d   1       4.211   4.367  -4.496  0.00  0.00     0.019 C 
ENDBRANCH   1   7
TORSDOF 1
ENDMDL
