MODEL 1
REMARK minimizedAffinity 5.54433298
REMARK minimizedRMSD -1
REMARK  1 active torsions:
REMARK  status: ('A' for Active; 'I' for Inactive)
REMARK    1  A    between atoms: C1_2  and  C2_3 
ROOT
ATOM      1  C2  UNL d   1       0.844   2.198   0.858  0.00  0.00    -0.077 A 
ATOM      2  C3  UNL d   1       0.813   0.872   0.404  0.00  0.00     0.002 A 
ATOM      3  C4  UNL d   1       0.181  -0.119   1.159  0.00  0.00     0.002 A 
ATOM      4  C5  UNL d   1      -0.427   0.207   2.369  0.00  0.00    -0.004 A 
ATOM      5  C6  UNL d   1      -0.400   1.522   2.831  0.00  0.00     0.002 A 
ATOM      6  C7  UNL d   1       0.232   2.513   2.078  0.00  0.00     0.002 A 
ENDROOT
BRANCH   1   7
ATOM      7  C1  UNL d   1       1.482   3.276   0.023  0.00  0.00     0.055 C 
ATOM      8  C   UNL d   1       0.432   4.162  -0.633  0.00  0.00     0.019 C 
ENDBRANCH   1   7
TORSDOF 1
ENDMDL
