MODEL 1
REMARK minimizedAffinity 3.90856409
REMARK minimizedRMSD -1
REMARK  1 active torsions:
REMARK  status: ('A' for Active; 'I' for Inactive)
REMARK    1  A    between atoms: C1_2  and  C2_3 
ROOT
ATOM      1  C2  UNL d   1      -1.575  -0.165  -0.915  0.00  0.00    -0.077 A 
ATOM      2  C3  UNL d   1      -0.541  -0.163  -1.862  0.00  0.00     0.002 A 
ATOM      3  C4  UNL d   1      -0.740  -0.719  -3.127  0.00  0.00     0.002 A 
ATOM      4  C5  UNL d   1      -1.972  -1.278  -3.458  0.00  0.00    -0.004 A 
ATOM      5  C6  UNL d   1      -3.007  -1.288  -2.523  0.00  0.00     0.002 A 
ATOM      6  C7  UNL d   1      -2.809  -0.733  -1.258  0.00  0.00     0.002 A 
ENDROOT
BRANCH   1   7
ATOM      7  C1  UNL d   1      -1.379   0.479   0.432  0.00  0.00     0.055 C 
ATOM      8  C   UNL d   1       0.093   0.513   0.820  0.00  0.00     0.019 C 
ENDBRANCH   1   7
TORSDOF 1
ENDMDL
