MODEL 1
REMARK minimizedAffinity -2.87875938
REMARK minimizedRMSD -1
REMARK  1 active torsions:
REMARK  status: ('A' for Active; 'I' for Inactive)
REMARK    1  A    between atoms: C1_2  and  C2_3 
ROOT
ATOM      1  C2  UNL d   1       3.552   5.280  -4.670  0.00  0.00    -0.077 A 
ATOM      2  C3  UNL d   1       4.747   5.999  -4.529  0.00  0.00     0.002 A 
ATOM      3  C4  UNL d   1       5.952   5.331  -4.300  0.00  0.00     0.002 A 
ATOM      4  C5  UNL d   1       5.973   3.940  -4.216  0.00  0.00    -0.004 A 
ATOM      5  C6  UNL d   1       4.790   3.216  -4.353  0.00  0.00     0.002 A 
ATOM      6  C7  UNL d   1       3.585   3.883  -4.580  0.00  0.00     0.002 A 
ENDROOT
BRANCH   1   7
ATOM      7  C1  UNL d   1       2.260   5.996  -4.965  0.00  0.00     0.055 C 
ATOM      8  C   UNL d   1       1.433   5.242  -5.996  0.00  0.00     0.019 C 
ENDBRANCH   1   7
TORSDOF 1
ENDMDL
