MODEL 1
REMARK minimizedAffinity -2.09013033
REMARK minimizedRMSD -1
REMARK  1 active torsions:
REMARK  status: ('A' for Active; 'I' for Inactive)
REMARK    1  A    between atoms: C1_2  and  C2_3 
ROOT
ATOM      1  C2  UNL d   1      -0.565   5.966  -3.738  0.00  0.00    -0.077 A 
ATOM      2  C3  UNL d   1      -1.962   5.985  -3.846  0.00  0.00     0.002 A 
ATOM      3  C4  UNL d   1      -2.759   6.000  -2.700  0.00  0.00     0.002 A 
ATOM      4  C5  UNL d   1      -2.169   6.000  -1.438  0.00  0.00    -0.004 A 
ATOM      5  C6  UNL d   1      -0.780   5.979  -1.320  0.00  0.00     0.002 A 
ATOM      6  C7  UNL d   1       0.019   5.963  -2.464  0.00  0.00     0.002 A 
ENDROOT
BRANCH   1   7
ATOM      7  C1  UNL d   1       0.297   6.000  -4.973  0.00  0.00     0.055 C 
ATOM      8  C   UNL d   1       1.764   5.778  -4.630  0.00  0.00     0.019 C 
ENDBRANCH   1   7
TORSDOF 1
ENDMDL
