MODEL 1
REMARK minimizedAffinity 4.74313593
REMARK minimizedRMSD -1
REMARK  1 active torsions:
REMARK  status: ('A' for Active; 'I' for Inactive)
REMARK    1  A    between atoms: C1_2  and  C2_3 
ROOT
ATOM      1  C2  UNL d   1       4.573   4.140  -4.536  0.00  0.00    -0.077 A 
ATOM      2  C3  UNL d   1       4.955   5.276  -5.262  0.00  0.00     0.002 A 
ATOM      3  C4  UNL d   1       4.010   5.999  -5.992  0.00  0.00     0.002 A 
ATOM      4  C5  UNL d   1       2.676   5.596  -6.000  0.00  0.00    -0.004 A 
ATOM      5  C6  UNL d   1       2.286   4.466  -5.283  0.00  0.00     0.002 A 
ATOM      6  C7  UNL d   1       3.230   3.741  -4.554  0.00  0.00     0.002 A 
ENDROOT
BRANCH   1   7
ATOM      7  C1  UNL d   1       5.581   3.387  -3.708  0.00  0.00     0.055 C 
ATOM      8  C   UNL d   1       5.585   1.905  -4.053  0.00  0.00     0.019 C 
ENDBRANCH   1   7
TORSDOF 1
ENDMDL
