MODEL 1
REMARK minimizedAffinity 0.277633756
REMARK minimizedRMSD -1
REMARK  1 active torsions:
REMARK  status: ('A' for Active; 'I' for Inactive)
REMARK    1  A    between atoms: C1_2  and  C2_3 
ROOT
ATOM      1  C2  UNL d   1      -1.671  -3.535   3.845  0.00  0.00    -0.077 A 
ATOM      2  C3  UNL d   1      -1.265  -3.413   2.509  0.00  0.00     0.002 A 
ATOM      3  C4  UNL d   1      -0.487  -4.408   1.914  0.00  0.00     0.002 A 
ATOM      4  C5  UNL d   1      -0.113  -5.533   2.646  0.00  0.00    -0.004 A 
ATOM      5  C6  UNL d   1      -0.511  -5.662   3.976  0.00  0.00     0.002 A 
ATOM      6  C7  UNL d   1      -1.287  -4.668   4.573  0.00  0.00     0.002 A 
ENDROOT
BRANCH   1   7
ATOM      7  C1  UNL d   1      -2.552  -2.486   4.474  0.00  0.00     0.055 C 
ATOM      8  C   UNL d   1      -3.284  -3.035   5.690  0.00  0.00     0.019 C 
ENDBRANCH   1   7
TORSDOF 1
ENDMDL
