MODEL 1
REMARK minimizedAffinity -1.58323359
REMARK minimizedRMSD -1
REMARK  1 active torsions:
REMARK  status: ('A' for Active; 'I' for Inactive)
REMARK    1  A    between atoms: C1_2  and  C2_3 
ROOT
ATOM      1  C2  UNL d   1      -2.036   5.724  -3.283  0.00  0.00    -0.077 A 
ATOM      2  C3  UNL d   1      -0.855   5.862  -2.540  0.00  0.00     0.002 A 
ATOM      3  C4  UNL d   1       0.375   5.997  -3.187  0.00  0.00     0.002 A 
ATOM      4  C5  UNL d   1       0.435   6.000  -4.579  0.00  0.00    -0.004 A 
ATOM      5  C6  UNL d   1      -0.733   5.862  -5.327  0.00  0.00     0.002 A 
ATOM      6  C7  UNL d   1      -1.963   5.725  -4.682  0.00  0.00     0.002 A 
ENDROOT
BRANCH   1   7
ATOM      7  C1  UNL d   1      -3.369   5.627  -2.588  0.00  0.00     0.055 C 
ATOM      8  C   UNL d   1      -3.203   5.248  -1.124  0.00  0.00     0.019 C 
ENDBRANCH   1   7
TORSDOF 1
ENDMDL
