MODEL 1
REMARK minimizedAffinity -1.29158723
REMARK minimizedRMSD -1
REMARK  1 active torsions:
REMARK  status: ('A' for Active; 'I' for Inactive)
REMARK    1  A    between atoms: C1_2  and  C2_3 
ROOT
ATOM      1  C2  UNL d   1      -1.441   5.887  -2.743  0.00  0.00    -0.077 A 
ATOM      2  C3  UNL d   1      -2.361   5.920  -1.685  0.00  0.00     0.002 A 
ATOM      3  C4  UNL d   1      -3.733   5.948  -1.943  0.00  0.00     0.002 A 
ATOM      4  C5  UNL d   1      -4.196   5.938  -3.257  0.00  0.00    -0.004 A 
ATOM      5  C6  UNL d   1      -3.289   5.906  -4.316  0.00  0.00     0.002 A 
ATOM      6  C7  UNL d   1      -1.918   5.880  -4.060  0.00  0.00     0.002 A 
ENDROOT
BRANCH   1   7
ATOM      7  C1  UNL d   1       0.038   5.807  -2.466  0.00  0.00     0.055 C 
ATOM      8  C   UNL d   1       0.846   5.854  -3.755  0.00  0.00     0.019 C 
ENDBRANCH   1   7
TORSDOF 1
ENDMDL
