MODEL 1
REMARK minimizedAffinity 1.20910513
REMARK minimizedRMSD -1
REMARK  1 active torsions:
REMARK  status: ('A' for Active; 'I' for Inactive)
REMARK    1  A    between atoms: C1_2  and  C2_3 
ROOT
ATOM      1  C2  UNL d   1       2.071   5.347  -5.443  0.00  0.00    -0.077 A 
ATOM      2  C3  UNL d   1       3.310   6.000  -5.513  0.00  0.00     0.002 A 
ATOM      3  C4  UNL d   1       4.465   5.375  -5.039  0.00  0.00     0.002 A 
ATOM      4  C5  UNL d   1       4.394   4.093  -4.497  0.00  0.00    -0.004 A 
ATOM      5  C6  UNL d   1       3.166   3.437  -4.421  0.00  0.00     0.002 A 
ATOM      6  C7  UNL d   1       2.010   4.060  -4.893  0.00  0.00     0.002 A 
ENDROOT
BRANCH   1   7
ATOM      7  C1  UNL d   1       0.832   6.000  -5.998  0.00  0.00     0.055 C 
ATOM      8  C   UNL d   1      -0.300   5.992  -4.982  0.00  0.00     0.019 C 
ENDBRANCH   1   7
TORSDOF 1
ENDMDL
