MODEL 1
REMARK minimizedAffinity 1.09149563
REMARK minimizedRMSD -1
REMARK  1 active torsions:
REMARK  status: ('A' for Active; 'I' for Inactive)
REMARK    1  A    between atoms: C1_2  and  C2_3 
ROOT
ATOM      1  C2  UNL d   1       1.066   5.972  -5.166  0.00  0.00    -0.077 A 
ATOM      2  C3  UNL d   1       1.139   5.976  -3.766  0.00  0.00     0.002 A 
ATOM      3  C4  UNL d   1      -0.026   5.991  -2.998  0.00  0.00     0.002 A 
ATOM      4  C5  UNL d   1      -1.273   5.997  -3.620  0.00  0.00    -0.004 A 
ATOM      5  C6  UNL d   1      -1.357   5.995  -5.012  0.00  0.00     0.002 A 
ATOM      6  C7  UNL d   1      -0.193   5.982  -5.781  0.00  0.00     0.002 A 
ENDROOT
BRANCH   1   7
ATOM      7  C1  UNL d   1       2.321   5.906  -5.996  0.00  0.00     0.055 C 
ATOM      8  C   UNL d   1       3.566   5.992  -5.125  0.00  0.00     0.019 C 
ENDBRANCH   1   7
TORSDOF 1
ENDMDL
