MODEL 1
REMARK minimizedAffinity -0.477274954
REMARK minimizedRMSD -1
REMARK  1 active torsions:
REMARK  status: ('A' for Active; 'I' for Inactive)
REMARK    1  A    between atoms: C1_2  and  C2_3 
ROOT
ATOM      1  C2  UNL d   1      -0.937   5.995  -4.350  0.00  0.00    -0.077 A 
ATOM      2  C3  UNL d   1      -0.145   5.993  -3.193  0.00  0.00     0.002 A 
ATOM      3  C4  UNL d   1      -0.739   5.996  -1.930  0.00  0.00     0.002 A 
ATOM      4  C5  UNL d   1      -2.127   5.996  -1.811  0.00  0.00    -0.004 A 
ATOM      5  C6  UNL d   1      -2.924   6.000  -2.956  0.00  0.00     0.002 A 
ATOM      6  C7  UNL d   1      -2.332   5.998  -4.219  0.00  0.00     0.002 A 
ENDROOT
BRANCH   1   7
ATOM      7  C1  UNL d   1      -0.298   5.943  -5.713  0.00  0.00     0.055 C 
ATOM      8  C   UNL d   1       1.214   5.807  -5.611  0.00  0.00     0.019 C 
ENDBRANCH   1   7
TORSDOF 1
ENDMDL
