MODEL 1
REMARK minimizedAffinity -1.43270814
REMARK minimizedRMSD -1
REMARK  1 active torsions:
REMARK  status: ('A' for Active; 'I' for Inactive)
REMARK    1  A    between atoms: C1_2  and  C2_3 
ROOT
ATOM      1  C2  UNL d   1       3.523   5.378  -5.487  0.00  0.00    -0.077 A 
ATOM      2  C3  UNL d   1       4.711   5.970  -5.938  0.00  0.00     0.002 A 
ATOM      3  C4  UNL d   1       5.944   5.370  -5.672  0.00  0.00     0.002 A 
ATOM      4  C5  UNL d   1       6.000   4.175  -4.960  0.00  0.00    -0.004 A 
ATOM      5  C6  UNL d   1       4.824   3.579  -4.505  0.00  0.00     0.002 A 
ATOM      6  C7  UNL d   1       3.591   4.177  -4.768  0.00  0.00     0.002 A 
ENDROOT
BRANCH   1   7
ATOM      7  C1  UNL d   1       2.189   5.997  -5.814  0.00  0.00     0.055 C 
ATOM      8  C   UNL d   1       1.116   4.934  -6.000  0.00  0.00     0.019 C 
ENDBRANCH   1   7
TORSDOF 1
ENDMDL
