MODEL 1
REMARK minimizedAffinity -2.86369586
REMARK minimizedRMSD -1
REMARK  2 active torsions:
REMARK  status: ('A' for Active; 'I' for Inactive)
REMARK    1  A    between atoms: C1_2  and  C2_3 
REMARK    2  A    between atoms: C2_3  and  C3_4 
ROOT
ATOM      1  C3  UNL d   1      -0.370   0.091  -0.260  0.00  0.00    -0.075 A 
ATOM      2  C4  UNL d   1      -0.304  -0.851  -1.297  0.00  0.00     0.002 A 
ATOM      3  C5  UNL d   1      -0.740  -2.161  -1.091  0.00  0.00     0.002 A 
ATOM      4  C6  UNL d   1      -1.236  -2.546   0.152  0.00  0.00    -0.004 A 
ATOM      5  C7  UNL d   1      -1.291  -1.622   1.193  0.00  0.00     0.002 A 
ATOM      6  C8  UNL d   1      -0.859  -0.310   0.990  0.00  0.00     0.002 A 
ENDROOT
BRANCH   1   7
ATOM      7  C2  UNL d   1       0.073   1.518  -0.484  0.00  0.00     0.056 C 
BRANCH   7   8
ATOM      8  C1  UNL d   1       1.190   1.979   0.457  0.00  0.00     0.007 C 
ATOM      9  C   UNL d   1       1.114   3.462   0.798  0.00  0.00     0.009 C 
ENDBRANCH   7   8
ENDBRANCH   1   7
TORSDOF 2
ENDMDL
