MODEL 1
REMARK minimizedAffinity -3.12585759
REMARK minimizedRMSD -1
REMARK  2 active torsions:
REMARK  status: ('A' for Active; 'I' for Inactive)
REMARK    1  A    between atoms: C1_2  and  C2_3 
REMARK    2  A    between atoms: C2_3  and  C3_4 
ROOT
ATOM      1  C3  UNL d   1       0.237   0.175   0.160  0.00  0.00    -0.075 A 
ATOM      2  C4  UNL d   1      -0.341  -0.170   1.390  0.00  0.00     0.002 A 
ATOM      3  C5  UNL d   1      -1.066  -1.355   1.525  0.00  0.00     0.002 A 
ATOM      4  C6  UNL d   1      -1.231  -2.202   0.431  0.00  0.00    -0.004 A 
ATOM      5  C7  UNL d   1      -0.675  -1.861  -0.800  0.00  0.00     0.002 A 
ATOM      6  C8  UNL d   1       0.055  -0.678  -0.936  0.00  0.00     0.002 A 
ENDROOT
BRANCH   1   7
ATOM      7  C2  UNL d   1       1.048   1.441   0.016  0.00  0.00     0.056 C 
BRANCH   7   8
ATOM      8  C1  UNL d   1       0.401   2.673   0.659  0.00  0.00     0.007 C 
ATOM      9  C   UNL d   1       1.410   3.744   1.051  0.00  0.00     0.009 C 
ENDBRANCH   7   8
ENDBRANCH   1   7
TORSDOF 2
ENDMDL
