MODEL 1
REMARK minimizedAffinity -4.0614109
REMARK minimizedRMSD -1
REMARK  2 active torsions:
REMARK  status: ('A' for Active; 'I' for Inactive)
REMARK    1  A    between atoms: C1_2  and  C2_3 
REMARK    2  A    between atoms: C2_3  and  C3_4 
ROOT
ATOM      1  C3  UNL d   1      -0.170   0.217  -0.500  0.00  0.00    -0.075 A 
ATOM      2  C4  UNL d   1      -0.711  -0.569   0.528  0.00  0.00     0.002 A 
ATOM      3  C5  UNL d   1      -0.991  -1.919   0.315  0.00  0.00     0.002 A 
ATOM      4  C6  UNL d   1      -0.744  -2.497  -0.928  0.00  0.00    -0.004 A 
ATOM      5  C7  UNL d   1      -0.222  -1.722  -1.962  0.00  0.00     0.002 A 
ATOM      6  C8  UNL d   1       0.063  -0.372  -1.750  0.00  0.00     0.002 A 
ENDROOT
BRANCH   1   7
ATOM      7  C2  UNL d   1       0.162   1.671  -0.266  0.00  0.00     0.056 C 
BRANCH   7   8
ATOM      8  C1  UNL d   1       1.419   1.896   0.582  0.00  0.00     0.007 C 
ATOM      9  C   UNL d   1       1.480   3.282   1.209  0.00  0.00     0.009 C 
ENDBRANCH   7   8
ENDBRANCH   1   7
TORSDOF 2
ENDMDL
