MODEL 1
REMARK minimizedAffinity -2.81734943
REMARK minimizedRMSD -1
REMARK  2 active torsions:
REMARK  status: ('A' for Active; 'I' for Inactive)
REMARK    1  A    between atoms: C1_2  and  C2_3 
REMARK    2  A    between atoms: C2_3  and  C3_4 
ROOT
ATOM      1  C3  UNL d   1      -0.138   0.969   0.394  0.00  0.00    -0.075 A 
ATOM      2  C4  UNL d   1      -1.418   0.721   0.912  0.00  0.00     0.002 A 
ATOM      3  C5  UNL d   1      -1.769  -0.557   1.347  0.00  0.00     0.002 A 
ATOM      4  C6  UNL d   1      -0.853  -1.603   1.260  0.00  0.00    -0.004 A 
ATOM      5  C7  UNL d   1       0.415  -1.371   0.732  0.00  0.00     0.002 A 
ATOM      6  C8  UNL d   1       0.772  -0.092   0.300  0.00  0.00     0.002 A 
ENDROOT
BRANCH   1   7
ATOM      7  C2  UNL d   1       0.259   2.357  -0.051  0.00  0.00     0.056 C 
BRANCH   7   8
ATOM      8  C1  UNL d   1      -0.186   3.469   0.904  0.00  0.00     0.007 C 
ATOM      9  C   UNL d   1       0.973   4.125   1.643  0.00  0.00     0.009 C 
ENDBRANCH   7   8
ENDBRANCH   1   7
TORSDOF 2
ENDMDL
