MODEL 1
REMARK minimizedAffinity -1.43607175
REMARK minimizedRMSD -1
REMARK  2 active torsions:
REMARK  status: ('A' for Active; 'I' for Inactive)
REMARK    1  A    between atoms: C1_2  and  C2_3 
REMARK    2  A    between atoms: C2_3  and  C3_4 
ROOT
ATOM      1  C3  UNL d   1      -0.417  -0.377   0.158  0.00  0.00    -0.075 A 
ATOM      2  C4  UNL d   1      -0.749  -1.539  -0.554  0.00  0.00     0.002 A 
ATOM      3  C5  UNL d   1      -1.239  -2.662   0.113  0.00  0.00     0.002 A 
ATOM      4  C6  UNL d   1      -1.396  -2.641   1.497  0.00  0.00    -0.004 A 
ATOM      5  C7  UNL d   1      -1.054  -1.498   2.216  0.00  0.00     0.002 A 
ATOM      6  C8  UNL d   1      -0.567  -0.371   1.551  0.00  0.00     0.002 A 
ENDROOT
BRANCH   1   7
ATOM      7  C2  UNL d   1       0.087   0.852  -0.561  0.00  0.00     0.056 C 
BRANCH   7   8
ATOM      8  C1  UNL d   1      -0.284   0.902  -2.047  0.00  0.00     0.007 C 
ATOM      9  C   UNL d   1       0.687   0.133  -2.933  0.00  0.00     0.009 C 
ENDBRANCH   7   8
ENDBRANCH   1   7
TORSDOF 2
ENDMDL
