MODEL 1
REMARK minimizedAffinity -4.49200344
REMARK minimizedRMSD -1
REMARK  2 active torsions:
REMARK  status: ('A' for Active; 'I' for Inactive)
REMARK    1  A    between atoms: C1_2  and  C2_3 
REMARK    2  A    between atoms: C2_3  and  C3_4 
ROOT
ATOM      1  C3  UNL d   1      -0.440  -0.451   0.564  0.00  0.00    -0.075 A 
ATOM      2  C4  UNL d   1       0.701  -0.202   1.341  0.00  0.00     0.002 A 
ATOM      3  C5  UNL d   1       1.490   0.923   1.100  0.00  0.00     0.002 A 
ATOM      4  C6  UNL d   1       1.156   1.806   0.076  0.00  0.00    -0.004 A 
ATOM      5  C7  UNL d   1       0.034   1.560  -0.713  0.00  0.00     0.002 A 
ATOM      6  C8  UNL d   1      -0.760   0.438  -0.472  0.00  0.00     0.002 A 
ENDROOT
BRANCH   1   7
ATOM      7  C2  UNL d   1      -1.315  -1.651   0.838  0.00  0.00     0.056 C 
BRANCH   7   8
ATOM      8  C1  UNL d   1      -0.740  -2.973   0.319  0.00  0.00     0.007 C 
ATOM      9  C   UNL d   1      -0.777  -3.089  -1.199  0.00  0.00     0.009 C 
ENDBRANCH   7   8
ENDBRANCH   1   7
TORSDOF 2
ENDMDL
