MODEL 1
REMARK minimizedAffinity -2.98229218
REMARK minimizedRMSD -1
REMARK  2 active torsions:
REMARK  status: ('A' for Active; 'I' for Inactive)
REMARK    1  A    between atoms: C1_2  and  C2_3 
REMARK    2  A    between atoms: C2_3  and  C3_4 
ROOT
ATOM      1  C3  UNL d   1      -0.503  -0.398  -0.132  0.00  0.00    -0.075 A 
ATOM      2  C4  UNL d   1      -0.854  -0.623   1.207  0.00  0.00     0.002 A 
ATOM      3  C5  UNL d   1      -1.200  -1.902   1.644  0.00  0.00     0.002 A 
ATOM      4  C6  UNL d   1      -1.209  -2.968   0.748  0.00  0.00    -0.004 A 
ATOM      5  C7  UNL d   1      -0.878  -2.754  -0.588  0.00  0.00     0.002 A 
ATOM      6  C8  UNL d   1      -0.527  -1.476  -1.027  0.00  0.00     0.002 A 
ENDROOT
BRANCH   1   7
ATOM      7  C2  UNL d   1      -0.099   0.978  -0.605  0.00  0.00     0.056 C 
BRANCH   7   8
ATOM      8  C1  UNL d   1       0.748   1.761   0.405  0.00  0.00     0.007 C 
ATOM      9  C   UNL d   1       0.468   3.257   0.389  0.00  0.00     0.009 C 
ENDBRANCH   7   8
ENDBRANCH   1   7
TORSDOF 2
ENDMDL
