MODEL 1
REMARK minimizedAffinity -2.68254447
REMARK minimizedRMSD -1
REMARK  2 active torsions:
REMARK  status: ('A' for Active; 'I' for Inactive)
REMARK    1  A    between atoms: C1_2  and  C2_3 
REMARK    2  A    between atoms: C2_3  and  C3_4 
ROOT
ATOM      1  C3  UNL d   1      -0.175  -0.350  -0.382  0.00  0.00    -0.075 A 
ATOM      2  C4  UNL d   1       0.218  -1.331  -1.303  0.00  0.00     0.002 A 
ATOM      3  C5  UNL d   1       0.012  -2.683  -1.029  0.00  0.00     0.002 A 
ATOM      4  C6  UNL d   1      -0.579  -3.071   0.172  0.00  0.00    -0.004 A 
ATOM      5  C7  UNL d   1      -0.959  -2.106   1.101  0.00  0.00     0.002 A 
ATOM      6  C8  UNL d   1      -0.758  -0.752   0.827  0.00  0.00     0.002 A 
ENDROOT
BRANCH   1   7
ATOM      7  C2  UNL d   1       0.018   1.117  -0.685  0.00  0.00     0.056 C 
BRANCH   7   8
ATOM      8  C1  UNL d   1       1.088   1.796   0.176  0.00  0.00     0.007 C 
ATOM      9  C   UNL d   1       0.859   3.292   0.350  0.00  0.00     0.009 C 
ENDBRANCH   7   8
ENDBRANCH   1   7
TORSDOF 2
ENDMDL
