MODEL 1
REMARK minimizedAffinity -5.45300531
REMARK minimizedRMSD -1
REMARK  2 active torsions:
REMARK  status: ('A' for Active; 'I' for Inactive)
REMARK    1  A    between atoms: C1_2  and  C2_3 
REMARK    2  A    between atoms: C2_3  and  C3_4 
ROOT
ATOM      1  C3  UNL d   1       0.171   1.017   0.348  0.00  0.00    -0.075 A 
ATOM      2  C4  UNL d   1      -1.143   0.527   0.303  0.00  0.00     0.002 A 
ATOM      3  C5  UNL d   1      -1.437  -0.753   0.774  0.00  0.00     0.002 A 
ATOM      4  C6  UNL d   1      -0.424  -1.561   1.285  0.00  0.00    -0.004 A 
ATOM      5  C7  UNL d   1       0.887  -1.091   1.318  0.00  0.00     0.002 A 
ATOM      6  C8  UNL d   1       1.184   0.191   0.852  0.00  0.00     0.002 A 
ENDROOT
BRANCH   1   7
ATOM      7  C2  UNL d   1       0.491   2.412  -0.133  0.00  0.00     0.056 C 
BRANCH   7   8
ATOM      8  C1  UNL d   1       1.932   2.852   0.144  0.00  0.00     0.007 C 
ATOM      9  C   UNL d   1       2.056   3.778   1.347  0.00  0.00     0.009 C 
ENDBRANCH   7   8
ENDBRANCH   1   7
TORSDOF 2
ENDMDL
