MODEL 1
REMARK minimizedAffinity -2.8509109
REMARK minimizedRMSD -1
REMARK  2 active torsions:
REMARK  status: ('A' for Active; 'I' for Inactive)
REMARK    1  A    between atoms: C1_2  and  C2_3 
REMARK    2  A    between atoms: C2_3  and  C3_4 
ROOT
ATOM      1  C3  UNL d   1       0.696   2.191   0.261  0.00  0.00    -0.075 A 
ATOM      2  C4  UNL d   1       0.372   3.544   0.432  0.00  0.00     0.002 A 
ATOM      3  C5  UNL d   1       1.319   4.444   0.921  0.00  0.00     0.002 A 
ATOM      4  C6  UNL d   1       2.598   4.001   1.253  0.00  0.00    -0.004 A 
ATOM      5  C7  UNL d   1       2.926   2.656   1.103  0.00  0.00     0.002 A 
ATOM      6  C8  UNL d   1       1.981   1.754   0.611  0.00  0.00     0.002 A 
ENDROOT
BRANCH   1   7
ATOM      7  C2  UNL d   1      -0.316   1.218  -0.295  0.00  0.00     0.056 C 
BRANCH   7   8
ATOM      8  C1  UNL d   1      -0.135  -0.221   0.200  0.00  0.00     0.007 C 
ATOM      9  C   UNL d   1      -1.149  -0.623   1.263  0.00  0.00     0.009 C 
ENDBRANCH   7   8
ENDBRANCH   1   7
TORSDOF 2
ENDMDL
