MODEL 1
REMARK minimizedAffinity -4.53616095
REMARK minimizedRMSD -1
REMARK  2 active torsions:
REMARK  status: ('A' for Active; 'I' for Inactive)
REMARK    1  A    between atoms: C1_2  and  C2_3 
REMARK    2  A    between atoms: C2_3  and  C3_4 
ROOT
ATOM      1  C3  UNL d   1       0.371   0.393   0.307  0.00  0.00    -0.075 A 
ATOM      2  C4  UNL d   1       0.214  -0.096   1.612  0.00  0.00     0.002 A 
ATOM      3  C5  UNL d   1      -0.529  -1.252   1.850  0.00  0.00     0.002 A 
ATOM      4  C6  UNL d   1      -1.132  -1.927   0.791  0.00  0.00    -0.004 A 
ATOM      5  C7  UNL d   1      -0.997  -1.441  -0.507  0.00  0.00     0.002 A 
ATOM      6  C8  UNL d   1      -0.250  -0.286  -0.749  0.00  0.00     0.002 A 
ENDROOT
BRANCH   1   7
ATOM      7  C2  UNL d   1       1.199   1.628   0.040  0.00  0.00     0.056 C 
BRANCH   7   8
ATOM      8  C1  UNL d   1       0.617   2.911   0.641  0.00  0.00     0.007 C 
ATOM      9  C   UNL d   1       1.664   3.992   0.877  0.00  0.00     0.009 C 
ENDBRANCH   7   8
ENDBRANCH   1   7
TORSDOF 2
ENDMDL
