MODEL 1
REMARK minimizedAffinity 6.73135757
REMARK minimizedRMSD -1
REMARK  0 active torsions:
REMARK  status: ('A' for Active; 'I' for Inactive)
ROOT
ATOM      1  C   UNL d   1       1.902   2.665   0.357  0.00  0.00     0.077 C 
ATOM      2  C1  UNL d   1       0.900   2.284   1.405  0.00  0.00    -0.074 A 
ATOM      3  C2  UNL d   1       1.278   1.532   2.522  0.00  0.00    -0.005 A 
ATOM      4  C3  UNL d   1       0.337   1.193   3.494  0.00  0.00     0.006 A 
ATOM      5  C4  UNL d   1      -0.991   1.602   3.359  0.00  0.00    -0.005 A 
ATOM      6  C5  UNL d   1      -1.387   2.356   2.250  0.00  0.00    -0.074 A 
ATOM      7  C6  UNL d   1      -2.808   2.812   2.095  0.00  0.00     0.077 C 
ATOM      8  C7  UNL d   1      -0.434   2.698   1.281  0.00  0.00    -0.001 A 
ENDROOT
TORSDOF 0
ENDMDL
