MODEL 1
REMARK minimizedAffinity 0.545015633
REMARK minimizedRMSD -1
REMARK  0 active torsions:
REMARK  status: ('A' for Active; 'I' for Inactive)
ROOT
ATOM      1  C   UNL d   1       2.008  -2.638  -0.001  0.00  0.00     0.077 C 
ATOM      2  C1  UNL d   1       2.573  -1.260  -0.177  0.00  0.00    -0.074 A 
ATOM      3  C2  UNL d   1       1.734  -0.143  -0.252  0.00  0.00    -0.005 A 
ATOM      4  C3  UNL d   1       2.274   1.134  -0.406  0.00  0.00     0.006 A 
ATOM      5  C4  UNL d   1       3.657   1.306  -0.486  0.00  0.00    -0.005 A 
ATOM      6  C5  UNL d   1       4.511   0.202  -0.412  0.00  0.00    -0.074 A 
ATOM      7  C6  UNL d   1       6.000   0.371  -0.487  0.00  0.00     0.077 C 
ATOM      8  C7  UNL d   1       3.961  -1.077  -0.250  0.00  0.00    -0.001 A 
ENDROOT
TORSDOF 0
ENDMDL
