MODEL 1
REMARK minimizedAffinity 3.29238462
REMARK minimizedRMSD -1
REMARK  0 active torsions:
REMARK  status: ('A' for Active; 'I' for Inactive)
ROOT
ATOM      1  C   UNL d   1       3.424  -2.150  -2.430  0.00  0.00     0.077 C 
ATOM      2  C1  UNL d   1       2.765  -1.716  -1.155  0.00  0.00    -0.074 A 
ATOM      3  C2  UNL d   1       2.523  -2.629  -0.124  0.00  0.00    -0.005 A 
ATOM      4  C3  UNL d   1       1.917  -2.208   1.061  0.00  0.00     0.006 A 
ATOM      5  C4  UNL d   1       1.549  -0.872   1.225  0.00  0.00    -0.005 A 
ATOM      6  C5  UNL d   1       1.783   0.055   0.205  0.00  0.00    -0.074 A 
ATOM      7  C6  UNL d   1       1.402   1.496   0.370  0.00  0.00     0.077 C 
ATOM      8  C7  UNL d   1       2.398  -0.374  -0.979  0.00  0.00    -0.001 A 
ENDROOT
TORSDOF 0
ENDMDL
