MODEL 1
REMARK minimizedAffinity 2.93157959
REMARK minimizedRMSD -1
REMARK  0 active torsions:
REMARK  status: ('A' for Active; 'I' for Inactive)
ROOT
ATOM      1  C   UNL d   1       1.509   0.930   0.107  0.00  0.00     0.077 C 
ATOM      2  C1  UNL d   1       1.578  -0.546  -0.145  0.00  0.00    -0.074 A 
ATOM      3  C2  UNL d   1       2.789  -1.238  -0.039  0.00  0.00    -0.005 A 
ATOM      4  C3  UNL d   1       2.836  -2.613  -0.268  0.00  0.00     0.006 A 
ATOM      5  C4  UNL d   1       1.674  -3.309  -0.605  0.00  0.00    -0.005 A 
ATOM      6  C5  UNL d   1       0.454  -2.635  -0.715  0.00  0.00    -0.074 A 
ATOM      7  C6  UNL d   1      -0.805  -3.370  -1.066  0.00  0.00     0.077 C 
ATOM      8  C7  UNL d   1       0.414  -1.254  -0.477  0.00  0.00    -0.001 A 
ENDROOT
TORSDOF 0
ENDMDL
