MODEL 1
REMARK minimizedAffinity 4.9010973
REMARK minimizedRMSD -1
REMARK  0 active torsions:
REMARK  status: ('A' for Active; 'I' for Inactive)
ROOT
ATOM      1  C   UNL d   1       2.730  -1.823  -1.859  0.00  0.00     0.077 C 
ATOM      2  C1  UNL d   1       2.568  -0.969  -0.636  0.00  0.00    -0.074 A 
ATOM      3  C2  UNL d   1       2.886  -1.464   0.633  0.00  0.00    -0.005 A 
ATOM      4  C3  UNL d   1       2.740  -0.654   1.759  0.00  0.00     0.006 A 
ATOM      5  C4  UNL d   1       2.276   0.655   1.629  0.00  0.00    -0.005 A 
ATOM      6  C5  UNL d   1       1.954   1.167   0.368  0.00  0.00    -0.074 A 
ATOM      7  C6  UNL d   1       1.463   2.575   0.208  0.00  0.00     0.077 C 
ATOM      8  C7  UNL d   1       2.110   0.350  -0.761  0.00  0.00    -0.001 A 
ENDROOT
TORSDOF 0
ENDMDL
