MODEL 1
REMARK minimizedAffinity 0.511327982
REMARK minimizedRMSD -1
REMARK  0 active torsions:
REMARK  status: ('A' for Active; 'I' for Inactive)
ROOT
ATOM      1  C   UNL d   1       2.293  -0.619  -0.538  0.00  0.00     0.077 C 
ATOM      2  C1  UNL d   1       1.401  -1.819  -0.660  0.00  0.00    -0.074 A 
ATOM      3  C2  UNL d   1       1.711  -3.014  -0.004  0.00  0.00    -0.005 A 
ATOM      4  C3  UNL d   1       0.866  -4.118  -0.119  0.00  0.00     0.006 A 
ATOM      5  C4  UNL d   1      -0.294  -4.038  -0.889  0.00  0.00    -0.005 A 
ATOM      6  C5  UNL d   1      -0.621  -2.851  -1.552  0.00  0.00    -0.074 A 
ATOM      7  C6  UNL d   1      -1.869  -2.745  -2.376  0.00  0.00     0.077 C 
ATOM      8  C7  UNL d   1       0.229  -1.744  -1.426  0.00  0.00    -0.001 A 
ENDROOT
TORSDOF 0
ENDMDL
