MODEL 1
REMARK minimizedAffinity -1.45543957
REMARK minimizedRMSD -1
REMARK  0 active torsions:
REMARK  status: ('A' for Active; 'I' for Inactive)
ROOT
ATOM      1  C1  BNZ d   1       3.922  -2.455   4.385  0.00  0.00     0.000 A 
ATOM      2  C2  BNZ d   1       4.198  -1.115   4.332  0.00  0.00     0.000 A 
ATOM      3  C3  BNZ d   1       5.250  -0.589   5.029  0.00  0.00     0.000 A 
ATOM      4  C4  BNZ d   1       6.000  -1.396   5.807  0.00  0.00     0.000 A 
ATOM      5  C5  BNZ d   1       5.729  -2.748   5.877  0.00  0.00     0.000 A 
ATOM      6  C6  BNZ d   1       4.693  -3.280   5.144  0.00  0.00     0.000 A 
ENDROOT
TORSDOF 0
ENDMDL
