MODEL 1
REMARK minimizedAffinity -2.8625474
REMARK minimizedRMSD -1
REMARK  0 active torsions:
REMARK  status: ('A' for Active; 'I' for Inactive)
ROOT
ATOM      1  C1  BNZ d   1       5.970  -1.010   3.645  0.00  0.00     0.000 A 
ATOM      2  C2  BNZ d   1       5.999  -2.379   3.668  0.00  0.00     0.000 A 
ATOM      3  C3  BNZ d   1       5.871  -3.062   4.845  0.00  0.00     0.000 A 
ATOM      4  C4  BNZ d   1       5.753  -2.376   6.000  0.00  0.00     0.000 A 
ATOM      5  C5  BNZ d   1       5.730  -0.995   5.994  0.00  0.00     0.000 A 
ATOM      6  C6  BNZ d   1       5.821  -0.312   4.803  0.00  0.00     0.000 A 
ENDROOT
TORSDOF 0
ENDMDL
