MODEL 1
REMARK minimizedAffinity -3.03673339
REMARK minimizedRMSD -1
REMARK  0 active torsions:
REMARK  status: ('A' for Active; 'I' for Inactive)
ROOT
ATOM      1  C1  BNZ d   1       5.297   1.630   6.000  0.00  0.00     0.000 A 
ATOM      2  C2  BNZ d   1       5.250   0.262   5.998  0.00  0.00     0.000 A 
ATOM      3  C3  BNZ d   1       5.452  -0.444   4.845  0.00  0.00     0.000 A 
ATOM      4  C4  BNZ d   1       5.662   0.220   3.690  0.00  0.00     0.000 A 
ATOM      5  C5  BNZ d   1       5.703   1.600   3.674  0.00  0.00     0.000 A 
ATOM      6  C6  BNZ d   1       5.537   2.306   4.843  0.00  0.00     0.000 A 
ENDROOT
TORSDOF 0
ENDMDL
