MODEL 1
REMARK minimizedAffinity 1.14072013
REMARK minimizedRMSD -1
REMARK  0 active torsions:
REMARK  status: ('A' for Active; 'I' for Inactive)
ROOT
ATOM      1  C1  BNZ d   1       5.999  -1.394   5.999  0.00  0.00     0.000 A 
ATOM      2  C2  BNZ d   1       5.898  -0.028   6.000  0.00  0.00     0.000 A 
ATOM      3  C3  BNZ d   1       5.228   0.625   5.004  0.00  0.00     0.000 A 
ATOM      4  C4  BNZ d   1       4.694  -0.084   3.988  0.00  0.00     0.000 A 
ATOM      5  C5  BNZ d   1       4.795  -1.461   3.968  0.00  0.00     0.000 A 
ATOM      6  C6  BNZ d   1       5.437  -2.118   4.993  0.00  0.00     0.000 A 
ENDROOT
TORSDOF 0
ENDMDL
