MODEL 1
REMARK minimizedAffinity 6.5767107
REMARK minimizedRMSD -1
REMARK  0 active torsions:
REMARK  status: ('A' for Active; 'I' for Inactive)
ROOT
ATOM      1  C1  BNZ d   1       2.242  -0.827  -0.597  0.00  0.00     0.000 A 
ATOM      2  C2  BNZ d   1       2.408  -2.180  -0.729  0.00  0.00     0.000 A 
ATOM      3  C3  BNZ d   1       1.339  -3.028  -0.648  0.00  0.00     0.000 A 
ATOM      4  C4  BNZ d   1       0.113  -2.526  -0.394  0.00  0.00     0.000 A 
ATOM      5  C5  BNZ d   1      -0.069  -1.165  -0.248  0.00  0.00     0.000 A 
ATOM      6  C6  BNZ d   1       1.003  -0.312  -0.370  0.00  0.00     0.000 A 
ENDROOT
TORSDOF 0
ENDMDL
