MODEL 1
REMARK minimizedAffinity -2.31882453
REMARK minimizedRMSD -1
REMARK  0 active torsions:
REMARK  status: ('A' for Active; 'I' for Inactive)
ROOT
ATOM      1  C1  BNZ d   1       5.996   0.875   5.999  0.00  0.00     0.000 A 
ATOM      2  C2  BNZ d   1       5.942   2.243   6.000  0.00  0.00     0.000 A 
ATOM      3  C3  BNZ d   1       5.493   2.927   4.905  0.00  0.00     0.000 A 
ATOM      4  C4  BNZ d   1       5.137   2.245   3.797  0.00  0.00     0.000 A 
ATOM      5  C5  BNZ d   1       5.195   0.865   3.777  0.00  0.00     0.000 A 
ATOM      6  C6  BNZ d   1       5.610   0.179   4.895  0.00  0.00     0.000 A 
ENDROOT
TORSDOF 0
ENDMDL
