MODEL 1
REMARK minimizedAffinity -2.19473791
REMARK minimizedRMSD -1
REMARK  0 active torsions:
REMARK  status: ('A' for Active; 'I' for Inactive)
ROOT
ATOM      1  C1  BNZ d   1       5.282  -0.083   6.000  0.00  0.00     0.000 A 
ATOM      2  C2  BNZ d   1       5.255   1.286   5.999  0.00  0.00     0.000 A 
ATOM      3  C3  BNZ d   1       5.435   1.989   4.841  0.00  0.00     0.000 A 
ATOM      4  C4  BNZ d   1       5.682   1.325   3.694  0.00  0.00     0.000 A 
ATOM      5  C5  BNZ d   1       5.722  -0.055   3.680  0.00  0.00     0.000 A 
ATOM      6  C6  BNZ d   1       5.502  -0.761   4.840  0.00  0.00     0.000 A 
ENDROOT
TORSDOF 0
ENDMDL
