MODEL 1
REMARK minimizedAffinity 0.0325891003
REMARK minimizedRMSD -1
REMARK  0 active torsions:
REMARK  status: ('A' for Active; 'I' for Inactive)
ROOT
ATOM      1  C1  BNZ d   1       5.832  -1.829   5.999  0.00  0.00     0.000 A 
ATOM      2  C2  BNZ d   1       6.000  -0.470   5.998  0.00  0.00     0.000 A 
ATOM      3  C3  BNZ d   1       5.996   0.235   4.826  0.00  0.00     0.000 A 
ATOM      4  C4  BNZ d   1       5.865  -0.424   3.657  0.00  0.00     0.000 A 
ATOM      5  C5  BNZ d   1       5.704  -1.795   3.641  0.00  0.00     0.000 A 
ATOM      6  C6  BNZ d   1       5.670  -2.497   4.825  0.00  0.00     0.000 A 
ENDROOT
TORSDOF 0
ENDMDL
