MODEL 1
REMARK minimizedAffinity 1.64576972
REMARK minimizedRMSD -1
REMARK  0 active torsions:
REMARK  status: ('A' for Active; 'I' for Inactive)
ROOT
ATOM      1  C1  BNZ d   1       1.572  -1.432  -2.045  0.00  0.00     0.000 A 
ATOM      2  C2  BNZ d   1       1.150  -2.420  -1.196  0.00  0.00     0.000 A 
ATOM      3  C3  BNZ d   1       0.116  -2.204  -0.329  0.00  0.00     0.000 A 
ATOM      4  C4  BNZ d   1      -0.468  -0.989  -0.284  0.00  0.00     0.000 A 
ATOM      5  C5  BNZ d   1      -0.048   0.020  -1.126  0.00  0.00     0.000 A 
ATOM      6  C6  BNZ d   1       0.968  -0.213  -2.025  0.00  0.00     0.000 A 
ENDROOT
TORSDOF 0
ENDMDL
