MODEL 1
REMARK minimizedAffinity -1.59757304
REMARK minimizedRMSD -1
REMARK  0 active torsions:
REMARK  status: ('A' for Active; 'I' for Inactive)
ROOT
ATOM      1  C1  BNZ d   1       5.388  -0.604   4.975  0.00  0.00     0.000 A 
ATOM      2  C2  BNZ d   1       4.840   0.091   3.930  0.00  0.00     0.000 A 
ATOM      3  C3  BNZ d   1       4.889   1.456   3.894  0.00  0.00     0.000 A 
ATOM      4  C4  BNZ d   1       5.451   2.127   4.920  0.00  0.00     0.000 A 
ATOM      5  C5  BNZ d   1       6.000   1.441   5.986  0.00  0.00     0.000 A 
ATOM      6  C6  BNZ d   1       5.983   0.066   6.000  0.00  0.00     0.000 A 
ENDROOT
TORSDOF 0
ENDMDL
