MODEL 1
REMARK minimizedAffinity 3.72954869
REMARK minimizedRMSD -1
REMARK  0 active torsions:
REMARK  status: ('A' for Active; 'I' for Inactive)
ROOT
ATOM      1  C1  BNZ d   1       6.000  -3.709   4.769  0.00  0.00     0.000 A 
ATOM      2  C2  BNZ d   1       5.917  -3.043   5.963  0.00  0.00     0.000 A 
ATOM      3  C3  BNZ d   1       5.822  -1.679   5.997  0.00  0.00     0.000 A 
ATOM      4  C4  BNZ d   1       5.850  -0.983   4.843  0.00  0.00     0.000 A 
ATOM      5  C5  BNZ d   1       5.943  -1.640   3.632  0.00  0.00     0.000 A 
ATOM      6  C6  BNZ d   1       5.999  -3.015   3.599  0.00  0.00     0.000 A 
ENDROOT
TORSDOF 0
ENDMDL
