MODEL 1
REMARK minimizedAffinity -2.90276694
REMARK minimizedRMSD -1
REMARK  0 active torsions:
REMARK  status: ('A' for Active; 'I' for Inactive)
ROOT
ATOM      1  C1  BNZ d   1       5.209  -1.119   3.768  0.00  0.00     0.000 A 
ATOM      2  C2  BNZ d   1       5.104   0.246   3.793  0.00  0.00     0.000 A 
ATOM      3  C3  BNZ d   1       5.467   0.955   4.904  0.00  0.00     0.000 A 
ATOM      4  C4  BNZ d   1       5.897   0.297   6.000  0.00  0.00     0.000 A 
ATOM      5  C5  BNZ d   1       6.000  -1.080   5.993  0.00  0.00     0.000 A 
ATOM      6  C6  BNZ d   1       5.670  -1.788   4.860  0.00  0.00     0.000 A 
ENDROOT
TORSDOF 0
ENDMDL
