MODEL 1
REMARK minimizedAffinity 0.0671701729
REMARK minimizedRMSD -1
REMARK  0 active torsions:
REMARK  status: ('A' for Active; 'I' for Inactive)
ROOT
ATOM      1  C4' PXY d   1      -2.600   0.858  -1.219  0.00  0.00     0.077 C 
ATOM      2  C1' PXY d   1       2.548   0.307   1.351  0.00  0.00     0.077 C 
ATOM      3  C1  PXY d   1       1.199   0.440   0.673  0.00  0.00    -0.082 A 
ATOM      4  C2  PXY d   1       0.740   1.640   0.357  0.00  0.00     0.003 A 
ATOM      5  C3  PXY d   1      -0.492   1.780  -0.228  0.00  0.00     0.003 A 
ATOM      6  C4  PXY d   1      -1.239   0.676  -0.541  0.00  0.00    -0.082 A 
ATOM      7  C5  PXY d   1      -0.774  -0.553  -0.232  0.00  0.00     0.003 A 
ATOM      8  C6  PXY d   1       0.461  -0.671   0.399  0.00  0.00     0.003 A 
ENDROOT
TORSDOF 0
ENDMDL
