MODEL 1
REMARK minimizedAffinity -5.27205038
REMARK minimizedRMSD -1
REMARK  0 active torsions:
REMARK  status: ('A' for Active; 'I' for Inactive)
ROOT
ATOM      1  C4' PXY d   1      -2.067  -0.169  -0.479  0.00  0.00     0.077 C 
ATOM      2  C1' PXY d   1       3.572  -0.332   0.781  0.00  0.00     0.077 C 
ATOM      3  C1  PXY d   1       2.094  -0.302   0.448  0.00  0.00    -0.082 A 
ATOM      4  C2  PXY d   1       1.522   0.843   0.112  0.00  0.00     0.003 A 
ATOM      5  C3  PXY d   1       0.179   0.894  -0.162  0.00  0.00     0.003 A 
ATOM      6  C4  PXY d   1      -0.575  -0.248  -0.143  0.00  0.00    -0.082 A 
ATOM      7  C5  PXY d   1       0.003  -1.422   0.188  0.00  0.00     0.003 A 
ATOM      8  C6  PXY d   1       1.359  -1.446   0.503  0.00  0.00     0.003 A 
ENDROOT
TORSDOF 0
ENDMDL
