MODEL 1
REMARK minimizedAffinity -5.54611397
REMARK minimizedRMSD -1
REMARK  0 active torsions:
REMARK  status: ('A' for Active; 'I' for Inactive)
ROOT
ATOM      1  C4' PXY d   1      -2.317  -0.120  -0.347  0.00  0.00     0.077 C 
ATOM      2  C1' PXY d   1       3.093  -1.102   1.438  0.00  0.00     0.077 C 
ATOM      3  C1  PXY d   1       1.672  -0.857   0.970  0.00  0.00    -0.082 A 
ATOM      4  C2  PXY d   1       1.385   0.245   0.296  0.00  0.00     0.003 A 
ATOM      5  C3  PXY d   1       0.099   0.497  -0.107  0.00  0.00     0.003 A 
ATOM      6  C4  PXY d   1      -0.894  -0.413   0.137  0.00  0.00    -0.082 A 
ATOM      7  C5  PXY d   1      -0.608  -1.545   0.815  0.00  0.00     0.003 A 
ATOM      8  C6  PXY d   1       0.696  -1.763   1.251  0.00  0.00     0.003 A 
ENDROOT
TORSDOF 0
ENDMDL
