MODEL 1
REMARK minimizedAffinity -5.13216639
REMARK minimizedRMSD -1
REMARK  0 active torsions:
REMARK  status: ('A' for Active; 'I' for Inactive)
ROOT
ATOM      1  C4' PXY d   1       0.181   3.704   0.334  0.00  0.00     0.077 C 
ATOM      2  C1' PXY d   1       2.019  -1.777   0.322  0.00  0.00     0.077 C 
ATOM      3  C1  PXY d   1       1.529  -0.343   0.315  0.00  0.00    -0.082 A 
ATOM      4  C2  PXY d   1       2.317   0.620   0.764  0.00  0.00     0.003 A 
ATOM      5  C3  PXY d   1       1.878   1.919   0.796  0.00  0.00     0.003 A 
ATOM      6  C4  PXY d   1       0.638   2.242   0.313  0.00  0.00    -0.082 A 
ATOM      7  C5  PXY d   1      -0.168   1.267  -0.157  0.00  0.00     0.003 A 
ATOM      8  C6  PXY d   1       0.281  -0.050  -0.142  0.00  0.00     0.003 A 
ENDROOT
TORSDOF 0
ENDMDL
