MODEL 1
REMARK minimizedAffinity -4.76969337
REMARK minimizedRMSD -1
REMARK  0 active torsions:
REMARK  status: ('A' for Active; 'I' for Inactive)
ROOT
ATOM      1  C4' PXY d   1       2.888   0.043   1.513  0.00  0.00     0.077 C 
ATOM      2  C1' PXY d   1      -2.324  -0.189  -0.977  0.00  0.00     0.077 C 
ATOM      3  C1  PXY d   1      -0.954  -0.119  -0.332  0.00  0.00    -0.082 A 
ATOM      4  C2  PXY d   1      -0.483  -1.169   0.320  0.00  0.00     0.003 A 
ATOM      5  C3  PXY d   1       0.740  -1.112   0.936  0.00  0.00     0.003 A 
ATOM      6  C4  PXY d   1       1.513   0.014   0.838  0.00  0.00    -0.082 A 
ATOM      7  C5  PXY d   1       1.045   1.086   0.165  0.00  0.00     0.003 A 
ATOM      8  C6  PXY d   1      -0.217   1.022  -0.418  0.00  0.00     0.003 A 
ENDROOT
TORSDOF 0
ENDMDL
