MODEL 1
REMARK minimizedAffinity -4.76151133
REMARK minimizedRMSD -1
REMARK  0 active torsions:
REMARK  status: ('A' for Active; 'I' for Inactive)
ROOT
ATOM      1  C4' PXY d   1      -1.932   0.166  -0.957  0.00  0.00     0.077 C 
ATOM      2  C1' PXY d   1       3.408  -0.199   1.227  0.00  0.00     0.077 C 
ATOM      3  C1  PXY d   1       2.007  -0.116   0.652  0.00  0.00    -0.082 A 
ATOM      4  C2  PXY d   1       1.585   1.019   0.121  0.00  0.00     0.003 A 
ATOM      5  C3  PXY d   1       0.310   1.121  -0.374  0.00  0.00     0.003 A 
ATOM      6  C4  PXY d   1      -0.522   0.034  -0.374  0.00  0.00    -0.082 A 
ATOM      7  C5  PXY d   1      -0.095  -1.131   0.157  0.00  0.00     0.003 A 
ATOM      8  C6  PXY d   1       1.189  -1.202   0.692  0.00  0.00     0.003 A 
ENDROOT
TORSDOF 0
ENDMDL
