MODEL 1
REMARK minimizedAffinity -4.40650558
REMARK minimizedRMSD -1
REMARK  0 active torsions:
REMARK  status: ('A' for Active; 'I' for Inactive)
ROOT
ATOM      1  C4' PXY d   1      -2.120   0.037  -0.769  0.00  0.00     0.077 C 
ATOM      2  C1' PXY d   1       3.316  -0.164   1.185  0.00  0.00     0.077 C 
ATOM      3  C1  PXY d   1       1.889  -0.100   0.678  0.00  0.00    -0.082 A 
ATOM      4  C2  PXY d   1       1.226  -1.221   0.446  0.00  0.00     0.003 A 
ATOM      5  C3  PXY d   1      -0.054  -1.181  -0.043  0.00  0.00     0.003 A 
ATOM      6  C4  PXY d   1      -0.681   0.020  -0.247  0.00  0.00    -0.082 A 
ATOM      7  C5  PXY d   1      -0.014   1.168  -0.004  0.00  0.00     0.003 A 
ATOM      8  C6  PXY d   1       1.299   1.106   0.454  0.00  0.00     0.003 A 
ENDROOT
TORSDOF 0
ENDMDL
