MODEL 1
REMARK minimizedAffinity -4.34524584
REMARK minimizedRMSD -1
REMARK  2 active torsions:
REMARK  status: ('A' for Active; 'I' for Inactive)
REMARK    1  A    between atoms: C1_2  and  C2_3 
REMARK    2  A    between atoms: C2_3  and  C3_4 
ROOT
ATOM      1  C3  UNL d   1       0.140  -0.568   0.116  0.00  0.00    -0.075 A 
ATOM      2  C4  UNL d   1      -0.156  -0.798   1.467  0.00  0.00     0.002 A 
ATOM      3  C5  UNL d   1      -0.933   0.111   2.187  0.00  0.00     0.002 A 
ATOM      4  C6  UNL d   1      -1.415   1.263   1.569  0.00  0.00    -0.004 A 
ATOM      5  C7  UNL d   1      -1.113   1.509   0.231  0.00  0.00     0.002 A 
ATOM      6  C8  UNL d   1      -0.340   0.600  -0.492  0.00  0.00     0.002 A 
ENDROOT
BRANCH   1   7
ATOM      7  C2  UNL d   1       0.955  -1.562  -0.676  0.00  0.00     0.056 C 
BRANCH   7   8
ATOM      8  C1  UNL d   1       0.342  -1.933  -2.030  0.00  0.00     0.007 C 
ATOM      9  C   UNL d   1      -0.059  -3.399  -2.125  0.00  0.00     0.009 C 
ENDBRANCH   7   8
ENDBRANCH   1   7
TORSDOF 2
ENDMDL
