MODEL 1
REMARK minimizedAffinity -5.66626024
REMARK minimizedRMSD -1
REMARK  2 active torsions:
REMARK  status: ('A' for Active; 'I' for Inactive)
REMARK    1  A    between atoms: C1_2  and  C2_3 
REMARK    2  A    between atoms: C2_3  and  C3_4 
ROOT
ATOM      1  C3  UNL d   1       0.056  -0.215  -0.761  0.00  0.00    -0.075 A 
ATOM      2  C4  UNL d   1       0.258   1.016  -1.402  0.00  0.00     0.002 A 
ATOM      3  C5  UNL d   1      -0.421   2.157  -0.974  0.00  0.00     0.002 A 
ATOM      4  C6  UNL d   1      -1.316   2.080   0.091  0.00  0.00    -0.004 A 
ATOM      5  C7  UNL d   1      -1.536   0.859   0.725  0.00  0.00     0.002 A 
ATOM      6  C8  UNL d   1      -0.855  -0.283   0.301  0.00  0.00     0.002 A 
ENDROOT
BRANCH   1   7
ATOM      7  C2  UNL d   1       0.810  -1.448  -1.201  0.00  0.00     0.056 C 
BRANCH   7   8
ATOM      8  C1  UNL d   1       0.158  -2.193  -2.371  0.00  0.00     0.007 C 
ATOM      9  C   UNL d   1       0.657  -3.623  -2.524  0.00  0.00     0.009 C 
ENDBRANCH   7   8
ENDBRANCH   1   7
TORSDOF 2
ENDMDL
