MODEL 1
REMARK minimizedAffinity -1.76622713
REMARK minimizedRMSD -1
REMARK  2 active torsions:
REMARK  status: ('A' for Active; 'I' for Inactive)
REMARK    1  A    between atoms: C1_2  and  C2_3 
REMARK    2  A    between atoms: C2_3  and  C3_4 
ROOT
ATOM      1  C3  UNL d   1       0.310  -0.646   0.126  0.00  0.00    -0.075 A 
ATOM      2  C4  UNL d   1       0.561  -1.397   1.283  0.00  0.00     0.002 A 
ATOM      3  C5  UNL d   1      -0.019  -1.039   2.501  0.00  0.00     0.002 A 
ATOM      4  C6  UNL d   1      -0.848   0.078   2.579  0.00  0.00    -0.004 A 
ATOM      5  C7  UNL d   1      -1.091   0.841   1.439  0.00  0.00     0.002 A 
ATOM      6  C8  UNL d   1      -0.516   0.483   0.219  0.00  0.00     0.002 A 
ENDROOT
BRANCH   1   7
ATOM      7  C2  UNL d   1       0.911  -1.045  -1.200  0.00  0.00     0.056 C 
BRANCH   7   8
ATOM      8  C1  UNL d   1       0.688  -2.516  -1.568  0.00  0.00     0.007 C 
ATOM      9  C   UNL d   1       0.040  -2.701  -2.934  0.00  0.00     0.009 C 
ENDBRANCH   7   8
ENDBRANCH   1   7
TORSDOF 2
ENDMDL
