MODEL 1
REMARK minimizedAffinity -3.16974306
REMARK minimizedRMSD -1
REMARK  2 active torsions:
REMARK  status: ('A' for Active; 'I' for Inactive)
REMARK    1  A    between atoms: C1_2  and  C2_3 
REMARK    2  A    between atoms: C2_3  and  C3_4 
ROOT
ATOM      1  C3  UNL d   1       0.704  -1.557  -1.461  0.00  0.00    -0.075 A 
ATOM      2  C4  UNL d   1       0.293  -1.505  -2.801  0.00  0.00     0.002 A 
ATOM      3  C5  UNL d   1      -0.045  -2.674  -3.484  0.00  0.00     0.002 A 
ATOM      4  C6  UNL d   1       0.033  -3.908  -2.841  0.00  0.00    -0.004 A 
ATOM      5  C7  UNL d   1       0.456  -3.973  -1.515  0.00  0.00     0.002 A 
ATOM      6  C8  UNL d   1       0.791  -2.804  -0.828  0.00  0.00     0.002 A 
ENDROOT
BRANCH   1   7
ATOM      7  C2  UNL d   1       1.044  -0.293  -0.708  0.00  0.00     0.056 C 
BRANCH   7   8
ATOM      8  C1  UNL d   1      -0.147   0.335   0.024  0.00  0.00     0.007 C 
ATOM      9  C   UNL d   1      -0.379  -0.254   1.410  0.00  0.00     0.009 C 
ENDBRANCH   7   8
ENDBRANCH   1   7
TORSDOF 2
ENDMDL
