MODEL 1
REMARK minimizedAffinity -5.65744877
REMARK minimizedRMSD -1
REMARK  2 active torsions:
REMARK  status: ('A' for Active; 'I' for Inactive)
REMARK    1  A    between atoms: C1_2  and  C2_3 
REMARK    2  A    between atoms: C2_3  and  C3_4 
ROOT
ATOM      1  C3  UNL d   1      -0.142  -0.798  -0.662  0.00  0.00    -0.075 A 
ATOM      2  C4  UNL d   1       1.147  -1.323  -0.492  0.00  0.00     0.002 A 
ATOM      3  C5  UNL d   1       1.551  -2.454  -1.203  0.00  0.00     0.002 A 
ATOM      4  C6  UNL d   1       0.670  -3.079  -2.083  0.00  0.00    -0.004 A 
ATOM      5  C7  UNL d   1      -0.619  -2.575  -2.247  0.00  0.00     0.002 A 
ATOM      6  C8  UNL d   1      -1.024  -1.442  -1.541  0.00  0.00     0.002 A 
ENDROOT
BRANCH   1   7
ATOM      7  C2  UNL d   1      -0.576   0.443   0.081  0.00  0.00     0.056 C 
BRANCH   7   8
ATOM      8  C1  UNL d   1      -1.505   0.166   1.268  0.00  0.00     0.007 C 
ATOM      9  C   UNL d   1      -1.399   1.212   2.370  0.00  0.00     0.009 C 
ENDBRANCH   7   8
ENDBRANCH   1   7
TORSDOF 2
ENDMDL
