MODEL 1
REMARK minimizedAffinity -5.24569464
REMARK minimizedRMSD -1
REMARK  2 active torsions:
REMARK  status: ('A' for Active; 'I' for Inactive)
REMARK    1  A    between atoms: C1_2  and  C2_3 
REMARK    2  A    between atoms: C2_3  and  C3_4 
ROOT
ATOM      1  C3  UNL d   1       0.369  -0.455  -0.802  0.00  0.00    -0.075 A 
ATOM      2  C4  UNL d   1       0.873  -0.829   0.452  0.00  0.00     0.002 A 
ATOM      3  C5  UNL d   1       0.250  -0.396   1.623  0.00  0.00     0.002 A 
ATOM      4  C6  UNL d   1      -0.875   0.422   1.556  0.00  0.00    -0.004 A 
ATOM      5  C7  UNL d   1      -1.375   0.813   0.316  0.00  0.00     0.002 A 
ATOM      6  C8  UNL d   1      -0.756   0.379  -0.857  0.00  0.00     0.002 A 
ENDROOT
BRANCH   1   7
ATOM      7  C2  UNL d   1       1.021  -0.943  -2.074  0.00  0.00     0.056 C 
BRANCH   7   8
ATOM      8  C1  UNL d   1       0.191  -1.977  -2.842  0.00  0.00     0.007 C 
ATOM      9  C   UNL d   1       0.283  -3.378  -2.252  0.00  0.00     0.009 C 
ENDBRANCH   7   8
ENDBRANCH   1   7
TORSDOF 2
ENDMDL
