MODEL 1
REMARK minimizedAffinity -3.85897923
REMARK minimizedRMSD -1
REMARK  2 active torsions:
REMARK  status: ('A' for Active; 'I' for Inactive)
REMARK    1  A    between atoms: C1_2  and  C2_3 
REMARK    2  A    between atoms: C2_3  and  C3_4 
ROOT
ATOM      1  C3  UNL d   1       0.254  -0.113  -0.319  0.00  0.00    -0.075 A 
ATOM      2  C4  UNL d   1       0.104  -0.787   0.901  0.00  0.00     0.002 A 
ATOM      3  C5  UNL d   1      -0.730  -0.274   1.895  0.00  0.00     0.002 A 
ATOM      4  C6  UNL d   1      -1.414   0.921   1.687  0.00  0.00    -0.004 A 
ATOM      5  C7  UNL d   1      -1.259   1.608   0.485  0.00  0.00     0.002 A 
ATOM      6  C8  UNL d   1      -0.429   1.095  -0.513  0.00  0.00     0.002 A 
ENDROOT
BRANCH   1   7
ATOM      7  C2  UNL d   1       1.132  -0.677  -1.410  0.00  0.00     0.056 C 
BRANCH   7   8
ATOM      8  C1  UNL d   1       0.978  -2.188  -1.616  0.00  0.00     0.007 C 
ATOM      9  C   UNL d   1       0.347  -2.550  -2.954  0.00  0.00     0.009 C 
ENDBRANCH   7   8
ENDBRANCH   1   7
TORSDOF 2
ENDMDL
