MODEL 1
REMARK minimizedAffinity -5.56972837
REMARK minimizedRMSD -1
REMARK  2 active torsions:
REMARK  status: ('A' for Active; 'I' for Inactive)
REMARK    1  A    between atoms: C1_2  and  C2_3 
REMARK    2  A    between atoms: C2_3  and  C3_4 
ROOT
ATOM      1  C3  UNL d   1       0.302   0.163  -0.077  0.00  0.00    -0.075 A 
ATOM      2  C4  UNL d   1      -0.075   1.444  -0.506  0.00  0.00     0.002 A 
ATOM      3  C5  UNL d   1      -1.018   2.182   0.211  0.00  0.00     0.002 A 
ATOM      4  C6  UNL d   1      -1.602   1.646   1.357  0.00  0.00    -0.004 A 
ATOM      5  C7  UNL d   1      -1.247   0.368   1.782  0.00  0.00     0.002 A 
ATOM      6  C8  UNL d   1      -0.301  -0.371   1.070  0.00  0.00     0.002 A 
ENDROOT
BRANCH   1   7
ATOM      7  C2  UNL d   1       1.343  -0.629  -0.831  0.00  0.00     0.056 C 
BRANCH   7   8
ATOM      8  C1  UNL d   1       1.068  -2.136  -0.877  0.00  0.00     0.007 C 
ATOM      9  C   UNL d   1       0.794  -2.653  -2.283  0.00  0.00     0.009 C 
ENDBRANCH   7   8
ENDBRANCH   1   7
TORSDOF 2
ENDMDL
