MODEL 1
REMARK minimizedAffinity -5.30268478
REMARK minimizedRMSD -1
REMARK  2 active torsions:
REMARK  status: ('A' for Active; 'I' for Inactive)
REMARK    1  A    between atoms: C1_2  and  C2_3 
REMARK    2  A    between atoms: C2_3  and  C3_4 
ROOT
ATOM      1  C3  UNL d   1      -0.098   0.112   0.311  0.00  0.00    -0.075 A 
ATOM      2  C4  UNL d   1       0.306   1.019  -0.680  0.00  0.00     0.002 A 
ATOM      3  C5  UNL d   1      -0.097   2.353  -0.626  0.00  0.00     0.002 A 
ATOM      4  C6  UNL d   1      -0.915   2.796   0.411  0.00  0.00    -0.004 A 
ATOM      5  C7  UNL d   1      -1.336   1.900   1.391  0.00  0.00     0.002 A 
ATOM      6  C8  UNL d   1      -0.931   0.565   1.342  0.00  0.00     0.002 A 
ENDROOT
BRANCH   1   7
ATOM      7  C2  UNL d   1       0.359  -1.327   0.274  0.00  0.00     0.056 C 
BRANCH   7   8
ATOM      8  C1  UNL d   1       1.181  -1.688  -0.967  0.00  0.00     0.007 C 
ATOM      9  C   UNL d   1       1.573  -3.159  -1.020  0.00  0.00     0.009 C 
ENDBRANCH   7   8
ENDBRANCH   1   7
TORSDOF 2
ENDMDL
