MODEL 1
REMARK minimizedAffinity -4.89349842
REMARK minimizedRMSD -1
REMARK  2 active torsions:
REMARK  status: ('A' for Active; 'I' for Inactive)
REMARK    1  A    between atoms: C1_2  and  C2_3 
REMARK    2  A    between atoms: C2_3  and  C3_4 
ROOT
ATOM      1  C3  UNL d   1       0.007  -0.093   0.034  0.00  0.00    -0.075 A 
ATOM      2  C4  UNL d   1       0.087  -0.171   1.432  0.00  0.00     0.002 A 
ATOM      3  C5  UNL d   1      -0.661   0.691   2.233  0.00  0.00     0.002 A 
ATOM      4  C6  UNL d   1      -1.489   1.647   1.650  0.00  0.00    -0.004 A 
ATOM      5  C7  UNL d   1      -1.563   1.745   0.262  0.00  0.00     0.002 A 
ATOM      6  C8  UNL d   1      -0.819   0.881  -0.543  0.00  0.00     0.002 A 
ENDROOT
BRANCH   1   7
ATOM      7  C2  UNL d   1       0.792  -1.043  -0.840  0.00  0.00     0.056 C 
BRANCH   7   8
ATOM      8  C1  UNL d   1       0.011  -1.567  -2.050  0.00  0.00     0.007 C 
ATOM      9  C   UNL d   1       0.354  -3.007  -2.408  0.00  0.00     0.009 C 
ENDBRANCH   7   8
ENDBRANCH   1   7
TORSDOF 2
ENDMDL
