MODEL 1
REMARK minimizedAffinity -5.39142084
REMARK minimizedRMSD -1
REMARK  2 active torsions:
REMARK  status: ('A' for Active; 'I' for Inactive)
REMARK    1  A    between atoms: C1_2  and  C2_3 
REMARK    2  A    between atoms: C2_3  and  C3_4 
ROOT
ATOM      1  C3  UNL d   1       0.017   0.024  -0.025  0.00  0.00    -0.075 A 
ATOM      2  C4  UNL d   1      -0.048  -0.263   1.346  0.00  0.00     0.002 A 
ATOM      3  C5  UNL d   1      -0.812   0.532   2.201  0.00  0.00     0.002 A 
ATOM      4  C6  UNL d   1      -1.511   1.627   1.699  0.00  0.00    -0.004 A 
ATOM      5  C7  UNL d   1      -1.441   1.932   0.342  0.00  0.00     0.002 A 
ATOM      6  C8  UNL d   1      -0.680   1.136  -0.517  0.00  0.00     0.002 A 
ENDROOT
BRANCH   1   7
ATOM      7  C2  UNL d   1       0.818  -0.849  -0.960  0.00  0.00     0.056 C 
BRANCH   7   8
ATOM      8  C1  UNL d   1      -0.006  -1.471  -2.093  0.00  0.00     0.007 C 
ATOM      9  C   UNL d   1       0.048  -2.993  -2.109  0.00  0.00     0.009 C 
ENDBRANCH   7   8
ENDBRANCH   1   7
TORSDOF 2
ENDMDL
