MODEL 1
REMARK minimizedAffinity -5.04664898
REMARK minimizedRMSD -1
REMARK  2 active torsions:
REMARK  status: ('A' for Active; 'I' for Inactive)
REMARK    1  A    between atoms: C1_2  and  C2_3 
REMARK    2  A    between atoms: C2_3  and  C3_4 
ROOT
ATOM      1  C3  UNL d   1      -0.006  -0.195   0.006  0.00  0.00    -0.075 A 
ATOM      2  C4  UNL d   1      -0.328  -0.792   1.234  0.00  0.00     0.002 A 
ATOM      3  C5  UNL d   1      -1.174  -0.146   2.136  0.00  0.00     0.002 A 
ATOM      4  C6  UNL d   1      -1.699   1.107   1.827  0.00  0.00    -0.004 A 
ATOM      5  C7  UNL d   1      -1.373   1.717   0.618  0.00  0.00     0.002 A 
ATOM      6  C8  UNL d   1      -0.530   1.070  -0.288  0.00  0.00     0.002 A 
ENDROOT
BRANCH   1   7
ATOM      7  C2  UNL d   1       0.885  -0.903  -0.986  0.00  0.00     0.056 C 
BRANCH   7   8
ATOM      8  C1  UNL d   1       0.778  -2.431  -0.943  0.00  0.00     0.007 C 
ATOM      9  C   UNL d   1       0.469  -3.050  -2.300  0.00  0.00     0.009 C 
ENDBRANCH   7   8
ENDBRANCH   1   7
TORSDOF 2
ENDMDL
