MODEL 1
REMARK minimizedAffinity -5.31567621
REMARK minimizedRMSD -1
REMARK  2 active torsions:
REMARK  status: ('A' for Active; 'I' for Inactive)
REMARK    1  A    between atoms: C1_2  and  C2_3 
REMARK    2  A    between atoms: C2_3  and  C3_4 
ROOT
ATOM      1  C3  UNL d   1      -0.226  -0.113   0.178  0.00  0.00    -0.075 A 
ATOM      2  C4  UNL d   1      -0.198  -0.049   1.578  0.00  0.00     0.002 A 
ATOM      3  C5  UNL d   1      -1.005   0.862   2.262  0.00  0.00     0.002 A 
ATOM      4  C6  UNL d   1      -1.840   1.724   1.555  0.00  0.00    -0.004 A 
ATOM      5  C7  UNL d   1      -1.864   1.680   0.163  0.00  0.00     0.002 A 
ATOM      6  C8  UNL d   1      -1.061   0.767  -0.523  0.00  0.00     0.002 A 
ENDROOT
BRANCH   1   7
ATOM      7  C2  UNL d   1       0.623  -1.116  -0.567  0.00  0.00     0.056 C 
BRANCH   7   8
ATOM      8  C1  UNL d   1      -0.026  -1.655  -1.846  0.00  0.00     0.007 C 
ATOM      9  C   UNL d   1       0.332  -3.106  -2.136  0.00  0.00     0.009 C 
ENDBRANCH   7   8
ENDBRANCH   1   7
TORSDOF 2
ENDMDL
