MODEL 1
REMARK minimizedAffinity -4.2491045
REMARK minimizedRMSD -1
REMARK  2 active torsions:
REMARK  status: ('A' for Active; 'I' for Inactive)
REMARK    1  A    between atoms: C1_2  and  C2_3 
REMARK    2  A    between atoms: C2_3  and  C3_4 
ROOT
ATOM      1  C3  UNL d   1       0.658  -1.087  -1.575  0.00  0.00    -0.075 A 
ATOM      2  C4  UNL d   1       0.057  -1.461  -2.785  0.00  0.00     0.002 A 
ATOM      3  C5  UNL d   1      -0.031  -2.806  -3.146  0.00  0.00     0.002 A 
ATOM      4  C6  UNL d   1       0.488  -3.790  -2.308  0.00  0.00    -0.004 A 
ATOM      5  C7  UNL d   1       1.102  -3.429  -1.111  0.00  0.00     0.002 A 
ATOM      6  C8  UNL d   1       1.188  -2.084  -0.746  0.00  0.00     0.002 A 
ENDROOT
BRANCH   1   7
ATOM      7  C2  UNL d   1       0.730   0.365  -1.165  0.00  0.00     0.056 C 
BRANCH   7   8
ATOM      8  C1  UNL d   1      -0.569   0.907  -0.559  0.00  0.00     0.007 C 
ATOM      9  C   UNL d   1      -0.728   2.412  -0.728  0.00  0.00     0.009 C 
ENDBRANCH   7   8
ENDBRANCH   1   7
TORSDOF 2
ENDMDL
