MODEL 1
REMARK minimizedAffinity -2.89210033
REMARK minimizedRMSD -1
REMARK  0 active torsions:
REMARK  status: ('A' for Active; 'I' for Inactive)
ROOT
ATOM      1  C   UNL d   1      -5.712  -3.167   5.919  0.00  0.00     0.023 A 
ATOM      2  C1  UNL d   1      -5.929  -3.776   4.682  0.00  0.00     0.003 A 
ATOM      3  C2  UNL d   1      -5.999  -3.000   3.524  0.00  0.00     0.048 A 
ATOM      4  C3  UNL d   1      -5.851  -1.616   3.608  0.00  0.00     0.023 A 
ATOM      5  C4  UNL d   1      -5.633  -1.003   4.843  0.00  0.00     0.048 A 
ATOM      6  C5  UNL d   1      -5.564  -1.782   5.999  0.00  0.00     0.003 A 
ATOM      7  I   UNL d   1      -5.955  -0.459   1.885  0.00  0.00    -0.146 I 
ENDROOT
TORSDOF 0
ENDMDL
