MODEL 1
REMARK minimizedAffinity 3.68938828
REMARK minimizedRMSD -1
REMARK  0 active torsions:
REMARK  status: ('A' for Active; 'I' for Inactive)
ROOT
ATOM      1  C   UNL d   1       0.569  -0.428   1.601  0.00  0.00     0.023 A 
ATOM      2  C1  UNL d   1       0.751  -1.402   0.619  0.00  0.00     0.003 A 
ATOM      3  C2  UNL d   1       0.172  -1.242  -0.641  0.00  0.00     0.048 A 
ATOM      4  C3  UNL d   1      -0.587  -0.105  -0.914  0.00  0.00     0.023 A 
ATOM      5  C4  UNL d   1      -0.771   0.874   0.065  0.00  0.00     0.048 A 
ATOM      6  C5  UNL d   1      -0.191   0.709   1.324  0.00  0.00     0.003 A 
ATOM      7  I   UNL d   1      -1.450   0.136  -2.789  0.00  0.00    -0.146 I 
ENDROOT
TORSDOF 0
ENDMDL
