MODEL 1
REMARK minimizedAffinity 5.40603209
REMARK minimizedRMSD -1
REMARK  0 active torsions:
REMARK  status: ('A' for Active; 'I' for Inactive)
ROOT
ATOM      1  C   UNL d   1       0.715   0.834   3.530  0.00  0.00     0.023 A 
ATOM      2  C1  UNL d   1       0.171   1.887   2.793  0.00  0.00     0.003 A 
ATOM      3  C2  UNL d   1      -0.184   1.695   1.456  0.00  0.00     0.048 A 
ATOM      4  C3  UNL d   1       0.006   0.448   0.863  0.00  0.00     0.023 A 
ATOM      5  C4  UNL d   1       0.549  -0.608   1.596  0.00  0.00     0.048 A 
ATOM      6  C5  UNL d   1       0.903  -0.412   2.932  0.00  0.00     0.003 A 
ATOM      7  I   UNL d   1      -0.522   0.160  -1.127  0.00  0.00    -0.146 I 
ENDROOT
TORSDOF 0
ENDMDL
