MODEL 1
REMARK minimizedAffinity 0.791224718
REMARK minimizedRMSD -1
REMARK  0 active torsions:
REMARK  status: ('A' for Active; 'I' for Inactive)
ROOT
ATOM      1  C   UNL d   1       0.970   4.661   0.735  0.00  0.00     0.023 A 
ATOM      2  C1  UNL d   1       0.431   3.834  -0.251  0.00  0.00     0.003 A 
ATOM      3  C2  UNL d   1       0.419   2.449  -0.073  0.00  0.00     0.048 A 
ATOM      4  C3  UNL d   1       0.947   1.897   1.093  0.00  0.00     0.023 A 
ATOM      5  C4  UNL d   1       1.487   2.721   2.083  0.00  0.00     0.048 A 
ATOM      6  C5  UNL d   1       1.497   4.105   1.901  0.00  0.00     0.003 A 
ATOM      7  I   UNL d   1       0.931  -0.164   1.360  0.00  0.00    -0.146 I 
ENDROOT
TORSDOF 0
ENDMDL
