MODEL 1
REMARK minimizedAffinity -0.4573102
REMARK minimizedRMSD -1
REMARK  0 active torsions:
REMARK  status: ('A' for Active; 'I' for Inactive)
ROOT
ATOM      1  C   UNL d   1       2.594   4.912   2.650  0.00  0.00     0.023 A 
ATOM      2  C1  UNL d   1       1.816   5.030   1.498  0.00  0.00     0.003 A 
ATOM      3  C2  UNL d   1       1.088   3.934   1.031  0.00  0.00     0.048 A 
ATOM      4  C3  UNL d   1       1.141   2.724   1.721  0.00  0.00     0.023 A 
ATOM      5  C4  UNL d   1       1.918   2.601   2.874  0.00  0.00     0.048 A 
ATOM      6  C5  UNL d   1       2.645   3.699   3.337  0.00  0.00     0.003 A 
ATOM      7  I   UNL d   1       0.057   1.091   1.027  0.00  0.00    -0.146 I 
ENDROOT
TORSDOF 0
ENDMDL
