MODEL 1
REMARK minimizedAffinity -2.78782105
REMARK minimizedRMSD -1
REMARK  0 active torsions:
REMARK  status: ('A' for Active; 'I' for Inactive)
ROOT
ATOM      1  C   UNL d   1       0.221   0.521   1.694  0.00  0.00     0.023 A 
ATOM      2  C1  UNL d   1       0.129   1.651   2.506  0.00  0.00     0.003 A 
ATOM      3  C2  UNL d   1       0.218   2.926   1.943  0.00  0.00     0.048 A 
ATOM      4  C3  UNL d   1       0.398   3.063   0.567  0.00  0.00     0.023 A 
ATOM      5  C4  UNL d   1       0.490   1.935  -0.249  0.00  0.00     0.048 A 
ATOM      6  C5  UNL d   1       0.402   0.663   0.318  0.00  0.00     0.003 A 
ATOM      7  I   UNL d   1       0.531   4.960  -0.272  0.00  0.00    -0.146 I 
ENDROOT
TORSDOF 0
ENDMDL
