MODEL 1
REMARK minimizedAffinity -2.28456974
REMARK minimizedRMSD -1
REMARK  0 active torsions:
REMARK  status: ('A' for Active; 'I' for Inactive)
ROOT
ATOM      1  C   UNL d   1       0.351   0.751   2.527  0.00  0.00     0.023 A 
ATOM      2  C1  UNL d   1       1.237   1.752   2.924  0.00  0.00     0.003 A 
ATOM      3  C2  UNL d   1       1.461   2.856   2.099  0.00  0.00     0.048 A 
ATOM      4  C3  UNL d   1       0.794   2.953   0.878  0.00  0.00     0.023 A 
ATOM      5  C4  UNL d   1      -0.094   1.954   0.477  0.00  0.00     0.048 A 
ATOM      6  C5  UNL d   1      -0.314   0.852   1.305  0.00  0.00     0.003 A 
ATOM      7  I   UNL d   1       1.125   4.596  -0.352  0.00  0.00    -0.146 I 
ENDROOT
TORSDOF 0
ENDMDL
