MODEL 1
REMARK minimizedAffinity 9.11978626
REMARK minimizedRMSD -1
REMARK  0 active torsions:
REMARK  status: ('A' for Active; 'I' for Inactive)
ROOT
ATOM      1  C1  DEN d   1       0.677  -3.155   0.535  0.00  0.00     0.130 A 
ATOM      2  C2  DEN d   1      -0.105  -4.233   1.136  0.00  0.00    -0.031 A 
ATOM      3  C3  DEN d   1      -0.182  -3.985   2.589  0.00  0.00     0.027 A 
ATOM      4  C4  DEN d   1       0.824  -2.046   3.961  0.00  0.00     0.027 A 
ATOM      5  C5  DEN d   1       1.579  -0.897   3.893  0.00  0.00    -0.003 A 
ATOM      6  C6  DEN d   1       2.111  -0.441   2.715  0.00  0.00     0.001 A 
ATOM      7  C7  DEN d   1       1.857  -1.115   1.550  0.00  0.00     0.017 A 
ATOM      8  C8  DEN d   1       1.102  -2.280   1.612  0.00  0.00    -0.094 A 
ATOM      9  C9  DEN d   1       0.563  -2.717   2.810  0.00  0.00    -0.072 A 
ENDROOT
TORSDOF 0
ENDMDL
