MODEL 1
REMARK minimizedAffinity 5.47319365
REMARK minimizedRMSD -1
REMARK  0 active torsions:
REMARK  status: ('A' for Active; 'I' for Inactive)
ROOT
ATOM      1  C1  DEN d   1       0.421  -1.293   1.357  0.00  0.00     0.130 A 
ATOM      2  C2  DEN d   1       1.565  -0.418   1.115  0.00  0.00    -0.031 A 
ATOM      3  C3  DEN d   1       2.748  -1.026   1.756  0.00  0.00     0.027 A 
ATOM      4  C4  DEN d   1       2.920  -3.227   3.089  0.00  0.00     0.027 A 
ATOM      5  C5  DEN d   1       2.213  -4.307   3.569  0.00  0.00    -0.003 A 
ATOM      6  C6  DEN d   1       0.863  -4.440   3.376  0.00  0.00     0.001 A 
ATOM      7  C7  DEN d   1       0.186  -3.499   2.646  0.00  0.00     0.017 A 
ATOM      8  C8  DEN d   1       0.891  -2.404   2.166  0.00  0.00    -0.094 A 
ATOM      9  C9  DEN d   1       2.257  -2.294   2.361  0.00  0.00    -0.072 A 
ENDROOT
TORSDOF 0
ENDMDL
