MODEL 1
REMARK minimizedAffinity 3.93908477
REMARK minimizedRMSD -1
REMARK  0 active torsions:
REMARK  status: ('A' for Active; 'I' for Inactive)
ROOT
ATOM      1  C1  DEN d   1      -4.739  -5.998  -4.094  0.00  0.00     0.130 A 
ATOM      2  C2  DEN d   1      -4.929  -5.407  -5.416  0.00  0.00    -0.031 A 
ATOM      3  C3  DEN d   1      -5.456  -4.040  -5.233  0.00  0.00     0.027 A 
ATOM      4  C4  DEN d   1      -5.988  -2.785  -3.043  0.00  0.00     0.027 A 
ATOM      5  C5  DEN d   1      -6.000  -2.881  -1.669  0.00  0.00    -0.003 A 
ATOM      6  C6  DEN d   1      -5.628  -4.024  -1.013  0.00  0.00     0.001 A 
ATOM      7  C7  DEN d   1      -5.184  -5.104  -1.730  0.00  0.00     0.017 A 
ATOM      8  C8  DEN d   1      -5.176  -5.018  -3.116  0.00  0.00    -0.094 A 
ATOM      9  C9  DEN d   1      -5.545  -3.849  -3.760  0.00  0.00    -0.072 A 
ENDROOT
TORSDOF 0
ENDMDL
