MODEL 1
REMARK minimizedAffinity -3.73013258
REMARK minimizedRMSD -1
REMARK  0 active torsions:
REMARK  status: ('A' for Active; 'I' for Inactive)
ROOT
ATOM      1  C1  DEN d   1       3.707   3.695  -5.409  0.00  0.00     0.130 A 
ATOM      2  C2  DEN d   1       4.888   4.427  -5.859  0.00  0.00    -0.031 A 
ATOM      3  C3  DEN d   1       5.997   3.463  -6.000  0.00  0.00     0.027 A 
ATOM      4  C4  DEN d   1       6.000   0.919  -5.570  0.00  0.00     0.027 A 
ATOM      5  C5  DEN d   1       5.234  -0.151  -5.165  0.00  0.00    -0.003 A 
ATOM      6  C6  DEN d   1       3.926  -0.011  -4.782  0.00  0.00     0.001 A 
ATOM      7  C7  DEN d   1       3.331   1.222  -4.841  0.00  0.00     0.017 A 
ATOM      8  C8  DEN d   1       4.098   2.307  -5.242  0.00  0.00    -0.094 A 
ATOM      9  C9  DEN d   1       5.415   2.142  -5.636  0.00  0.00    -0.072 A 
ENDROOT
TORSDOF 0
ENDMDL
