MODEL 1
REMARK minimizedAffinity -3.79389429
REMARK minimizedRMSD -1
REMARK  0 active torsions:
REMARK  status: ('A' for Active; 'I' for Inactive)
ROOT
ATOM      1  C1  DEN d   1      -5.975  -3.747  -2.361  0.00  0.00     0.130 A 
ATOM      2  C2  DEN d   1      -5.802  -4.910  -1.494  0.00  0.00    -0.031 A 
ATOM      3  C3  DEN d   1      -5.220  -6.000  -2.302  0.00  0.00     0.027 A 
ATOM      4  C4  DEN d   1      -4.567  -5.999  -4.797  0.00  0.00     0.027 A 
ATOM      5  C5  DEN d   1      -4.537  -5.245  -5.949  0.00  0.00    -0.003 A 
ATOM      6  C6  DEN d   1      -5.013  -3.961  -5.994  0.00  0.00     0.001 A 
ATOM      7  C7  DEN d   1      -5.497  -3.376  -4.854  0.00  0.00     0.017 A 
ATOM      8  C8  DEN d   1      -5.536  -4.132  -3.690  0.00  0.00    -0.094 A 
ATOM      9  C9  DEN d   1      -5.040  -5.425  -3.662  0.00  0.00    -0.072 A 
ENDROOT
TORSDOF 0
ENDMDL
