MODEL 1
REMARK minimizedAffinity -4.88842392
REMARK minimizedRMSD -1
REMARK  0 active torsions:
REMARK  status: ('A' for Active; 'I' for Inactive)
ROOT
ATOM      1  C1  DEN d   1       0.814  -2.254   2.611  0.00  0.00     0.130 A 
ATOM      2  C2  DEN d   1      -0.486  -1.965   3.212  0.00  0.00    -0.031 A 
ATOM      3  C3  DEN d   1      -1.077  -0.819   2.492  0.00  0.00     0.027 A 
ATOM      4  C4  DEN d   1      -0.113   0.527   0.514  0.00  0.00     0.027 A 
ATOM      5  C5  DEN d   1       0.965   0.662  -0.332  0.00  0.00    -0.003 A 
ATOM      6  C6  DEN d   1       2.074  -0.137  -0.236  0.00  0.00     0.001 A 
ATOM      7  C7  DEN d   1       2.111  -1.137   0.700  0.00  0.00     0.017 A 
ATOM      8  C8  DEN d   1       1.030  -1.274   1.562  0.00  0.00    -0.094 A 
ATOM      9  C9  DEN d   1      -0.086  -0.465   1.440  0.00  0.00    -0.072 A 
ENDROOT
TORSDOF 0
ENDMDL
