MODEL 1
REMARK minimizedAffinity -4.68366051
REMARK minimizedRMSD -1
REMARK  0 active torsions:
REMARK  status: ('A' for Active; 'I' for Inactive)
ROOT
ATOM      1  C1  DEN d   1      -2.934   1.908  -2.788  0.00  0.00     0.130 A 
ATOM      2  C2  DEN d   1      -2.391   1.601  -1.467  0.00  0.00    -0.031 A 
ATOM      3  C3  DEN d   1      -1.011   2.123  -1.408  0.00  0.00     0.027 A 
ATOM      4  C4  DEN d   1       0.330   3.374  -3.222  0.00  0.00     0.027 A 
ATOM      5  C5  DEN d   1       0.294   3.857  -4.511  0.00  0.00    -0.003 A 
ATOM      6  C6  DEN d   1      -0.798   3.696  -5.321  0.00  0.00     0.001 A 
ATOM      7  C7  DEN d   1      -1.918   3.074  -4.835  0.00  0.00     0.017 A 
ATOM      8  C8  DEN d   1      -1.887   2.578  -3.539  0.00  0.00    -0.094 A 
ATOM      9  C9  DEN d   1      -0.778   2.762  -2.731  0.00  0.00    -0.072 A 
ENDROOT
TORSDOF 0
ENDMDL
