MODEL 1
REMARK minimizedAffinity 0.550416112
REMARK minimizedRMSD -1
REMARK  0 active torsions:
REMARK  status: ('A' for Active; 'I' for Inactive)
ROOT
ATOM      1  C1  DEN d   1       2.330  -0.618  -0.364  0.00  0.00     0.130 A 
ATOM      2  C2  DEN d   1       2.455  -1.676   0.635  0.00  0.00    -0.031 A 
ATOM      3  C3  DEN d   1       1.201  -1.718   1.414  0.00  0.00     0.027 A 
ATOM      4  C4  DEN d   1      -0.912  -0.259   1.168  0.00  0.00     0.027 A 
ATOM      5  C5  DEN d   1      -1.483   0.780   0.467  0.00  0.00    -0.003 A 
ATOM      6  C6  DEN d   1      -0.816   1.443  -0.528  0.00  0.00     0.001 A 
ATOM      7  C7  DEN d   1       0.446   1.044  -0.882  0.00  0.00     0.017 A 
ATOM      8  C8  DEN d   1       1.031   0.002  -0.175  0.00  0.00    -0.094 A 
ATOM      9  C9  DEN d   1       0.336  -0.664   0.820  0.00  0.00    -0.072 A 
ENDROOT
TORSDOF 0
ENDMDL
