MODEL 1
REMARK minimizedAffinity -4.9976759
REMARK minimizedRMSD -1
REMARK  0 active torsions:
REMARK  status: ('A' for Active; 'I' for Inactive)
ROOT
ATOM      1  C1  DEN d   1       1.248   0.578  -0.290  0.00  0.00     0.130 A 
ATOM      2  C2  DEN d   1       0.032   1.385  -0.341  0.00  0.00    -0.031 A 
ATOM      3  C3  DEN d   1      -0.944   0.801   0.601  0.00  0.00     0.027 A 
ATOM      4  C4  DEN d   1      -0.690  -1.261   2.130  0.00  0.00     0.027 A 
ATOM      5  C5  DEN d   1       0.158  -2.277   2.513  0.00  0.00    -0.003 A 
ATOM      6  C6  DEN d   1       1.405  -2.431   1.968  0.00  0.00     0.001 A 
ATOM      7  C7  DEN d   1       1.858  -1.529   1.042  0.00  0.00     0.017 A 
ATOM      8  C8  DEN d   1       1.006  -0.506   0.645  0.00  0.00    -0.094 A 
ATOM      9  C9  DEN d   1      -0.246  -0.360   1.217  0.00  0.00    -0.072 A 
ENDROOT
TORSDOF 0
ENDMDL
