MODEL 1
REMARK minimizedAffinity -4.89034748
REMARK minimizedRMSD -1
REMARK  0 active torsions:
REMARK  status: ('A' for Active; 'I' for Inactive)
ROOT
ATOM      1  C1  DEN d   1       1.322   0.341  -0.853  0.00  0.00     0.130 A 
ATOM      2  C2  DEN d   1       0.009   0.956  -1.026  0.00  0.00    -0.031 A 
ATOM      3  C3  DEN d   1      -0.891   0.412   0.010  0.00  0.00     0.027 A 
ATOM      4  C4  DEN d   1      -0.380  -1.311   1.860  0.00  0.00     0.027 A 
ATOM      5  C5  DEN d   1       0.592  -2.125   2.399  0.00  0.00    -0.003 A 
ATOM      6  C6  DEN d   1       1.856  -2.198   1.876  0.00  0.00     0.001 A 
ATOM      7  C7  DEN d   1       2.194  -1.410   0.807  0.00  0.00     0.017 A 
ATOM      8  C8  DEN d   1       1.217  -0.593   0.254  0.00  0.00    -0.094 A 
ATOM      9  C9  DEN d   1      -0.051  -0.524   0.805  0.00  0.00    -0.072 A 
ENDROOT
TORSDOF 0
ENDMDL
