MODEL 1
REMARK minimizedAffinity -4.28108072
REMARK minimizedRMSD -1
REMARK  0 active torsions:
REMARK  status: ('A' for Active; 'I' for Inactive)
ROOT
ATOM      1  C1  DEN d   1      -0.738   0.473   0.041  0.00  0.00     0.130 A 
ATOM      2  C2  DEN d   1       0.178   0.990  -0.972  0.00  0.00    -0.031 A 
ATOM      3  C3  DEN d   1       1.419   0.191  -0.916  0.00  0.00     0.027 A 
ATOM      4  C4  DEN d   1       2.006  -1.788   0.629  0.00  0.00     0.027 A 
ATOM      5  C5  DEN d   1       1.551  -2.581   1.660  0.00  0.00    -0.003 A 
ATOM      6  C6  DEN d   1       0.325  -2.391   2.241  0.00  0.00     0.001 A 
ATOM      7  C7  DEN d   1      -0.507  -1.413   1.765  0.00  0.00     0.017 A 
ATOM      8  C8  DEN d   1      -0.053  -0.605   0.731  0.00  0.00    -0.094 A 
ATOM      9  C9  DEN d   1       1.185  -0.821   0.149  0.00  0.00    -0.072 A 
ENDROOT
TORSDOF 0
ENDMDL
