MODEL 1
REMARK minimizedAffinity -7.29760027
REMARK minimizedRMSD -1
REMARK  0 active torsions:
REMARK  status: ('A' for Active; 'I' for Inactive)
ROOT
ATOM      1  C1  DEN d   1      -0.596   0.903   0.294  0.00  0.00     0.130 A 
ATOM      2  C2  DEN d   1       0.350   1.300  -0.745  0.00  0.00    -0.031 A 
ATOM      3  C3  DEN d   1       1.433   0.297  -0.784  0.00  0.00     0.027 A 
ATOM      4  C4  DEN d   1       1.732  -1.825   0.653  0.00  0.00     0.027 A 
ATOM      5  C5  DEN d   1       1.192  -2.574   1.675  0.00  0.00    -0.003 A 
ATOM      6  C6  DEN d   1       0.046  -2.202   2.326  0.00  0.00     0.001 A 
ATOM      7  C7  DEN d   1      -0.623  -1.073   1.931  0.00  0.00     0.017 A 
ATOM      8  C8  DEN d   1      -0.081  -0.308   0.907  0.00  0.00    -0.094 A 
ATOM      9  C9  DEN d   1       1.073  -0.708   0.253  0.00  0.00    -0.072 A 
ENDROOT
TORSDOF 0
ENDMDL
