MODEL 1
REMARK minimizedAffinity -3.46501327
REMARK minimizedRMSD -1
REMARK  0 active torsions:
REMARK  status: ('A' for Active; 'I' for Inactive)
ROOT
ATOM      1  C1  DEN d   1      -1.499   0.498   1.031  0.00  0.00     0.130 A 
ATOM      2  C2  DEN d   1      -0.478   0.877   0.058  0.00  0.00    -0.031 A 
ATOM      3  C3  DEN d   1       0.627  -0.098   0.152  0.00  0.00     0.027 A 
ATOM      4  C4  DEN d   1       0.852  -2.151   1.697  0.00  0.00     0.027 A 
ATOM      5  C5  DEN d   1       0.245  -2.872   2.701  0.00  0.00    -0.003 A 
ATOM      6  C6  DEN d   1      -0.960  -2.504   3.238  0.00  0.00     0.001 A 
ATOM      7  C7  DEN d   1      -1.619  -1.410   2.742  0.00  0.00     0.017 A 
ATOM      8  C8  DEN d   1      -1.009  -0.674   1.735  0.00  0.00    -0.094 A 
ATOM      9  C9  DEN d   1       0.203  -1.069   1.197  0.00  0.00    -0.072 A 
ENDROOT
TORSDOF 0
ENDMDL
