MODEL 1
REMARK minimizedAffinity -5.57396221
REMARK minimizedRMSD -1
REMARK  0 active torsions:
REMARK  status: ('A' for Active; 'I' for Inactive)
ROOT
ATOM      1  C1  DEN d   1       0.721  -2.765   2.472  0.00  0.00     0.130 A 
ATOM      2  C2  DEN d   1      -0.589  -2.390   2.996  0.00  0.00    -0.031 A 
ATOM      3  C3  DEN d   1      -1.106  -1.274   2.178  0.00  0.00     0.027 A 
ATOM      4  C4  DEN d   1      -0.012  -0.099   0.160  0.00  0.00     0.027 A 
ATOM      5  C5  DEN d   1       1.104  -0.060  -0.647  0.00  0.00    -0.003 A 
ATOM      6  C6  DEN d   1       2.176  -0.890  -0.452  0.00  0.00     0.001 A 
ATOM      7  C7  DEN d   1       2.136  -1.826   0.548  0.00  0.00     0.017 A 
ATOM      8  C8  DEN d   1       1.018  -1.867   1.370  0.00  0.00    -0.094 A 
ATOM      9  C9  DEN d   1      -0.061  -1.027   1.149  0.00  0.00    -0.072 A 
ENDROOT
TORSDOF 0
ENDMDL
