MODEL 1
REMARK minimizedAffinity -3.75614762
REMARK minimizedRMSD -1
REMARK  0 active torsions:
REMARK  status: ('A' for Active; 'I' for Inactive)
ROOT
ATOM      1  C1  DEN d   1       1.228  -2.917   1.288  0.00  0.00     0.130 A 
ATOM      2  C2  DEN d   1       0.037  -2.909   2.133  0.00  0.00    -0.031 A 
ATOM      3  C3  DEN d   1      -0.729  -1.683   1.831  0.00  0.00     0.027 A 
ATOM      4  C4  DEN d   1      -0.191   0.191   0.142  0.00  0.00     0.027 A 
ATOM      5  C5  DEN d   1       0.717   0.631  -0.795  0.00  0.00    -0.003 A 
ATOM      6  C6  DEN d   1       1.867  -0.059  -1.077  0.00  0.00     0.001 A 
ATOM      7  C7  DEN d   1       2.117  -1.249  -0.447  0.00  0.00     0.017 A 
ATOM      8  C8  DEN d   1       1.209  -1.695   0.505  0.00  0.00    -0.094 A 
ATOM      9  C9  DEN d   1       0.047  -0.990   0.767  0.00  0.00    -0.072 A 
ENDROOT
TORSDOF 0
ENDMDL
