MODEL 1
REMARK minimizedAffinity -4.13616323
REMARK minimizedRMSD -1
REMARK  0 active torsions:
REMARK  status: ('A' for Active; 'I' for Inactive)
ROOT
ATOM      1  C1  DEN d   1      -1.156   0.682   0.185  0.00  0.00     0.130 A 
ATOM      2  C2  DEN d   1      -0.238   1.117  -0.864  0.00  0.00    -0.031 A 
ATOM      3  C3  DEN d   1       0.949   0.238  -0.825  0.00  0.00     0.027 A 
ATOM      4  C4  DEN d   1       1.447  -1.746   0.745  0.00  0.00     0.027 A 
ATOM      5  C5  DEN d   1       0.971  -2.487   1.804  0.00  0.00    -0.003 A 
ATOM      6  C6  DEN d   1      -0.223  -2.204   2.414  0.00  0.00     0.001 A 
ATOM      7  C7  DEN d   1      -1.002  -1.182   1.941  0.00  0.00     0.017 A 
ATOM      8  C8  DEN d   1      -0.525  -0.426   0.878  0.00  0.00    -0.094 A 
ATOM      9  C9  DEN d   1       0.679  -0.735   0.267  0.00  0.00    -0.072 A 
ENDROOT
TORSDOF 0
ENDMDL
