MODEL 1
REMARK minimizedAffinity -6.30476332
REMARK minimizedRMSD -1
REMARK  0 active torsions:
REMARK  status: ('A' for Active; 'I' for Inactive)
ROOT
ATOM      1  C1  DEN d   1       0.978   0.011  -0.485  0.00  0.00     0.130 A 
ATOM      2  C2  DEN d   1      -0.283   0.747  -0.446  0.00  0.00    -0.031 A 
ATOM      3  C3  DEN d   1      -1.147   0.119   0.574  0.00  0.00     0.027 A 
ATOM      4  C4  DEN d   1      -0.655  -1.906   2.093  0.00  0.00     0.027 A 
ATOM      5  C5  DEN d   1       0.277  -2.867   2.416  0.00  0.00    -0.003 A 
ATOM      6  C6  DEN d   1       1.485  -2.957   1.776  0.00  0.00     0.001 A 
ATOM      7  C7  DEN d   1       1.811  -2.041   0.811  0.00  0.00     0.017 A 
ATOM      8  C8  DEN d   1       0.873  -1.074   0.475  0.00  0.00    -0.094 A 
ATOM      9  C9  DEN d   1      -0.337  -0.992   1.142  0.00  0.00    -0.072 A 
ENDROOT
TORSDOF 0
ENDMDL
