MODEL 1
REMARK minimizedAffinity -7.07805586
REMARK minimizedRMSD -1
REMARK  0 active torsions:
REMARK  status: ('A' for Active; 'I' for Inactive)
ROOT
ATOM      1  C1  DEN d   1       0.773  -0.083  -0.477  0.00  0.00     0.130 A 
ATOM      2  C2  DEN d   1      -0.358   0.818  -0.275  0.00  0.00    -0.031 A 
ATOM      3  C3  DEN d   1      -1.101   0.359   0.916  0.00  0.00     0.027 A 
ATOM      4  C4  DEN d   1      -0.609  -1.647   2.461  0.00  0.00     0.027 A 
ATOM      5  C5  DEN d   1       0.237  -2.711   2.685  0.00  0.00    -0.003 A 
ATOM      6  C6  DEN d   1       1.292  -2.991   1.857  0.00  0.00     0.001 A 
ATOM      7  C7  DEN d   1       1.555  -2.171   0.792  0.00  0.00     0.017 A 
ATOM      8  C8  DEN d   1       0.703  -1.101   0.556  0.00  0.00    -0.094 A 
ATOM      9  C9  DEN d   1      -0.351  -0.827   1.411  0.00  0.00    -0.072 A 
ENDROOT
TORSDOF 0
ENDMDL
