MODEL 1
REMARK minimizedAffinity -5.9512167
REMARK minimizedRMSD -1
REMARK  0 active torsions:
REMARK  status: ('A' for Active; 'I' for Inactive)
ROOT
ATOM      1  C1  DEN d   1       1.494   1.114  -0.206  0.00  0.00     0.130 A 
ATOM      2  C2  DEN d   1       0.145   1.636  -0.406  0.00  0.00    -0.031 A 
ATOM      3  C3  DEN d   1      -0.813   0.553  -0.106  0.00  0.00     0.027 A 
ATOM      4  C4  DEN d   1      -0.341  -1.868   0.649  0.00  0.00     0.027 A 
ATOM      5  C5  DEN d   1       0.649  -2.779   0.945  0.00  0.00    -0.003 A 
ATOM      6  C6  DEN d   1       1.980  -2.468   0.846  0.00  0.00     0.001 A 
ATOM      7  C7  DEN d   1       2.357  -1.202   0.484  0.00  0.00     0.017 A 
ATOM      8  C8  DEN d   1       1.364  -0.280   0.177  0.00  0.00    -0.094 A 
ATOM      9  C9  DEN d   1       0.024  -0.610   0.295  0.00  0.00    -0.072 A 
ENDROOT
TORSDOF 0
ENDMDL
