MODEL 1
REMARK minimizedAffinity -3.63313556
REMARK minimizedRMSD -1
REMARK  0 active torsions:
REMARK  status: ('A' for Active; 'I' for Inactive)
ROOT
ATOM      1  C1  DEN d   1       0.236  -2.186   0.922  0.00  0.00     0.130 A 
ATOM      2  C2  DEN d   1       1.607  -2.661   0.756  0.00  0.00    -0.031 A 
ATOM      3  C3  DEN d   1       2.380  -1.598   0.082  0.00  0.00     0.027 A 
ATOM      4  C4  DEN d   1       1.592   0.726  -0.712  0.00  0.00     0.027 A 
ATOM      5  C5  DEN d   1       0.511   1.575  -0.800  0.00  0.00    -0.003 A 
ATOM      6  C6  DEN d   1      -0.735   1.220  -0.355  0.00  0.00     0.001 A 
ATOM      7  C7  DEN d   1      -0.921  -0.000   0.241  0.00  0.00     0.017 A 
ATOM      8  C8  DEN d   1       0.163  -0.864   0.326  0.00  0.00    -0.094 A 
ATOM      9  C9  DEN d   1       1.417  -0.482  -0.118  0.00  0.00    -0.072 A 
ENDROOT
TORSDOF 0
ENDMDL
