MODEL 1
REMARK minimizedAffinity -2.35003901
REMARK minimizedRMSD -1
REMARK  0 active torsions:
REMARK  status: ('A' for Active; 'I' for Inactive)
ROOT
ATOM      1  C   UNL d   1      -0.205   0.246   1.327  0.00  0.00     0.020 A 
ATOM      2  C1  UNL d   1      -0.198   1.617   1.585  0.00  0.00     0.020 A 
ATOM      3  C2  UNL d   1      -1.259   2.201   2.282  0.00  0.00     0.034 A 
ATOM      4  C3  UNL d   1      -2.330   1.414   2.722  0.00  0.00     0.017 A 
ATOM      5  C4  UNL d   1      -2.335   0.039   2.462  0.00  0.00     0.017 A 
ATOM      6  C5  UNL d   1      -1.271  -0.540   1.764  0.00  0.00     0.034 A 
ATOM      7 Cl   UNL d   1      -3.621  -0.996   2.973  0.00  0.00    -0.070 Cl
ATOM      8 Cl1  UNL d   1      -3.607   2.203   3.577  0.00  0.00    -0.070 Cl
ENDROOT
TORSDOF 0
ENDMDL
