MODEL 1
REMARK minimizedAffinity -3.67790842
REMARK minimizedRMSD -1
REMARK  0 active torsions:
REMARK  status: ('A' for Active; 'I' for Inactive)
ROOT
ATOM      1  C   UNL d   1       0.664   0.235   0.669  0.00  0.00     0.020 A 
ATOM      2  C1  UNL d   1      -0.066  -0.663   1.447  0.00  0.00     0.020 A 
ATOM      3  C2  UNL d   1      -1.184  -0.222   2.158  0.00  0.00     0.034 A 
ATOM      4  C3  UNL d   1      -1.576   1.120   2.093  0.00  0.00     0.017 A 
ATOM      5  C4  UNL d   1      -0.843   2.020   1.312  0.00  0.00     0.017 A 
ATOM      6  C5  UNL d   1       0.276   1.574   0.602  0.00  0.00     0.034 A 
ATOM      7 Cl   UNL d   1      -1.265   3.691   1.182  0.00  0.00    -0.070 Cl
ATOM      8 Cl1  UNL d   1      -2.969   1.595   2.999  0.00  0.00    -0.070 Cl
ENDROOT
TORSDOF 0
ENDMDL
