MODEL 1
REMARK minimizedAffinity -0.530248404
REMARK minimizedRMSD -1
REMARK  0 active torsions:
REMARK  status: ('A' for Active; 'I' for Inactive)
ROOT
ATOM      1  C   UNL d   1       0.740   0.369   0.853  0.00  0.00     0.020 A 
ATOM      2  C1  UNL d   1       0.129  -0.402   1.841  0.00  0.00     0.020 A 
ATOM      3  C2  UNL d   1      -0.919   0.131   2.595  0.00  0.00     0.034 A 
ATOM      4  C3  UNL d   1      -1.359   1.439   2.361  0.00  0.00     0.017 A 
ATOM      5  C4  UNL d   1      -0.746   2.212   1.369  0.00  0.00     0.017 A 
ATOM      6  C5  UNL d   1       0.303   1.673   0.618  0.00  0.00     0.034 A 
ATOM      7 Cl   UNL d   1      -1.234   3.834   1.023  0.00  0.00    -0.070 Cl
ATOM      8 Cl1  UNL d   1      -2.660   2.034   3.330  0.00  0.00    -0.070 Cl
ENDROOT
TORSDOF 0
ENDMDL
