MODEL 1
REMARK minimizedAffinity -4.5240407
REMARK minimizedRMSD -1
REMARK  0 active torsions:
REMARK  status: ('A' for Active; 'I' for Inactive)
ROOT
ATOM      1  C   UNL d   1      -2.931   2.069   3.074  0.00  0.00     0.020 A 
ATOM      2  C1  UNL d   1      -3.379   0.756   3.207  0.00  0.00     0.020 A 
ATOM      3  C2  UNL d   1      -2.619  -0.296   2.691  0.00  0.00     0.034 A 
ATOM      4  C3  UNL d   1      -1.407  -0.037   2.040  0.00  0.00     0.017 A 
ATOM      5  C4  UNL d   1      -0.959   1.282   1.908  0.00  0.00     0.017 A 
ATOM      6  C5  UNL d   1      -1.723   2.332   2.426  0.00  0.00     0.034 A 
ATOM      7 Cl   UNL d   1       0.526   1.682   1.118  0.00  0.00    -0.070 Cl
ATOM      8 Cl1  UNL d   1      -0.519  -1.386   1.427  0.00  0.00    -0.070 Cl
ENDROOT
TORSDOF 0
ENDMDL
