MODEL 1
REMARK minimizedAffinity 0.0872915387
REMARK minimizedRMSD -1
REMARK  0 active torsions:
REMARK  status: ('A' for Active; 'I' for Inactive)
ROOT
ATOM      1  C   UNL d   1      -0.102   0.167   0.831  0.00  0.00     0.020 A 
ATOM      2  C1  UNL d   1      -0.171   1.555   0.948  0.00  0.00     0.020 A 
ATOM      3  C2  UNL d   1      -1.202   2.143   1.684  0.00  0.00     0.034 A 
ATOM      4  C3  UNL d   1      -2.168   1.343   2.306  0.00  0.00     0.017 A 
ATOM      5  C4  UNL d   1      -2.097  -0.050   2.188  0.00  0.00     0.017 A 
ATOM      6  C5  UNL d   1      -1.063  -0.633   1.450  0.00  0.00     0.034 A 
ATOM      7 Cl   UNL d   1      -3.252  -1.103   2.927  0.00  0.00    -0.070 Cl
ATOM      8 Cl1  UNL d   1      -3.414   2.137   3.201  0.00  0.00    -0.070 Cl
ENDROOT
TORSDOF 0
ENDMDL
