MODEL 1
REMARK minimizedAffinity 0.474247605
REMARK minimizedRMSD -1
REMARK  0 active torsions:
REMARK  status: ('A' for Active; 'I' for Inactive)
ROOT
ATOM      1  C   UNL d   1       0.446   1.537   0.913  0.00  0.00     0.020 A 
ATOM      2  C1  UNL d   1       0.321   0.163   0.715  0.00  0.00     0.020 A 
ATOM      3  C2  UNL d   1      -0.702  -0.544   1.352  0.00  0.00     0.034 A 
ATOM      4  C3  UNL d   1      -1.603   0.124   2.189  0.00  0.00     0.017 A 
ATOM      5  C4  UNL d   1      -1.477   1.504   2.387  0.00  0.00     0.017 A 
ATOM      6  C5  UNL d   1      -0.451   2.206   1.747  0.00  0.00     0.034 A 
ATOM      7 Cl   UNL d   1      -2.551   2.396   3.405  0.00  0.00    -0.070 Cl
ATOM      8 Cl1  UNL d   1      -2.843  -0.813   2.944  0.00  0.00    -0.070 Cl
ENDROOT
TORSDOF 0
ENDMDL
