MODEL 1
REMARK minimizedAffinity 0.935774744
REMARK minimizedRMSD -1
REMARK  0 active torsions:
REMARK  status: ('A' for Active; 'I' for Inactive)
ROOT
ATOM      1  C   UNL d   1       0.962   0.403   0.796  0.00  0.00     0.020 A 
ATOM      2  C1  UNL d   1       0.223  -0.717   1.177  0.00  0.00     0.020 A 
ATOM      3  C2  UNL d   1      -1.010  -0.556   1.813  0.00  0.00     0.034 A 
ATOM      4  C3  UNL d   1      -1.507   0.727   2.070  0.00  0.00     0.017 A 
ATOM      5  C4  UNL d   1      -0.765   1.850   1.687  0.00  0.00     0.017 A 
ATOM      6  C5  UNL d   1       0.468   1.683   1.050  0.00  0.00     0.034 A 
ATOM      7 Cl   UNL d   1      -1.314   3.464   1.970  0.00  0.00    -0.070 Cl
ATOM      8 Cl1  UNL d   1      -3.039   0.851   2.860  0.00  0.00    -0.070 Cl
ENDROOT
TORSDOF 0
ENDMDL
