MODEL 1
REMARK minimizedAffinity 4.08071518
REMARK minimizedRMSD -1
REMARK  0 active torsions:
REMARK  status: ('A' for Active; 'I' for Inactive)
ROOT
ATOM      1  C   UNL d   1       2.215   0.955  -0.201  0.00  0.00     0.020 A 
ATOM      2  C1  UNL d   1       2.854  -0.187   0.282  0.00  0.00     0.020 A 
ATOM      3  C2  UNL d   1       2.220  -0.994   1.229  0.00  0.00     0.034 A 
ATOM      4  C3  UNL d   1       0.943  -0.661   1.695  0.00  0.00     0.017 A 
ATOM      5  C4  UNL d   1       0.303   0.485   1.210  0.00  0.00     0.017 A 
ATOM      6  C5  UNL d   1       0.942   1.289   0.262  0.00  0.00     0.034 A 
ATOM      7 Cl   UNL d   1      -1.273   0.960   1.739  0.00  0.00    -0.070 Cl
ATOM      8 Cl1  UNL d   1       0.219  -1.705   2.866  0.00  0.00    -0.070 Cl
ENDROOT
TORSDOF 0
ENDMDL
