MODEL 1
REMARK minimizedAffinity 0.0646202937
REMARK minimizedRMSD -1
REMARK  0 active torsions:
REMARK  status: ('A' for Active; 'I' for Inactive)
ROOT
ATOM      1  C   UNL d   1       2.894  -0.180  -0.173  0.00  0.00     0.020 A 
ATOM      2  C1  UNL d   1       3.022   1.201  -0.026  0.00  0.00     0.020 A 
ATOM      3  C2  UNL d   1       2.034   1.927   0.641  0.00  0.00     0.034 A 
ATOM      4  C3  UNL d   1       0.913   1.273   1.165  0.00  0.00     0.017 A 
ATOM      5  C4  UNL d   1       0.785  -0.113   1.017  0.00  0.00     0.017 A 
ATOM      6  C5  UNL d   1       1.778  -0.835   0.348  0.00  0.00     0.034 A 
ATOM      7 Cl   UNL d   1      -0.570  -0.990   1.636  0.00  0.00    -0.070 Cl
ATOM      8 Cl1  UNL d   1      -0.270   2.233   1.979  0.00  0.00    -0.070 Cl
ENDROOT
TORSDOF 0
ENDMDL
