MODEL 1
REMARK minimizedAffinity 2.23584867
REMARK minimizedRMSD -1
REMARK  0 active torsions:
REMARK  status: ('A' for Active; 'I' for Inactive)
ROOT
ATOM      1  C   UNL d   1       3.148   0.748  -2.217  0.00  0.00     0.020 A 
ATOM      2  C1  UNL d   1       3.496  -0.524  -1.766  0.00  0.00     0.020 A 
ATOM      3  C2  UNL d   1       3.100  -0.947  -0.495  0.00  0.00     0.034 A 
ATOM      4  C3  UNL d   1       2.354  -0.096   0.328  0.00  0.00     0.017 A 
ATOM      5  C4  UNL d   1       2.004   1.180  -0.126  0.00  0.00     0.017 A 
ATOM      6  C5  UNL d   1       2.404   1.598  -1.399  0.00  0.00     0.034 A 
ATOM      7 Cl   UNL d   1       1.085   2.286   0.833  0.00  0.00    -0.070 Cl
ATOM      8 Cl1  UNL d   1       1.897  -0.685   1.888  0.00  0.00    -0.070 Cl
ENDROOT
TORSDOF 0
ENDMDL
