MODEL 1
REMARK minimizedAffinity -1.44238591
REMARK minimizedRMSD -1
REMARK  0 active torsions:
REMARK  status: ('A' for Active; 'I' for Inactive)
ROOT
ATOM      1  C   UNL d   1      -1.849  -0.353   2.387  0.00  0.00     0.020 A 
ATOM      2  C1  UNL d   1      -2.157   1.003   2.492  0.00  0.00     0.020 A 
ATOM      3  C2  UNL d   1      -1.217   1.964   2.112  0.00  0.00     0.034 A 
ATOM      4  C3  UNL d   1       0.035   1.569   1.625  0.00  0.00     0.017 A 
ATOM      5  C4  UNL d   1       0.342   0.208   1.519  0.00  0.00     0.017 A 
ATOM      6  C5  UNL d   1      -0.603  -0.749   1.901  0.00  0.00     0.034 A 
ATOM      7 Cl   UNL d   1       1.865  -0.356   0.928  0.00  0.00    -0.070 Cl
ATOM      8 Cl1  UNL d   1       1.149   2.811   1.173  0.00  0.00    -0.070 Cl
ENDROOT
TORSDOF 0
ENDMDL
