MODEL 1
REMARK minimizedAffinity -5.46314478
REMARK minimizedRMSD -1
REMARK  0 active torsions:
REMARK  status: ('A' for Active; 'I' for Inactive)
ROOT
ATOM      1  C   UNL d   1       0.859   2.432   1.121  0.00  0.00     0.020 A 
ATOM      2  C1  UNL d   1       0.087   3.199   1.993  0.00  0.00     0.020 A 
ATOM      3  C2  UNL d   1      -1.088   2.672   2.532  0.00  0.00     0.034 A 
ATOM      4  C3  UNL d   1      -1.496   1.376   2.199  0.00  0.00     0.017 A 
ATOM      5  C4  UNL d   1      -0.722   0.607   1.323  0.00  0.00     0.017 A 
ATOM      6  C5  UNL d   1       0.455   1.139   0.786  0.00  0.00     0.034 A 
ATOM      7 Cl   UNL d   1      -1.160  -1.001   0.865  0.00  0.00    -0.070 Cl
ATOM      8 Cl1  UNL d   1      -2.961   0.788   2.903  0.00  0.00    -0.070 Cl
ENDROOT
TORSDOF 0
ENDMDL
