MODEL 1
REMARK minimizedAffinity -2.89988756
REMARK minimizedRMSD -1
REMARK  0 active torsions:
REMARK  status: ('A' for Active; 'I' for Inactive)
ROOT
ATOM      1  C   UNL d   1      -2.858   1.345   2.993  0.00  0.00     0.020 A 
ATOM      2  C1  UNL d   1      -2.288   2.559   2.612  0.00  0.00     0.020 A 
ATOM      3  C2  UNL d   1      -1.139   2.572   1.819  0.00  0.00     0.034 A 
ATOM      4  C3  UNL d   1      -0.556   1.369   1.405  0.00  0.00     0.017 A 
ATOM      5  C4  UNL d   1      -1.128   0.151   1.788  0.00  0.00     0.017 A 
ATOM      6  C5  UNL d   1      -2.279   0.143   2.582  0.00  0.00     0.034 A 
ATOM      7 Cl   UNL d   1      -0.465  -1.374   1.317  0.00  0.00    -0.070 Cl
ATOM      8 Cl1  UNL d   1       0.865   1.460   0.425  0.00  0.00    -0.070 Cl
ENDROOT
TORSDOF 0
ENDMDL
