MODEL 1
REMARK minimizedAffinity 1.72983408
REMARK minimizedRMSD -1
REMARK  0 active torsions:
REMARK  status: ('A' for Active; 'I' for Inactive)
ROOT
ATOM      1  C   UNL d   1      -2.431   1.942   2.854  0.00  0.00     0.020 A 
ATOM      2  C1  UNL d   1      -2.116   2.895   1.887  0.00  0.00     0.020 A 
ATOM      3  C2  UNL d   1      -0.897   2.825   1.209  0.00  0.00     0.034 A 
ATOM      4  C3  UNL d   1       0.011   1.800   1.498  0.00  0.00     0.017 A 
ATOM      5  C4  UNL d   1      -0.306   0.844   2.469  0.00  0.00     0.017 A 
ATOM      6  C5  UNL d   1      -1.528   0.918   3.144  0.00  0.00     0.034 A 
ATOM      7 Cl   UNL d   1       0.763  -0.450   2.880  0.00  0.00    -0.070 Cl
ATOM      8 Cl1  UNL d   1       1.500   1.775   0.621  0.00  0.00    -0.070 Cl
ENDROOT
TORSDOF 0
ENDMDL
