MODEL 1
REMARK minimizedAffinity -1.4032557
REMARK minimizedRMSD -1
REMARK  0 active torsions:
REMARK  status: ('A' for Active; 'I' for Inactive)
ROOT
ATOM      1  C   UNL d   1       1.017   2.036   1.463  0.00  0.00     0.020 A 
ATOM      2  C1  UNL d   1       1.133   0.791   0.846  0.00  0.00     0.020 A 
ATOM      3  C2  UNL d   1       0.047  -0.087   0.836  0.00  0.00     0.034 A 
ATOM      4  C3  UNL d   1      -1.159   0.278   1.445  0.00  0.00     0.017 A 
ATOM      5  C4  UNL d   1      -1.274   1.528   2.065  0.00  0.00     0.017 A 
ATOM      6  C5  UNL d   1      -0.184   2.403   2.071  0.00  0.00     0.034 A 
ATOM      7 Cl   UNL d   1      -2.730   2.049   2.837  0.00  0.00    -0.070 Cl
ATOM      8 Cl1  UNL d   1      -2.461  -0.857   1.395  0.00  0.00    -0.070 Cl
ENDROOT
TORSDOF 0
ENDMDL
