MODEL 1
REMARK minimizedAffinity 3.57865977
REMARK minimizedRMSD -1
REMARK  0 active torsions:
REMARK  status: ('A' for Active; 'I' for Inactive)
ROOT
ATOM      1  C   UNL d   1       0.604  -0.393   2.070  0.00  0.00     0.020 A 
ATOM      2  C1  UNL d   1       0.885   0.473   1.014  0.00  0.00     0.020 A 
ATOM      3  C2  UNL d   1      -0.060   1.423   0.621  0.00  0.00     0.034 A 
ATOM      4  C3  UNL d   1      -1.290   1.509   1.283  0.00  0.00     0.017 A 
ATOM      5  C4  UNL d   1      -1.571   0.640   2.343  0.00  0.00     0.017 A 
ATOM      6  C5  UNL d   1      -0.621  -0.310   2.733  0.00  0.00     0.034 A 
ATOM      7 Cl   UNL d   1      -3.066   0.686   3.209  0.00  0.00    -0.070 Cl
ATOM      8 Cl1  UNL d   1      -2.411   2.708   0.743  0.00  0.00    -0.070 Cl
ENDROOT
TORSDOF 0
ENDMDL
