MODEL 1
REMARK minimizedAffinity 2.81662416
REMARK minimizedRMSD -1
REMARK  0 active torsions:
REMARK  status: ('A' for Active; 'I' for Inactive)
ROOT
ATOM      1  C   UNL d   1      -2.309   1.325   2.744  0.00  0.00     0.020 A 
ATOM      2  C1  UNL d   1      -2.316   2.671   2.380  0.00  0.00     0.020 A 
ATOM      3  C2  UNL d   1      -1.129   3.295   1.990  0.00  0.00     0.034 A 
ATOM      4  C3  UNL d   1       0.070   2.573   1.963  0.00  0.00     0.017 A 
ATOM      5  C4  UNL d   1       0.076   1.222   2.328  0.00  0.00     0.017 A 
ATOM      6  C5  UNL d   1      -1.116   0.602   2.718  0.00  0.00     0.034 A 
ATOM      7 Cl   UNL d   1       1.516   0.266   2.320  0.00  0.00    -0.070 Cl
ATOM      8 Cl1  UNL d   1       1.500   3.408   1.470  0.00  0.00    -0.070 Cl
ENDROOT
TORSDOF 0
ENDMDL
