MODEL 1
REMARK minimizedAffinity -4.33734703
REMARK minimizedRMSD -1
REMARK  1 active torsions:
REMARK  status: ('A' for Active; 'I' for Inactive)
REMARK    1  A    between atoms: C1_2  and  C2_3 
ROOT
ATOM      1  C2  UNL d   1       1.632   0.062  -2.483  0.00  0.00    -0.077 A 
ATOM      2  C3  UNL d   1       0.882   0.756  -1.522  0.00  0.00     0.002 A 
ATOM      3  C4  UNL d   1      -0.466   0.453  -1.324  0.00  0.00     0.002 A 
ATOM      4  C5  UNL d   1      -1.075  -0.547  -2.079  0.00  0.00    -0.004 A 
ATOM      5  C6  UNL d   1      -0.339  -1.242  -3.038  0.00  0.00     0.002 A 
ATOM      6  C7  UNL d   1       1.009  -0.939  -3.238  0.00  0.00     0.002 A 
ENDROOT
BRANCH   1   7
ATOM      7  C1  UNL d   1       3.098   0.354  -2.663  0.00  0.00     0.055 C 
ATOM      8  C   UNL d   1       3.911  -0.929  -2.755  0.00  0.00     0.019 C 
ENDBRANCH   1   7
TORSDOF 1
ENDMDL
