MODEL 1
REMARK minimizedAffinity -5.07556343
REMARK minimizedRMSD -1
REMARK  1 active torsions:
REMARK  status: ('A' for Active; 'I' for Inactive)
REMARK    1  A    between atoms: C1_2  and  C2_3 
ROOT
ATOM      1  C2  UNL d   1      -0.601  -0.200   1.083  0.00  0.00    -0.077 A 
ATOM      2  C3  UNL d   1      -1.827   0.171   0.513  0.00  0.00     0.002 A 
ATOM      3  C4  UNL d   1      -2.921   0.474   1.325  0.00  0.00     0.002 A 
ATOM      4  C5  UNL d   1      -2.799   0.413   2.712  0.00  0.00    -0.004 A 
ATOM      5  C6  UNL d   1      -1.584   0.043   3.289  0.00  0.00     0.002 A 
ATOM      6  C7  UNL d   1      -0.490  -0.261   2.478  0.00  0.00     0.002 A 
ENDROOT
BRANCH   1   7
ATOM      7  C1  UNL d   1       0.594  -0.479   0.209  0.00  0.00     0.055 C 
ATOM      8  C   UNL d   1       0.602   0.417  -1.021  0.00  0.00     0.019 C 
ENDBRANCH   1   7
TORSDOF 1
ENDMDL
