MODEL 1
REMARK minimizedAffinity -5.17159319
REMARK minimizedRMSD -1
REMARK  1 active torsions:
REMARK  status: ('A' for Active; 'I' for Inactive)
REMARK    1  A    between atoms: C1_2  and  C2_3 
ROOT
ATOM      1  C2  UNL d   1      -0.184   0.419   0.160  0.00  0.00    -0.077 A 
ATOM      2  C3  UNL d   1       0.866   0.632   1.064  0.00  0.00     0.002 A 
ATOM      3  C4  UNL d   1       0.786   0.140   2.368  0.00  0.00     0.002 A 
ATOM      4  C5  UNL d   1      -0.340  -0.572   2.778  0.00  0.00    -0.004 A 
ATOM      5  C6  UNL d   1      -1.390  -0.787   1.887  0.00  0.00     0.002 A 
ATOM      6  C7  UNL d   1      -1.312  -0.294   0.584  0.00  0.00     0.002 A 
ENDROOT
BRANCH   1   7
ATOM      7  C1  UNL d   1      -0.078   0.907  -1.261  0.00  0.00     0.055 C 
ATOM      8  C   UNL d   1       0.295  -0.224  -2.208  0.00  0.00     0.019 C 
ENDBRANCH   1   7
TORSDOF 1
ENDMDL
