MODEL 1
REMARK minimizedAffinity -4.41062975
REMARK minimizedRMSD -1
REMARK  1 active torsions:
REMARK  status: ('A' for Active; 'I' for Inactive)
REMARK    1  A    between atoms: C1_2  and  C2_3 
ROOT
ATOM      1  C2  UNL d   1      -0.009   0.044  -0.027  0.00  0.00    -0.077 A 
ATOM      2  C3  UNL d   1      -1.388   0.117   0.216  0.00  0.00     0.002 A 
ATOM      3  C4  UNL d   1      -1.874   0.136   1.524  0.00  0.00     0.002 A 
ATOM      4  C5  UNL d   1      -0.989   0.088   2.599  0.00  0.00    -0.004 A 
ATOM      5  C6  UNL d   1       0.384   0.014   2.368  0.00  0.00     0.002 A 
ATOM      6  C7  UNL d   1       0.872  -0.007   1.061  0.00  0.00     0.002 A 
ENDROOT
BRANCH   1   7
ATOM      7  C1  UNL d   1       0.520   0.073  -1.438  0.00  0.00     0.055 C 
ATOM      8  C   UNL d   1      -0.097  -1.032  -2.283  0.00  0.00     0.019 C 
ENDBRANCH   1   7
TORSDOF 1
ENDMDL
