MODEL 1
REMARK minimizedAffinity -4.46947718
REMARK minimizedRMSD -1
REMARK  1 active torsions:
REMARK  status: ('A' for Active; 'I' for Inactive)
REMARK    1  A    between atoms: C1_2  and  C2_3 
ROOT
ATOM      1  C2  UNL d   1      -0.199   0.391   0.316  0.00  0.00    -0.077 A 
ATOM      2  C3  UNL d   1      -1.399  -0.273   0.607  0.00  0.00     0.002 A 
ATOM      3  C4  UNL d   1      -1.630  -0.789   1.884  0.00  0.00     0.002 A 
ATOM      4  C5  UNL d   1      -0.667  -0.642   2.881  0.00  0.00    -0.004 A 
ATOM      5  C6  UNL d   1       0.530   0.016   2.601  0.00  0.00     0.002 A 
ATOM      6  C7  UNL d   1       0.763   0.531   1.325  0.00  0.00     0.002 A 
ENDROOT
BRANCH   1   7
ATOM      7  C1  UNL d   1       0.030   0.991  -1.046  0.00  0.00     0.055 C 
ATOM      8  C   UNL d   1       0.864   0.069  -1.924  0.00  0.00     0.019 C 
ENDBRANCH   1   7
TORSDOF 1
ENDMDL
