MODEL 1
REMARK minimizedAffinity -4.31813955
REMARK minimizedRMSD -1
REMARK  1 active torsions:
REMARK  status: ('A' for Active; 'I' for Inactive)
REMARK    1  A    between atoms: C1_2  and  C2_3 
ROOT
ATOM      1  C2  UNL d   1       0.246   0.096  -0.243  0.00  0.00    -0.077 A 
ATOM      2  C3  UNL d   1       1.042   0.789   0.679  0.00  0.00     0.002 A 
ATOM      3  C4  UNL d   1       0.770   0.711   2.047  0.00  0.00     0.002 A 
ATOM      4  C5  UNL d   1      -0.295  -0.062   2.504  0.00  0.00    -0.004 A 
ATOM      5  C6  UNL d   1      -1.094  -0.754   1.594  0.00  0.00     0.002 A 
ATOM      6  C7  UNL d   1      -0.824  -0.676   0.227  0.00  0.00     0.002 A 
ENDROOT
BRANCH   1   7
ATOM      7  C1  UNL d   1       0.568   0.139  -1.714  0.00  0.00     0.055 C 
ATOM      8  C   UNL d   1       0.002  -1.072  -2.440  0.00  0.00     0.019 C 
ENDBRANCH   1   7
TORSDOF 1
ENDMDL
