MODEL 1
REMARK minimizedAffinity -4.98826218
REMARK minimizedRMSD -1
REMARK  1 active torsions:
REMARK  status: ('A' for Active; 'I' for Inactive)
REMARK    1  A    between atoms: C1_2  and  C2_3 
ROOT
ATOM      1  C2  UNL d   1      -1.902  -0.261   1.701  0.00  0.00    -0.077 A 
ATOM      2  C3  UNL d   1      -1.134  -0.054   2.855  0.00  0.00     0.002 A 
ATOM      3  C4  UNL d   1       0.224   0.255   2.754  0.00  0.00     0.002 A 
ATOM      4  C5  UNL d   1       0.824   0.362   1.501  0.00  0.00    -0.004 A 
ATOM      5  C6  UNL d   1       0.069   0.155   0.347  0.00  0.00     0.002 A 
ATOM      6  C7  UNL d   1      -1.288  -0.154   0.446  0.00  0.00     0.002 A 
ENDROOT
BRANCH   1   7
ATOM      7  C1  UNL d   1      -3.378  -0.545   1.806  0.00  0.00     0.055 C 
ATOM      8  C   UNL d   1      -4.183   0.358   0.883  0.00  0.00     0.019 C 
ENDBRANCH   1   7
TORSDOF 1
ENDMDL
