MODEL 1
REMARK minimizedAffinity -4.56008625
REMARK minimizedRMSD -1
REMARK  1 active torsions:
REMARK  status: ('A' for Active; 'I' for Inactive)
REMARK    1  A    between atoms: C1_2  and  C2_3 
ROOT
ATOM      1  C2  UNL d   1       0.483  -0.180  -0.498  0.00  0.00    -0.077 A 
ATOM      2  C3  UNL d   1       1.351  -0.043   0.594  0.00  0.00     0.002 A 
ATOM      3  C4  UNL d   1       0.884  -0.233   1.896  0.00  0.00     0.002 A 
ATOM      4  C5  UNL d   1      -0.451  -0.565   2.118  0.00  0.00    -0.004 A 
ATOM      5  C6  UNL d   1      -1.323  -0.702   1.038  0.00  0.00     0.002 A 
ATOM      6  C7  UNL d   1      -0.858  -0.511  -0.264  0.00  0.00     0.002 A 
ENDROOT
BRANCH   1   7
ATOM      7  C1  UNL d   1       0.996  -0.024  -1.906  0.00  0.00     0.055 C 
ATOM      8  C   UNL d   1       0.548  -1.179  -2.790  0.00  0.00     0.019 C 
ENDBRANCH   1   7
TORSDOF 1
ENDMDL
