MODEL 1
REMARK minimizedAffinity -4.83090353
REMARK minimizedRMSD -1
REMARK  1 active torsions:
REMARK  status: ('A' for Active; 'I' for Inactive)
REMARK    1  A    between atoms: C1_2  and  C2_3 
ROOT
ATOM      1  C2  UNL d   1       1.723  -0.205  -2.871  0.00  0.00    -0.077 A 
ATOM      2  C3  UNL d   1       1.003   0.384  -1.822  0.00  0.00     0.002 A 
ATOM      3  C4  UNL d   1      -0.255  -0.106  -1.467  0.00  0.00     0.002 A 
ATOM      4  C5  UNL d   1      -0.802  -1.189  -2.152  0.00  0.00    -0.004 A 
ATOM      5  C6  UNL d   1      -0.094  -1.780  -3.198  0.00  0.00     0.002 A 
ATOM      6  C7  UNL d   1       1.163  -1.291  -3.556  0.00  0.00     0.002 A 
ENDROOT
BRANCH   1   7
ATOM      7  C1  UNL d   1       3.102   0.291  -3.223  0.00  0.00     0.055 C 
ATOM      8  C   UNL d   1       4.088  -0.861  -3.351  0.00  0.00     0.019 C 
ENDBRANCH   1   7
TORSDOF 1
ENDMDL
