MODEL 1
REMARK minimizedAffinity -1.53559077
REMARK minimizedRMSD -1
REMARK  1 active torsions:
REMARK  status: ('A' for Active; 'I' for Inactive)
REMARK    1  A    between atoms: C1_2  and  C2_3 
ROOT
ATOM      1  C2  UNL d   1      -2.164  -0.106   0.281  0.00  0.00    -0.077 A 
ATOM      2  C3  UNL d   1      -1.955  -1.296   0.992  0.00  0.00     0.002 A 
ATOM      3  C4  UNL d   1      -0.680  -1.629   1.453  0.00  0.00     0.002 A 
ATOM      4  C5  UNL d   1       0.394  -0.774   1.214  0.00  0.00    -0.004 A 
ATOM      5  C6  UNL d   1       0.197   0.411   0.507  0.00  0.00     0.002 A 
ATOM      6  C7  UNL d   1      -1.076   0.744   0.043  0.00  0.00     0.002 A 
ENDROOT
BRANCH   1   7
ATOM      7  C1  UNL d   1      -3.547   0.278  -0.174  0.00  0.00     0.055 C 
ATOM      8  C   UNL d   1      -4.608  -0.601   0.473  0.00  0.00     0.019 C 
ENDBRANCH   1   7
TORSDOF 1
ENDMDL
