MODEL 1
REMARK minimizedAffinity -5.70524454
REMARK minimizedRMSD -1
REMARK  1 active torsions:
REMARK  status: ('A' for Active; 'I' for Inactive)
REMARK    1  A    between atoms: C1_2  and  C2_3 
ROOT
ATOM      1  C2  UNL d   1      -0.165   0.318   0.067  0.00  0.00    -0.077 A 
ATOM      2  C3  UNL d   1      -1.505  -0.045   0.262  0.00  0.00     0.002 A 
ATOM      3  C4  UNL d   1      -1.952  -0.442   1.523  0.00  0.00     0.002 A 
ATOM      4  C5  UNL d   1      -1.068  -0.475   2.600  0.00  0.00    -0.004 A 
ATOM      5  C6  UNL d   1       0.267  -0.117   2.416  0.00  0.00     0.002 A 
ATOM      6  C7  UNL d   1       0.716   0.278   1.155  0.00  0.00     0.002 A 
ENDROOT
BRANCH   1   7
ATOM      7  C1  UNL d   1       0.309   0.794  -1.282  0.00  0.00     0.055 C 
ATOM      8  C   UNL d   1       0.530  -0.373  -2.234  0.00  0.00     0.019 C 
ENDBRANCH   1   7
TORSDOF 1
ENDMDL
