MODEL 1
REMARK minimizedAffinity -1.73645854
REMARK minimizedRMSD -1
REMARK  1 active torsions:
REMARK  status: ('A' for Active; 'I' for Inactive)
REMARK    1  A    between atoms: C1_2  and  C2_3 
ROOT
ATOM      1  C2  UNL d   1      -0.002   0.067   0.548  0.00  0.00    -0.077 A 
ATOM      2  C3  UNL d   1      -0.747  -1.109   0.715  0.00  0.00     0.002 A 
ATOM      3  C4  UNL d   1      -1.227  -1.468   1.976  0.00  0.00     0.002 A 
ATOM      4  C5  UNL d   1      -0.972  -0.655   3.078  0.00  0.00    -0.004 A 
ATOM      5  C6  UNL d   1      -0.231   0.516   2.923  0.00  0.00     0.002 A 
ATOM      6  C7  UNL d   1       0.251   0.875   1.663  0.00  0.00     0.002 A 
ENDROOT
BRANCH   1   7
ATOM      7  C1  UNL d   1       0.475   0.481  -0.819  0.00  0.00     0.055 C 
ATOM      8  C   UNL d   1       0.705  -0.728  -1.715  0.00  0.00     0.019 C 
ENDBRANCH   1   7
TORSDOF 1
ENDMDL
