MODEL 1
REMARK minimizedAffinity -5.43951035
REMARK minimizedRMSD -1
REMARK  0 active torsions:
REMARK  status: ('A' for Active; 'I' for Inactive)
ROOT
ATOM      1  C4' PXY d   1      -1.313   0.507   1.972  0.00  0.00     0.077 C 
ATOM      2  C1' PXY d   1       1.968  -0.651  -2.644  0.00  0.00     0.077 C 
ATOM      3  C1  PXY d   1       1.100  -0.358  -1.436  0.00  0.00    -0.082 A 
ATOM      4  C2  PXY d   1       1.052   0.871  -0.948  0.00  0.00     0.003 A 
ATOM      5  C3  PXY d   1       0.297   1.147   0.163  0.00  0.00     0.003 A 
ATOM      6  C4  PXY d   1      -0.458   0.167   0.749  0.00  0.00    -0.082 A 
ATOM      7  C5  PXY d   1      -0.423  -1.087   0.250  0.00  0.00     0.003 A 
ATOM      8  C6  PXY d   1       0.382  -1.356  -0.853  0.00  0.00     0.003 A 
ENDROOT
TORSDOF 0
ENDMDL
