MODEL 1
REMARK minimizedAffinity -3.13242984
REMARK minimizedRMSD -1
REMARK  0 active torsions:
REMARK  status: ('A' for Active; 'I' for Inactive)
ROOT
ATOM      1  C4' PXY d   1       2.122  -0.619  -4.176  0.00  0.00     0.077 C 
ATOM      2  C1' PXY d   1      -0.692   0.518   0.744  0.00  0.00     0.077 C 
ATOM      3  C1  PXY d   1       0.036   0.212  -0.550  0.00  0.00    -0.082 A 
ATOM      4  C2  PXY d   1       1.348   0.369  -0.615  0.00  0.00     0.003 A 
ATOM      5  C3  PXY d   1       2.019   0.128  -1.787  0.00  0.00     0.003 A 
ATOM      6  C4  PXY d   1       1.346  -0.331  -2.888  0.00  0.00    -0.082 A 
ATOM      7  C5  PXY d   1       0.009  -0.504  -2.826  0.00  0.00     0.003 A 
ATOM      8  C6  PXY d   1      -0.659  -0.214  -1.640  0.00  0.00     0.003 A 
ENDROOT
TORSDOF 0
ENDMDL
