MODEL 1
REMARK minimizedAffinity 4.1430335
REMARK minimizedRMSD -1
REMARK  0 active torsions:
REMARK  status: ('A' for Active; 'I' for Inactive)
ROOT
ATOM      1  C4' PXY d   1       0.969   4.257   1.162  0.00  0.00     0.077 C 
ATOM      2  C1' PXY d   1       1.857  -0.036  -2.606  0.00  0.00     0.077 C 
ATOM      3  C1  PXY d   1       1.627   1.099  -1.627  0.00  0.00    -0.082 A 
ATOM      4  C2  PXY d   1       1.704   0.866  -0.327  0.00  0.00     0.003 A 
ATOM      5  C3  PXY d   1       1.468   1.873   0.573  0.00  0.00     0.003 A 
ATOM      6  C4  PXY d   1       1.202   3.144   0.137  0.00  0.00    -0.082 A 
ATOM      7  C5  PXY d   1       1.132   3.391  -1.188  0.00  0.00     0.003 A 
ATOM      8  C6  PXY d   1       1.335   2.346  -2.085  0.00  0.00     0.003 A 
ENDROOT
TORSDOF 0
ENDMDL
