MODEL 1
REMARK minimizedAffinity -4.13657093
REMARK minimizedRMSD -1
REMARK  0 active torsions:
REMARK  status: ('A' for Active; 'I' for Inactive)
ROOT
ATOM      1  C4' PXY d   1       1.995   0.131  -3.382  0.00  0.00     0.077 C 
ATOM      2  C1' PXY d   1      -0.806   0.219   1.674  0.00  0.00     0.077 C 
ATOM      3  C1  PXY d   1      -0.070   0.209   0.348  0.00  0.00    -0.082 A 
ATOM      4  C2  PXY d   1      -0.256  -0.793  -0.495  0.00  0.00     0.003 A 
ATOM      5  C3  PXY d   1       0.426  -0.834  -1.684  0.00  0.00     0.003 A 
ATOM      6  C4  PXY d   1       1.266   0.188  -2.037  0.00  0.00    -0.082 A 
ATOM      7  C5  PXY d   1       1.452   1.219  -1.186  0.00  0.00     0.003 A 
ATOM      8  C6  PXY d   1       0.782   1.222   0.034  0.00  0.00     0.003 A 
ENDROOT
TORSDOF 0
ENDMDL
