MODEL 1
REMARK minimizedAffinity -4.93309164
REMARK minimizedRMSD -1
REMARK  0 active torsions:
REMARK  status: ('A' for Active; 'I' for Inactive)
ROOT
ATOM      1  C4' PXY d   1      -1.398   0.800   1.438  0.00  0.00     0.077 C 
ATOM      2  C1' PXY d   1       2.037  -0.234  -3.095  0.00  0.00     0.077 C 
ATOM      3  C1  PXY d   1       1.128   0.027  -1.909  0.00  0.00    -0.082 A 
ATOM      4  C2  PXY d   1       1.052   1.245  -1.399  0.00  0.00     0.003 A 
ATOM      5  C3  PXY d   1       0.261   1.492  -0.307  0.00  0.00     0.003 A 
ATOM      6  C4  PXY d   1      -0.502   0.493   0.236  0.00  0.00    -0.082 A 
ATOM      7  C5  PXY d   1      -0.438  -0.751  -0.286  0.00  0.00     0.003 A 
ATOM      8  C6  PXY d   1       0.403  -0.990  -1.369  0.00  0.00     0.003 A 
ENDROOT
TORSDOF 0
ENDMDL
