MODEL 1
REMARK minimizedAffinity -2.20395947
REMARK minimizedRMSD -1
REMARK  0 active torsions:
REMARK  status: ('A' for Active; 'I' for Inactive)
ROOT
ATOM      1  C4' PXY d   1      -0.211  -2.533  -1.949  0.00  0.00     0.077 C 
ATOM      2  C1' PXY d   1       1.122   2.476   0.610  0.00  0.00     0.077 C 
ATOM      3  C1  PXY d   1       0.773   1.168  -0.073  0.00  0.00    -0.082 A 
ATOM      4  C2  PXY d   1       0.094   0.245   0.589  0.00  0.00     0.003 A 
ATOM      5  C3  PXY d   1      -0.202  -0.956  -0.003  0.00  0.00     0.003 A 
ATOM      6  C4  PXY d   1       0.155  -1.194  -1.303  0.00  0.00    -0.082 A 
ATOM      7  C5  PXY d   1       0.839  -0.254  -1.988  0.00  0.00     0.003 A 
ATOM      8  C6  PXY d   1       1.166   0.942  -1.356  0.00  0.00     0.003 A 
ENDROOT
TORSDOF 0
ENDMDL
