MODEL 1
REMARK minimizedAffinity -4.6964488
REMARK minimizedRMSD -1
REMARK  0 active torsions:
REMARK  status: ('A' for Active; 'I' for Inactive)
ROOT
ATOM      1  C4' PXY d   1      -0.665   0.489   2.266  0.00  0.00     0.077 C 
ATOM      2  C1' PXY d   1       1.034  -0.127  -3.224  0.00  0.00     0.077 C 
ATOM      3  C1  PXY d   1       0.598   0.043  -1.782  0.00  0.00    -0.082 A 
ATOM      4  C2  PXY d   1      -0.117  -0.905  -1.199  0.00  0.00     0.003 A 
ATOM      5  C3  PXY d   1      -0.547  -0.754   0.094  0.00  0.00     0.003 A 
ATOM      6  C4  PXY d   1      -0.196   0.356   0.815  0.00  0.00    -0.082 A 
ATOM      7  C5  PXY d   1       0.543   1.323   0.231  0.00  0.00     0.003 A 
ATOM      8  C6  PXY d   1       0.935   1.169  -1.096  0.00  0.00     0.003 A 
ENDROOT
TORSDOF 0
ENDMDL
