MODEL 1
REMARK minimizedAffinity -4.1708951
REMARK minimizedRMSD -1
REMARK  0 active torsions:
REMARK  status: ('A' for Active; 'I' for Inactive)
ROOT
ATOM      1  C4' PXY d   1       2.038  -0.382  -3.108  0.00  0.00     0.077 C 
ATOM      2  C1' PXY d   1      -0.914  -0.210   1.859  0.00  0.00     0.077 C 
ATOM      3  C1  PXY d   1      -0.137  -0.267   0.559  0.00  0.00    -0.082 A 
ATOM      4  C2  PXY d   1       0.355   0.846   0.041  0.00  0.00     0.003 A 
ATOM      5  C3  PXY d   1       1.033   0.817  -1.151  0.00  0.00     0.003 A 
ATOM      6  C4  PXY d   1       1.255  -0.372  -1.792  0.00  0.00    -0.082 A 
ATOM      7  C5  PXY d   1       0.765  -1.514  -1.265  0.00  0.00     0.003 A 
ATOM      8  C6  PXY d   1       0.045  -1.458  -0.075  0.00  0.00     0.003 A 
ENDROOT
TORSDOF 0
ENDMDL
