MODEL 1
REMARK minimizedAffinity -5.26828194
REMARK minimizedRMSD -1
REMARK  0 active torsions:
REMARK  status: ('A' for Active; 'I' for Inactive)
ROOT
ATOM      1  C4' PXY d   1       0.338  -2.602  -1.239  0.00  0.00     0.077 C 
ATOM      2  C1' PXY d   1       1.087   3.113  -0.806  0.00  0.00     0.077 C 
ATOM      3  C1  PXY d   1       0.892   1.615  -0.932  0.00  0.00    -0.082 A 
ATOM      4  C2  PXY d   1       0.204   0.965  -0.009  0.00  0.00     0.003 A 
ATOM      5  C3  PXY d   1       0.045  -0.395  -0.090  0.00  0.00     0.003 A 
ATOM      6  C4  PXY d   1       0.551  -1.088  -1.157  0.00  0.00    -0.082 A 
ATOM      7  C5  PXY d   1       1.246  -0.430  -2.109  0.00  0.00     0.003 A 
ATOM      8  C6  PXY d   1       1.431   0.944  -1.986  0.00  0.00     0.003 A 
ENDROOT
TORSDOF 0
ENDMDL
