MODEL 1
REMARK minimizedAffinity -3.41770911
REMARK minimizedRMSD -1
REMARK  0 active torsions:
REMARK  status: ('A' for Active; 'I' for Inactive)
ROOT
ATOM      1  C4' PXY d   1      -1.225   0.368   2.124  0.00  0.00     0.077 C 
ATOM      2  C1' PXY d   1       2.014  -0.076  -2.642  0.00  0.00     0.077 C 
ATOM      3  C1  PXY d   1       1.159   0.029  -1.395  0.00  0.00    -0.082 A 
ATOM      4  C2  PXY d   1       0.896   1.219  -0.881  0.00  0.00     0.003 A 
ATOM      5  C3  PXY d   1       0.151   1.330   0.265  0.00  0.00     0.003 A 
ATOM      6  C4  PXY d   1      -0.374   0.215   0.861  0.00  0.00    -0.082 A 
ATOM      7  C5  PXY d   1      -0.119  -1.002   0.336  0.00  0.00     0.003 A 
ATOM      8  C6  PXY d   1       0.674  -1.097  -0.804  0.00  0.00     0.003 A 
ENDROOT
TORSDOF 0
ENDMDL
