MODEL 1
REMARK minimizedAffinity -4.20236206
REMARK minimizedRMSD -1
REMARK  0 active torsions:
REMARK  status: ('A' for Active; 'I' for Inactive)
ROOT
ATOM      1  C4' PXY d   1      -0.934  -0.387   1.821  0.00  0.00     0.077 C 
ATOM      2  C1' PXY d   1       1.693  -0.151  -3.322  0.00  0.00     0.077 C 
ATOM      3  C1  PXY d   1       1.011  -0.202  -1.970  0.00  0.00    -0.082 A 
ATOM      4  C2  PXY d   1       0.545  -1.354  -1.516  0.00  0.00     0.003 A 
ATOM      5  C3  PXY d   1      -0.104  -1.413  -0.309  0.00  0.00     0.003 A 
ATOM      6  C4  PXY d   1      -0.230  -0.290   0.465  0.00  0.00    -0.082 A 
ATOM      7  C5  PXY d   1       0.253   0.887   0.013  0.00  0.00     0.003 A 
ATOM      8  C6  PXY d   1       0.871   0.933  -1.233  0.00  0.00     0.003 A 
ENDROOT
TORSDOF 0
ENDMDL
