MODEL 1
REMARK minimizedAffinity -2.30414987
REMARK minimizedRMSD -1
REMARK  0 active torsions:
REMARK  status: ('A' for Active; 'I' for Inactive)
ROOT
ATOM      1  C4' PXY d   1      -1.271   0.084   1.609  0.00  0.00     0.077 C 
ATOM      2  C1' PXY d   1       1.940  -0.140  -3.193  0.00  0.00     0.077 C 
ATOM      3  C1  PXY d   1       1.091  -0.091  -1.938  0.00  0.00    -0.082 A 
ATOM      4  C2  PXY d   1       1.007   1.034  -1.248  0.00  0.00     0.003 A 
ATOM      5  C3  PXY d   1       0.270   1.087  -0.093  0.00  0.00     0.003 A 
ATOM      6  C4  PXY d   1      -0.433  -0.009   0.331  0.00  0.00    -0.082 A 
ATOM      7  C5  PXY d   1      -0.362  -1.158  -0.373  0.00  0.00     0.003 A 
ATOM      8  C6  PXY d   1       0.426  -1.203  -1.520  0.00  0.00     0.003 A 
ENDROOT
TORSDOF 0
ENDMDL
