MODEL 1
REMARK minimizedAffinity -3.59858418
REMARK minimizedRMSD -1
REMARK  0 active torsions:
REMARK  status: ('A' for Active; 'I' for Inactive)
ROOT
ATOM      1  C4' PXY d   1      -1.093  -1.137   1.379  0.00  0.00     0.077 C 
ATOM      2  C1' PXY d   1       1.612   0.675  -3.397  0.00  0.00     0.077 C 
ATOM      3  C1  PXY d   1       0.893   0.195  -2.152  0.00  0.00    -0.082 A 
ATOM      4  C2  PXY d   1       1.111   0.801  -0.996  0.00  0.00     0.003 A 
ATOM      5  C3  PXY d   1       0.493   0.360   0.146  0.00  0.00     0.003 A 
ATOM      6  C4  PXY d   1      -0.396  -0.680   0.095  0.00  0.00    -0.082 A 
ATOM      7  C5  PXY d   1      -0.632  -1.297  -1.083  0.00  0.00     0.003 A 
ATOM      8  C6  PXY d   1       0.036  -0.860  -2.223  0.00  0.00     0.003 A 
ENDROOT
TORSDOF 0
ENDMDL
