MODEL 1
REMARK minimizedAffinity -3.08470345
REMARK minimizedRMSD -1
REMARK  0 active torsions:
REMARK  status: ('A' for Active; 'I' for Inactive)
ROOT
ATOM      1  C4' PXY d   1      -1.631  -0.109   1.919  0.00  0.00     0.077 C 
ATOM      2  C1' PXY d   1       1.812  -0.037  -2.724  0.00  0.00     0.077 C 
ATOM      3  C1  PXY d   1       0.917  -0.048  -1.500  0.00  0.00    -0.082 A 
ATOM      4  C2  PXY d   1       0.103  -1.070  -1.294  0.00  0.00     0.003 A 
ATOM      5  C3  PXY d   1      -0.736  -1.081  -0.209  0.00  0.00     0.003 A 
ATOM      6  C4  PXY d   1      -0.703  -0.060   0.702  0.00  0.00    -0.082 A 
ATOM      7  C5  PXY d   1       0.132   0.982   0.504  0.00  0.00     0.003 A 
ATOM      8  C6  PXY d   1       0.946   0.993  -0.625  0.00  0.00     0.003 A 
ENDROOT
TORSDOF 0
ENDMDL
