MODEL 1
REMARK minimizedAffinity -2.75194049
REMARK minimizedRMSD -1
REMARK  0 active torsions:
REMARK  status: ('A' for Active; 'I' for Inactive)
ROOT
ATOM      1  C4' PXY d   1      -1.938   0.050   1.947  0.00  0.00     0.077 C 
ATOM      2  C1' PXY d   1       2.166   0.481  -2.101  0.00  0.00     0.077 C 
ATOM      3  C1  PXY d   1       1.085   0.357  -1.046  0.00  0.00    -0.082 A 
ATOM      4  C2  PXY d   1       0.739   1.419  -0.336  0.00  0.00     0.003 A 
ATOM      5  C3  PXY d   1      -0.214   1.318   0.644  0.00  0.00     0.003 A 
ATOM      6  C4  PXY d   1      -0.858   0.130   0.864  0.00  0.00    -0.082 A 
ATOM      7  C5  PXY d   1      -0.519  -0.956   0.137  0.00  0.00     0.003 A 
ATOM      8  C6  PXY d   1       0.481  -0.842  -0.825  0.00  0.00     0.003 A 
ENDROOT
TORSDOF 0
ENDMDL
