MODEL 1
REMARK minimizedAffinity -4.44703054
REMARK minimizedRMSD -1
REMARK  0 active torsions:
REMARK  status: ('A' for Active; 'I' for Inactive)
ROOT
ATOM      1  C4' PXY d   1       1.567   0.088  -2.971  0.00  0.00     0.077 C 
ATOM      2  C1' PXY d   1      -1.232  -0.220   2.077  0.00  0.00     0.077 C 
ATOM      3  C1  PXY d   1      -0.497  -0.126   0.755  0.00  0.00    -0.082 A 
ATOM      4  C2  PXY d   1      -0.658  -1.077  -0.152  0.00  0.00     0.003 A 
ATOM      5  C3  PXY d   1       0.024  -1.024  -1.340  0.00  0.00     0.003 A 
ATOM      6  C4  PXY d   1       0.838   0.039  -1.626  0.00  0.00    -0.082 A 
ATOM      7  C5  PXY d   1       0.999   1.018  -0.710  0.00  0.00     0.003 A 
ATOM      8  C6  PXY d   1       0.329   0.926   0.507  0.00  0.00     0.003 A 
ENDROOT
TORSDOF 0
ENDMDL
