MODEL 1
REMARK minimizedAffinity -3.00184894
REMARK minimizedRMSD -1
REMARK  0 active torsions:
REMARK  status: ('A' for Active; 'I' for Inactive)
ROOT
ATOM      1  C4' PXY d   1      -1.737   3.270   5.083  0.00  0.00     0.077 C 
ATOM      2  C1' PXY d   1      -4.230  -0.114   1.115  0.00  0.00     0.077 C 
ATOM      3  C1  PXY d   1      -3.571   0.763   2.161  0.00  0.00    -0.082 A 
ATOM      4  C2  PXY d   1      -4.085   1.950   2.437  0.00  0.00     0.003 A 
ATOM      5  C3  PXY d   1      -3.483   2.769   3.358  0.00  0.00     0.003 A 
ATOM      6  C4  PXY d   1      -2.374   2.347   4.041  0.00  0.00    -0.082 A 
ATOM      7  C5  PXY d   1      -1.850   1.132   3.772  0.00  0.00     0.003 A 
ATOM      8  C6  PXY d   1      -2.452   0.333   2.805  0.00  0.00     0.003 A 
ENDROOT
TORSDOF 0
ENDMDL
