MODEL 1
REMARK minimizedAffinity 2.363168
REMARK minimizedRMSD -1
REMARK  0 active torsions:
REMARK  status: ('A' for Active; 'I' for Inactive)
ROOT
ATOM      1  C4' PXY d   1      -1.431   0.142   1.887  0.00  0.00     0.077 C 
ATOM      2  C1' PXY d   1       2.566   0.421  -2.279  0.00  0.00     0.077 C 
ATOM      3  C1  PXY d   1       1.514   0.336  -1.191  0.00  0.00    -0.082 A 
ATOM      4  C2  PXY d   1       1.040   1.448  -0.651  0.00  0.00     0.003 A 
ATOM      5  C3  PXY d   1       0.112   1.388   0.356  0.00  0.00     0.003 A 
ATOM      6  C4  PXY d   1      -0.375   0.181   0.779  0.00  0.00    -0.082 A 
ATOM      7  C5  PXY d   1       0.095  -0.957   0.226  0.00  0.00     0.003 A 
ATOM      8  C6  PXY d   1       1.068  -0.877  -0.767  0.00  0.00     0.003 A 
ENDROOT
TORSDOF 0
ENDMDL
