MODEL 1
REMARK minimizedAffinity -5.46882868
REMARK minimizedRMSD -1
REMARK  0 active torsions:
REMARK  status: ('A' for Active; 'I' for Inactive)
ROOT
ATOM      1  C4' PXY d   1      -1.129  -0.037   1.321  0.00  0.00     0.077 C 
ATOM      2  C1' PXY d   1       2.334  -0.048  -3.307  0.00  0.00     0.077 C 
ATOM      3  C1  PXY d   1       1.433  -0.036  -2.088  0.00  0.00    -0.082 A 
ATOM      4  C2  PXY d   1       0.698  -1.100  -1.807  0.00  0.00     0.003 A 
ATOM      5  C3  PXY d   1      -0.146  -1.094  -0.727  0.00  0.00     0.003 A 
ATOM      6  C4  PXY d   1      -0.198  -0.008   0.106  0.00  0.00    -0.082 A 
ATOM      7  C5  PXY d   1       0.557   1.077  -0.168  0.00  0.00     0.003 A 
ATOM      8  C6  PXY d   1       1.376   1.067  -1.293  0.00  0.00     0.003 A 
ENDROOT
TORSDOF 0
ENDMDL
