MODEL 1
REMARK minimizedAffinity 9.47309971
REMARK minimizedRMSD -1
REMARK  1 active torsions:
REMARK  status: ('A' for Active; 'I' for Inactive)
REMARK    1  A    between atoms: C1_2  and  C2_3 
ROOT
ATOM      1  C2  UNL d   1      -5.511  -5.219  -3.480  0.00  0.00    -0.073 A 
ATOM      2  C3  UNL d   1      -6.000  -5.511  -4.758  0.00  0.00    -0.002 A 
ATOM      3  C4  UNL d   1      -5.553  -4.789  -5.866  0.00  0.00     0.004 A 
ATOM      4  C5  UNL d   1      -4.610  -3.774  -5.708  0.00  0.00    -0.004 A 
ATOM      5  C6  UNL d   1      -4.102  -3.474  -4.440  0.00  0.00    -0.075 A 
ATOM      6  C7  UNL d   1      -3.088  -2.383  -4.253  0.00  0.00     0.076 C 
ATOM      7  C8  UNL d   1      -4.557  -4.202  -3.333  0.00  0.00     0.001 A 
ENDROOT
BRANCH   1   8
ATOM      8  C1  UNL d   1      -5.986  -6.000  -2.282  0.00  0.00     0.053 C 
ATOM      9  C   UNL d   1      -5.241  -5.609  -1.015  0.00  0.00     0.018 C 
ENDBRANCH   1   8
TORSDOF 1
ENDMDL
