MODEL 1
REMARK minimizedAffinity 4.28830576
REMARK minimizedRMSD -1
REMARK  1 active torsions:
REMARK  status: ('A' for Active; 'I' for Inactive)
REMARK    1  A    between atoms: C1_2  and  C2_3 
ROOT
ATOM      1  C2  UNL d   1      -3.164  -0.326   2.652  0.00  0.00    -0.073 A 
ATOM      2  C3  UNL d   1      -3.761   0.286   3.760  0.00  0.00    -0.002 A 
ATOM      3  C4  UNL d   1      -5.078  -0.016   4.108  0.00  0.00     0.004 A 
ATOM      4  C5  UNL d   1      -5.808  -0.938   3.358  0.00  0.00    -0.004 A 
ATOM      5  C6  UNL d   1      -5.226  -1.569   2.254  0.00  0.00    -0.075 A 
ATOM      6  C7  UNL d   1      -5.999  -2.561   1.435  0.00  0.00     0.076 C 
ATOM      7  C8  UNL d   1      -3.904  -1.258   1.909  0.00  0.00     0.001 A 
ENDROOT
BRANCH   1   8
ATOM      8  C1  UNL d   1      -1.740  -0.007   2.275  0.00  0.00     0.053 C 
ATOM      9  C   UNL d   1      -0.779  -1.106   2.700  0.00  0.00     0.018 C 
ENDBRANCH   1   8
TORSDOF 1
ENDMDL
