MODEL 1
REMARK minimizedAffinity 1.08288062
REMARK minimizedRMSD -1
REMARK  1 active torsions:
REMARK  status: ('A' for Active; 'I' for Inactive)
REMARK    1  A    between atoms: C1_2  and  C2_3 
ROOT
ATOM      1  C2  UNL d   1      -5.149  -4.843  -3.997  0.00  0.00    -0.073 A 
ATOM      2  C3  UNL d   1      -6.000  -4.794  -5.107  0.00  0.00    -0.002 A 
ATOM      3  C4  UNL d   1      -5.932  -3.724  -6.000  0.00  0.00     0.004 A 
ATOM      4  C5  UNL d   1      -5.010  -2.698  -5.797  0.00  0.00    -0.004 A 
ATOM      5  C6  UNL d   1      -4.143  -2.735  -4.700  0.00  0.00    -0.075 A 
ATOM      6  C7  UNL d   1      -3.147  -1.637  -4.466  0.00  0.00     0.076 C 
ATOM      7  C8  UNL d   1      -4.219  -3.811  -3.806  0.00  0.00     0.001 A 
ENDROOT
BRANCH   1   8
ATOM      8  C1  UNL d   1      -5.215  -6.000  -3.033  0.00  0.00     0.053 C 
ATOM      9  C   UNL d   1      -4.051  -5.993  -2.054  0.00  0.00     0.018 C 
ENDBRANCH   1   8
TORSDOF 1
ENDMDL
