MODEL 1
REMARK minimizedAffinity 7.04581356
REMARK minimizedRMSD -1
REMARK  1 active torsions:
REMARK  status: ('A' for Active; 'I' for Inactive)
REMARK    1  A    between atoms: C1_2  and  C2_3 
ROOT
ATOM      1  C2  UNL d   1      -3.349   0.033   2.162  0.00  0.00    -0.073 A 
ATOM      2  C3  UNL d   1      -3.766   0.740   3.295  0.00  0.00    -0.002 A 
ATOM      3  C4  UNL d   1      -4.903   0.339   3.997  0.00  0.00     0.004 A 
ATOM      4  C5  UNL d   1      -5.629  -0.776   3.580  0.00  0.00    -0.004 A 
ATOM      5  C6  UNL d   1      -5.222  -1.503   2.457  0.00  0.00    -0.075 A 
ATOM      6  C7  UNL d   1      -5.993  -2.704   1.993  0.00  0.00     0.076 C 
ATOM      7  C8  UNL d   1      -4.080  -1.093   1.755  0.00  0.00     0.001 A 
ENDROOT
BRANCH   1   8
ATOM      8  C1  UNL d   1      -2.118   0.458   1.404  0.00  0.00     0.053 C 
ATOM      9  C   UNL d   1      -0.871  -0.261   1.892  0.00  0.00     0.018 C 
ENDBRANCH   1   8
TORSDOF 1
ENDMDL
