MODEL 1
REMARK minimizedAffinity 4.8800559
REMARK minimizedRMSD -1
REMARK  1 active torsions:
REMARK  status: ('A' for Active; 'I' for Inactive)
REMARK    1  A    between atoms: C1_2  and  C2_3 
ROOT
ATOM      1  C2  UNL d   1      -3.949  -3.541  -3.930  0.00  0.00    -0.073 A 
ATOM      2  C3  UNL d   1      -4.091  -4.085  -2.649  0.00  0.00    -0.002 A 
ATOM      3  C4  UNL d   1      -4.854  -5.237  -2.453  0.00  0.00     0.004 A 
ATOM      4  C5  UNL d   1      -5.476  -5.860  -3.535  0.00  0.00    -0.004 A 
ATOM      5  C6  UNL d   1      -5.336  -5.338  -4.825  0.00  0.00    -0.075 A 
ATOM      6  C7  UNL d   1      -6.000  -5.994  -5.999  0.00  0.00     0.076 C 
ATOM      7  C8  UNL d   1      -4.570  -4.179  -5.013  0.00  0.00     0.001 A 
ENDROOT
BRANCH   1   8
ATOM      8  C1  UNL d   1      -3.121  -2.301  -4.148  0.00  0.00     0.053 C 
ATOM      9  C   UNL d   1      -1.632  -2.606  -4.167  0.00  0.00     0.018 C 
ENDBRANCH   1   8
TORSDOF 1
ENDMDL
