MODEL 1
REMARK minimizedAffinity 9.14396858
REMARK minimizedRMSD -1
REMARK  1 active torsions:
REMARK  status: ('A' for Active; 'I' for Inactive)
REMARK    1  A    between atoms: C1_2  and  C2_3 
ROOT
ATOM      1  C2  UNL d   1      -3.357   0.054   2.742  0.00  0.00    -0.073 A 
ATOM      2  C3  UNL d   1      -4.045   0.836   3.677  0.00  0.00    -0.002 A 
ATOM      3  C4  UNL d   1      -5.361   0.525   4.023  0.00  0.00     0.004 A 
ATOM      4  C5  UNL d   1      -5.999  -0.572   3.443  0.00  0.00    -0.004 A 
ATOM      5  C6  UNL d   1      -5.324  -1.372   2.516  0.00  0.00    -0.075 A 
ATOM      6  C7  UNL d   1      -5.996  -2.554   1.882  0.00  0.00     0.076 C 
ATOM      7  C8  UNL d   1      -4.003  -1.052   2.172  0.00  0.00     0.001 A 
ENDROOT
BRANCH   1   8
ATOM      8  C1  UNL d   1      -1.934   0.382   2.371  0.00  0.00     0.053 C 
ATOM      9  C   UNL d   1      -1.792   1.806   1.859  0.00  0.00     0.018 C 
ENDBRANCH   1   8
TORSDOF 1
ENDMDL
