MODEL 1
REMARK minimizedAffinity 0.32976979
REMARK minimizedRMSD -1
REMARK  1 active torsions:
REMARK  status: ('A' for Active; 'I' for Inactive)
REMARK    1  A    between atoms: C1_2  and  C2_3 
ROOT
ATOM      1  C2  UNL d   1       2.068  -0.437  -2.445  0.00  0.00    -0.073 A 
ATOM      2  C3  UNL d   1       2.844  -0.550  -1.286  0.00  0.00    -0.002 A 
ATOM      3  C4  UNL d   1       2.916  -1.765  -0.602  0.00  0.00     0.004 A 
ATOM      4  C5  UNL d   1       2.221  -2.878  -1.073  0.00  0.00    -0.004 A 
ATOM      5  C6  UNL d   1       1.450  -2.788  -2.236  0.00  0.00    -0.075 A 
ATOM      6  C7  UNL d   1       0.694  -3.976  -2.754  0.00  0.00     0.076 C 
ATOM      7  C8  UNL d   1       1.380  -1.565  -2.916  0.00  0.00     0.001 A 
ENDROOT
BRANCH   1   8
ATOM      8  C1  UNL d   1       1.991   0.870  -3.190  0.00  0.00     0.053 C 
ATOM      9  C   UNL d   1       2.303   2.057  -2.293  0.00  0.00     0.018 C 
ENDBRANCH   1   8
TORSDOF 1
ENDMDL
