MODEL 1
REMARK minimizedAffinity 3.59563375
REMARK minimizedRMSD -1
REMARK  1 active torsions:
REMARK  status: ('A' for Active; 'I' for Inactive)
REMARK    1  A    between atoms: C1_2  and  C2_3 
ROOT
ATOM      1  C2  UNL d   1      -4.875  -4.280  -3.546  0.00  0.00    -0.073 A 
ATOM      2  C3  UNL d   1      -5.145  -5.334  -2.665  0.00  0.00    -0.002 A 
ATOM      3  C4  UNL d   1      -4.101  -6.000  -2.022  0.00  0.00     0.004 A 
ATOM      4  C5  UNL d   1      -2.779  -5.615  -2.246  0.00  0.00    -0.004 A 
ATOM      5  C6  UNL d   1      -2.490  -4.556  -3.113  0.00  0.00    -0.075 A 
ATOM      6  C7  UNL d   1      -1.073  -4.132  -3.366  0.00  0.00     0.076 C 
ATOM      7  C8  UNL d   1      -3.543  -3.895  -3.757  0.00  0.00     0.001 A 
ENDROOT
BRANCH   1   8
ATOM      8  C1  UNL d   1      -5.999  -3.554  -4.238  0.00  0.00     0.053 C 
ATOM      9  C   UNL d   1      -5.999  -3.802  -5.738  0.00  0.00     0.018 C 
ENDBRANCH   1   8
TORSDOF 1
ENDMDL
