MODEL 1
REMARK minimizedAffinity 8.63579464
REMARK minimizedRMSD -1
REMARK  1 active torsions:
REMARK  status: ('A' for Active; 'I' for Inactive)
REMARK    1  A    between atoms: C1_2  and  C2_3 
ROOT
ATOM      1  C2  UNL d   1      -3.213  -0.709   3.135  0.00  0.00    -0.073 A 
ATOM      2  C3  UNL d   1      -3.942   0.429   3.501  0.00  0.00    -0.002 A 
ATOM      3  C4  UNL d   1      -5.327   0.461   3.340  0.00  0.00     0.004 A 
ATOM      4  C5  UNL d   1      -5.999  -0.644   2.818  0.00  0.00    -0.004 A 
ATOM      5  C6  UNL d   1      -5.291  -1.795   2.457  0.00  0.00    -0.075 A 
ATOM      6  C7  UNL d   1      -5.998  -2.991   1.893  0.00  0.00     0.076 C 
ATOM      7  C8  UNL d   1      -3.899  -1.818   2.620  0.00  0.00     0.001 A 
ENDROOT
BRANCH   1   8
ATOM      8  C1  UNL d   1      -1.718  -0.750   3.313  0.00  0.00     0.053 C 
ATOM      9  C   UNL d   1      -1.315  -1.481   4.584  0.00  0.00     0.018 C 
ENDBRANCH   1   8
TORSDOF 1
ENDMDL
