MODEL 1
REMARK minimizedAffinity 5.62102079
REMARK minimizedRMSD -1
REMARK  1 active torsions:
REMARK  status: ('A' for Active; 'I' for Inactive)
REMARK    1  A    between atoms: C1_2  and  C2_3 
ROOT
ATOM      1  C2  UNL d   1      -3.977  -4.725  -2.901  0.00  0.00    -0.073 A 
ATOM      2  C3  UNL d   1      -3.735  -3.396  -3.267  0.00  0.00    -0.002 A 
ATOM      3  C4  UNL d   1      -4.214  -2.901  -4.481  0.00  0.00     0.004 A 
ATOM      4  C5  UNL d   1      -4.944  -3.726  -5.337  0.00  0.00    -0.004 A 
ATOM      5  C6  UNL d   1      -5.205  -5.054  -4.983  0.00  0.00    -0.075 A 
ATOM      6  C7  UNL d   1      -5.987  -5.955  -5.893  0.00  0.00     0.076 C 
ATOM      7  C8  UNL d   1      -4.719  -5.544  -3.764  0.00  0.00     0.001 A 
ENDROOT
BRANCH   1   8
ATOM      8  C1  UNL d   1      -3.467  -5.261  -1.588  0.00  0.00     0.053 C 
ATOM      9  C   UNL d   1      -1.952  -5.384  -1.572  0.00  0.00     0.018 C 
ENDBRANCH   1   8
TORSDOF 1
ENDMDL
