MODEL 1
REMARK minimizedAffinity 6.9383359
REMARK minimizedRMSD -1
REMARK  1 active torsions:
REMARK  status: ('A' for Active; 'I' for Inactive)
REMARK    1  A    between atoms: C1_2  and  C2_3 
ROOT
ATOM      1  C2  UNL d   1      -3.118   2.457   3.463  0.00  0.00    -0.073 A 
ATOM      2  C3  UNL d   1      -1.812   2.147   3.064  0.00  0.00    -0.002 A 
ATOM      3  C4  UNL d   1      -1.542   0.944   2.409  0.00  0.00     0.004 A 
ATOM      4  C5  UNL d   1      -2.573   0.044   2.141  0.00  0.00    -0.004 A 
ATOM      5  C6  UNL d   1      -3.886   0.341   2.521  0.00  0.00    -0.075 A 
ATOM      6  C7  UNL d   1      -5.006  -0.618   2.242  0.00  0.00     0.076 C 
ATOM      7  C8  UNL d   1      -4.149   1.549   3.181  0.00  0.00     0.001 A 
ENDROOT
BRANCH   1   8
ATOM      8  C1  UNL d   1      -3.415   3.757   4.164  0.00  0.00     0.053 C 
ATOM      9  C   UNL d   1      -2.720   3.848   5.514  0.00  0.00     0.018 C 
ENDBRANCH   1   8
TORSDOF 1
ENDMDL
