MODEL 1
REMARK minimizedAffinity -4.67665815
REMARK minimizedRMSD -1
REMARK  3 active torsions:
REMARK  status: ('A' for Active; 'I' for Inactive)
REMARK    1  A    between atoms: C3'_2  and  C2'_3 
REMARK    2  A    between atoms: C2'_3  and  C1'_4 
REMARK    3  A    between atoms: C1'_4  and  C1_5 
ROOT
ATOM      1  C1  N4B d   1       0.103  -0.303  -0.085  0.00  0.00    -0.075 A 
ATOM      2  C2  N4B d   1       0.888  -1.186   0.688  0.00  0.00     0.002 A 
ATOM      3  C3  N4B d   1       0.392  -2.418   1.037  0.00  0.00     0.002 A 
ATOM      4  C4  N4B d   1      -0.887  -2.780   0.642  0.00  0.00    -0.004 A 
ATOM      5  C5  N4B d   1      -1.628  -1.932  -0.127  0.00  0.00     0.002 A 
ATOM      6  C6  N4B d   1      -1.142  -0.692  -0.488  0.00  0.00     0.002 A 
ENDROOT
BRANCH   1   7
ATOM      7  C1' N4B d   1       0.567   1.089  -0.419  0.00  0.00     0.057 C 
BRANCH   7   8
ATOM      8  C2' N4B d   1       0.100   1.449  -1.826  0.00  0.00     0.009 C 
BRANCH   8   9
ATOM      9  C3' N4B d   1       1.219   2.052  -2.659  0.00  0.00     0.004 C 
ATOM     10  C4' N4B d   1       1.617   1.182  -3.814  0.00  0.00     0.003 C 
ENDBRANCH   8   9
ENDBRANCH   7   8
ENDBRANCH   1   7
TORSDOF 3
ENDMDL
