MODEL 1
REMARK minimizedAffinity -5.24385405
REMARK minimizedRMSD -1
REMARK  3 active torsions:
REMARK  status: ('A' for Active; 'I' for Inactive)
REMARK    1  A    between atoms: C3'_2  and  C2'_3 
REMARK    2  A    between atoms: C2'_3  and  C1'_4 
REMARK    3  A    between atoms: C1'_4  and  C1_5 
ROOT
ATOM      1  C1  N4B d   1       1.050   0.938  -0.599  0.00  0.00    -0.075 A 
ATOM      2  C2  N4B d   1       2.075   1.164  -1.544  0.00  0.00     0.002 A 
ATOM      3  C3  N4B d   1       1.968   2.202  -2.437  0.00  0.00     0.002 A 
ATOM      4  C4  N4B d   1       0.843   3.012  -2.415  0.00  0.00    -0.004 A 
ATOM      5  C5  N4B d   1      -0.130   2.803  -1.483  0.00  0.00     0.002 A 
ATOM      6  C6  N4B d   1      -0.035   1.766  -0.577  0.00  0.00     0.002 A 
ENDROOT
BRANCH   1   7
ATOM      7  C1' N4B d   1       1.082  -0.237   0.341  0.00  0.00     0.057 C 
BRANCH   7   8
ATOM      8  C2' N4B d   1      -0.292  -0.901   0.358  0.00  0.00     0.009 C 
BRANCH   8   9
ATOM      9  C3' N4B d   1      -0.190  -2.416   0.412  0.00  0.00     0.004 C 
ATOM     10  C4' N4B d   1      -1.466  -3.069   0.850  0.00  0.00     0.003 C 
ENDBRANCH   8   9
ENDBRANCH   7   8
ENDBRANCH   1   7
TORSDOF 3
ENDMDL
