MODEL 1
REMARK minimizedAffinity 0.399568468
REMARK minimizedRMSD -1
REMARK  3 active torsions:
REMARK  status: ('A' for Active; 'I' for Inactive)
REMARK    1  A    between atoms: C3'_2  and  C2'_3 
REMARK    2  A    between atoms: C2'_3  and  C1'_4 
REMARK    3  A    between atoms: C1'_4  and  C1_5 
ROOT
ATOM      1  C1  N4B d   1       0.150  -0.325  -0.303  0.00  0.00    -0.075 A 
ATOM      2  C2  N4B d   1      -1.242  -0.272  -0.066  0.00  0.00     0.002 A 
ATOM      3  C3  N4B d   1      -1.867  -1.305   0.588  0.00  0.00     0.002 A 
ATOM      4  C4  N4B d   1      -1.128  -2.405   0.998  0.00  0.00    -0.004 A 
ATOM      5  C5  N4B d   1       0.220  -2.437   0.788  0.00  0.00     0.002 A 
ATOM      6  C6  N4B d   1       0.862  -1.404   0.135  0.00  0.00     0.002 A 
ENDROOT
BRANCH   1   7
ATOM      7  C1' N4B d   1       0.863   0.740  -1.090  0.00  0.00     0.057 C 
BRANCH   7   8
ATOM      8  C2' N4B d   1      -0.072   1.273  -2.172  0.00  0.00     0.009 C 
BRANCH   8   9
ATOM      9  C3' N4B d   1       0.694   1.834  -3.358  0.00  0.00     0.004 C 
ATOM     10  C4' N4B d   1       2.150   2.038  -3.065  0.00  0.00     0.003 C 
ENDBRANCH   8   9
ENDBRANCH   7   8
ENDBRANCH   1   7
TORSDOF 3
ENDMDL
