MODEL 1
REMARK minimizedAffinity -6.24348259
REMARK minimizedRMSD -1
REMARK  3 active torsions:
REMARK  status: ('A' for Active; 'I' for Inactive)
REMARK    1  A    between atoms: C3'_2  and  C2'_3 
REMARK    2  A    between atoms: C2'_3  and  C1'_4 
REMARK    3  A    between atoms: C1'_4  and  C1_5 
ROOT
ATOM      1  C1  N4B d   1      -0.041   0.162   0.184  0.00  0.00    -0.075 A 
ATOM      2  C2  N4B d   1      -1.388  -0.126   0.495  0.00  0.00     0.002 A 
ATOM      3  C3  N4B d   1      -1.771  -1.418   0.758  0.00  0.00     0.002 A 
ATOM      4  C4  N4B d   1      -0.832  -2.437   0.697  0.00  0.00    -0.004 A 
ATOM      5  C5  N4B d   1       0.472  -2.147   0.421  0.00  0.00     0.002 A 
ATOM      6  C6  N4B d   1       0.871  -0.852   0.159  0.00  0.00     0.002 A 
ENDROOT
BRANCH   1   7
ATOM      7  C1' N4B d   1       0.407   1.547  -0.195  0.00  0.00     0.057 C 
BRANCH   7   8
ATOM      8  C2' N4B d   1       1.307   1.464  -1.425  0.00  0.00     0.009 C 
BRANCH   8   9
ATOM      9  C3' N4B d   1       0.549   1.771  -2.705  0.00  0.00     0.004 C 
ATOM     10  C4' N4B d   1       1.327   1.421  -3.938  0.00  0.00     0.003 C 
ENDBRANCH   8   9
ENDBRANCH   7   8
ENDBRANCH   1   7
TORSDOF 3
ENDMDL
