MODEL 1
REMARK minimizedAffinity -5.64504147
REMARK minimizedRMSD -1
REMARK  3 active torsions:
REMARK  status: ('A' for Active; 'I' for Inactive)
REMARK    1  A    between atoms: C3'_2  and  C2'_3 
REMARK    2  A    between atoms: C2'_3  and  C1'_4 
REMARK    3  A    between atoms: C1'_4  and  C1_5 
ROOT
ATOM      1  C1  N4B d   1      -0.596  -0.794   0.521  0.00  0.00    -0.075 A 
ATOM      2  C2  N4B d   1      -1.063  -2.123   0.428  0.00  0.00     0.002 A 
ATOM      3  C3  N4B d   1      -2.265  -2.469   0.995  0.00  0.00     0.002 A 
ATOM      4  C4  N4B d   1      -3.005  -1.512   1.674  0.00  0.00    -0.004 A 
ATOM      5  C5  N4B d   1      -2.558  -0.225   1.737  0.00  0.00     0.002 A 
ATOM      6  C6  N4B d   1      -1.354   0.138   1.168  0.00  0.00     0.002 A 
ENDROOT
BRANCH   1   7
ATOM      7  C1' N4B d   1       0.752  -0.388  -0.009  0.00  0.00     0.057 C 
BRANCH   7   8
ATOM      8  C2' N4B d   1       0.688   1.061  -0.482  0.00  0.00     0.009 C 
BRANCH   8   9
ATOM      9  C3' N4B d   1       0.098   1.178  -1.877  0.00  0.00     0.004 C 
ATOM     10  C4' N4B d   1       1.111   1.590  -2.904  0.00  0.00     0.003 C 
ENDBRANCH   8   9
ENDBRANCH   7   8
ENDBRANCH   1   7
TORSDOF 3
ENDMDL
