MODEL 1
REMARK minimizedAffinity -4.50135326
REMARK minimizedRMSD -1
REMARK  3 active torsions:
REMARK  status: ('A' for Active; 'I' for Inactive)
REMARK    1  A    between atoms: C3'_2  and  C2'_3 
REMARK    2  A    between atoms: C2'_3  and  C1'_4 
REMARK    3  A    between atoms: C1'_4  and  C1_5 
ROOT
ATOM      1  C1  N4B d   1       0.097   0.045  -0.381  0.00  0.00    -0.075 A 
ATOM      2  C2  N4B d   1       1.250  -0.601   0.116  0.00  0.00     0.002 A 
ATOM      3  C3  N4B d   1       1.126  -1.740   0.874  0.00  0.00     0.002 A 
ATOM      4  C4  N4B d   1      -0.135  -2.237   1.163  0.00  0.00    -0.004 A 
ATOM      5  C5  N4B d   1      -1.243  -1.621   0.658  0.00  0.00     0.002 A 
ATOM      6  C6  N4B d   1      -1.133  -0.479  -0.109  0.00  0.00     0.002 A 
ENDROOT
BRANCH   1   7
ATOM      7  C1' N4B d   1       0.179   1.340  -1.142  0.00  0.00     0.057 C 
BRANCH   7   8
ATOM      8  C2' N4B d   1       1.639   1.773  -1.239  0.00  0.00     0.009 C 
BRANCH   8   9
ATOM      9  C3' N4B d   1       1.998   2.250  -2.636  0.00  0.00     0.004 C 
ATOM     10  C4' N4B d   1       0.793   2.508  -3.490  0.00  0.00     0.003 C 
ENDBRANCH   8   9
ENDBRANCH   7   8
ENDBRANCH   1   7
TORSDOF 3
ENDMDL
