MODEL 1
REMARK minimizedAffinity 8.47090244
REMARK minimizedRMSD -1
REMARK  0 active torsions:
REMARK  status: ('A' for Active; 'I' for Inactive)
ROOT
ATOM      1  C   UNL d   1      -4.504  -1.274  -2.571  0.00  0.00     0.077 C 
ATOM      2  C1  UNL d   1      -4.816  -2.387  -3.527  0.00  0.00    -0.074 A 
ATOM      3  C2  UNL d   1      -5.725  -2.201  -4.574  0.00  0.00    -0.005 A 
ATOM      4  C3  UNL d   1      -5.999  -3.241  -5.461  0.00  0.00     0.006 A 
ATOM      5  C4  UNL d   1      -5.367  -4.476  -5.312  0.00  0.00    -0.005 A 
ATOM      6  C5  UNL d   1      -4.454  -4.681  -4.272  0.00  0.00    -0.074 A 
ATOM      7  C6  UNL d   1      -3.759  -5.999  -4.103  0.00  0.00     0.077 C 
ATOM      8  C7  UNL d   1      -4.180  -3.628  -3.388  0.00  0.00    -0.001 A 
ENDROOT
TORSDOF 0
ENDMDL
