MODEL 1
REMARK minimizedAffinity 2.57209873
REMARK minimizedRMSD -1
REMARK  0 active torsions:
REMARK  status: ('A' for Active; 'I' for Inactive)
ROOT
ATOM      1  C   UNL d   1       5.923   5.930  -5.999  0.00  0.00     0.077 C 
ATOM      2  C1  UNL d   1       5.207   5.634  -4.715  0.00  0.00    -0.074 A 
ATOM      3  C2  UNL d   1       3.939   5.043  -4.719  0.00  0.00    -0.005 A 
ATOM      4  C3  UNL d   1       3.289   4.765  -3.517  0.00  0.00     0.006 A 
ATOM      5  C4  UNL d   1       3.899   5.074  -2.300  0.00  0.00    -0.005 A 
ATOM      6  C5  UNL d   1       5.166   5.664  -2.276  0.00  0.00    -0.074 A 
ATOM      7  C6  UNL d   1       5.840   5.993  -0.977  0.00  0.00     0.077 C 
ATOM      8  C7  UNL d   1       5.816   5.934  -3.488  0.00  0.00    -0.001 A 
ENDROOT
TORSDOF 0
ENDMDL
