MODEL 1
REMARK minimizedAffinity -0.934349537
REMARK minimizedRMSD -1
REMARK  0 active torsions:
REMARK  status: ('A' for Active; 'I' for Inactive)
ROOT
ATOM      1  C   UNL d   1       4.497   5.576  -5.998  0.00  0.00     0.077 C 
ATOM      2  C1  UNL d   1       4.475   5.478  -4.502  0.00  0.00    -0.074 A 
ATOM      3  C2  UNL d   1       5.521   5.999  -3.732  0.00  0.00    -0.005 A 
ATOM      4  C3  UNL d   1       5.482   5.910  -2.341  0.00  0.00     0.006 A 
ATOM      5  C4  UNL d   1       4.400   5.299  -1.706  0.00  0.00    -0.005 A 
ATOM      6  C5  UNL d   1       3.345   4.773  -2.459  0.00  0.00    -0.074 A 
ATOM      7  C6  UNL d   1       2.170   4.123  -1.792  0.00  0.00     0.077 C 
ATOM      8  C7  UNL d   1       3.388   4.873  -3.856  0.00  0.00    -0.001 A 
ENDROOT
TORSDOF 0
ENDMDL
