MODEL 1
REMARK minimizedAffinity 1.87156034
REMARK minimizedRMSD -1
REMARK  0 active torsions:
REMARK  status: ('A' for Active; 'I' for Inactive)
ROOT
ATOM      1  C   UNL d   1       0.782  -2.713   4.755  0.00  0.00     0.077 C 
ATOM      2  C1  UNL d   1       1.021  -2.163   3.380  0.00  0.00    -0.074 A 
ATOM      3  C2  UNL d   1       1.289  -3.013   2.303  0.00  0.00    -0.005 A 
ATOM      4  C3  UNL d   1       1.499  -2.488   1.028  0.00  0.00     0.006 A 
ATOM      5  C4  UNL d   1       1.443  -1.110   0.818  0.00  0.00    -0.005 A 
ATOM      6  C5  UNL d   1       1.175  -0.244   1.883  0.00  0.00    -0.074 A 
ATOM      7  C6  UNL d   1       1.102   1.239   1.673  0.00  0.00     0.077 C 
ATOM      8  C7  UNL d   1       0.958  -0.780   3.160  0.00  0.00    -0.001 A 
ENDROOT
TORSDOF 0
ENDMDL
