MODEL 1
REMARK minimizedAffinity 11.1318789
REMARK minimizedRMSD -1
REMARK  0 active torsions:
REMARK  status: ('A' for Active; 'I' for Inactive)
ROOT
ATOM      1  C   UNL d   1      -4.874   4.277   0.383  0.00  0.00     0.077 C 
ATOM      2  C1  UNL d   1      -3.901   3.152   0.187  0.00  0.00    -0.074 A 
ATOM      3  C2  UNL d   1      -2.876   2.919   1.109  0.00  0.00    -0.005 A 
ATOM      4  C3  UNL d   1      -1.984   1.864   0.919  0.00  0.00     0.006 A 
ATOM      5  C4  UNL d   1      -2.109   1.031  -0.194  0.00  0.00    -0.005 A 
ATOM      6  C5  UNL d   1      -3.128   1.248  -1.127  0.00  0.00    -0.074 A 
ATOM      7  C6  UNL d   1      -3.282   0.357  -2.324  0.00  0.00     0.077 C 
ATOM      8  C7  UNL d   1      -4.024   2.307  -0.925  0.00  0.00    -0.001 A 
ENDROOT
TORSDOF 0
ENDMDL
