MODEL 1
REMARK minimizedAffinity -1.35155416
REMARK minimizedRMSD -1
REMARK  1 active torsions:
REMARK  status: ('A' for Active; 'I' for Inactive)
REMARK    1  A    between atoms: C1_2  and  C2_3 
ROOT
ATOM      1  C2  UNL d   1       0.222   0.186   0.090  0.00  0.00    -0.076 A 
ATOM      2  C3  UNL d   1      -0.628  -0.233   1.128  0.00  0.00     0.004 A 
ATOM      3  C4  UNL d   1      -0.242  -1.243   2.007  0.00  0.00    -0.003 A 
ATOM      4  C5  UNL d   1       1.001  -1.850   1.863  0.00  0.00     0.000 A 
ATOM      5  C6  UNL d   1       1.864  -1.434   0.850  0.00  0.00     0.000 A 
ATOM      6  C7  UNL d   1       1.497  -0.406  -0.035  0.00  0.00    -0.073 A 
ATOM      7  C8  UNL d   1       2.465  -0.002  -1.113  0.00  0.00     0.078 C 
ENDROOT
BRANCH   1   8
ATOM      8  C1  UNL d   1      -0.261   1.268  -0.850  0.00  0.00     0.053 C 
ATOM      9  C   UNL d   1      -1.476   0.838  -1.658  0.00  0.00     0.018 C 
ENDBRANCH   1   8
TORSDOF 1
ENDMDL
