MODEL 1
REMARK minimizedAffinity -1.14800191
REMARK minimizedRMSD -1
REMARK  1 active torsions:
REMARK  status: ('A' for Active; 'I' for Inactive)
REMARK    1  A    between atoms: C1_2  and  C2_3 
ROOT
ATOM      1  C2  UNL d   1       0.065  -0.589   1.605  0.00  0.00    -0.076 A 
ATOM      2  C3  UNL d   1       1.074  -0.431   0.639  0.00  0.00     0.004 A 
ATOM      3  C4  UNL d   1       0.928   0.475  -0.410  0.00  0.00    -0.003 A 
ATOM      4  C5  UNL d   1      -0.230   1.238  -0.510  0.00  0.00     0.000 A 
ATOM      5  C6  UNL d   1      -1.234   1.107   0.449  0.00  0.00     0.000 A 
ATOM      6  C7  UNL d   1      -1.095   0.210   1.522  0.00  0.00    -0.073 A 
ATOM      7  C8  UNL d   1      -2.211   0.105   2.525  0.00  0.00     0.078 C 
ENDROOT
BRANCH   1   8
ATOM      8  C1  UNL d   1       0.269  -1.607   2.704  0.00  0.00     0.053 C 
ATOM      9  C   UNL d   1       1.736  -1.934   2.931  0.00  0.00     0.018 C 
ENDBRANCH   1   8
TORSDOF 1
ENDMDL
