MODEL 1
REMARK minimizedAffinity -3.12559032
REMARK minimizedRMSD -1
REMARK  1 active torsions:
REMARK  status: ('A' for Active; 'I' for Inactive)
REMARK    1  A    between atoms: C1_2  and  C2_3 
ROOT
ATOM      1  C2  UNL d   1      -0.634   1.068  -1.098  0.00  0.00    -0.076 A 
ATOM      2  C3  UNL d   1      -0.005   0.107  -1.908  0.00  0.00     0.004 A 
ATOM      3  C4  UNL d   1       0.902  -0.803  -1.368  0.00  0.00    -0.003 A 
ATOM      4  C5  UNL d   1       1.195  -0.766  -0.010  0.00  0.00     0.000 A 
ATOM      5  C6  UNL d   1       0.567   0.169   0.812  0.00  0.00     0.000 A 
ATOM      6  C7  UNL d   1      -0.362   1.083   0.287  0.00  0.00    -0.073 A 
ATOM      7  C8  UNL d   1      -1.005   2.074   1.218  0.00  0.00     0.078 C 
ENDROOT
BRANCH   1   8
ATOM      8  C1  UNL d   1      -1.589   2.047  -1.744  0.00  0.00     0.053 C 
ATOM      9  C   UNL d   1      -2.422   1.408  -2.844  0.00  0.00     0.018 C 
ENDBRANCH   1   8
TORSDOF 1
ENDMDL
