MODEL 1
REMARK minimizedAffinity -4.18979168
REMARK minimizedRMSD -1
REMARK  1 active torsions:
REMARK  status: ('A' for Active; 'I' for Inactive)
REMARK    1  A    between atoms: C1_2  and  C2_3 
ROOT
ATOM      1  C2  UNL d   1       0.209  -0.888   1.495  0.00  0.00    -0.076 A 
ATOM      2  C3  UNL d   1       1.121  -1.957   1.444  0.00  0.00     0.004 A 
ATOM      3  C4  UNL d   1       2.025  -2.079   0.391  0.00  0.00    -0.003 A 
ATOM      4  C5  UNL d   1       2.034  -1.133  -0.628  0.00  0.00     0.000 A 
ATOM      5  C6  UNL d   1       1.149  -0.056  -0.585  0.00  0.00     0.000 A 
ATOM      6  C7  UNL d   1       0.241   0.090   0.478  0.00  0.00    -0.073 A 
ATOM      7  C8  UNL d   1      -0.695   1.268   0.471  0.00  0.00     0.078 C 
ENDROOT
BRANCH   1   8
ATOM      8  C1  UNL d   1      -0.767  -0.822   2.648  0.00  0.00     0.053 C 
ATOM      9  C   UNL d   1      -0.436  -1.819   3.749  0.00  0.00     0.018 C 
ENDBRANCH   1   8
TORSDOF 1
ENDMDL
