MODEL 1
REMARK minimizedAffinity 4.19374752
REMARK minimizedRMSD -1
REMARK  1 active torsions:
REMARK  status: ('A' for Active; 'I' for Inactive)
REMARK    1  A    between atoms: C1_2  and  C2_3 
ROOT
ATOM      1  C2  UNL d   1      -0.155   1.388  -1.186  0.00  0.00    -0.076 A 
ATOM      2  C3  UNL d   1      -0.071   2.192  -2.335  0.00  0.00     0.004 A 
ATOM      3  C4  UNL d   1      -1.147   2.302  -3.215  0.00  0.00    -0.003 A 
ATOM      4  C5  UNL d   1      -2.324   1.609  -2.959  0.00  0.00     0.000 A 
ATOM      5  C6  UNL d   1      -2.432   0.820  -1.814  0.00  0.00     0.000 A 
ATOM      6  C7  UNL d   1      -1.362   0.711  -0.909  0.00  0.00    -0.073 A 
ATOM      7  C8  UNL d   1      -1.530  -0.159   0.307  0.00  0.00     0.078 C 
ENDROOT
BRANCH   1   8
ATOM      8  C1  UNL d   1       1.054   1.286  -0.283  0.00  0.00     0.053 C 
ATOM      9  C   UNL d   1       1.837   0.000  -0.500  0.00  0.00     0.018 C 
ENDBRANCH   1   8
TORSDOF 1
ENDMDL
