MODEL 1
REMARK minimizedAffinity -2.89159489
REMARK minimizedRMSD -1
REMARK  1 active torsions:
REMARK  status: ('A' for Active; 'I' for Inactive)
REMARK    1  A    between atoms: C1_2  and  C2_3 
ROOT
ATOM      1  C2  UNL d   1       0.140   0.669  -0.520  0.00  0.00    -0.076 A 
ATOM      2  C3  UNL d   1       1.270   0.568  -1.349  0.00  0.00     0.004 A 
ATOM      3  C4  UNL d   1       2.303  -0.318  -1.050  0.00  0.00    -0.003 A 
ATOM      4  C5  UNL d   1       2.222  -1.119   0.084  0.00  0.00     0.000 A 
ATOM      5  C6  UNL d   1       1.100  -1.044   0.909  0.00  0.00     0.000 A 
ATOM      6  C7  UNL d   1       0.042  -0.168   0.612  0.00  0.00    -0.073 A 
ATOM      7  C8  UNL d   1      -1.141  -0.124   1.540  0.00  0.00     0.078 C 
ENDROOT
BRANCH   1   8
ATOM      8  C1  UNL d   1      -0.937   1.668  -0.881  0.00  0.00     0.053 C 
ATOM      9  C   UNL d   1      -1.938   1.110  -1.880  0.00  0.00     0.018 C 
ENDBRANCH   1   8
TORSDOF 1
ENDMDL
