MODEL 1
REMARK minimizedAffinity -4.29552889
REMARK minimizedRMSD -1
REMARK  1 active torsions:
REMARK  status: ('A' for Active; 'I' for Inactive)
REMARK    1  A    between atoms: C1_2  and  C2_3 
ROOT
ATOM      1  C2  UNL d   1       0.444  -0.687   1.567  0.00  0.00    -0.076 A 
ATOM      2  C3  UNL d   1       1.569  -1.498   1.337  0.00  0.00     0.004 A 
ATOM      3  C4  UNL d   1       2.366  -1.316   0.208  0.00  0.00    -0.003 A 
ATOM      4  C5  UNL d   1       2.052  -0.318  -0.708  0.00  0.00     0.000 A 
ATOM      5  C6  UNL d   1       0.950   0.507  -0.487  0.00  0.00     0.000 A 
ATOM      6  C7  UNL d   1       0.145   0.347   0.654  0.00  0.00    -0.073 A 
ATOM      7  C8  UNL d   1      -1.034   1.262   0.839  0.00  0.00     0.078 C 
ENDROOT
BRANCH   1   8
ATOM      8  C1  UNL d   1      -0.399  -0.949   2.794  0.00  0.00     0.053 C 
ATOM      9  C   UNL d   1       0.245  -1.950   3.741  0.00  0.00     0.018 C 
ENDBRANCH   1   8
TORSDOF 1
ENDMDL
