MODEL 1
REMARK minimizedAffinity -2.07249689
REMARK minimizedRMSD -1
REMARK  1 active torsions:
REMARK  status: ('A' for Active; 'I' for Inactive)
REMARK    1  A    between atoms: C1_2  and  C2_3 
ROOT
ATOM      1  C2  UNL d   1      -0.135   0.450   0.203  0.00  0.00    -0.076 A 
ATOM      2  C3  UNL d   1       1.080   0.534  -0.499  0.00  0.00     0.004 A 
ATOM      3  C4  UNL d   1       2.173  -0.252  -0.139  0.00  0.00    -0.003 A 
ATOM      4  C5  UNL d   1       2.069  -1.136   0.929  0.00  0.00     0.000 A 
ATOM      5  C6  UNL d   1       0.866  -1.246   1.626  0.00  0.00     0.000 A 
ATOM      6  C7  UNL d   1      -0.251  -0.472   1.265  0.00  0.00    -0.073 A 
ATOM      7  C8  UNL d   1      -1.521  -0.627   2.055  0.00  0.00     0.078 C 
ENDROOT
BRANCH   1   8
ATOM      8  C1  UNL d   1      -1.278   1.347  -0.216  0.00  0.00     0.053 C 
ATOM      9  C   UNL d   1      -1.033   2.012  -1.561  0.00  0.00     0.018 C 
ENDBRANCH   1   8
TORSDOF 1
ENDMDL
