MODEL 1
REMARK minimizedAffinity -2.80421925
REMARK minimizedRMSD -1
REMARK  1 active torsions:
REMARK  status: ('A' for Active; 'I' for Inactive)
REMARK    1  A    between atoms: C1_2  and  C2_3 
ROOT
ATOM      1  C2  UNL d   1       0.843   0.156  -0.555  0.00  0.00    -0.076 A 
ATOM      2  C3  UNL d   1       0.738   0.076   0.844  0.00  0.00     0.004 A 
ATOM      3  C4  UNL d   1       1.434  -0.895   1.562  0.00  0.00    -0.003 A 
ATOM      4  C5  UNL d   1       2.248  -1.802   0.892  0.00  0.00     0.000 A 
ATOM      5  C6  UNL d   1       2.379  -1.726  -0.494  0.00  0.00     0.000 A 
ATOM      6  C7  UNL d   1       1.697  -0.743  -1.231  0.00  0.00    -0.073 A 
ATOM      7  C8  UNL d   1       1.869  -0.711  -2.725  0.00  0.00     0.078 C 
ENDROOT
BRANCH   1   8
ATOM      8  C1  UNL d   1       0.043   1.212  -1.283  0.00  0.00     0.053 C 
ATOM      9  C   UNL d   1      -1.360   1.371  -0.719  0.00  0.00     0.018 C 
ENDBRANCH   1   8
TORSDOF 1
ENDMDL
