MODEL 1
REMARK minimizedAffinity -4.11896706
REMARK minimizedRMSD -1
REMARK  1 active torsions:
REMARK  status: ('A' for Active; 'I' for Inactive)
REMARK    1  A    between atoms: C1_2  and  C2_3 
ROOT
ATOM      1  C2  UNL d   1       0.121  -0.096   0.719  0.00  0.00    -0.076 A 
ATOM      2  C3  UNL d   1      -0.889  -0.418   1.642  0.00  0.00     0.004 A 
ATOM      3  C4  UNL d   1      -0.846  -1.607   2.368  0.00  0.00    -0.003 A 
ATOM      4  C5  UNL d   1       0.208  -2.494   2.182  0.00  0.00     0.000 A 
ATOM      5  C6  UNL d   1       1.228  -2.183   1.284  0.00  0.00     0.000 A 
ATOM      6  C7  UNL d   1       1.208  -0.981   0.556  0.00  0.00    -0.073 A 
ATOM      7  C8  UNL d   1       2.331  -0.700  -0.404  0.00  0.00     0.078 C 
ENDROOT
BRANCH   1   8
ATOM      8  C1  UNL d   1       0.007   1.195  -0.059  0.00  0.00     0.053 C 
ATOM      9  C   UNL d   1      -1.078   1.140  -1.124  0.00  0.00     0.018 C 
ENDBRANCH   1   8
TORSDOF 1
ENDMDL
