MODEL 1
REMARK minimizedAffinity -2.10007763
REMARK minimizedRMSD -1
REMARK  1 active torsions:
REMARK  status: ('A' for Active; 'I' for Inactive)
REMARK    1  A    between atoms: C1_2  and  C2_3 
ROOT
ATOM      1  C2  UNL d   1      -1.172   1.056  -0.362  0.00  0.00    -0.076 A 
ATOM      2  C3  UNL d   1      -2.303   1.184   0.463  0.00  0.00     0.004 A 
ATOM      3  C4  UNL d   1      -2.422   0.444   1.638  0.00  0.00    -0.003 A 
ATOM      4  C5  UNL d   1      -1.411  -0.437   2.007  0.00  0.00     0.000 A 
ATOM      5  C6  UNL d   1      -0.274  -0.563   1.210  0.00  0.00     0.000 A 
ATOM      6  C7  UNL d   1      -0.131   0.188   0.031  0.00  0.00    -0.073 A 
ATOM      7  C8  UNL d   1       1.114   0.008  -0.794  0.00  0.00     0.078 C 
ENDROOT
BRANCH   1   8
ATOM      8  C1  UNL d   1      -1.111   1.865  -1.638  0.00  0.00     0.053 C 
ATOM      9  C   UNL d   1      -2.335   1.660  -2.517  0.00  0.00     0.018 C 
ENDBRANCH   1   8
TORSDOF 1
ENDMDL
