MODEL 1
REMARK minimizedAffinity -3.55012512
REMARK minimizedRMSD -1
REMARK  1 active torsions:
REMARK  status: ('A' for Active; 'I' for Inactive)
REMARK    1  A    between atoms: C1_2  and  C2_3 
ROOT
ATOM      1  C2  UNL d   1      -0.475   0.997  -0.623  0.00  0.00    -0.076 A 
ATOM      2  C3  UNL d   1      -0.639   1.850  -1.728  0.00  0.00     0.004 A 
ATOM      3  C4  UNL d   1      -1.879   1.986  -2.351  0.00  0.00    -0.003 A 
ATOM      4  C5  UNL d   1      -2.974   1.272  -1.879  0.00  0.00     0.000 A 
ATOM      5  C6  UNL d   1      -2.833   0.434  -0.772  0.00  0.00     0.000 A 
ATOM      6  C7  UNL d   1      -1.594   0.298  -0.123  0.00  0.00    -0.073 A 
ATOM      7  C8  UNL d   1      -1.498  -0.623   1.062  0.00  0.00     0.078 C 
ENDROOT
BRANCH   1   8
ATOM      8  C1  UNL d   1       0.900   0.869  -0.005  0.00  0.00     0.053 C 
ATOM      9  C   UNL d   1       1.708  -0.267  -0.613  0.00  0.00     0.018 C 
ENDBRANCH   1   8
TORSDOF 1
ENDMDL
