MODEL 1
REMARK minimizedAffinity -3.71109366
REMARK minimizedRMSD -1
REMARK  1 active torsions:
REMARK  status: ('A' for Active; 'I' for Inactive)
REMARK    1  A    between atoms: C1_2  and  C2_3 
ROOT
ATOM      1  C2  UNL d   1      -0.033  -0.531  -0.265  0.00  0.00    -0.073 A 
ATOM      2  C3  UNL d   1       1.162   0.170  -0.065  0.00  0.00    -0.002 A 
ATOM      3  C4  UNL d   1       1.575   0.506   1.225  0.00  0.00     0.004 A 
ATOM      4  C5  UNL d   1       0.803   0.139   2.327  0.00  0.00    -0.004 A 
ATOM      5  C6  UNL d   1      -0.388  -0.572   2.149  0.00  0.00    -0.075 A 
ATOM      6  C7  UNL d   1      -1.231  -0.971   3.324  0.00  0.00     0.076 C 
ATOM      7  C8  UNL d   1      -0.798  -0.903   0.850  0.00  0.00     0.001 A 
ENDROOT
BRANCH   1   8
ATOM      8  C1  UNL d   1      -0.479  -0.902  -1.655  0.00  0.00     0.053 C 
ATOM      9  C   UNL d   1       0.692  -1.018  -2.618  0.00  0.00     0.018 C 
ENDBRANCH   1   8
TORSDOF 1
ENDMDL
