MODEL 1
REMARK minimizedAffinity -3.14712954
REMARK minimizedRMSD -1
REMARK  1 active torsions:
REMARK  status: ('A' for Active; 'I' for Inactive)
REMARK    1  A    between atoms: C1_2  and  C2_3 
ROOT
ATOM      1  C2  UNL d   1       0.023  -0.437   0.626  0.00  0.00    -0.073 A 
ATOM      2  C3  UNL d   1      -1.336  -0.184   0.405  0.00  0.00    -0.002 A 
ATOM      3  C4  UNL d   1      -1.814   0.018  -0.890  0.00  0.00     0.004 A 
ATOM      4  C5  UNL d   1      -0.942  -0.037  -1.977  0.00  0.00    -0.004 A 
ATOM      5  C6  UNL d   1       0.417  -0.301  -1.778  0.00  0.00    -0.075 A 
ATOM      6  C7  UNL d   1       1.369  -0.361  -2.936  0.00  0.00     0.076 C 
ATOM      7  C8  UNL d   1       0.890  -0.500  -0.474  0.00  0.00     0.001 A 
ENDROOT
BRANCH   1   8
ATOM      8  C1  UNL d   1       0.543  -0.663   2.022  0.00  0.00     0.053 C 
ATOM      9  C   UNL d   1      -0.182   0.197   3.046  0.00  0.00     0.018 C 
ENDBRANCH   1   8
TORSDOF 1
ENDMDL
