MODEL 1
REMARK minimizedAffinity -2.9107132
REMARK minimizedRMSD -1
REMARK  1 active torsions:
REMARK  status: ('A' for Active; 'I' for Inactive)
REMARK    1  A    between atoms: C1_2  and  C2_3 
ROOT
ATOM      1  C2  UNL d   1       0.439  -0.621   0.471  0.00  0.00    -0.073 A 
ATOM      2  C3  UNL d   1       0.011   0.602  -0.060  0.00  0.00    -0.002 A 
ATOM      3  C4  UNL d   1       0.016   0.811  -1.439  0.00  0.00     0.004 A 
ATOM      4  C5  UNL d   1       0.441  -0.200  -2.301  0.00  0.00    -0.004 A 
ATOM      5  C6  UNL d   1       0.860  -1.432  -1.791  0.00  0.00    -0.075 A 
ATOM      6  C7  UNL d   1       1.322  -2.529  -2.705  0.00  0.00     0.076 C 
ATOM      7  C8  UNL d   1       0.855  -1.634  -0.404  0.00  0.00     0.001 A 
ENDROOT
BRANCH   1   8
ATOM      8  C1  UNL d   1       0.429  -0.854   1.960  0.00  0.00     0.053 C 
ATOM      9  C   UNL d   1      -0.392   0.193   2.696  0.00  0.00     0.018 C 
ENDBRANCH   1   8
TORSDOF 1
ENDMDL
