MODEL 1
REMARK minimizedAffinity -2.79127121
REMARK minimizedRMSD -1
REMARK  1 active torsions:
REMARK  status: ('A' for Active; 'I' for Inactive)
REMARK    1  A    between atoms: C1_2  and  C2_3 
ROOT
ATOM      1  C2  UNL d   1       0.335  -0.315   0.115  0.00  0.00    -0.073 A 
ATOM      2  C3  UNL d   1      -0.809   0.455  -0.120  0.00  0.00    -0.002 A 
ATOM      3  C4  UNL d   1      -1.215   0.733  -1.426  0.00  0.00     0.004 A 
ATOM      4  C5  UNL d   1      -0.487   0.239  -2.508  0.00  0.00    -0.004 A 
ATOM      5  C6  UNL d   1       0.653  -0.543  -2.293  0.00  0.00    -0.075 A 
ATOM      6  C7  UNL d   1       1.449  -1.080  -3.446  0.00  0.00     0.076 C 
ATOM      7  C8  UNL d   1       1.056  -0.815  -0.979  0.00  0.00     0.001 A 
ENDROOT
BRANCH   1   8
ATOM      8  C1  UNL d   1       0.774  -0.624   1.523  0.00  0.00     0.053 C 
ATOM      9  C   UNL d   1       0.005   0.191   2.551  0.00  0.00     0.018 C 
ENDBRANCH   1   8
TORSDOF 1
ENDMDL
