MODEL 1
REMARK minimizedAffinity -4.21427822
REMARK minimizedRMSD -1
REMARK  1 active torsions:
REMARK  status: ('A' for Active; 'I' for Inactive)
REMARK    1  A    between atoms: C1_2  and  C2_3 
ROOT
ATOM      1  C2  UNL d   1      -0.837   0.023   1.740  0.00  0.00    -0.073 A 
ATOM      2  C3  UNL d   1       0.308   0.449   2.422  0.00  0.00    -0.002 A 
ATOM      3  C4  UNL d   1       1.514   0.615   1.739  0.00  0.00     0.004 A 
ATOM      4  C5  UNL d   1       1.585   0.363   0.369  0.00  0.00    -0.004 A 
ATOM      5  C6  UNL d   1       0.448  -0.052  -0.332  0.00  0.00    -0.075 A 
ATOM      6  C7  UNL d   1       0.508  -0.330  -1.806  0.00  0.00     0.076 C 
ATOM      7  C8  UNL d   1      -0.758  -0.219   0.361  0.00  0.00     0.001 A 
ENDROOT
BRANCH   1   8
ATOM      8  C1  UNL d   1      -2.143  -0.150   2.472  0.00  0.00     0.053 C 
ATOM      9  C   UNL d   1      -3.292   0.545   1.761  0.00  0.00     0.018 C 
ENDBRANCH   1   8
TORSDOF 1
ENDMDL
