MODEL 1
REMARK minimizedAffinity -2.58601284
REMARK minimizedRMSD -1
REMARK  1 active torsions:
REMARK  status: ('A' for Active; 'I' for Inactive)
REMARK    1  A    between atoms: C1_2  and  C2_3 
ROOT
ATOM      1  C2  UNL d   1      -0.095  -0.152  -0.801  0.00  0.00    -0.073 A 
ATOM      2  C3  UNL d   1      -0.993  -1.214  -0.646  0.00  0.00    -0.002 A 
ATOM      3  C4  UNL d   1      -1.312  -1.686   0.628  0.00  0.00     0.004 A 
ATOM      4  C5  UNL d   1      -0.743  -1.099   1.758  0.00  0.00    -0.004 A 
ATOM      5  C6  UNL d   1       0.148  -0.028   1.624  0.00  0.00    -0.075 A 
ATOM      6  C7  UNL d   1       0.770   0.613   2.829  0.00  0.00     0.076 C 
ATOM      7  C8  UNL d   1       0.465   0.439   0.341  0.00  0.00     0.001 A 
ENDROOT
BRANCH   1   8
ATOM      8  C1  UNL d   1       0.248   0.367  -2.174  0.00  0.00     0.053 C 
ATOM      9  C   UNL d   1       1.447  -0.352  -2.772  0.00  0.00     0.018 C 
ENDBRANCH   1   8
TORSDOF 1
ENDMDL
