MODEL 1
REMARK minimizedAffinity -5.6770997
REMARK minimizedRMSD -1
REMARK  1 active torsions:
REMARK  status: ('A' for Active; 'I' for Inactive)
REMARK    1  A    between atoms: C1_2  and  C2_3 
ROOT
ATOM      1  C2  UNL d   1       0.356  -0.602   0.307  0.00  0.00    -0.073 A 
ATOM      2  C3  UNL d   1       0.254   0.740  -0.078  0.00  0.00    -0.002 A 
ATOM      3  C4  UNL d   1       0.470   1.111  -1.405  0.00  0.00     0.004 A 
ATOM      4  C5  UNL d   1       0.782   0.145  -2.362  0.00  0.00    -0.004 A 
ATOM      5  C6  UNL d   1       0.876  -1.203  -2.000  0.00  0.00    -0.075 A 
ATOM      6  C7  UNL d   1       1.213  -2.253  -3.017  0.00  0.00     0.076 C 
ATOM      7  C8  UNL d   1       0.661  -1.567  -0.664  0.00  0.00     0.001 A 
ENDROOT
BRANCH   1   8
ATOM      8  C1  UNL d   1       0.117  -1.008   1.738  0.00  0.00     0.053 C 
ATOM      9  C   UNL d   1      -0.862  -0.080   2.439  0.00  0.00     0.018 C 
ENDBRANCH   1   8
TORSDOF 1
ENDMDL
