MODEL 1
REMARK minimizedAffinity -4.23721886
REMARK minimizedRMSD -1
REMARK  1 active torsions:
REMARK  status: ('A' for Active; 'I' for Inactive)
REMARK    1  A    between atoms: C1_2  and  C2_3 
ROOT
ATOM      1  C2  UNL d   1       0.226  -0.102  -1.770  0.00  0.00    -0.073 A 
ATOM      2  C3  UNL d   1      -0.972   0.621  -1.764  0.00  0.00    -0.002 A 
ATOM      3  C4  UNL d   1      -1.793   0.617  -0.635  0.00  0.00     0.004 A 
ATOM      4  C5  UNL d   1      -1.421  -0.103   0.500  0.00  0.00    -0.004 A 
ATOM      5  C6  UNL d   1      -0.221  -0.821   0.518  0.00  0.00    -0.075 A 
ATOM      6  C7  UNL d   1       0.192  -1.603   1.731  0.00  0.00     0.076 C 
ATOM      7  C8  UNL d   1       0.596  -0.815  -0.620  0.00  0.00     0.001 A 
ENDROOT
BRANCH   1   8
ATOM      8  C1  UNL d   1       1.118  -0.095  -2.984  0.00  0.00     0.053 C 
ATOM      9  C   UNL d   1       1.172  -1.456  -3.659  0.00  0.00     0.018 C 
ENDBRANCH   1   8
TORSDOF 1
ENDMDL
