MODEL 1
REMARK minimizedAffinity -1.72443473
REMARK minimizedRMSD -1
REMARK  1 active torsions:
REMARK  status: ('A' for Active; 'I' for Inactive)
REMARK    1  A    between atoms: C1_2  and  C2_3 
ROOT
ATOM      1  C2  UNL d   1       0.493   0.381  -1.313  0.00  0.00    -0.073 A 
ATOM      2  C3  UNL d   1      -0.867   0.603  -1.556  0.00  0.00    -0.002 A 
ATOM      3  C4  UNL d   1      -1.786   0.564  -0.506  0.00  0.00     0.004 A 
ATOM      4  C5  UNL d   1      -1.354   0.310   0.796  0.00  0.00    -0.004 A 
ATOM      5  C6  UNL d   1       0.003   0.097   1.060  0.00  0.00    -0.075 A 
ATOM      6  C7  UNL d   1       0.483  -0.180   2.454  0.00  0.00     0.076 C 
ATOM      7  C8  UNL d   1       0.919   0.135   0.000  0.00  0.00     0.001 A 
ENDROOT
BRANCH   1   8
ATOM      8  C1  UNL d   1       1.490   0.429  -2.442  0.00  0.00     0.053 C 
ATOM      9  C   UNL d   1       1.476  -0.847  -3.269  0.00  0.00     0.018 C 
ENDBRANCH   1   8
TORSDOF 1
ENDMDL
