MODEL 1
REMARK minimizedAffinity -2.56607199
REMARK minimizedRMSD -1
REMARK  1 active torsions:
REMARK  status: ('A' for Active; 'I' for Inactive)
REMARK    1  A    between atoms: C1_2  and  C2_3 
ROOT
ATOM      1  C2  UNL d   1       0.531  -0.842  -1.125  0.00  0.00    -0.073 A 
ATOM      2  C3  UNL d   1       0.944   0.453  -1.457  0.00  0.00    -0.002 A 
ATOM      3  C4  UNL d   1       1.344   0.753  -2.760  0.00  0.00     0.004 A 
ATOM      4  C5  UNL d   1       1.329  -0.236  -3.744  0.00  0.00    -0.004 A 
ATOM      5  C6  UNL d   1       0.909  -1.534  -3.434  0.00  0.00    -0.075 A 
ATOM      6  C7  UNL d   1       0.889  -2.609  -4.480  0.00  0.00     0.076 C 
ATOM      7  C8  UNL d   1       0.511  -1.827  -2.122  0.00  0.00     0.001 A 
ENDROOT
BRANCH   1   8
ATOM      8  C1  UNL d   1       0.092  -1.168   0.280  0.00  0.00     0.053 C 
ATOM      9  C   UNL d   1      -0.974  -0.207   0.782  0.00  0.00     0.018 C 
ENDBRANCH   1   8
TORSDOF 1
ENDMDL
