MODEL 1
REMARK minimizedAffinity -2.82751107
REMARK minimizedRMSD -1
REMARK  1 active torsions:
REMARK  status: ('A' for Active; 'I' for Inactive)
REMARK    1  A    between atoms: C1_2  and  C2_3 
ROOT
ATOM      1  C2  UNL d   1      -0.093   0.210  -0.990  0.00  0.00    -0.073 A 
ATOM      2  C3  UNL d   1      -1.456   0.380  -1.258  0.00  0.00    -0.002 A 
ATOM      3  C4  UNL d   1      -2.388   0.338  -0.221  0.00  0.00     0.004 A 
ATOM      4  C5  UNL d   1      -1.969   0.133   1.093  0.00  0.00    -0.004 A 
ATOM      5  C6  UNL d   1      -0.610  -0.027   1.382  0.00  0.00    -0.075 A 
ATOM      6  C7  UNL d   1      -0.142  -0.251   2.790  0.00  0.00     0.076 C 
ATOM      7  C8  UNL d   1       0.321   0.013   0.335  0.00  0.00     0.001 A 
ENDROOT
BRANCH   1   8
ATOM      8  C1  UNL d   1       0.919   0.261  -2.106  0.00  0.00     0.053 C 
ATOM      9  C   UNL d   1       0.902  -1.004  -2.949  0.00  0.00     0.018 C 
ENDBRANCH   1   8
TORSDOF 1
ENDMDL
