MODEL 1
REMARK minimizedAffinity 5.99530935
REMARK minimizedRMSD -1
REMARK  3 active torsions:
REMARK  status: ('A' for Active; 'I' for Inactive)
REMARK    1  A    between atoms: C3'_2  and  C2'_3 
REMARK    2  A    between atoms: C2'_3  and  C1'_4 
REMARK    3  A    between atoms: C1'_4  and  C1_5 
ROOT
ATOM      1  C1  N4B d   1      -2.598  -2.798  -0.223  0.00  0.00    -0.075 A 
ATOM      2  C2  N4B d   1      -3.262  -3.254  -1.384  0.00  0.00     0.002 A 
ATOM      3  C3  N4B d   1      -2.899  -2.770  -2.617  0.00  0.00     0.002 A 
ATOM      4  C4  N4B d   1      -1.893  -1.820  -2.712  0.00  0.00    -0.004 A 
ATOM      5  C5  N4B d   1      -1.240  -1.404  -1.588  0.00  0.00     0.002 A 
ATOM      6  C6  N4B d   1      -1.591  -1.885  -0.343  0.00  0.00     0.002 A 
ENDROOT
BRANCH   1   7
ATOM      7  C1' N4B d   1      -3.017  -3.235   1.154  0.00  0.00     0.057 C 
BRANCH   7   8
ATOM      8  C2' N4B d   1      -1.866  -3.991   1.812  0.00  0.00     0.009 C 
BRANCH   8   9
ATOM      9  C3' N4B d   1      -2.249  -5.420   2.155  0.00  0.00     0.004 C 
ATOM     10  C4' N4B d   1      -3.662  -5.750   1.779  0.00  0.00     0.003 C 
ENDBRANCH   8   9
ENDBRANCH   7   8
ENDBRANCH   1   7
TORSDOF 3
ENDMDL
