MODEL 1
REMARK minimizedAffinity 9.46876335
REMARK minimizedRMSD -1
REMARK  3 active torsions:
REMARK  status: ('A' for Active; 'I' for Inactive)
REMARK    1  A    between atoms: C3'_2  and  C2'_3 
REMARK    2  A    between atoms: C2'_3  and  C1'_4 
REMARK    3  A    between atoms: C1'_4  and  C1_5 
ROOT
ATOM      1  C1  N4B d   1       3.553  -1.133   2.267  0.00  0.00    -0.075 A 
ATOM      2  C2  N4B d   1       2.950  -0.501   1.156  0.00  0.00     0.002 A 
ATOM      3  C3  N4B d   1       1.599  -0.257   1.156  0.00  0.00     0.002 A 
ATOM      4  C4  N4B d   1       0.830  -0.650   2.241  0.00  0.00    -0.004 A 
ATOM      5  C5  N4B d   1       1.424  -1.236   3.320  0.00  0.00     0.002 A 
ATOM      6  C6  N4B d   1       2.782  -1.485   3.336  0.00  0.00     0.002 A 
ENDROOT
BRANCH   1   7
ATOM      7  C1' N4B d   1       5.012  -1.499   2.276  0.00  0.00     0.057 C 
BRANCH   7   8
ATOM      8  C2' N4B d   1       5.656  -0.955   3.548  0.00  0.00     0.009 C 
BRANCH   8   9
ATOM      9  C3' N4B d   1       5.697  -1.995   4.654  0.00  0.00     0.004 C 
ATOM     10  C4' N4B d   1       5.992  -1.402   5.999  0.00  0.00     0.003 C 
ENDBRANCH   8   9
ENDBRANCH   7   8
ENDBRANCH   1   7
TORSDOF 3
ENDMDL
