MODEL 1
REMARK minimizedAffinity 4.22336912
REMARK minimizedRMSD -1
REMARK  3 active torsions:
REMARK  status: ('A' for Active; 'I' for Inactive)
REMARK    1  A    between atoms: C3'_2  and  C2'_3 
REMARK    2  A    between atoms: C2'_3  and  C1'_4 
REMARK    3  A    between atoms: C1'_4  and  C1_5 
ROOT
ATOM      1  C1  N4B d   1       2.976   0.747   1.798  0.00  0.00    -0.075 A 
ATOM      2  C2  N4B d   1       3.995   1.088   0.881  0.00  0.00     0.002 A 
ATOM      3  C3  N4B d   1       5.201   0.434   0.921  0.00  0.00     0.002 A 
ATOM      4  C4  N4B d   1       5.419  -0.547   1.877  0.00  0.00    -0.004 A 
ATOM      5  C5  N4B d   1       4.421  -0.888   2.743  0.00  0.00     0.002 A 
ATOM      6  C6  N4B d   1       3.202  -0.241   2.712  0.00  0.00     0.002 A 
ENDROOT
BRANCH   1   7
ATOM      7  C1' N4B d   1       1.671   1.494   1.849  0.00  0.00     0.057 C 
BRANCH   7   8
ATOM      8  C2' N4B d   1       0.703   0.748   2.763  0.00  0.00     0.009 C 
BRANCH   8   9
ATOM      9  C3' N4B d   1      -0.111   1.698   3.625  0.00  0.00     0.004 C 
ATOM     10  C4' N4B d   1      -1.512   1.882   3.122  0.00  0.00     0.003 C 
ENDBRANCH   8   9
ENDBRANCH   7   8
ENDBRANCH   1   7
TORSDOF 3
ENDMDL
