MODEL 1
REMARK minimizedAffinity 13.8186979
REMARK minimizedRMSD -1
REMARK  3 active torsions:
REMARK  status: ('A' for Active; 'I' for Inactive)
REMARK    1  A    between atoms: C3'_2  and  C2'_3 
REMARK    2  A    between atoms: C2'_3  and  C1'_4 
REMARK    3  A    between atoms: C1'_4  and  C1_5 
ROOT
ATOM      1  C1  N4B d   1      -3.025  -4.598  -2.310  0.00  0.00    -0.075 A 
ATOM      2  C2  N4B d   1      -3.739  -3.473  -1.843  0.00  0.00     0.002 A 
ATOM      3  C3  N4B d   1      -3.314  -2.208  -2.165  0.00  0.00     0.002 A 
ATOM      4  C4  N4B d   1      -2.171  -2.043  -2.934  0.00  0.00    -0.004 A 
ATOM      5  C5  N4B d   1      -1.501  -3.136  -3.402  0.00  0.00     0.002 A 
ATOM      6  C6  N4B d   1      -1.920  -4.413  -3.089  0.00  0.00     0.002 A 
ENDROOT
BRANCH   1   7
ATOM      7  C1' N4B d   1      -3.402  -5.999  -1.912  0.00  0.00     0.057 C 
BRANCH   7   8
ATOM      8  C2' N4B d   1      -4.545  -5.943  -0.903  0.00  0.00     0.009 C 
BRANCH   8   9
ATOM      9  C3' N4B d   1      -4.042  -5.999   0.529  0.00  0.00     0.004 C 
ATOM     10  C4' N4B d   1      -5.154  -5.996   1.536  0.00  0.00     0.003 C 
ENDBRANCH   8   9
ENDBRANCH   7   8
ENDBRANCH   1   7
TORSDOF 3
ENDMDL
