MODEL 1
REMARK minimizedAffinity 6.29320049
REMARK minimizedRMSD -1
REMARK  3 active torsions:
REMARK  status: ('A' for Active; 'I' for Inactive)
REMARK    1  A    between atoms: C3'_2  and  C2'_3 
REMARK    2  A    between atoms: C2'_3  and  C1'_4 
REMARK    3  A    between atoms: C1'_4  and  C1_5 
ROOT
ATOM      1  C1  N4B d   1       3.757   1.783   0.625  0.00  0.00    -0.075 A 
ATOM      2  C2  N4B d   1       4.595   2.093  -0.469  0.00  0.00     0.002 A 
ATOM      3  C3  N4B d   1       5.699   1.318  -0.730  0.00  0.00     0.002 A 
ATOM      4  C4  N4B d   1       5.993   0.244   0.096  0.00  0.00    -0.004 A 
ATOM      5  C5  N4B d   1       5.165  -0.064   1.135  0.00  0.00     0.002 A 
ATOM      6  C6  N4B d   1       4.050   0.704   1.407  0.00  0.00     0.002 A 
ENDROOT
BRANCH   1   7
ATOM      7  C1' N4B d   1       2.588   2.652   1.001  0.00  0.00     0.057 C 
BRANCH   7   8
ATOM      8  C2' N4B d   1       3.044   3.690   2.022  0.00  0.00     0.009 C 
BRANCH   8   9
ATOM      9  C3' N4B d   1       3.428   5.004   1.365  0.00  0.00     0.004 C 
ATOM     10  C4' N4B d   1       4.066   5.967   2.321  0.00  0.00     0.003 C 
ENDBRANCH   8   9
ENDBRANCH   7   8
ENDBRANCH   1   7
TORSDOF 3
ENDMDL
