MODEL 1
REMARK minimizedAffinity 17.231432
REMARK minimizedRMSD -1
REMARK  3 active torsions:
REMARK  status: ('A' for Active; 'I' for Inactive)
REMARK    1  A    between atoms: C3'_2  and  C2'_3 
REMARK    2  A    between atoms: C2'_3  and  C1'_4 
REMARK    3  A    between atoms: C1'_4  and  C1_5 
ROOT
ATOM      1  C1  N4B d   1      -1.435  -2.303  -3.714  0.00  0.00    -0.075 A 
ATOM      2  C2  N4B d   1      -0.660  -3.484  -3.697  0.00  0.00     0.002 A 
ATOM      3  C3  N4B d   1      -0.005  -3.892  -4.833  0.00  0.00     0.002 A 
ATOM      4  C4  N4B d   1      -0.126  -3.150  -5.998  0.00  0.00    -0.004 A 
ATOM      5  C5  N4B d   1      -0.856  -1.998  -6.000  0.00  0.00     0.002 A 
ATOM      6  C6  N4B d   1      -1.516  -1.573  -4.864  0.00  0.00     0.002 A 
ENDROOT
BRANCH   1   7
ATOM      7  C1' N4B d   1      -2.238  -1.862  -2.521  0.00  0.00     0.057 C 
BRANCH   7   8
ATOM      8  C2' N4B d   1      -2.671  -3.091  -1.727  0.00  0.00     0.009 C 
BRANCH   8   9
ATOM      9  C3' N4B d   1      -4.112  -2.987  -1.259  0.00  0.00     0.004 C 
ATOM     10  C4' N4B d   1      -5.050  -3.827  -2.075  0.00  0.00     0.003 C 
ENDBRANCH   8   9
ENDBRANCH   7   8
ENDBRANCH   1   7
TORSDOF 3
ENDMDL
