MODEL 1
REMARK minimizedAffinity 14.3364687
REMARK minimizedRMSD -1
REMARK  3 active torsions:
REMARK  status: ('A' for Active; 'I' for Inactive)
REMARK    1  A    between atoms: C3'_2  and  C2'_3 
REMARK    2  A    between atoms: C2'_3  and  C1'_4 
REMARK    3  A    between atoms: C1'_4  and  C1_5 
ROOT
ATOM      1  C1  N4B d   1       2.630   3.599  -4.210  0.00  0.00    -0.075 A 
ATOM      2  C2  N4B d   1       2.999   4.884  -3.756  0.00  0.00     0.002 A 
ATOM      3  C3  N4B d   1       2.580   6.000  -4.438  0.00  0.00     0.002 A 
ATOM      4  C4  N4B d   1       1.810   5.855  -5.582  0.00  0.00    -0.004 A 
ATOM      5  C5  N4B d   1       1.437   4.612  -6.000  0.00  0.00     0.002 A 
ATOM      6  C6  N4B d   1       1.847   3.481  -5.322  0.00  0.00     0.002 A 
ENDROOT
BRANCH   1   7
ATOM      7  C1' N4B d   1       3.135   2.346  -3.548  0.00  0.00     0.057 C 
BRANCH   7   8
ATOM      8  C2' N4B d   1       3.791   2.712  -2.219  0.00  0.00     0.009 C 
BRANCH   8   9
ATOM      9  C3' N4B d   1       3.709   1.577  -1.213  0.00  0.00     0.004 C 
ATOM     10  C4' N4B d   1       2.576   1.740  -0.244  0.00  0.00     0.003 C 
ENDBRANCH   8   9
ENDBRANCH   7   8
ENDBRANCH   1   7
TORSDOF 3
ENDMDL
