MODEL 1
REMARK minimizedAffinity 12.7046404
REMARK minimizedRMSD -1
REMARK  3 active torsions:
REMARK  status: ('A' for Active; 'I' for Inactive)
REMARK    1  A    between atoms: C3'_2  and  C2'_3 
REMARK    2  A    between atoms: C2'_3  and  C1'_4 
REMARK    3  A    between atoms: C1'_4  and  C1_5 
ROOT
ATOM      1  C1  N4B d   1       3.624   1.539  -2.787  0.00  0.00    -0.075 A 
ATOM      2  C2  N4B d   1       3.603   1.133  -4.139  0.00  0.00     0.002 A 
ATOM      3  C3  N4B d   1       4.769   0.756  -4.761  0.00  0.00     0.002 A 
ATOM      4  C4  N4B d   1       5.964   0.796  -4.059  0.00  0.00    -0.004 A 
ATOM      5  C5  N4B d   1       5.971   1.166  -2.745  0.00  0.00     0.002 A 
ATOM      6  C6  N4B d   1       4.807   1.543  -2.107  0.00  0.00     0.002 A 
ENDROOT
BRANCH   1   7
ATOM      7  C1' N4B d   1       2.389   2.042  -2.090  0.00  0.00     0.057 C 
BRANCH   7   8
ATOM      8  C2' N4B d   1       2.723   3.331  -1.346  0.00  0.00     0.009 C 
BRANCH   8   9
ATOM      9  C3' N4B d   1       2.178   3.327   0.072  0.00  0.00     0.004 C 
ATOM     10  C4' N4B d   1       2.530   4.570   0.833  0.00  0.00     0.003 C 
ENDBRANCH   8   9
ENDBRANCH   7   8
ENDBRANCH   1   7
TORSDOF 3
ENDMDL
