MODEL 1
REMARK minimizedAffinity 1.28387272
REMARK minimizedRMSD -1
REMARK  3 active torsions:
REMARK  status: ('A' for Active; 'I' for Inactive)
REMARK    1  A    between atoms: C3'_2  and  C2'_3 
REMARK    2  A    between atoms: C2'_3  and  C1'_4 
REMARK    3  A    between atoms: C1'_4  and  C1_5 
ROOT
ATOM      1  C1  N4B d   1       4.511   4.092  -4.748  0.00  0.00    -0.075 A 
ATOM      2  C2  N4B d   1       4.563   4.730  -3.489  0.00  0.00     0.002 A 
ATOM      3  C3  N4B d   1       4.837   3.998  -2.360  0.00  0.00     0.002 A 
ATOM      4  C4  N4B d   1       5.043   2.630  -2.462  0.00  0.00    -0.004 A 
ATOM      5  C5  N4B d   1       5.016   2.026  -3.685  0.00  0.00     0.002 A 
ATOM      6  C6  N4B d   1       4.746   2.750  -4.829  0.00  0.00     0.002 A 
ENDROOT
BRANCH   1   7
ATOM      7  C1' N4B d   1       4.131   4.835  -6.000  0.00  0.00     0.057 C 
BRANCH   7   8
ATOM      8  C2' N4B d   1       2.754   5.465  -5.809  0.00  0.00     0.009 C 
BRANCH   8   9
ATOM      9  C3' N4B d   1       1.692   4.426  -5.496  0.00  0.00     0.004 C 
ATOM     10  C4' N4B d   1       1.594   4.118  -4.031  0.00  0.00     0.003 C 
ENDBRANCH   8   9
ENDBRANCH   7   8
ENDBRANCH   1   7
TORSDOF 3
ENDMDL
