MODEL 1
REMARK minimizedAffinity -2.79270005
REMARK minimizedRMSD -1
REMARK  0 active torsions:
REMARK  status: ('A' for Active; 'I' for Inactive)
ROOT
ATOM      1  C4' PXY d   1      -1.103  -5.250  -2.088  0.00  0.00     0.077 C 
ATOM      2  C1' PXY d   1      -3.213  -4.523   3.244  0.00  0.00     0.077 C 
ATOM      3  C1  PXY d   1      -2.659  -4.700   1.845  0.00  0.00    -0.082 A 
ATOM      4  C2  PXY d   1      -2.923  -5.809   1.173  0.00  0.00     0.003 A 
ATOM      5  C3  PXY d   1      -2.403  -6.000  -0.082  0.00  0.00     0.003 A 
ATOM      6  C4  PXY d   1      -1.649  -5.023  -0.675  0.00  0.00    -0.082 A 
ATOM      7  C5  PXY d   1      -1.384  -3.885  -0.000  0.00  0.00     0.003 A 
ATOM      8  C6  PXY d   1      -1.887  -3.728   1.288  0.00  0.00     0.003 A 
ENDROOT
TORSDOF 0
ENDMDL
