MODEL 1
REMARK minimizedAffinity 0.751457989
REMARK minimizedRMSD -1
REMARK  0 active torsions:
REMARK  status: ('A' for Active; 'I' for Inactive)
ROOT
ATOM      1  C4' PXY d   1       0.581  -0.605   0.739  0.00  0.00     0.077 C 
ATOM      2  C1' PXY d   1       2.583  -3.444   5.359  0.00  0.00     0.077 C 
ATOM      3  C1  PXY d   1       2.070  -2.696   4.144  0.00  0.00    -0.082 A 
ATOM      4  C2  PXY d   1       0.848  -2.191   4.154  0.00  0.00     0.003 A 
ATOM      5  C3  PXY d   1       0.356  -1.540   3.052  0.00  0.00     0.003 A 
ATOM      6  C4  PXY d   1       1.144  -1.359   1.947  0.00  0.00    -0.082 A 
ATOM      7  C5  PXY d   1       2.396  -1.862   1.932  0.00  0.00     0.003 A 
ATOM      8  C6  PXY d   1       2.861  -2.555   3.046  0.00  0.00     0.003 A 
ENDROOT
TORSDOF 0
ENDMDL
