MODEL 1
REMARK minimizedAffinity -4.69913912
REMARK minimizedRMSD -1
REMARK  0 active torsions:
REMARK  status: ('A' for Active; 'I' for Inactive)
ROOT
ATOM      1  C4' PXY d   1      -1.479  -5.746  -5.298  0.00  0.00     0.077 C 
ATOM      2  C1' PXY d   1      -2.951  -5.337   0.277  0.00  0.00     0.077 C 
ATOM      3  C1  PXY d   1      -2.575  -5.453  -1.187  0.00  0.00    -0.082 A 
ATOM      4  C2  PXY d   1      -1.353  -5.125  -1.576  0.00  0.00     0.003 A 
ATOM      5  C3  PXY d   1      -1.005  -5.194  -2.901  0.00  0.00     0.003 A 
ATOM      6  C4  PXY d   1      -1.901  -5.653  -3.829  0.00  0.00    -0.082 A 
ATOM      7  C5  PXY d   1      -3.146  -6.000  -3.439  0.00  0.00     0.003 A 
ATOM      8  C6  PXY d   1      -3.492  -5.884  -2.096  0.00  0.00     0.003 A 
ENDROOT
TORSDOF 0
ENDMDL
