MODEL 1
REMARK minimizedAffinity -5.7303257
REMARK minimizedRMSD -1
REMARK  0 active torsions:
REMARK  status: ('A' for Active; 'I' for Inactive)
ROOT
ATOM      1  C4' PXY d   1       0.920  -0.931   1.124  0.00  0.00     0.077 C 
ATOM      2  C1' PXY d   1       1.441  -5.257   4.922  0.00  0.00     0.077 C 
ATOM      3  C1  PXY d   1       1.306  -4.131   3.916  0.00  0.00    -0.082 A 
ATOM      4  C2  PXY d   1       1.624  -2.897   4.269  0.00  0.00     0.003 A 
ATOM      5  C3  PXY d   1       1.477  -1.861   3.382  0.00  0.00     0.003 A 
ATOM      6  C4  PXY d   1       1.050  -2.100   2.103  0.00  0.00    -0.082 A 
ATOM      7  C5  PXY d   1       0.734  -3.359   1.732  0.00  0.00     0.003 A 
ATOM      8  C6  PXY d   1       0.851  -4.390   2.660  0.00  0.00     0.003 A 
ENDROOT
TORSDOF 0
ENDMDL
