MODEL 1
REMARK minimizedAffinity -3.01536846
REMARK minimizedRMSD -1
REMARK  0 active torsions:
REMARK  status: ('A' for Active; 'I' for Inactive)
ROOT
ATOM      1  C4' PXY d   1       1.466  -0.917   1.817  0.00  0.00     0.077 C 
ATOM      2  C1' PXY d   1       2.160  -5.010   5.839  0.00  0.00     0.077 C 
ATOM      3  C1  PXY d   1       1.984  -3.944   4.776  0.00  0.00    -0.082 A 
ATOM      4  C2  PXY d   1       1.772  -2.689   5.137  0.00  0.00     0.003 A 
ATOM      5  C3  PXY d   1       1.579  -1.718   4.188  0.00  0.00     0.003 A 
ATOM      6  C4  PXY d   1       1.658  -2.025   2.856  0.00  0.00    -0.082 A 
ATOM      7  C5  PXY d   1       1.885  -3.301   2.480  0.00  0.00     0.003 A 
ATOM      8  C6  PXY d   1       2.037  -4.279   3.458  0.00  0.00     0.003 A 
ENDROOT
TORSDOF 0
ENDMDL
