MODEL 1
REMARK minimizedAffinity -3.83014941
REMARK minimizedRMSD -1
REMARK  0 active torsions:
REMARK  status: ('A' for Active; 'I' for Inactive)
ROOT
ATOM      1  C4' PXY d   1      -0.039  -5.996  -5.423  0.00  0.00     0.077 C 
ATOM      2  C1' PXY d   1      -3.134  -5.981  -0.541  0.00  0.00     0.077 C 
ATOM      3  C1  PXY d   1      -2.333  -5.990  -1.827  0.00  0.00    -0.082 A 
ATOM      4  C2  PXY d   1      -1.011  -5.998  -1.775  0.00  0.00     0.003 A 
ATOM      5  C3  PXY d   1      -0.270  -5.974  -2.928  0.00  0.00     0.003 A 
ATOM      6  C4  PXY d   1      -0.889  -5.996  -4.149  0.00  0.00    -0.082 A 
ATOM      7  C5  PXY d   1      -2.238  -5.999  -4.212  0.00  0.00     0.003 A 
ATOM      8  C6  PXY d   1      -2.971  -5.982  -3.029  0.00  0.00     0.003 A 
ENDROOT
TORSDOF 0
ENDMDL
