MODEL 1
REMARK minimizedAffinity -4.89032316
REMARK minimizedRMSD -1
REMARK  0 active torsions:
REMARK  status: ('A' for Active; 'I' for Inactive)
ROOT
ATOM      1  C4' PXY d   1      -1.795  -5.972  -5.247  0.00  0.00     0.077 C 
ATOM      2  C1' PXY d   1      -2.817  -5.799   0.440  0.00  0.00     0.077 C 
ATOM      3  C1  PXY d   1      -2.560  -5.850  -1.054  0.00  0.00    -0.082 A 
ATOM      4  C2  PXY d   1      -1.318  -5.795  -1.506  0.00  0.00     0.003 A 
ATOM      5  C3  PXY d   1      -1.070  -5.808  -2.855  0.00  0.00     0.003 A 
ATOM      6  C4  PXY d   1      -2.101  -5.933  -3.747  0.00  0.00    -0.082 A 
ATOM      7  C5  PXY d   1      -3.370  -6.000  -3.293  0.00  0.00     0.003 A 
ATOM      8  C6  PXY d   1      -3.603  -5.943  -1.922  0.00  0.00     0.003 A 
ENDROOT
TORSDOF 0
ENDMDL
