MODEL 1
REMARK minimizedAffinity -3.51285386
REMARK minimizedRMSD -1
REMARK  0 active torsions:
REMARK  status: ('A' for Active; 'I' for Inactive)
ROOT
ATOM      1  C4' PXY d   1      -2.531  -5.999  -2.643  0.00  0.00     0.077 C 
ATOM      2  C1' PXY d   1       2.590  -4.987  -5.125  0.00  0.00     0.077 C 
ATOM      3  C1  PXY d   1       1.242  -5.244  -4.482  0.00  0.00    -0.082 A 
ATOM      4  C2  PXY d   1       1.184  -5.700  -3.242  0.00  0.00     0.003 A 
ATOM      5  C3  PXY d   1      -0.026  -5.968  -2.656  0.00  0.00     0.003 A 
ATOM      6  C4  PXY d   1      -1.192  -5.716  -3.329  0.00  0.00    -0.082 A 
ATOM      7  C5  PXY d   1      -1.142  -5.240  -4.591  0.00  0.00     0.003 A 
ATOM      8  C6  PXY d   1       0.098  -5.013  -5.182  0.00  0.00     0.003 A 
ENDROOT
TORSDOF 0
ENDMDL
