MODEL 1
REMARK minimizedAffinity -4.44710159
REMARK minimizedRMSD -1
REMARK  0 active torsions:
REMARK  status: ('A' for Active; 'I' for Inactive)
ROOT
ATOM      1  C4' PXY d   1      -1.187  -5.929  -5.220  0.00  0.00     0.077 C 
ATOM      2  C1' PXY d   1      -3.737  -5.999  -0.033  0.00  0.00     0.077 C 
ATOM      3  C1  PXY d   1      -3.058  -5.975  -1.388  0.00  0.00    -0.082 A 
ATOM      4  C2  PXY d   1      -3.792  -5.987  -2.488  0.00  0.00     0.003 A 
ATOM      5  C3  PXY d   1      -3.194  -5.998  -3.722  0.00  0.00     0.003 A 
ATOM      6  C4  PXY d   1      -1.830  -5.943  -3.831  0.00  0.00    -0.082 A 
ATOM      7  C5  PXY d   1      -1.074  -5.920  -2.713  0.00  0.00     0.003 A 
ATOM      8  C6  PXY d   1      -1.700  -5.951  -1.470  0.00  0.00     0.003 A 
ENDROOT
TORSDOF 0
ENDMDL
