MODEL 1
REMARK minimizedAffinity 5.26903963
REMARK minimizedRMSD -1
REMARK  0 active torsions:
REMARK  status: ('A' for Active; 'I' for Inactive)
ROOT
ATOM      1  C4' PXY d   1       3.643  -1.048   2.736  0.00  0.00     0.077 C 
ATOM      2  C1' PXY d   1      -0.864  -1.238  -0.878  0.00  0.00     0.077 C 
ATOM      3  C1  PXY d   1       0.322  -1.178   0.064  0.00  0.00    -0.082 A 
ATOM      4  C2  PXY d   1       0.738  -2.281   0.665  0.00  0.00     0.003 A 
ATOM      5  C3  PXY d   1       1.789  -2.238   1.544  0.00  0.00     0.003 A 
ATOM      6  C4  PXY d   1       2.456  -1.064   1.770  0.00  0.00    -0.082 A 
ATOM      7  C5  PXY d   1       2.044   0.064   1.153  0.00  0.00     0.003 A 
ATOM      8  C6  PXY d   1       0.949   0.007   0.296  0.00  0.00     0.003 A 
ENDROOT
TORSDOF 0
ENDMDL
