MODEL 1
REMARK minimizedAffinity -4.27190399
REMARK minimizedRMSD -1
REMARK  0 active torsions:
REMARK  status: ('A' for Active; 'I' for Inactive)
ROOT
ATOM      1  C4' PXY d   1       1.492  -0.837   1.191  0.00  0.00     0.077 C 
ATOM      2  C1' PXY d   1       1.850  -4.720   5.458  0.00  0.00     0.077 C 
ATOM      3  C1  PXY d   1       1.761  -3.692   4.347  0.00  0.00    -0.082 A 
ATOM      4  C2  PXY d   1       0.888  -3.862   3.367  0.00  0.00     0.003 A 
ATOM      5  C3  PXY d   1       0.817  -2.960   2.337  0.00  0.00     0.003 A 
ATOM      6  C4  PXY d   1       1.610  -1.843   2.338  0.00  0.00    -0.082 A 
ATOM      7  C5  PXY d   1       2.495  -1.657   3.340  0.00  0.00     0.003 A 
ATOM      8  C6  PXY d   1       2.581  -2.606   4.354  0.00  0.00     0.003 A 
ENDROOT
TORSDOF 0
ENDMDL
