MODEL 1
REMARK minimizedAffinity -6.09168005
REMARK minimizedRMSD -1
REMARK  0 active torsions:
REMARK  status: ('A' for Active; 'I' for Inactive)
ROOT
ATOM      1  C4' PXY d   1       0.266  -3.001   0.758  0.00  0.00     0.077 C 
ATOM      2  C1' PXY d   1       2.326  -4.318   5.996  0.00  0.00     0.077 C 
ATOM      3  C1  PXY d   1       1.785  -3.960   4.625  0.00  0.00    -0.082 A 
ATOM      4  C2  PXY d   1       1.173  -4.884   3.903  0.00  0.00     0.003 A 
ATOM      5  C3  PXY d   1       0.705  -4.586   2.648  0.00  0.00     0.003 A 
ATOM      6  C4  PXY d   1       0.819  -3.315   2.150  0.00  0.00    -0.082 A 
ATOM      7  C5  PXY d   1       1.434  -2.365   2.886  0.00  0.00     0.003 A 
ATOM      8  C6  PXY d   1       1.938  -2.698   4.140  0.00  0.00     0.003 A 
ENDROOT
TORSDOF 0
ENDMDL
