MODEL 1
REMARK minimizedAffinity 0.82434994
REMARK minimizedRMSD -1
REMARK  0 active torsions:
REMARK  status: ('A' for Active; 'I' for Inactive)
ROOT
ATOM      1  C4' PXY d   1      -5.751  -5.999  -1.833  0.00  0.00     0.077 C 
ATOM      2  C1' PXY d   1      -3.203  -4.414   3.108  0.00  0.00     0.077 C 
ATOM      3  C1  PXY d   1      -3.864  -4.821   1.806  0.00  0.00    -0.082 A 
ATOM      4  C2  PXY d   1      -5.083  -5.334   1.823  0.00  0.00     0.003 A 
ATOM      5  C3  PXY d   1      -5.683  -5.738   0.658  0.00  0.00     0.003 A 
ATOM      6  C4  PXY d   1      -5.049  -5.565  -0.543  0.00  0.00    -0.082 A 
ATOM      7  C5  PXY d   1      -3.809  -5.033  -0.570  0.00  0.00     0.003 A 
ATOM      8  C6  PXY d   1      -3.201  -4.668   0.627  0.00  0.00     0.003 A 
ENDROOT
TORSDOF 0
ENDMDL
