MODEL 1
REMARK minimizedAffinity -1.14832664
REMARK minimizedRMSD -1
REMARK  0 active torsions:
REMARK  status: ('A' for Active; 'I' for Inactive)
ROOT
ATOM      1  C4' PXY d   1       2.975  -6.000   5.999  0.00  0.00     0.077 C 
ATOM      2  C1' PXY d   1       0.865  -1.619   2.873  0.00  0.00     0.077 C 
ATOM      3  C1  PXY d   1       1.408  -2.766   3.701  0.00  0.00    -0.082 A 
ATOM      4  C2  PXY d   1       2.695  -3.070   3.634  0.00  0.00     0.003 A 
ATOM      5  C3  PXY d   1       3.197  -4.125   4.352  0.00  0.00     0.003 A 
ATOM      6  C4  PXY d   1       2.384  -4.843   5.188  0.00  0.00    -0.082 A 
ATOM      7  C5  PXY d   1       1.073  -4.533   5.270  0.00  0.00     0.003 A 
ATOM      8  C6  PXY d   1       0.575  -3.485   4.502  0.00  0.00     0.003 A 
ENDROOT
TORSDOF 0
ENDMDL
