MODEL 1
REMARK minimizedAffinity 10.6311121
REMARK minimizedRMSD -1
REMARK  0 active torsions:
REMARK  status: ('A' for Active; 'I' for Inactive)
ROOT
ATOM      1  C4' PXY d   1      -6.000   1.880  -3.067  0.00  0.00     0.077 C 
ATOM      2  C1' PXY d   1      -3.263  -2.144   0.053  0.00  0.00     0.077 C 
ATOM      3  C1  PXY d   1      -3.984  -1.082  -0.754  0.00  0.00    -0.082 A 
ATOM      4  C2  PXY d   1      -4.459  -1.382  -1.952  0.00  0.00     0.003 A 
ATOM      5  C3  PXY d   1      -5.085  -0.425  -2.709  0.00  0.00     0.003 A 
ATOM      6  C4  PXY d   1      -5.274   0.837  -2.212  0.00  0.00    -0.082 A 
ATOM      7  C5  PXY d   1      -4.801   1.147  -0.987  0.00  0.00     0.003 A 
ATOM      8  C6  PXY d   1      -4.132   0.173  -0.251  0.00  0.00     0.003 A 
ENDROOT
TORSDOF 0
ENDMDL
