MODEL 1
REMARK minimizedAffinity 0.325520009
REMARK minimizedRMSD -1
REMARK  0 active torsions:
REMARK  status: ('A' for Active; 'I' for Inactive)
ROOT
ATOM      1  C4' PXY d   1      -5.632  -0.476   0.749  0.00  0.00     0.077 C 
ATOM      2  C1' PXY d   1      -3.074   1.823  -3.898  0.00  0.00     0.077 C 
ATOM      3  C1  PXY d   1      -3.737   1.210  -2.680  0.00  0.00    -0.082 A 
ATOM      4  C2  PXY d   1      -4.987   1.527  -2.386  0.00  0.00     0.003 A 
ATOM      5  C3  PXY d   1      -5.591   1.007  -1.270  0.00  0.00     0.003 A 
ATOM      6  C4  PXY d   1      -4.926   0.111  -0.477  0.00  0.00    -0.082 A 
ATOM      7  C5  PXY d   1      -3.654  -0.227  -0.776  0.00  0.00     0.003 A 
ATOM      8  C6  PXY d   1      -3.045   0.344  -1.889  0.00  0.00     0.003 A 
ENDROOT
TORSDOF 0
ENDMDL
