MODEL 1
REMARK minimizedAffinity 10.07304
REMARK minimizedRMSD -1
REMARK  0 active torsions:
REMARK  status: ('A' for Active; 'I' for Inactive)
ROOT
ATOM      1  C4' PXY d   1       0.571  -0.733   1.152  0.00  0.00     0.077 C 
ATOM      2  C1' PXY d   1       5.999  -0.960   3.126  0.00  0.00     0.077 C 
ATOM      3  C1  PXY d   1       4.572  -0.909   2.617  0.00  0.00    -0.082 A 
ATOM      4  C2  PXY d   1       4.329  -0.465   1.395  0.00  0.00     0.003 A 
ATOM      5  C3  PXY d   1       3.042  -0.383   0.930  0.00  0.00     0.003 A 
ATOM      6  C4  PXY d   1       1.997  -0.810   1.705  0.00  0.00    -0.082 A 
ATOM      7  C5  PXY d   1       2.238  -1.275   2.949  0.00  0.00     0.003 A 
ATOM      8  C6  PXY d   1       3.548  -1.312   3.417  0.00  0.00     0.003 A 
ENDROOT
TORSDOF 0
ENDMDL
