MODEL 1
REMARK minimizedAffinity 1.18150961
REMARK minimizedRMSD -1
REMARK  0 active torsions:
REMARK  status: ('A' for Active; 'I' for Inactive)
ROOT
ATOM      1  C4' PXY d   1      -2.052  -5.562  -4.801  0.00  0.00     0.077 C 
ATOM      2  C1' PXY d   1       3.711  -5.185  -5.055  0.00  0.00     0.077 C 
ATOM      3  C1  PXY d   1       2.199  -5.285  -5.002  0.00  0.00    -0.082 A 
ATOM      4  C2  PXY d   1       1.545  -4.765  -3.976  0.00  0.00     0.003 A 
ATOM      5  C3  PXY d   1       0.181  -4.875  -3.895  0.00  0.00     0.003 A 
ATOM      6  C4  PXY d   1      -0.526  -5.476  -4.902  0.00  0.00    -0.082 A 
ATOM      7  C5  PXY d   1       0.133  -6.000  -5.957  0.00  0.00     0.003 A 
ATOM      8  C6  PXY d   1       1.521  -5.914  -6.000  0.00  0.00     0.003 A 
ENDROOT
TORSDOF 0
ENDMDL
