MODEL 1
REMARK minimizedAffinity -4.51773024
REMARK minimizedRMSD -1
REMARK  0 active torsions:
REMARK  status: ('A' for Active; 'I' for Inactive)
ROOT
ATOM      1  C4' PXY d   1      -1.769  -0.027   0.141  0.00  0.00     0.077 C 
ATOM      2  C1' PXY d   1       3.528  -0.045  -2.171  0.00  0.00     0.077 C 
ATOM      3  C1  PXY d   1       2.140  -0.028  -1.563  0.00  0.00    -0.082 A 
ATOM      4  C2  PXY d   1       1.652  -1.129  -1.015  0.00  0.00     0.003 A 
ATOM      5  C3  PXY d   1       0.385  -1.139  -0.489  0.00  0.00     0.003 A 
ATOM      6  C4  PXY d   1      -0.369   0.004  -0.476  0.00  0.00    -0.082 A 
ATOM      7  C5  PXY d   1       0.127   1.134  -1.024  0.00  0.00     0.003 A 
ATOM      8  C6  PXY d   1       1.398   1.113  -1.589  0.00  0.00     0.003 A 
ENDROOT
TORSDOF 0
ENDMDL
