MODEL 1
REMARK minimizedAffinity -3.29075527
REMARK minimizedRMSD -1
REMARK  0 active torsions:
REMARK  status: ('A' for Active; 'I' for Inactive)
ROOT
ATOM      1  C4' PXY d   1       3.433  -0.761  -1.772  0.00  0.00     0.077 C 
ATOM      2  C1' PXY d   1      -1.545   0.019   1.062  0.00  0.00     0.077 C 
ATOM      3  C1  PXY d   1      -0.240  -0.198   0.321  0.00  0.00    -0.082 A 
ATOM      4  C2  PXY d   1       0.629   0.794   0.222  0.00  0.00     0.003 A 
ATOM      5  C3  PXY d   1       1.800   0.624  -0.471  0.00  0.00     0.003 A 
ATOM      6  C4  PXY d   1       2.108  -0.589  -1.025  0.00  0.00    -0.082 A 
ATOM      7  C5  PXY d   1       1.230  -1.610  -0.920  0.00  0.00     0.003 A 
ATOM      8  C6  PXY d   1       0.029  -1.405  -0.247  0.00  0.00     0.003 A 
ENDROOT
TORSDOF 0
ENDMDL
