MODEL 1
REMARK minimizedAffinity -2.79349232
REMARK minimizedRMSD -1
REMARK  0 active torsions:
REMARK  status: ('A' for Active; 'I' for Inactive)
ROOT
ATOM      1  C4' PXY d   1      -0.867  -2.909  -0.220  0.00  0.00     0.077 C 
ATOM      2  C1' PXY d   1       1.891   2.131  -0.854  0.00  0.00     0.077 C 
ATOM      3  C1  PXY d   1       1.160   0.815  -0.679  0.00  0.00    -0.082 A 
ATOM      4  C2  PXY d   1       1.759  -0.316  -1.016  0.00  0.00     0.003 A 
ATOM      5  C3  PXY d   1       1.101  -1.512  -0.894  0.00  0.00     0.003 A 
ATOM      6  C4  PXY d   1      -0.164  -1.557  -0.371  0.00  0.00    -0.082 A 
ATOM      7  C5  PXY d   1      -0.777  -0.409  -0.015  0.00  0.00     0.003 A 
ATOM      8  C6  PXY d   1      -0.107   0.799  -0.185  0.00  0.00     0.003 A 
ENDROOT
TORSDOF 0
ENDMDL
