MODEL 1
REMARK minimizedAffinity -1.9276942
REMARK minimizedRMSD -1
REMARK  0 active torsions:
REMARK  status: ('A' for Active; 'I' for Inactive)
ROOT
ATOM      1  C4' PXY d   1       1.185  -2.315  -2.515  0.00  0.00     0.077 C 
ATOM      2  C1' PXY d   1       1.302   1.591   1.745  0.00  0.00     0.077 C 
ATOM      3  C1  PXY d   1       1.263   0.559   0.634  0.00  0.00    -0.082 A 
ATOM      4  C2  PXY d   1       2.292   0.445  -0.189  0.00  0.00     0.003 A 
ATOM      5  C3  PXY d   1       2.260  -0.461  -1.218  0.00  0.00     0.003 A 
ATOM      6  C4  PXY d   1       1.185  -1.294  -1.374  0.00  0.00    -0.082 A 
ATOM      7  C5  PXY d   1       0.135  -1.191  -0.532  0.00  0.00     0.003 A 
ATOM      8  C6  PXY d   1       0.170  -0.237   0.481  0.00  0.00     0.003 A 
ENDROOT
TORSDOF 0
ENDMDL
