MODEL 1
REMARK minimizedAffinity -2.66076899
REMARK minimizedRMSD -1
REMARK  0 active torsions:
REMARK  status: ('A' for Active; 'I' for Inactive)
ROOT
ATOM      1  C4' PXY d   1      -5.628   6.000   5.871  0.00  0.00     0.077 C 
ATOM      2  C1' PXY d   1      -1.538   2.755   3.391  0.00  0.00     0.077 C 
ATOM      3  C1  PXY d   1      -2.609   3.615   4.032  0.00  0.00    -0.082 A 
ATOM      4  C2  PXY d   1      -2.820   3.534   5.335  0.00  0.00     0.003 A 
ATOM      5  C3  PXY d   1      -3.807   4.281   5.926  0.00  0.00     0.003 A 
ATOM      6  C4  PXY d   1      -4.550   5.158   5.183  0.00  0.00    -0.082 A 
ATOM      7  C5  PXY d   1      -4.334   5.254   3.854  0.00  0.00     0.003 A 
ATOM      8  C6  PXY d   1      -3.356   4.457   3.267  0.00  0.00     0.003 A 
ENDROOT
TORSDOF 0
ENDMDL
