MODEL 1
REMARK minimizedAffinity -2.99398661
REMARK minimizedRMSD -1
REMARK  0 active torsions:
REMARK  status: ('A' for Active; 'I' for Inactive)
ROOT
ATOM      1  C4' PXY d   1      -1.897  -0.000   0.528  0.00  0.00     0.077 C 
ATOM      2  C1' PXY d   1       3.536  -0.699  -1.317  0.00  0.00     0.077 C 
ATOM      3  C1  PXY d   1       2.107  -0.524  -0.842  0.00  0.00    -0.082 A 
ATOM      4  C2  PXY d   1       1.752   0.597  -0.235  0.00  0.00     0.003 A 
ATOM      5  C3  PXY d   1       0.472   0.758   0.229  0.00  0.00     0.003 A 
ATOM      6  C4  PXY d   1      -0.468  -0.216   0.023  0.00  0.00    -0.082 A 
ATOM      7  C5  PXY d   1      -0.116  -1.358  -0.605  0.00  0.00     0.003 A 
ATOM      8  C6  PXY d   1       1.199  -1.519  -1.032  0.00  0.00     0.003 A 
ENDROOT
TORSDOF 0
ENDMDL
