MODEL 1
REMARK minimizedAffinity -4.31701803
REMARK minimizedRMSD -1
REMARK  0 active torsions:
REMARK  status: ('A' for Active; 'I' for Inactive)
ROOT
ATOM      1  C4' PXY d   1      -2.175  -0.074   1.440  0.00  0.00     0.077 C 
ATOM      2  C1' PXY d   1       2.908  -0.339  -1.299  0.00  0.00     0.077 C 
ATOM      3  C1  PXY d   1       1.572  -0.280  -0.586  0.00  0.00    -0.082 A 
ATOM      4  C2  PXY d   1       1.081   0.890  -0.211  0.00  0.00     0.003 A 
ATOM      5  C3  PXY d   1      -0.111   0.958   0.463  0.00  0.00     0.003 A 
ATOM      6  C4  PXY d   1      -0.834  -0.179   0.709  0.00  0.00    -0.082 A 
ATOM      7  C5  PXY d   1      -0.345  -1.376   0.320  0.00  0.00     0.003 A 
ATOM      8  C6  PXY d   1       0.887  -1.427  -0.326  0.00  0.00     0.003 A 
ENDROOT
TORSDOF 0
ENDMDL
