MODEL 1
REMARK minimizedAffinity -4.27013493
REMARK minimizedRMSD -1
REMARK  0 active torsions:
REMARK  status: ('A' for Active; 'I' for Inactive)
ROOT
ATOM      1  C4' PXY d   1       2.811  -0.633  -1.778  0.00  0.00     0.077 C 
ATOM      2  C1' PXY d   1      -2.267  -0.032   0.920  0.00  0.00     0.077 C 
ATOM      3  C1  PXY d   1      -0.933  -0.201   0.219  0.00  0.00    -0.082 A 
ATOM      4  C2  PXY d   1      -0.319   0.859  -0.282  0.00  0.00     0.003 A 
ATOM      5  C3  PXY d   1       0.872   0.720  -0.947  0.00  0.00     0.003 A 
ATOM      6  C4  PXY d   1       1.467  -0.509  -1.054  0.00  0.00    -0.082 A 
ATOM      7  C5  PXY d   1       0.852  -1.593  -0.536  0.00  0.00     0.003 A 
ATOM      8  C6  PXY d   1      -0.377  -1.437   0.099  0.00  0.00     0.003 A 
ENDROOT
TORSDOF 0
ENDMDL
