MODEL 1
REMARK minimizedAffinity -4.74265671
REMARK minimizedRMSD -1
REMARK  0 active torsions:
REMARK  status: ('A' for Active; 'I' for Inactive)
ROOT
ATOM      1  C4' PXY d   1      -1.962   0.077   0.900  0.00  0.00     0.077 C 
ATOM      2  C1' PXY d   1       3.214  -0.178  -1.660  0.00  0.00     0.077 C 
ATOM      3  C1  PXY d   1       1.860  -0.100  -0.982  0.00  0.00    -0.082 A 
ATOM      4  C2  PXY d   1       1.146  -1.202  -0.820  0.00  0.00     0.003 A 
ATOM      5  C3  PXY d   1      -0.094  -1.145  -0.238  0.00  0.00     0.003 A 
ATOM      6  C4  PXY d   1      -0.586   0.044   0.230  0.00  0.00    -0.082 A 
ATOM      7  C5  PXY d   1       0.142   1.171   0.078  0.00  0.00     0.003 A 
ATOM      8  C6  PXY d   1       1.381   1.098  -0.552  0.00  0.00     0.003 A 
ENDROOT
TORSDOF 0
ENDMDL
