MODEL 1
REMARK minimizedAffinity -5.08252859
REMARK minimizedRMSD -1
REMARK  0 active torsions:
REMARK  status: ('A' for Active; 'I' for Inactive)
ROOT
ATOM      1  C4' PXY d   1      -1.991   0.374   1.258  0.00  0.00     0.077 C 
ATOM      2  C1' PXY d   1       2.770  -0.873  -1.774  0.00  0.00     0.077 C 
ATOM      3  C1  PXY d   1       1.515  -0.556  -0.984  0.00  0.00    -0.082 A 
ATOM      4  C2  PXY d   1       1.302   0.680  -0.563  0.00  0.00     0.003 A 
ATOM      5  C3  PXY d   1       0.188   0.977   0.179  0.00  0.00     0.003 A 
ATOM      6  C4  PXY d   1      -0.743   0.010   0.449  0.00  0.00    -0.082 A 
ATOM      7  C5  PXY d   1      -0.538  -1.251   0.014  0.00  0.00     0.003 A 
ATOM      8  C6  PXY d   1       0.619  -1.541  -0.703  0.00  0.00     0.003 A 
ENDROOT
TORSDOF 0
ENDMDL
