MODEL 1
REMARK minimizedAffinity -5.5788517
REMARK minimizedRMSD -1
REMARK  0 active torsions:
REMARK  status: ('A' for Active; 'I' for Inactive)
ROOT
ATOM      1  C4' PXY d   1      -2.064   0.070   1.962  0.00  0.00     0.077 C 
ATOM      2  C1' PXY d   1       2.538  -0.170  -1.528  0.00  0.00     0.077 C 
ATOM      3  C1  PXY d   1       1.326  -0.118  -0.618  0.00  0.00    -0.082 A 
ATOM      4  C2  PXY d   1       0.985   1.027  -0.049  0.00  0.00     0.003 A 
ATOM      5  C3  PXY d   1      -0.089   1.085   0.802  0.00  0.00     0.003 A 
ATOM      6  C4  PXY d   1      -0.854  -0.028   1.030  0.00  0.00    -0.082 A 
ATOM      7  C5  PXY d   1      -0.519  -1.197   0.444  0.00  0.00     0.003 A 
ATOM      8  C6  PXY d   1       0.600  -1.244  -0.384  0.00  0.00     0.003 A 
ENDROOT
TORSDOF 0
ENDMDL
