MODEL 1
REMARK minimizedAffinity -3.55866432
REMARK minimizedRMSD -1
REMARK  0 active torsions:
REMARK  status: ('A' for Active; 'I' for Inactive)
ROOT
ATOM      1  C4' PXY d   1       2.860  -0.552  -1.232  0.00  0.00     0.077 C 
ATOM      2  C1' PXY d   1      -2.781   0.492  -0.518  0.00  0.00     0.077 C 
ATOM      3  C1  PXY d   1      -1.300   0.229  -0.713  0.00  0.00    -0.082 A 
ATOM      4  C2  PXY d   1      -0.827  -0.996  -0.549  0.00  0.00     0.003 A 
ATOM      5  C3  PXY d   1       0.514  -1.245  -0.690  0.00  0.00     0.003 A 
ATOM      6  C4  PXY d   1       1.371  -0.242  -1.055  0.00  0.00    -0.082 A 
ATOM      7  C5  PXY d   1       0.894   1.008  -1.234  0.00  0.00     0.003 A 
ATOM      8  C6  PXY d   1      -0.464   1.249  -1.046  0.00  0.00     0.003 A 
ENDROOT
TORSDOF 0
ENDMDL
