MODEL 1
REMARK minimizedAffinity -3.15475059
REMARK minimizedRMSD -1
REMARK  0 active torsions:
REMARK  status: ('A' for Active; 'I' for Inactive)
ROOT
ATOM      1  C4' PXY d   1      -1.746   0.397   1.146  0.00  0.00     0.077 C 
ATOM      2  C1' PXY d   1       3.200  -0.658  -1.654  0.00  0.00     0.077 C 
ATOM      3  C1  PXY d   1       1.898  -0.392  -0.925  0.00  0.00    -0.082 A 
ATOM      4  C2  PXY d   1       1.595   0.842  -0.556  0.00  0.00     0.003 A 
ATOM      5  C3  PXY d   1       0.437   1.095   0.133  0.00  0.00     0.003 A 
ATOM      6  C4  PXY d   1      -0.446   0.084   0.399  0.00  0.00    -0.082 A 
ATOM      7  C5  PXY d   1      -0.150  -1.176   0.016  0.00  0.00     0.003 A 
ATOM      8  C6  PXY d   1       1.050  -1.419  -0.645  0.00  0.00     0.003 A 
ENDROOT
TORSDOF 0
ENDMDL
