MODEL 1
REMARK minimizedAffinity -4.25270224
REMARK minimizedRMSD -1
REMARK  0 active torsions:
REMARK  status: ('A' for Active; 'I' for Inactive)
ROOT
ATOM      1  C4' PXY d   1      -2.010   0.242   1.036  0.00  0.00     0.077 C 
ATOM      2  C1' PXY d   1       2.927  -0.858  -1.762  0.00  0.00     0.077 C 
ATOM      3  C1  PXY d   1       1.627  -0.580  -1.033  0.00  0.00    -0.082 A 
ATOM      4  C2  PXY d   1       1.304   0.664  -0.722  0.00  0.00     0.003 A 
ATOM      5  C3  PXY d   1       0.148   0.930  -0.034  0.00  0.00     0.003 A 
ATOM      6  C4  PXY d   1      -0.713  -0.084   0.292  0.00  0.00    -0.082 A 
ATOM      7  C5  PXY d   1      -0.395  -1.355  -0.031  0.00  0.00     0.003 A 
ATOM      8  C6  PXY d   1       0.803  -1.608  -0.693  0.00  0.00     0.003 A 
ENDROOT
TORSDOF 0
ENDMDL
