MODEL 1
REMARK minimizedAffinity 0.430226803
REMARK minimizedRMSD -1
REMARK  0 active torsions:
REMARK  status: ('A' for Active; 'I' for Inactive)
ROOT
ATOM      1  C4' PXY d   1      -2.763  -0.666   3.953  0.00  0.00     0.077 C 
ATOM      2  C1' PXY d   1      -0.476   1.389  -0.941  0.00  0.00     0.077 C 
ATOM      3  C1  PXY d   1      -1.067   0.858   0.349  0.00  0.00    -0.082 A 
ATOM      4  C2  PXY d   1      -1.703  -0.303   0.348  0.00  0.00     0.003 A 
ATOM      5  C3  PXY d   1      -2.271  -0.783   1.499  0.00  0.00     0.003 A 
ATOM      6  C4  PXY d   1      -2.142  -0.095   2.676  0.00  0.00    -0.082 A 
ATOM      7  C5  PXY d   1      -1.486   1.085   2.687  0.00  0.00     0.003 A 
ATOM      8  C6  PXY d   1      -0.952   1.575   1.499  0.00  0.00     0.003 A 
ENDROOT
TORSDOF 0
ENDMDL
