MODEL 1
REMARK minimizedAffinity -3.74472308
REMARK minimizedRMSD -1
REMARK  0 active torsions:
REMARK  status: ('A' for Active; 'I' for Inactive)
ROOT
ATOM      1  C4' PXY d   1      -2.674  -0.412   2.252  0.00  0.00     0.077 C 
ATOM      2  C1' PXY d   1       1.703   0.432  -1.428  0.00  0.00     0.077 C 
ATOM      3  C1  PXY d   1       0.557   0.197  -0.464  0.00  0.00    -0.082 A 
ATOM      4  C2  PXY d   1      -0.366   1.133  -0.305  0.00  0.00     0.003 A 
ATOM      5  C3  PXY d   1      -1.392   0.950   0.586  0.00  0.00     0.003 A 
ATOM      6  C4  PXY d   1      -1.504  -0.223   1.283  0.00  0.00    -0.082 A 
ATOM      7  C5  PXY d   1      -0.573  -1.186   1.118  0.00  0.00     0.003 A 
ATOM      8  C6  PXY d   1       0.484  -0.965   0.240  0.00  0.00     0.003 A 
ENDROOT
TORSDOF 0
ENDMDL
