MODEL 1
REMARK minimizedAffinity -3.91102982
REMARK minimizedRMSD -1
REMARK  0 active torsions:
REMARK  status: ('A' for Active; 'I' for Inactive)
ROOT
ATOM      1  C4' PXY d   1      -2.040   0.858   1.134  0.00  0.00     0.077 C 
ATOM      2  C1' PXY d   1       2.957  -0.575  -1.393  0.00  0.00     0.077 C 
ATOM      3  C1  PXY d   1       1.647  -0.188  -0.737  0.00  0.00    -0.082 A 
ATOM      4  C2  PXY d   1       1.314  -0.724   0.426  0.00  0.00     0.003 A 
ATOM      5  C3  PXY d   1       0.118  -0.410   1.018  0.00  0.00     0.003 A 
ATOM      6  C4  PXY d   1      -0.722   0.504   0.440  0.00  0.00    -0.082 A 
ATOM      7  C5  PXY d   1      -0.385   1.063  -0.742  0.00  0.00     0.003 A 
ATOM      8  C6  PXY d   1       0.814   0.699  -1.347  0.00  0.00     0.003 A 
ENDROOT
TORSDOF 0
ENDMDL
