MODEL 1
REMARK minimizedAffinity -1.84876084
REMARK minimizedRMSD -1
REMARK  0 active torsions:
REMARK  status: ('A' for Active; 'I' for Inactive)
ROOT
ATOM      1  C4' PXY d   1       1.852  -1.377  -1.822  0.00  0.00     0.077 C 
ATOM      2  C1' PXY d   1      -1.793   1.257   1.810  0.00  0.00     0.077 C 
ATOM      3  C1  PXY d   1      -0.828   0.576   0.861  0.00  0.00    -0.082 A 
ATOM      4  C2  PXY d   1      -1.298  -0.178  -0.120  0.00  0.00     0.003 A 
ATOM      5  C3  PXY d   1      -0.439  -0.828  -0.969  0.00  0.00     0.003 A 
ATOM      6  C4  PXY d   1       0.914  -0.662  -0.845  0.00  0.00    -0.082 A 
ATOM      7  C5  PXY d   1       1.402   0.114   0.147  0.00  0.00     0.003 A 
ATOM      8  C6  PXY d   1       0.514   0.732   1.023  0.00  0.00     0.003 A 
ENDROOT
TORSDOF 0
ENDMDL
