MODEL 1
REMARK minimizedAffinity -2.49585629
REMARK minimizedRMSD -1
REMARK  0 active torsions:
REMARK  status: ('A' for Active; 'I' for Inactive)
ROOT
ATOM      1  C4' PXY d   1      -2.791   0.595   1.744  0.00  0.00     0.077 C 
ATOM      2  C1' PXY d   1       1.793  -0.381  -1.640  0.00  0.00     0.077 C 
ATOM      3  C1  PXY d   1       0.593  -0.112  -0.753  0.00  0.00    -0.082 A 
ATOM      4  C2  PXY d   1       0.132  -1.072   0.032  0.00  0.00     0.003 A 
ATOM      5  C3  PXY d   1      -0.971  -0.856   0.817  0.00  0.00     0.003 A 
ATOM      6  C4  PXY d   1      -1.576   0.372   0.839  0.00  0.00    -0.082 A 
ATOM      7  C5  PXY d   1      -1.105   1.360   0.049  0.00  0.00     0.003 A 
ATOM      8  C6  PXY d   1      -0.009   1.108  -0.771  0.00  0.00     0.003 A 
ENDROOT
TORSDOF 0
ENDMDL
