MODEL 1
REMARK minimizedAffinity 15.6065826
REMARK minimizedRMSD -1
REMARK  0 active torsions:
REMARK  status: ('A' for Active; 'I' for Inactive)
ROOT
ATOM      1  C1  DEN d   1       6.000   4.638  -3.579  0.00  0.00     0.130 A 
ATOM      2  C2  DEN d   1       5.940   5.906  -2.856  0.00  0.00    -0.031 A 
ATOM      3  C3  DEN d   1       5.898   5.605  -1.410  0.00  0.00     0.027 A 
ATOM      4  C4  DEN d   1       5.924   3.312  -0.229  0.00  0.00     0.027 A 
ATOM      5  C5  DEN d   1       5.957   1.949  -0.424  0.00  0.00    -0.003 A 
ATOM      6  C6  DEN d   1       5.972   1.391  -1.674  0.00  0.00     0.001 A 
ATOM      7  C7  DEN d   1       5.999   2.201  -2.779  0.00  0.00     0.017 A 
ATOM      8  C8  DEN d   1       5.959   3.576  -2.591  0.00  0.00    -0.094 A 
ATOM      9  C9  DEN d   1       5.957   4.121  -1.318  0.00  0.00    -0.072 A 
ENDROOT
TORSDOF 0
ENDMDL
