MODEL 1
REMARK minimizedAffinity 14.3817015
REMARK minimizedRMSD -1
REMARK  0 active torsions:
REMARK  status: ('A' for Active; 'I' for Inactive)
ROOT
ATOM      1  C1  DEN d   1      -0.834  -3.898  -2.759  0.00  0.00     0.130 A 
ATOM      2  C2  DEN d   1      -0.182  -2.648  -2.377  0.00  0.00    -0.031 A 
ATOM      3  C3  DEN d   1      -0.794  -1.556  -3.161  0.00  0.00     0.027 A 
ATOM      4  C4  DEN d   1      -2.682  -1.677  -4.913  0.00  0.00     0.027 A 
ATOM      5  C5  DEN d   1      -3.541  -2.522  -5.581  0.00  0.00    -0.003 A 
ATOM      6  C6  DEN d   1      -3.535  -3.877  -5.381  0.00  0.00     0.001 A 
ATOM      7  C7  DEN d   1      -2.683  -4.423  -4.458  0.00  0.00     0.017 A 
ATOM      8  C8  DEN d   1      -1.809  -3.579  -3.787  0.00  0.00    -0.094 A 
ATOM      9  C9  DEN d   1      -1.838  -2.210  -3.994  0.00  0.00    -0.072 A 
ENDROOT
TORSDOF 0
ENDMDL
