MODEL 1
REMARK minimizedAffinity 25.4935665
REMARK minimizedRMSD -1
REMARK  0 active torsions:
REMARK  status: ('A' for Active; 'I' for Inactive)
ROOT
ATOM      1  C1  DEN d   1      -4.580   1.116   0.814  0.00  0.00     0.130 A 
ATOM      2  C2  DEN d   1      -3.212   1.615   0.703  0.00  0.00    -0.031 A 
ATOM      3  C3  DEN d   1      -2.647   1.120  -0.568  0.00  0.00     0.027 A 
ATOM      4  C4  DEN d   1      -3.753  -0.359  -2.369  0.00  0.00     0.027 A 
ATOM      5  C5  DEN d   1      -4.899  -1.040  -2.713  0.00  0.00    -0.003 A 
ATOM      6  C6  DEN d   1      -5.999  -1.079  -1.897  0.00  0.00     0.001 A 
ATOM      7  C7  DEN d   1      -5.991  -0.386  -0.715  0.00  0.00     0.017 A 
ATOM      8  C8  DEN d   1      -4.836   0.298  -0.358  0.00  0.00    -0.094 A 
ATOM      9  C9  DEN d   1      -3.740   0.334  -1.202  0.00  0.00    -0.072 A 
ENDROOT
TORSDOF 0
ENDMDL
