MODEL 1
REMARK minimizedAffinity 11.3026352
REMARK minimizedRMSD -1
REMARK  0 active torsions:
REMARK  status: ('A' for Active; 'I' for Inactive)
ROOT
ATOM      1  C1  DEN d   1       4.771  -2.251   3.071  0.00  0.00     0.130 A 
ATOM      2  C2  DEN d   1       6.000  -1.529   3.387  0.00  0.00    -0.031 A 
ATOM      3  C3  DEN d   1       6.000  -0.268   2.618  0.00  0.00     0.027 A 
ATOM      4  C4  DEN d   1       4.223   0.632   0.980  0.00  0.00     0.027 A 
ATOM      5  C5  DEN d   1       3.011   0.367   0.381  0.00  0.00    -0.003 A 
ATOM      6  C6  DEN d   1       2.323  -0.795   0.609  0.00  0.00     0.001 A 
ATOM      7  C7  DEN d   1       2.820  -1.716   1.493  0.00  0.00     0.017 A 
ATOM      8  C8  DEN d   1       4.045  -1.459   2.095  0.00  0.00    -0.094 A 
ATOM      9  C9  DEN d   1       4.719  -0.273   1.860  0.00  0.00    -0.072 A 
ENDROOT
TORSDOF 0
ENDMDL
