MODEL 1
REMARK minimizedAffinity 6.68690538
REMARK minimizedRMSD -1
REMARK  0 active torsions:
REMARK  status: ('A' for Active; 'I' for Inactive)
ROOT
ATOM      1  C1  DEN d   1       1.040   3.770   2.635  0.00  0.00     0.130 A 
ATOM      2  C2  DEN d   1       1.949   3.240   3.648  0.00  0.00    -0.031 A 
ATOM      3  C3  DEN d   1       2.710   2.130   3.041  0.00  0.00     0.027 A 
ATOM      4  C4  DEN d   1       2.573   1.187   0.644  0.00  0.00     0.027 A 
ATOM      5  C5  DEN d   1       1.940   1.303  -0.573  0.00  0.00    -0.003 A 
ATOM      6  C6  DEN d   1       0.946   2.220  -0.795  0.00  0.00     0.001 A 
ATOM      7  C7  DEN d   1       0.588   3.087   0.204  0.00  0.00     0.017 A 
ATOM      8  C8  DEN d   1       1.217   2.971   1.436  0.00  0.00    -0.094 A 
ATOM      9  C9  DEN d   1       2.228   2.046   1.637  0.00  0.00    -0.072 A 
ENDROOT
TORSDOF 0
ENDMDL
