MODEL 1
REMARK minimizedAffinity 6.5465765
REMARK minimizedRMSD -1
REMARK  0 active torsions:
REMARK  status: ('A' for Active; 'I' for Inactive)
ROOT
ATOM      1  C1  DEN d   1       0.306   2.217   4.974  0.00  0.00     0.130 A 
ATOM      2  C2  DEN d   1       1.420   1.650   5.729  0.00  0.00    -0.031 A 
ATOM      3  C3  DEN d   1       2.658   1.874   4.955  0.00  0.00     0.027 A 
ATOM      4  C4  DEN d   1       2.957   3.043   2.676  0.00  0.00     0.027 A 
ATOM      5  C5  DEN d   1       2.299   3.676   1.644  0.00  0.00    -0.003 A 
ATOM      6  C6  DEN d   1       0.939   3.835   1.634  0.00  0.00     0.001 A 
ATOM      7  C7  DEN d   1       0.196   3.395   2.697  0.00  0.00     0.017 A 
ATOM      8  C8  DEN d   1       0.851   2.750   3.738  0.00  0.00    -0.094 A 
ATOM      9  C9  DEN d   1       2.228   2.610   3.736  0.00  0.00    -0.072 A 
ENDROOT
TORSDOF 0
ENDMDL
