MODEL 1
REMARK minimizedAffinity 1.16750133
REMARK minimizedRMSD -1
REMARK  0 active torsions:
REMARK  status: ('A' for Active; 'I' for Inactive)
ROOT
ATOM      1  C1  DEN d   1       3.013   1.491  -0.229  0.00  0.00     0.130 A 
ATOM      2  C2  DEN d   1       3.477   2.085   1.022  0.00  0.00    -0.031 A 
ATOM      3  C3  DEN d   1       4.735   2.807   0.745  0.00  0.00     0.027 A 
ATOM      4  C4  DEN d   1       6.000   3.066  -1.488  0.00  0.00     0.027 A 
ATOM      5  C5  DEN d   1       6.000   2.730  -2.824  0.00  0.00    -0.003 A 
ATOM      6  C6  DEN d   1       5.030   1.935  -3.376  0.00  0.00     0.001 A 
ATOM      7  C7  DEN d   1       3.995   1.488  -2.599  0.00  0.00     0.017 A 
ATOM      8  C8  DEN d   1       3.992   1.817  -1.250  0.00  0.00    -0.094 A 
ATOM      9  C9  DEN d   1       4.975   2.631  -0.713  0.00  0.00    -0.072 A 
ENDROOT
TORSDOF 0
ENDMDL
