MODEL 1
REMARK minimizedAffinity 8.60356617
REMARK minimizedRMSD -1
REMARK  0 active torsions:
REMARK  status: ('A' for Active; 'I' for Inactive)
ROOT
ATOM      1  C1  DEN d   1       4.214   0.383   2.997  0.00  0.00     0.130 A 
ATOM      2  C2  DEN d   1       3.634  -0.871   3.469  0.00  0.00    -0.031 A 
ATOM      3  C3  DEN d   1       2.809  -1.431   2.379  0.00  0.00     0.027 A 
ATOM      4  C4  DEN d   1       2.380  -0.484   0.018  0.00  0.00     0.027 A 
ATOM      5  C5  DEN d   1       2.649   0.561  -0.838  0.00  0.00    -0.003 A 
ATOM      6  C6  DEN d   1       3.424   1.628  -0.467  0.00  0.00     0.001 A 
ATOM      7  C7  DEN d   1       3.995   1.652   0.778  0.00  0.00     0.017 A 
ATOM      8  C8  DEN d   1       3.723   0.605   1.649  0.00  0.00    -0.094 A 
ATOM      9  C9  DEN d   1       2.947  -0.470   1.251  0.00  0.00    -0.072 A 
ENDROOT
TORSDOF 0
ENDMDL
