MODEL 1
REMARK minimizedAffinity 6.78801394
REMARK minimizedRMSD -1
REMARK  0 active torsions:
REMARK  status: ('A' for Active; 'I' for Inactive)
ROOT
ATOM      1  C1  DEN d   1       2.358   0.149  -1.098  0.00  0.00     0.130 A 
ATOM      2  C2  DEN d   1       2.127  -0.370   0.248  0.00  0.00    -0.031 A 
ATOM      3  C3  DEN d   1       3.052   0.320   1.169  0.00  0.00     0.027 A 
ATOM      4  C4  DEN d   1       4.809   2.135   0.646  0.00  0.00     0.027 A 
ATOM      5  C5  DEN d   1       5.379   2.889  -0.356  0.00  0.00    -0.003 A 
ATOM      6  C6  DEN d   1       5.009   2.760  -1.668  0.00  0.00     0.001 A 
ATOM      7  C7  DEN d   1       4.010   1.888  -2.009  0.00  0.00     0.017 A 
ATOM      8  C8  DEN d   1       3.435   1.118  -1.006  0.00  0.00    -0.094 A 
ATOM      9  C9  DEN d   1       3.814   1.272   0.316  0.00  0.00    -0.072 A 
ENDROOT
TORSDOF 0
ENDMDL
