MODEL 1
REMARK minimizedAffinity -6.14980459
REMARK minimizedRMSD -1
REMARK  3 active torsions:
REMARK  status: ('A' for Active; 'I' for Inactive)
REMARK    1  A    between atoms: C3'_2  and  C2'_3 
REMARK    2  A    between atoms: C2'_3  and  C1'_4 
REMARK    3  A    between atoms: C1'_4  and  C1_5 
ROOT
ATOM      1  C1  N4B d   1      -1.490   0.116   1.333  0.00  0.00    -0.075 A 
ATOM      2  C2  N4B d   1      -2.133  -0.932   2.027  0.00  0.00     0.002 A 
ATOM      3  C3  N4B d   1      -2.420  -0.797   3.363  0.00  0.00     0.002 A 
ATOM      4  C4  N4B d   1      -2.057   0.365   4.028  0.00  0.00    -0.004 A 
ATOM      5  C5  N4B d   1      -1.460   1.383   3.345  0.00  0.00     0.002 A 
ATOM      6  C6  N4B d   1      -1.169   1.263   2.000  0.00  0.00     0.002 A 
ENDROOT
BRANCH   1   7
ATOM      7  C1' N4B d   1      -1.079  -0.020  -0.108  0.00  0.00     0.057 C 
BRANCH   7   8
ATOM      8  C2' N4B d   1       0.387   0.380  -0.250  0.00  0.00     0.009 C 
BRANCH   8   9
ATOM      9  C3' N4B d   1       1.323  -0.780   0.042  0.00  0.00     0.004 C 
ATOM     10  C4' N4B d   1       1.482  -1.707  -1.126  0.00  0.00     0.003 C 
ENDBRANCH   8   9
ENDBRANCH   7   8
ENDBRANCH   1   7
TORSDOF 3
ENDMDL
