MODEL 1
REMARK minimizedAffinity -2.89105773
REMARK minimizedRMSD -1
REMARK  3 active torsions:
REMARK  status: ('A' for Active; 'I' for Inactive)
REMARK    1  A    between atoms: C3'_2  and  C2'_3 
REMARK    2  A    between atoms: C2'_3  and  C1'_4 
REMARK    3  A    between atoms: C1'_4  and  C1_5 
ROOT
ATOM      1  C1  N4B d   1      -1.600  -0.290   0.231  0.00  0.00    -0.075 A 
ATOM      2  C2  N4B d   1      -1.836   0.925  -0.450  0.00  0.00     0.002 A 
ATOM      3  C3  N4B d   1      -0.851   1.474  -1.234  0.00  0.00     0.002 A 
ATOM      4  C4  N4B d   1       0.377   0.839  -1.338  0.00  0.00    -0.004 A 
ATOM      5  C5  N4B d   1       0.588  -0.347  -0.698  0.00  0.00     0.002 A 
ATOM      6  C6  N4B d   1      -0.394  -0.913   0.091  0.00  0.00     0.002 A 
ENDROOT
BRANCH   1   7
ATOM      7  C1' N4B d   1      -2.616  -0.884   1.168  0.00  0.00     0.057 C 
BRANCH   7   8
ATOM      8  C2' N4B d   1      -2.144  -0.690   2.606  0.00  0.00     0.009 C 
BRANCH   8   9
ATOM      9  C3' N4B d   1      -2.986  -1.481   3.592  0.00  0.00     0.004 C 
ATOM     10  C4' N4B d   1      -3.903  -2.458   2.920  0.00  0.00     0.003 C 
ENDBRANCH   8   9
ENDBRANCH   7   8
ENDBRANCH   1   7
TORSDOF 3
ENDMDL
