MODEL 1
REMARK minimizedAffinity -6.33937454
REMARK minimizedRMSD -1
REMARK  3 active torsions:
REMARK  status: ('A' for Active; 'I' for Inactive)
REMARK    1  A    between atoms: C3'_2  and  C2'_3 
REMARK    2  A    between atoms: C2'_3  and  C1'_4 
REMARK    3  A    between atoms: C1'_4  and  C1_5 
ROOT
ATOM      1  C1  N4B d   1       0.380   0.221  -0.735  0.00  0.00    -0.075 A 
ATOM      2  C2  N4B d   1       1.137   1.246  -1.344  0.00  0.00     0.002 A 
ATOM      3  C3  N4B d   1       2.344   0.953  -1.930  0.00  0.00     0.002 A 
ATOM      4  C4  N4B d   1       2.822  -0.349  -1.902  0.00  0.00    -0.004 A 
ATOM      5  C5  N4B d   1       2.073  -1.338  -1.334  0.00  0.00     0.002 A 
ATOM      6  C6  N4B d   1       0.856  -1.059  -0.746  0.00  0.00     0.002 A 
ENDROOT
BRANCH   1   7
ATOM      7  C1' N4B d   1      -0.905   0.507  -0.008  0.00  0.00     0.057 C 
BRANCH   7   8
ATOM      8  C2' N4B d   1      -1.126  -0.562   1.058  0.00  0.00     0.009 C 
BRANCH   8   9
ATOM      9  C3' N4B d   1      -2.046  -0.079   2.166  0.00  0.00     0.004 C 
ATOM     10  C4' N4B d   1      -2.721  -1.203   2.893  0.00  0.00     0.003 C 
ENDBRANCH   8   9
ENDBRANCH   7   8
ENDBRANCH   1   7
TORSDOF 3
ENDMDL
