MODEL 1
REMARK minimizedAffinity -4.87338972
REMARK minimizedRMSD -1
REMARK  3 active torsions:
REMARK  status: ('A' for Active; 'I' for Inactive)
REMARK    1  A    between atoms: C3'_2  and  C2'_3 
REMARK    2  A    between atoms: C2'_3  and  C1'_4 
REMARK    3  A    between atoms: C1'_4  and  C1_5 
ROOT
ATOM      1  C1  N4B d   1       0.444  -0.184  -0.280  0.00  0.00    -0.075 A 
ATOM      2  C2  N4B d   1       1.529   0.604  -0.724  0.00  0.00     0.002 A 
ATOM      3  C3  N4B d   1       2.679   0.000  -1.169  0.00  0.00     0.002 A 
ATOM      4  C4  N4B d   1       2.774  -1.383  -1.162  0.00  0.00    -0.004 A 
ATOM      5  C5  N4B d   1       1.713  -2.138  -0.755  0.00  0.00     0.002 A 
ATOM      6  C6  N4B d   1       0.549  -1.545  -0.309  0.00  0.00     0.002 A 
ENDROOT
BRANCH   1   7
ATOM      7  C1' N4B d   1      -0.802   0.432   0.295  0.00  0.00     0.057 C 
BRANCH   7   8
ATOM      8  C2' N4B d   1      -0.767   0.305   1.816  0.00  0.00     0.009 C 
BRANCH   8   9
ATOM      9  C3' N4B d   1      -1.841   1.149   2.481  0.00  0.00     0.004 C 
ATOM     10  C4' N4B d   1      -1.783   1.087   3.978  0.00  0.00     0.003 C 
ENDBRANCH   8   9
ENDBRANCH   7   8
ENDBRANCH   1   7
TORSDOF 3
ENDMDL
