MODEL 1
REMARK minimizedAffinity -5.07253742
REMARK minimizedRMSD -1
REMARK  3 active torsions:
REMARK  status: ('A' for Active; 'I' for Inactive)
REMARK    1  A    between atoms: C3'_2  and  C2'_3 
REMARK    2  A    between atoms: C2'_3  and  C1'_4 
REMARK    3  A    between atoms: C1'_4  and  C1_5 
ROOT
ATOM      1  C1  N4B d   1      -2.440  -0.296   2.213  0.00  0.00    -0.075 A 
ATOM      2  C2  N4B d   1      -2.860   0.902   2.832  0.00  0.00     0.002 A 
ATOM      3  C3  N4B d   1      -2.258   2.092   2.504  0.00  0.00     0.002 A 
ATOM      4  C4  N4B d   1      -1.227   2.107   1.578  0.00  0.00    -0.004 A 
ATOM      5  C5  N4B d   1      -0.844   0.949   0.966  0.00  0.00     0.002 A 
ATOM      6  C6  N4B d   1      -1.442  -0.254   1.283  0.00  0.00     0.002 A 
ENDROOT
BRANCH   1   7
ATOM      7  C1' N4B d   1      -3.009  -1.633   2.602  0.00  0.00     0.057 C 
BRANCH   7   8
ATOM      8  C2' N4B d   1      -2.714  -1.893   4.076  0.00  0.00     0.009 C 
BRANCH   8   9
ATOM      9  C3' N4B d   1      -3.488  -3.087   4.608  0.00  0.00     0.004 C 
ATOM     10  C4' N4B d   1      -4.258  -3.803   3.539  0.00  0.00     0.003 C 
ENDBRANCH   8   9
ENDBRANCH   7   8
ENDBRANCH   1   7
TORSDOF 3
ENDMDL
