MODEL 1
REMARK minimizedAffinity -2.39983845
REMARK minimizedRMSD -1
REMARK  3 active torsions:
REMARK  status: ('A' for Active; 'I' for Inactive)
REMARK    1  A    between atoms: C3'_2  and  C2'_3 
REMARK    2  A    between atoms: C2'_3  and  C1'_4 
REMARK    3  A    between atoms: C1'_4  and  C1_5 
ROOT
ATOM      1  C1  N4B d   1      -1.607  -0.107   1.736  0.00  0.00    -0.075 A 
ATOM      2  C2  N4B d   1      -2.094   0.931   2.560  0.00  0.00     0.002 A 
ATOM      3  C3  N4B d   1      -2.657   0.634   3.777  0.00  0.00     0.002 A 
ATOM      4  C4  N4B d   1      -2.761  -0.689   4.180  0.00  0.00    -0.004 A 
ATOM      5  C5  N4B d   1      -2.265  -1.684   3.389  0.00  0.00     0.002 A 
ATOM      6  C6  N4B d   1      -1.693  -1.400   2.165  0.00  0.00     0.002 A 
ENDROOT
BRANCH   1   7
ATOM      7  C1' N4B d   1      -1.062   0.162   0.360  0.00  0.00     0.057 C 
BRANCH   7   8
ATOM      8  C2' N4B d   1      -0.243  -1.041  -0.098  0.00  0.00     0.009 C 
BRANCH   8   9
ATOM      9  C3' N4B d   1       1.071  -0.625  -0.737  0.00  0.00     0.004 C 
ATOM     10  C4' N4B d   1       1.370   0.833  -0.553  0.00  0.00     0.003 C 
ENDBRANCH   8   9
ENDBRANCH   7   8
ENDBRANCH   1   7
TORSDOF 3
ENDMDL
