MODEL 1
REMARK minimizedAffinity -6.00163507
REMARK minimizedRMSD -1
REMARK  3 active torsions:
REMARK  status: ('A' for Active; 'I' for Inactive)
REMARK    1  A    between atoms: C3'_2  and  C2'_3 
REMARK    2  A    between atoms: C2'_3  and  C1'_4 
REMARK    3  A    between atoms: C1'_4  and  C1_5 
ROOT
ATOM      1  C1  N4B d   1      -2.737   0.123   3.387  0.00  0.00    -0.075 A 
ATOM      2  C2  N4B d   1      -2.277  -1.211   3.420  0.00  0.00     0.002 A 
ATOM      3  C3  N4B d   1      -3.137  -2.226   3.759  0.00  0.00     0.002 A 
ATOM      4  C4  N4B d   1      -4.452  -1.930   4.087  0.00  0.00    -0.004 A 
ATOM      5  C5  N4B d   1      -4.895  -0.641   4.028  0.00  0.00     0.002 A 
ATOM      6  C6  N4B d   1      -4.043   0.388   3.685  0.00  0.00     0.002 A 
ENDROOT
BRANCH   1   7
ATOM      7  C1' N4B d   1      -1.812   1.276   3.105  0.00  0.00     0.057 C 
BRANCH   7   8
ATOM      8  C2' N4B d   1      -2.212   1.928   1.785  0.00  0.00     0.009 C 
BRANCH   8   9
ATOM      9  C3' N4B d   1      -2.290   0.918   0.653  0.00  0.00     0.004 C 
ATOM     10  C4' N4B d   1      -0.946   0.379   0.262  0.00  0.00     0.003 C 
ENDBRANCH   8   9
ENDBRANCH   7   8
ENDBRANCH   1   7
TORSDOF 3
ENDMDL
