MODEL 1
REMARK minimizedAffinity -5.82792711
REMARK minimizedRMSD -1
REMARK  3 active torsions:
REMARK  status: ('A' for Active; 'I' for Inactive)
REMARK    1  A    between atoms: C3'_2  and  C2'_3 
REMARK    2  A    between atoms: C2'_3  and  C1'_4 
REMARK    3  A    between atoms: C1'_4  and  C1_5 
ROOT
ATOM      1  C1  N4B d   1      -1.538   0.742   1.201  0.00  0.00    -0.075 A 
ATOM      2  C2  N4B d   1      -1.820  -0.590   1.574  0.00  0.00     0.002 A 
ATOM      3  C3  N4B d   1      -2.236  -0.872   2.852  0.00  0.00     0.002 A 
ATOM      4  C4  N4B d   1      -2.360   0.155   3.775  0.00  0.00    -0.004 A 
ATOM      5  C5  N4B d   1      -2.111   1.443   3.400  0.00  0.00     0.002 A 
ATOM      6  C6  N4B d   1      -1.695   1.741   2.118  0.00  0.00     0.002 A 
ENDROOT
BRANCH   1   7
ATOM      7  C1' N4B d   1      -0.997   1.089  -0.159  0.00  0.00     0.057 C 
BRANCH   7   8
ATOM      8  C2' N4B d   1       0.076   0.075  -0.544  0.00  0.00     0.009 C 
BRANCH   8   9
ATOM      9  C3' N4B d   1       1.296   0.743  -1.154  0.00  0.00     0.004 C 
ATOM     10  C4' N4B d   1       2.476  -0.178  -1.249  0.00  0.00     0.003 C 
ENDBRANCH   8   9
ENDBRANCH   7   8
ENDBRANCH   1   7
TORSDOF 3
ENDMDL
