MODEL 1
REMARK minimizedAffinity 10.897131
REMARK minimizedRMSD -1
REMARK  0 active torsions:
REMARK  status: ('A' for Active; 'I' for Inactive)
ROOT
ATOM      1  C4' PXY d   1       5.999   3.383   1.811  0.00  0.00     0.077 C 
ATOM      2  C1' PXY d   1       3.926   3.149  -3.579  0.00  0.00     0.077 C 
ATOM      3  C1  PXY d   1       4.481   3.216  -2.170  0.00  0.00    -0.082 A 
ATOM      4  C2  PXY d   1       4.029   2.380  -1.249  0.00  0.00     0.003 A 
ATOM      5  C3  PXY d   1       4.496   2.448   0.038  0.00  0.00     0.003 A 
ATOM      6  C4  PXY d   1       5.475   3.345   0.373  0.00  0.00    -0.082 A 
ATOM      7  C5  PXY d   1       5.949   4.194  -0.563  0.00  0.00     0.003 A 
ATOM      8  C6  PXY d   1       5.431   4.136  -1.854  0.00  0.00     0.003 A 
ENDROOT
TORSDOF 0
ENDMDL
