MODEL 1
REMARK minimizedAffinity 16.0121536
REMARK minimizedRMSD -1
REMARK  0 active torsions:
REMARK  status: ('A' for Active; 'I' for Inactive)
ROOT
ATOM      1  C4' PXY d   1       5.999   4.039   1.810  0.00  0.00     0.077 C 
ATOM      2  C1' PXY d   1       3.725   2.542  -3.290  0.00  0.00     0.077 C 
ATOM      3  C1  PXY d   1       4.330   2.942  -1.958  0.00  0.00    -0.082 A 
ATOM      4  C2  PXY d   1       4.157   2.165  -0.901  0.00  0.00     0.003 A 
ATOM      5  C3  PXY d   1       4.670   2.528   0.317  0.00  0.00     0.003 A 
ATOM      6  C4  PXY d   1       5.414   3.670   0.444  0.00  0.00    -0.082 A 
ATOM      7  C5  PXY d   1       5.604   4.463  -0.632  0.00  0.00     0.003 A 
ATOM      8  C6  PXY d   1       5.040   4.098  -1.851  0.00  0.00     0.003 A 
ENDROOT
TORSDOF 0
ENDMDL
