MODEL 1
REMARK minimizedAffinity 12.1985264
REMARK minimizedRMSD -1
REMARK  0 active torsions:
REMARK  status: ('A' for Active; 'I' for Inactive)
ROOT
ATOM      1  C4' PXY d   1       3.784  -3.467  -0.294  0.00  0.00     0.077 C 
ATOM      2  C1' PXY d   1      -1.131  -1.145   1.672  0.00  0.00     0.077 C 
ATOM      3  C1  PXY d   1       0.151  -1.765   1.153  0.00  0.00    -0.082 A 
ATOM      4  C2  PXY d   1       1.317  -1.334   1.608  0.00  0.00     0.003 A 
ATOM      5  C3  PXY d   1       2.487  -1.861   1.126  0.00  0.00     0.003 A 
ATOM      6  C4  PXY d   1       2.463  -2.877   0.208  0.00  0.00    -0.082 A 
ATOM      7  C5  PXY d   1       1.278  -3.329  -0.253  0.00  0.00     0.003 A 
ATOM      8  C6  PXY d   1       0.102  -2.752   0.219  0.00  0.00     0.003 A 
ENDROOT
TORSDOF 0
ENDMDL
