MODEL 1
REMARK minimizedAffinity 8.21982098
REMARK minimizedRMSD -1
REMARK  0 active torsions:
REMARK  status: ('A' for Active; 'I' for Inactive)
ROOT
ATOM      1  C4' PXY d   1      -2.876   1.443   5.999  0.00  0.00     0.077 C 
ATOM      2  C1' PXY d   1      -5.843  -2.002   2.429  0.00  0.00     0.077 C 
ATOM      3  C1  PXY d   1      -5.055  -1.097   3.356  0.00  0.00    -0.082 A 
ATOM      4  C2  PXY d   1      -5.213  -1.205   4.666  0.00  0.00     0.003 A 
ATOM      5  C3  PXY d   1      -4.533  -0.373   5.517  0.00  0.00     0.003 A 
ATOM      6  C4  PXY d   1      -3.643   0.544   5.026  0.00  0.00    -0.082 A 
ATOM      7  C5  PXY d   1      -3.468   0.653   3.692  0.00  0.00     0.003 A 
ATOM      8  C6  PXY d   1      -4.199  -0.173   2.843  0.00  0.00     0.003 A 
ENDROOT
TORSDOF 0
ENDMDL
