MODEL 1
REMARK minimizedAffinity 15.4401712
REMARK minimizedRMSD -1
REMARK  0 active torsions:
REMARK  status: ('A' for Active; 'I' for Inactive)
ROOT
ATOM      1  C4' PXY d   1       5.590   4.875  -2.208  0.00  0.00     0.077 C 
ATOM      2  C1' PXY d   1       0.277   2.887  -3.316  0.00  0.00     0.077 C 
ATOM      3  C1  PXY d   1       1.666   3.420  -3.027  0.00  0.00    -0.082 A 
ATOM      4  C2  PXY d   1       2.720   2.648  -3.237  0.00  0.00     0.003 A 
ATOM      5  C3  PXY d   1       3.981   3.104  -2.950  0.00  0.00     0.003 A 
ATOM      6  C4  PXY d   1       4.170   4.381  -2.495  0.00  0.00    -0.082 A 
ATOM      7  C5  PXY d   1       3.100   5.179  -2.289  0.00  0.00     0.003 A 
ATOM      8  C6  PXY d   1       1.825   4.683  -2.547  0.00  0.00     0.003 A 
ENDROOT
TORSDOF 0
ENDMDL
