MODEL 1
REMARK minimizedAffinity 1.03290379
REMARK minimizedRMSD -1
REMARK  0 active torsions:
REMARK  status: ('A' for Active; 'I' for Inactive)
ROOT
ATOM      1  C4' PXY d   1      -2.994   1.870   6.000  0.00  0.00     0.077 C 
ATOM      2  C1' PXY d   1      -4.280  -2.008   1.910  0.00  0.00     0.077 C 
ATOM      3  C1  PXY d   1      -3.955  -0.991   2.987  0.00  0.00    -0.082 A 
ATOM      4  C2  PXY d   1      -2.900  -0.206   2.847  0.00  0.00     0.003 A 
ATOM      5  C3  PXY d   1      -2.573   0.697   3.826  0.00  0.00     0.003 A 
ATOM      6  C4  PXY d   1      -3.365   0.835   4.934  0.00  0.00    -0.082 A 
ATOM      7  C5  PXY d   1      -4.450   0.045   5.078  0.00  0.00     0.003 A 
ATOM      8  C6  PXY d   1      -4.741  -0.894   4.093  0.00  0.00     0.003 A 
ENDROOT
TORSDOF 0
ENDMDL
