MODEL 1
REMARK minimizedAffinity 8.9873476
REMARK minimizedRMSD -1
REMARK  0 active torsions:
REMARK  status: ('A' for Active; 'I' for Inactive)
ROOT
ATOM      1  C4' PXY d   1      -0.572  -0.384   2.351  0.00  0.00     0.077 C 
ATOM      2  C1' PXY d   1      -5.984  -0.564   4.374  0.00  0.00     0.077 C 
ATOM      3  C1  PXY d   1      -4.563  -0.505   3.849  0.00  0.00    -0.082 A 
ATOM      4  C2  PXY d   1      -4.236  -1.195   2.769  0.00  0.00     0.003 A 
ATOM      5  C3  PXY d   1      -2.948  -1.179   2.299  0.00  0.00     0.003 A 
ATOM      6  C4  PXY d   1      -1.997  -0.406   2.911  0.00  0.00    -0.082 A 
ATOM      7  C5  PXY d   1      -2.326   0.309   4.008  0.00  0.00     0.003 A 
ATOM      8  C6  PXY d   1      -3.629   0.246   4.493  0.00  0.00     0.003 A 
ENDROOT
TORSDOF 0
ENDMDL
