MODEL 1
REMARK minimizedAffinity 8.64485168
REMARK minimizedRMSD -1
REMARK  0 active torsions:
REMARK  status: ('A' for Active; 'I' for Inactive)
ROOT
ATOM      1  C4' PXY d   1       4.117  -0.243  -0.575  0.00  0.00     0.077 C 
ATOM      2  C1' PXY d   1       3.989  -5.999  -0.065  0.00  0.00     0.077 C 
ATOM      3  C1  PXY d   1       4.010  -4.489  -0.196  0.00  0.00    -0.082 A 
ATOM      4  C2  PXY d   1       4.940  -3.910  -0.937  0.00  0.00     0.003 A 
ATOM      5  C3  PXY d   1       4.993  -2.543  -1.040  0.00  0.00     0.003 A 
ATOM      6  C4  PXY d   1       4.052  -1.765  -0.422  0.00  0.00    -0.082 A 
ATOM      7  C5  PXY d   1       3.093  -2.349   0.327  0.00  0.00     0.003 A 
ATOM      8  C6  PXY d   1       3.081  -3.735   0.453  0.00  0.00     0.003 A 
ENDROOT
TORSDOF 0
ENDMDL
