MODEL 1
REMARK minimizedAffinity -0.0538706481
REMARK minimizedRMSD -1
REMARK  0 active torsions:
REMARK  status: ('A' for Active; 'I' for Inactive)
ROOT
ATOM      1  C4' PXY d   1       5.998  -4.272   0.056  0.00  0.00     0.077 C 
ATOM      2  C1' PXY d   1       2.584  -5.620  -4.409  0.00  0.00     0.077 C 
ATOM      3  C1  PXY d   1       3.475  -5.254  -3.239  0.00  0.00    -0.082 A 
ATOM      4  C2  PXY d   1       4.534  -6.000  -2.965  0.00  0.00     0.003 A 
ATOM      5  C3  PXY d   1       5.333  -5.701  -1.891  0.00  0.00     0.003 A 
ATOM      6  C4  PXY d   1       5.076  -4.598  -1.122  0.00  0.00    -0.082 A 
ATOM      7  C5  PXY d   1       4.004  -3.827  -1.401  0.00  0.00     0.003 A 
ATOM      8  C6  PXY d   1       3.182  -4.170  -2.471  0.00  0.00     0.003 A 
ENDROOT
TORSDOF 0
ENDMDL
