MODEL 1
REMARK minimizedAffinity 7.73748112
REMARK minimizedRMSD -1
REMARK  0 active torsions:
REMARK  status: ('A' for Active; 'I' for Inactive)
ROOT
ATOM      1  C4' PXY d   1      -6.000   5.966   6.000  0.00  0.00     0.077 C 
ATOM      2  C1' PXY d   1      -3.203   1.010   4.986  0.00  0.00     0.077 C 
ATOM      3  C1  PXY d   1      -3.948   2.304   5.250  0.00  0.00    -0.082 A 
ATOM      4  C2  PXY d   1      -3.343   3.462   5.039  0.00  0.00     0.003 A 
ATOM      5  C3  PXY d   1      -3.991   4.641   5.303  0.00  0.00     0.003 A 
ATOM      6  C4  PXY d   1      -5.290   4.635   5.738  0.00  0.00    -0.082 A 
ATOM      7  C5  PXY d   1      -5.917   3.458   5.946  0.00  0.00     0.003 A 
ATOM      8  C6  PXY d   1      -5.228   2.272   5.711  0.00  0.00     0.003 A 
ENDROOT
TORSDOF 0
ENDMDL
