MODEL 1
REMARK minimizedAffinity 17.127449
REMARK minimizedRMSD -1
REMARK  0 active torsions:
REMARK  status: ('A' for Active; 'I' for Inactive)
ROOT
ATOM      1  C4' PXY d   1      -1.122   4.305  -4.158  0.00  0.00     0.077 C 
ATOM      2  C1' PXY d   1       3.037   1.876  -0.962  0.00  0.00     0.077 C 
ATOM      3  C1  PXY d   1       1.946   2.523  -1.792  0.00  0.00    -0.082 A 
ATOM      4  C2  PXY d   1       1.170   1.770  -2.554  0.00  0.00     0.003 A 
ATOM      5  C3  PXY d   1       0.199   2.342  -3.335  0.00  0.00     0.003 A 
ATOM      6  C4  PXY d   1      -0.014   3.694  -3.296  0.00  0.00    -0.082 A 
ATOM      7  C5  PXY d   1       0.767   4.468  -2.513  0.00  0.00     0.003 A 
ATOM      8  C6  PXY d   1       1.774   3.873  -1.759  0.00  0.00     0.003 A 
ENDROOT
TORSDOF 0
ENDMDL
