MODEL 1
REMARK minimizedAffinity 14.5042181
REMARK minimizedRMSD -1
REMARK  0 active torsions:
REMARK  status: ('A' for Active; 'I' for Inactive)
ROOT
ATOM      1  C4' PXY d   1      -5.941  -3.015  -5.904  0.00  0.00     0.077 C 
ATOM      2  C1' PXY d   1      -5.915  -0.146  -0.885  0.00  0.00     0.077 C 
ATOM      3  C1  PXY d   1      -5.927  -0.888  -2.207  0.00  0.00    -0.082 A 
ATOM      4  C2  PXY d   1      -5.948  -2.211  -2.215  0.00  0.00     0.003 A 
ATOM      5  C3  PXY d   1      -5.927  -2.898  -3.401  0.00  0.00     0.003 A 
ATOM      6  C4  PXY d   1      -5.938  -2.224  -4.593  0.00  0.00    -0.082 A 
ATOM      7  C5  PXY d   1      -5.926  -0.874  -4.594  0.00  0.00     0.003 A 
ATOM      8  C6  PXY d   1      -5.906  -0.196  -3.379  0.00  0.00     0.003 A 
ENDROOT
TORSDOF 0
ENDMDL
