MODEL 1
REMARK minimizedAffinity 21.0376263
REMARK minimizedRMSD -1
REMARK  0 active torsions:
REMARK  status: ('A' for Active; 'I' for Inactive)
ROOT
ATOM      1  C4' PXY d   1      -4.216   0.066   1.280  0.00  0.00     0.077 C 
ATOM      2  C1' PXY d   1       1.149  -1.410   2.847  0.00  0.00     0.077 C 
ATOM      3  C1  PXY d   1      -0.257  -1.030   2.426  0.00  0.00    -0.082 A 
ATOM      4  C2  PXY d   1      -0.794   0.092   2.876  0.00  0.00     0.003 A 
ATOM      5  C3  PXY d   1      -2.076   0.435   2.530  0.00  0.00     0.003 A 
ATOM      6  C4  PXY d   1      -2.796  -0.353   1.672  0.00  0.00    -0.082 A 
ATOM      7  C5  PXY d   1      -2.251  -1.494   1.200  0.00  0.00     0.003 A 
ATOM      8  C6  PXY d   1      -0.964  -1.845   1.596  0.00  0.00     0.003 A 
ENDROOT
TORSDOF 0
ENDMDL
