MODEL 1
REMARK minimizedAffinity 21.9557896
REMARK minimizedRMSD -1
REMARK  0 active torsions:
REMARK  status: ('A' for Active; 'I' for Inactive)
ROOT
ATOM      1  C4' PXY d   1       2.628   1.571  -0.516  0.00  0.00     0.077 C 
ATOM      2  C1' PXY d   1       3.463   3.198  -5.999  0.00  0.00     0.077 C 
ATOM      3  C1  PXY d   1       3.235   2.780  -4.560  0.00  0.00    -0.082 A 
ATOM      4  C2  PXY d   1       4.220   2.220  -3.877  0.00  0.00     0.003 A 
ATOM      5  C3  PXY d   1       4.021   1.807  -2.585  0.00  0.00     0.003 A 
ATOM      6  C4  PXY d   1       2.817   2.017  -1.968  0.00  0.00    -0.082 A 
ATOM      7  C5  PXY d   1       1.810   2.598  -2.655  0.00  0.00     0.003 A 
ATOM      8  C6  PXY d   1       2.020   2.973  -3.979  0.00  0.00     0.003 A 
ENDROOT
TORSDOF 0
ENDMDL
