MODEL 1
REMARK minimizedAffinity 6.89114952
REMARK minimizedRMSD -1
REMARK  0 active torsions:
REMARK  status: ('A' for Active; 'I' for Inactive)
ROOT
ATOM      1  C4' PXY d   1       3.148   1.157   0.100  0.00  0.00     0.077 C 
ATOM      2  C1' PXY d   1       3.513  -4.598  -0.295  0.00  0.00     0.077 C 
ATOM      3  C1  PXY d   1       3.407  -3.090  -0.183  0.00  0.00    -0.082 A 
ATOM      4  C2  PXY d   1       3.898  -2.327  -1.146  0.00  0.00     0.003 A 
ATOM      5  C3  PXY d   1       3.839  -0.960  -1.046  0.00  0.00     0.003 A 
ATOM      6  C4  PXY d   1       3.224  -0.370   0.025  0.00  0.00    -0.082 A 
ATOM      7  C5  PXY d   1       2.711  -1.142   1.007  0.00  0.00     0.003 A 
ATOM      8  C6  PXY d   1       2.817  -2.526   0.906  0.00  0.00     0.003 A 
ENDROOT
TORSDOF 0
ENDMDL
