MODEL 1
REMARK minimizedAffinity 10.4542732
REMARK minimizedRMSD -1
REMARK  0 active torsions:
REMARK  status: ('A' for Active; 'I' for Inactive)
ROOT
ATOM      1  C4' PXY d   1       1.640   2.652  -2.651  0.00  0.00     0.077 C 
ATOM      2  C1' PXY d   1       3.772   0.148   2.103  0.00  0.00     0.077 C 
ATOM      3  C1  PXY d   1       3.225   0.804   0.850  0.00  0.00    -0.082 A 
ATOM      4  C2  PXY d   1       2.171   1.599   0.936  0.00  0.00     0.003 A 
ATOM      5  C3  PXY d   1       1.643   2.174  -0.192  0.00  0.00     0.003 A 
ATOM      6  C4  PXY d   1       2.232   1.976  -1.411  0.00  0.00    -0.082 A 
ATOM      7  C5  PXY d   1       3.315   1.175  -1.505  0.00  0.00     0.003 A 
ATOM      8  C6  PXY d   1       3.810   0.567  -0.355  0.00  0.00     0.003 A 
ENDROOT
TORSDOF 0
ENDMDL
