MODEL 1
REMARK minimizedAffinity 16.4696693
REMARK minimizedRMSD -1
REMARK  0 active torsions:
REMARK  status: ('A' for Active; 'I' for Inactive)
ROOT
ATOM      1  C4' PXY d   1      -5.317   0.145  -1.412  0.00  0.00     0.077 C 
ATOM      2  C1' PXY d   1      -2.664   0.402   3.717  0.00  0.00     0.077 C 
ATOM      3  C1  PXY d   1      -3.371   0.334   2.378  0.00  0.00    -0.082 A 
ATOM      4  C2  PXY d   1      -2.720  -0.113   1.316  0.00  0.00     0.003 A 
ATOM      5  C3  PXY d   1      -3.335  -0.151   0.091  0.00  0.00     0.003 A 
ATOM      6  C4  PXY d   1      -4.646   0.222  -0.038  0.00  0.00    -0.082 A 
ATOM      7  C5  PXY d   1      -5.320   0.669   1.042  0.00  0.00     0.003 A 
ATOM      8  C6  PXY d   1      -4.666   0.739   2.269  0.00  0.00     0.003 A 
ENDROOT
TORSDOF 0
ENDMDL
