MODEL 1
REMARK minimizedAffinity 9.19930363
REMARK minimizedRMSD -1
REMARK  0 active torsions:
REMARK  status: ('A' for Active; 'I' for Inactive)
ROOT
ATOM      1  C4' PXY d   1       1.045  -2.678   1.622  0.00  0.00     0.077 C 
ATOM      2  C1' PXY d   1      -3.783   0.499   1.504  0.00  0.00     0.077 C 
ATOM      3  C1  PXY d   1      -2.524  -0.345   1.539  0.00  0.00    -0.082 A 
ATOM      4  C2  PXY d   1      -1.345   0.244   1.662  0.00  0.00     0.003 A 
ATOM      5  C3  PXY d   1      -0.194  -0.501   1.664  0.00  0.00     0.003 A 
ATOM      6  C4  PXY d   1      -0.253  -1.867   1.592  0.00  0.00    -0.082 A 
ATOM      7  C5  PXY d   1      -1.453  -2.476   1.477  0.00  0.00     0.003 A 
ATOM      8  C6  PXY d   1      -2.606  -1.699   1.436  0.00  0.00     0.003 A 
ENDROOT
TORSDOF 0
ENDMDL
