MODEL 1
REMARK minimizedAffinity -5.15859032
REMARK minimizedRMSD -1
REMARK  0 active torsions:
REMARK  status: ('A' for Active; 'I' for Inactive)
ROOT
ATOM      1  C4' PXY d   1       1.679   1.956  -1.295  0.00  0.00     0.077 C 
ATOM      2  C1' PXY d   1      -1.664  -2.239   0.857  0.00  0.00     0.077 C 
ATOM      3  C1  PXY d   1      -0.798  -1.134   0.287  0.00  0.00    -0.082 A 
ATOM      4  C2  PXY d   1       0.507  -1.319   0.172  0.00  0.00     0.003 A 
ATOM      5  C3  PXY d   1       1.310  -0.318  -0.312  0.00  0.00     0.003 A 
ATOM      6  C4  PXY d   1       0.764   0.865  -0.733  0.00  0.00    -0.082 A 
ATOM      7  C5  PXY d   1      -0.568   1.057  -0.630  0.00  0.00     0.003 A 
ATOM      8  C6  PXY d   1      -1.360   0.044  -0.097  0.00  0.00     0.003 A 
ENDROOT
TORSDOF 0
ENDMDL
