MODEL 1
REMARK minimizedAffinity 0.076981239
REMARK minimizedRMSD -1
REMARK  0 active torsions:
REMARK  status: ('A' for Active; 'I' for Inactive)
ROOT
ATOM      1  C4' PXY d   1      -2.164  -1.925   3.041  0.00  0.00     0.077 C 
ATOM      2  C1' PXY d   1       1.439   0.737  -0.613  0.00  0.00     0.077 C 
ATOM      3  C1  PXY d   1       0.497   0.028   0.340  0.00  0.00    -0.082 A 
ATOM      4  C2  PXY d   1      -0.498   0.699   0.897  0.00  0.00     0.003 A 
ATOM      5  C3  PXY d   1      -1.340   0.081   1.786  0.00  0.00     0.003 A 
ATOM      6  C4  PXY d   1      -1.194  -1.251   2.066  0.00  0.00    -0.082 A 
ATOM      7  C5  PXY d   1      -0.188  -1.946   1.493  0.00  0.00     0.003 A 
ATOM      8  C6  PXY d   1       0.680  -1.290   0.626  0.00  0.00     0.003 A 
ENDROOT
TORSDOF 0
ENDMDL
