MODEL 1
REMARK minimizedAffinity -4.84884167
REMARK minimizedRMSD -1
REMARK  0 active torsions:
REMARK  status: ('A' for Active; 'I' for Inactive)
ROOT
ATOM      1  C4' PXY d   1      -0.742   2.282  -1.026  0.00  0.00     0.077 C 
ATOM      2  C1' PXY d   1       1.432  -2.512   1.364  0.00  0.00     0.077 C 
ATOM      3  C1  PXY d   1       0.853  -1.254   0.746  0.00  0.00    -0.082 A 
ATOM      4  C2  PXY d   1       1.061  -0.999  -0.535  0.00  0.00     0.003 A 
ATOM      5  C3  PXY d   1       0.572   0.150  -1.102  0.00  0.00     0.003 A 
ATOM      6  C4  PXY d   1      -0.184   1.019  -0.362  0.00  0.00    -0.082 A 
ATOM      7  C5  PXY d   1      -0.410   0.761   0.943  0.00  0.00     0.003 A 
ATOM      8  C6  PXY d   1       0.130  -0.390   1.509  0.00  0.00     0.003 A 
ENDROOT
TORSDOF 0
ENDMDL
