MODEL 1
REMARK minimizedAffinity -4.62325096
REMARK minimizedRMSD -1
REMARK  0 active torsions:
REMARK  status: ('A' for Active; 'I' for Inactive)
ROOT
ATOM      1  C4' PXY d   1      -1.150   1.763   0.735  0.00  0.00     0.077 C 
ATOM      2  C1' PXY d   1       1.585  -3.325   0.949  0.00  0.00     0.077 C 
ATOM      3  C1  PXY d   1       0.878  -1.986   0.888  0.00  0.00    -0.082 A 
ATOM      4  C2  PXY d   1      -0.147  -1.750   1.691  0.00  0.00     0.003 A 
ATOM      5  C3  PXY d   1      -0.817  -0.555   1.626  0.00  0.00     0.003 A 
ATOM      6  C4  PXY d   1      -0.401   0.428   0.769  0.00  0.00    -0.082 A 
ATOM      7  C5  PXY d   1       0.651   0.199  -0.046  0.00  0.00     0.003 A 
ATOM      8  C6  PXY d   1       1.292  -1.036   0.006  0.00  0.00     0.003 A 
ENDROOT
TORSDOF 0
ENDMDL
