MODEL 1
REMARK minimizedAffinity -4.65090513
REMARK minimizedRMSD -1
REMARK  0 active torsions:
REMARK  status: ('A' for Active; 'I' for Inactive)
ROOT
ATOM      1  C4' PXY d   1      -1.190   1.617  -0.809  0.00  0.00     0.077 C 
ATOM      2  C1' PXY d   1       1.900  -2.830   1.214  0.00  0.00     0.077 C 
ATOM      3  C1  PXY d   1       1.101  -1.657   0.683  0.00  0.00    -0.082 A 
ATOM      4  C2  PXY d   1      -0.190  -1.565   0.961  0.00  0.00     0.003 A 
ATOM      5  C3  PXY d   1      -0.934  -0.527   0.462  0.00  0.00     0.003 A 
ATOM      6  C4  PXY d   1      -0.341   0.455  -0.286  0.00  0.00    -0.082 A 
ATOM      7  C5  PXY d   1       0.977   0.374  -0.565  0.00  0.00     0.003 A 
ATOM      8  C6  PXY d   1       1.707  -0.709  -0.083  0.00  0.00     0.003 A 
ENDROOT
TORSDOF 0
ENDMDL
