MODEL 1
REMARK minimizedAffinity -5.10209417
REMARK minimizedRMSD -1
REMARK  0 active torsions:
REMARK  status: ('A' for Active; 'I' for Inactive)
ROOT
ATOM      1  C4' PXY d   1      -2.013   1.158  -3.512  0.00  0.00     0.077 C 
ATOM      2  C1' PXY d   1       1.058   6.000  -4.244  0.00  0.00     0.077 C 
ATOM      3  C1  PXY d   1       0.259   4.728  -4.040  0.00  0.00    -0.082 A 
ATOM      4  C2  PXY d   1      -0.269   4.113  -5.086  0.00  0.00     0.003 A 
ATOM      5  C3  PXY d   1      -1.021   2.979  -4.917  0.00  0.00     0.003 A 
ATOM      6  C4  PXY d   1      -1.191   2.439  -3.671  0.00  0.00    -0.082 A 
ATOM      7  C5  PXY d   1      -0.647   3.055  -2.600  0.00  0.00     0.003 A 
ATOM      8  C6  PXY d   1       0.079   4.228  -2.788  0.00  0.00     0.003 A 
ENDROOT
TORSDOF 0
ENDMDL
