MODEL 1
REMARK minimizedAffinity -4.35846567
REMARK minimizedRMSD -1
REMARK  0 active torsions:
REMARK  status: ('A' for Active; 'I' for Inactive)
ROOT
ATOM      1  C4' PXY d   1       1.901  -2.999   1.371  0.00  0.00     0.077 C 
ATOM      2  C1' PXY d   1      -1.026   1.580  -0.599  0.00  0.00     0.077 C 
ATOM      3  C1  PXY d   1      -0.266   0.379  -0.071  0.00  0.00    -0.082 A 
ATOM      4  C2  PXY d   1       0.966   0.147  -0.495  0.00  0.00     0.003 A 
ATOM      5  C3  PXY d   1       1.656  -0.952  -0.053  0.00  0.00     0.003 A 
ATOM      6  C4  PXY d   1       1.100  -1.793   0.873  0.00  0.00    -0.082 A 
ATOM      7  C5  PXY d   1      -0.153  -1.557   1.318  0.00  0.00     0.003 A 
ATOM      8  C6  PXY d   1      -0.852  -0.459   0.826  0.00  0.00     0.003 A 
ENDROOT
TORSDOF 0
ENDMDL
