MODEL 1
REMARK minimizedAffinity -5.06574154
REMARK minimizedRMSD -1
REMARK  0 active torsions:
REMARK  status: ('A' for Active; 'I' for Inactive)
ROOT
ATOM      1  C4' PXY d   1       0.842  -3.097   2.626  0.00  0.00     0.077 C 
ATOM      2  C1' PXY d   1      -0.878   1.461  -0.484  0.00  0.00     0.077 C 
ATOM      3  C1  PXY d   1      -0.433   0.270   0.342  0.00  0.00    -0.082 A 
ATOM      4  C2  PXY d   1       0.646  -0.406  -0.015  0.00  0.00     0.003 A 
ATOM      5  C3  PXY d   1       1.045  -1.505   0.703  0.00  0.00     0.003 A 
ATOM      6  C4  PXY d   1       0.361  -1.883   1.827  0.00  0.00    -0.082 A 
ATOM      7  C5  PXY d   1      -0.735  -1.191   2.204  0.00  0.00     0.003 A 
ATOM      8  C6  PXY d   1      -1.147  -0.104   1.438  0.00  0.00     0.003 A 
ENDROOT
TORSDOF 0
ENDMDL
