MODEL 1
REMARK minimizedAffinity -5.56955004
REMARK minimizedRMSD -1
REMARK  0 active torsions:
REMARK  status: ('A' for Active; 'I' for Inactive)
ROOT
ATOM      1  C4' PXY d   1       0.833   4.978  -4.408  0.00  0.00     0.077 C 
ATOM      2  C1' PXY d   1      -2.680   0.760  -2.595  0.00  0.00     0.077 C 
ATOM      3  C1  PXY d   1      -1.755   1.859  -3.081  0.00  0.00    -0.082 A 
ATOM      4  C2  PXY d   1      -1.311   2.765  -2.225  0.00  0.00     0.003 A 
ATOM      5  C3  PXY d   1      -0.499   3.784  -2.653  0.00  0.00     0.003 A 
ATOM      6  C4  PXY d   1      -0.095   3.845  -3.960  0.00  0.00    -0.082 A 
ATOM      7  C5  PXY d   1      -0.535   2.918  -4.837  0.00  0.00     0.003 A 
ATOM      8  C6  PXY d   1      -1.392   1.916  -4.391  0.00  0.00     0.003 A 
ENDROOT
TORSDOF 0
ENDMDL
