MODEL 1
REMARK minimizedAffinity -4.92916298
REMARK minimizedRMSD -1
REMARK  0 active torsions:
REMARK  status: ('A' for Active; 'I' for Inactive)
ROOT
ATOM      1  C4' PXY d   1      -3.238   1.046  -2.184  0.00  0.00     0.077 C 
ATOM      2  C1' PXY d   1       0.700   4.576  -4.517  0.00  0.00     0.077 C 
ATOM      3  C1  PXY d   1      -0.341   3.653  -3.915  0.00  0.00    -0.082 A 
ATOM      4  C2  PXY d   1      -0.305   3.384  -2.620  0.00  0.00     0.003 A 
ATOM      5  C3  PXY d   1      -1.220   2.526  -2.065  0.00  0.00     0.003 A 
ATOM      6  C4  PXY d   1      -2.213   1.980  -2.833  0.00  0.00    -0.082 A 
ATOM      7  C5  PXY d   1      -2.262   2.258  -4.153  0.00  0.00     0.003 A 
ATOM      8  C6  PXY d   1      -1.300   3.099  -4.705  0.00  0.00     0.003 A 
ENDROOT
TORSDOF 0
ENDMDL
