MODEL 1
REMARK minimizedAffinity -4.39974737
REMARK minimizedRMSD -1
REMARK  0 active torsions:
REMARK  status: ('A' for Active; 'I' for Inactive)
ROOT
ATOM      1  C4' PXY d   1       1.046   4.376  -4.134  0.00  0.00     0.077 C 
ATOM      2  C1' PXY d   1      -2.854   0.579  -2.188  0.00  0.00     0.077 C 
ATOM      3  C1  PXY d   1      -1.830   1.580  -2.687  0.00  0.00    -0.082 A 
ATOM      4  C2  PXY d   1      -1.793   1.893  -3.972  0.00  0.00     0.003 A 
ATOM      5  C3  PXY d   1      -0.853   2.772  -4.445  0.00  0.00     0.003 A 
ATOM      6  C4  PXY d   1       0.023   3.378  -3.585  0.00  0.00    -0.082 A 
ATOM      7  C5  PXY d   1      -0.016   3.072  -2.270  0.00  0.00     0.003 A 
ATOM      8  C6  PXY d   1      -0.950   2.146  -1.817  0.00  0.00     0.003 A 
ENDROOT
TORSDOF 0
ENDMDL
