MODEL 1
REMARK minimizedAffinity -2.01289892
REMARK minimizedRMSD -1
REMARK  0 active torsions:
REMARK  status: ('A' for Active; 'I' for Inactive)
ROOT
ATOM      1  C4' PXY d   1       0.426   5.346  -4.082  0.00  0.00     0.077 C 
ATOM      2  C1' PXY d   1      -2.885   0.857  -2.565  0.00  0.00     0.077 C 
ATOM      3  C1  PXY d   1      -2.020   2.032  -2.976  0.00  0.00    -0.082 A 
ATOM      4  C2  PXY d   1      -1.047   2.439  -2.176  0.00  0.00     0.003 A 
ATOM      5  C3  PXY d   1      -0.276   3.520  -2.517  0.00  0.00     0.003 A 
ATOM      6  C4  PXY d   1      -0.467   4.158  -3.713  0.00  0.00    -0.082 A 
ATOM      7  C5  PXY d   1      -1.450   3.742  -4.539  0.00  0.00     0.003 A 
ATOM      8  C6  PXY d   1      -2.249   2.669  -4.156  0.00  0.00     0.003 A 
ENDROOT
TORSDOF 0
ENDMDL
