MODEL 1
REMARK minimizedAffinity -4.18418264
REMARK minimizedRMSD -1
REMARK  0 active torsions:
REMARK  status: ('A' for Active; 'I' for Inactive)
ROOT
ATOM      1  C4' PXY d   1       0.453   5.313  -4.699  0.00  0.00     0.077 C 
ATOM      2  C1' PXY d   1      -2.215   0.871  -2.137  0.00  0.00     0.077 C 
ATOM      3  C1  PXY d   1      -1.513   2.028  -2.819  0.00  0.00    -0.082 A 
ATOM      4  C2  PXY d   1      -1.014   3.013  -2.089  0.00  0.00     0.003 A 
ATOM      5  C3  PXY d   1      -0.404   4.083  -2.692  0.00  0.00     0.003 A 
ATOM      6  C4  PXY d   1      -0.256   4.120  -4.053  0.00  0.00    -0.082 A 
ATOM      7  C5  PXY d   1      -0.753   3.114  -4.804  0.00  0.00     0.003 A 
ATOM      8  C6  PXY d   1      -1.405   2.057  -4.176  0.00  0.00     0.003 A 
ENDROOT
TORSDOF 0
ENDMDL
