MODEL 1
REMARK minimizedAffinity -3.34694457
REMARK minimizedRMSD -1
REMARK  0 active torsions:
REMARK  status: ('A' for Active; 'I' for Inactive)
ROOT
ATOM      1  C4' PXY d   1       1.096   4.410  -3.965  0.00  0.00     0.077 C 
ATOM      2  C1' PXY d   1      -3.056   0.628  -2.600  0.00  0.00     0.077 C 
ATOM      3  C1  PXY d   1      -1.966   1.614  -2.970  0.00  0.00    -0.082 A 
ATOM      4  C2  PXY d   1      -1.292   2.232  -2.014  0.00  0.00     0.003 A 
ATOM      5  C3  PXY d   1      -0.324   3.151  -2.330  0.00  0.00     0.003 A 
ATOM      6  C4  PXY d   1      -0.007   3.400  -3.639  0.00  0.00    -0.082 A 
ATOM      7  C5  PXY d   1      -0.682   2.765  -4.620  0.00  0.00     0.003 A 
ATOM      8  C6  PXY d   1      -1.689   1.866  -4.278  0.00  0.00     0.003 A 
ENDROOT
TORSDOF 0
ENDMDL
