MODEL 1
REMARK minimizedAffinity -5.8005538
REMARK minimizedRMSD -1
REMARK  0 active torsions:
REMARK  status: ('A' for Active; 'I' for Inactive)
ROOT
ATOM      1  C4' PXY d   1       0.939   5.581  -4.304  0.00  0.00     0.077 C 
ATOM      2  C1' PXY d   1      -2.282   1.047  -2.730  0.00  0.00     0.077 C 
ATOM      3  C1  PXY d   1      -1.434   2.230  -3.154  0.00  0.00    -0.082 A 
ATOM      4  C2  PXY d   1      -0.928   3.035  -2.234  0.00  0.00     0.003 A 
ATOM      5  C3  PXY d   1      -0.186   4.128  -2.602  0.00  0.00     0.003 A 
ATOM      6  C4  PXY d   1       0.085   4.369  -3.922  0.00  0.00    -0.082 A 
ATOM      7  C5  PXY d   1      -0.419   3.547  -4.866  0.00  0.00     0.003 A 
ATOM      8  C6  PXY d   1      -1.204   2.466  -4.474  0.00  0.00     0.003 A 
ENDROOT
TORSDOF 0
ENDMDL
