MODEL 1
REMARK minimizedAffinity -3.94119096
REMARK minimizedRMSD -1
REMARK  0 active torsions:
REMARK  status: ('A' for Active; 'I' for Inactive)
ROOT
ATOM      1  C4' PXY d   1       0.747   3.874  -4.852  0.00  0.00     0.077 C 
ATOM      2  C1' PXY d   1      -2.943   0.919  -1.525  0.00  0.00     0.077 C 
ATOM      3  C1  PXY d   1      -1.971   1.701  -2.387  0.00  0.00    -0.082 A 
ATOM      4  C2  PXY d   1      -2.190   1.806  -3.687  0.00  0.00     0.003 A 
ATOM      5  C3  PXY d   1      -1.305   2.483  -4.487  0.00  0.00     0.003 A 
ATOM      6  C4  PXY d   1      -0.212   3.102  -3.941  0.00  0.00    -0.082 A 
ATOM      7  C5  PXY d   1       0.012   3.008  -2.613  0.00  0.00     0.003 A 
ATOM      8  C6  PXY d   1      -0.877   2.282  -1.825  0.00  0.00     0.003 A 
ENDROOT
TORSDOF 0
ENDMDL
