MODEL 1
REMARK minimizedAffinity -3.93568349
REMARK minimizedRMSD -1
REMARK  0 active torsions:
REMARK  status: ('A' for Active; 'I' for Inactive)
ROOT
ATOM      1  C4' PXY d   1      -0.682   0.834  -0.222  0.00  0.00     0.077 C 
ATOM      2  C1' PXY d   1      -0.646   3.734  -5.222  0.00  0.00     0.077 C 
ATOM      3  C1  PXY d   1      -0.668   2.976  -3.910  0.00  0.00    -0.082 A 
ATOM      4  C2  PXY d   1       0.442   2.868  -3.198  0.00  0.00     0.003 A 
ATOM      5  C3  PXY d   1       0.447   2.159  -2.024  0.00  0.00     0.003 A 
ATOM      6  C4  PXY d   1      -0.708   1.598  -1.549  0.00  0.00    -0.082 A 
ATOM      7  C5  PXY d   1      -1.847   1.713  -2.264  0.00  0.00     0.003 A 
ATOM      8  C6  PXY d   1      -1.822   2.402  -3.473  0.00  0.00     0.003 A 
ENDROOT
TORSDOF 0
ENDMDL
