MODEL 1
REMARK minimizedAffinity -6.23306131
REMARK minimizedRMSD -1
REMARK  0 active torsions:
REMARK  status: ('A' for Active; 'I' for Inactive)
ROOT
ATOM      1  C4' PXY d   1      -2.713   1.087  -2.320  0.00  0.00     0.077 C 
ATOM      2  C1' PXY d   1       0.745   5.370  -4.086  0.00  0.00     0.077 C 
ATOM      3  C1  PXY d   1      -0.170   4.249  -3.633  0.00  0.00    -0.082 A 
ATOM      4  C2  PXY d   1      -0.177   3.884  -2.361  0.00  0.00     0.003 A 
ATOM      5  C3  PXY d   1      -0.974   2.851  -1.941  0.00  0.00     0.003 A 
ATOM      6  C4  PXY d   1      -1.812   2.220  -2.820  0.00  0.00    -0.082 A 
ATOM      7  C5  PXY d   1      -1.819   2.594  -4.117  0.00  0.00     0.003 A 
ATOM      8  C6  PXY d   1      -0.972   3.618  -4.532  0.00  0.00     0.003 A 
ENDROOT
TORSDOF 0
ENDMDL
