MODEL 1
REMARK minimizedAffinity -4.28074312
REMARK minimizedRMSD -1
REMARK  0 active torsions:
REMARK  status: ('A' for Active; 'I' for Inactive)
ROOT
ATOM      1  C4' PXY d   1      -3.316   1.298  -2.469  0.00  0.00     0.077 C 
ATOM      2  C1' PXY d   1       1.258   4.438  -4.093  0.00  0.00     0.077 C 
ATOM      3  C1  PXY d   1       0.053   3.617  -3.679  0.00  0.00    -0.082 A 
ATOM      4  C2  PXY d   1      -0.194   3.420  -2.394  0.00  0.00     0.003 A 
ATOM      5  C3  PXY d   1      -1.262   2.654  -2.002  0.00  0.00     0.003 A 
ATOM      6  C4  PXY d   1      -2.116   2.128  -2.934  0.00  0.00    -0.082 A 
ATOM      7  C5  PXY d   1      -1.876   2.332  -4.247  0.00  0.00     0.003 A 
ATOM      8  C6  PXY d   1      -0.764   3.079  -4.625  0.00  0.00     0.003 A 
ENDROOT
TORSDOF 0
ENDMDL
