MODEL 1
REMARK minimizedAffinity -1.52056217
REMARK minimizedRMSD -1
REMARK  0 active torsions:
REMARK  status: ('A' for Active; 'I' for Inactive)
ROOT
ATOM      1  C4' PXY d   1      -2.860   2.060  -4.592  0.00  0.00     0.077 C 
ATOM      2  C1' PXY d   1      -0.298   0.441   0.331  0.00  0.00     0.077 C 
ATOM      3  C1  PXY d   1      -0.962   0.877  -0.961  0.00  0.00    -0.082 A 
ATOM      4  C2  PXY d   1      -2.174   0.433  -1.255  0.00  0.00     0.003 A 
ATOM      5  C3  PXY d   1      -2.776   0.791  -2.433  0.00  0.00     0.003 A 
ATOM      6  C4  PXY d   1      -2.154   1.654  -3.295  0.00  0.00    -0.082 A 
ATOM      7  C5  PXY d   1      -0.923   2.120  -2.997  0.00  0.00     0.003 A 
ATOM      8  C6  PXY d   1      -0.311   1.712  -1.815  0.00  0.00     0.003 A 
ENDROOT
TORSDOF 0
ENDMDL
