MODEL 1
REMARK minimizedAffinity -1.36687052
REMARK minimizedRMSD -1
REMARK  0 active torsions:
REMARK  status: ('A' for Active; 'I' for Inactive)
ROOT
ATOM      1  C4' PXY d   1      -0.774   2.224  -1.684  0.00  0.00     0.077 C 
ATOM      2  C1' PXY d   1       1.899  -1.743   1.561  0.00  0.00     0.077 C 
ATOM      3  C1  PXY d   1       1.186  -0.707   0.714  0.00  0.00    -0.082 A 
ATOM      4  C2  PXY d   1       1.794  -0.197  -0.344  0.00  0.00     0.003 A 
ATOM      5  C3  PXY d   1       1.177   0.764  -1.103  0.00  0.00     0.003 A 
ATOM      6  C4  PXY d   1      -0.097   1.169  -0.806  0.00  0.00    -0.082 A 
ATOM      7  C5  PXY d   1      -0.728   0.645   0.267  0.00  0.00     0.003 A 
ATOM      8  C6  PXY d   1      -0.068  -0.299   1.048  0.00  0.00     0.003 A 
ENDROOT
TORSDOF 0
ENDMDL
