MODEL 1
REMARK minimizedAffinity -3.39369011
REMARK minimizedRMSD -1
REMARK  0 active torsions:
REMARK  status: ('A' for Active; 'I' for Inactive)
ROOT
ATOM      1  C4' PXY d   1      -1.765   1.846  -2.027  0.00  0.00     0.077 C 
ATOM      2  C1' PXY d   1       1.928  -1.334   1.083  0.00  0.00     0.077 C 
ATOM      3  C1  PXY d   1       0.955  -0.494   0.278  0.00  0.00    -0.082 A 
ATOM      4  C2  PXY d   1       0.519  -0.937  -0.890  0.00  0.00     0.003 A 
ATOM      5  C3  PXY d   1      -0.335  -0.176  -1.645  0.00  0.00     0.003 A 
ATOM      6  C4  PXY d   1      -0.790   1.027  -1.176  0.00  0.00    -0.082 A 
ATOM      7  C5  PXY d   1      -0.358   1.481   0.020  0.00  0.00     0.003 A 
ATOM      8  C6  PXY d   1       0.541   0.712   0.752  0.00  0.00     0.003 A 
ENDROOT
TORSDOF 0
ENDMDL
