MODEL 1
REMARK minimizedAffinity 8.7986784
REMARK minimizedRMSD -1
REMARK  1 active torsions:
REMARK  status: ('A' for Active; 'I' for Inactive)
REMARK    1  A    between atoms: N_2  and  C1_3 
ROOT
ATOM      1  C1  UNL d   1      -2.795  -3.033  -6.000  0.00  0.00     0.143 A 
ATOM      2  C2  UNL d   1      -3.950  -3.823  -6.000  0.00  0.00    -0.057 A 
ATOM      3  C3  UNL d   1      -5.225  -3.245  -5.972  0.00  0.00     0.033 A 
ATOM      4  C4  UNL d   1      -5.367  -1.862  -5.915  0.00  0.00    -0.042 A 
ATOM      5  C5  UNL d   1      -4.233  -1.059  -5.889  0.00  0.00     0.033 A 
ATOM      6  C6  UNL d   1      -2.963  -1.642  -5.923  0.00  0.00    -0.057 A 
ENDROOT
BRANCH   1   7
ATOM      7  N   UNL d   1      -1.499  -3.550  -5.926  0.00  0.00    -0.732 N 
ATOM      8  C   UNL d   1      -0.353  -2.667  -5.916  0.00  0.00     0.284 C 
ATOM      9  H3  UNL d   1      -1.429  -4.331  -5.278  0.00  0.00     0.395 HD
ENDBRANCH   1   7
TORSDOF 1
ENDMDL
