MODEL 1
REMARK minimizedAffinity 15.2240696
REMARK minimizedRMSD -1
REMARK  1 active torsions:
REMARK  status: ('A' for Active; 'I' for Inactive)
REMARK    1  A    between atoms: N_2  and  C1_3 
ROOT
ATOM      1  C1  UNL d   1       2.750   3.154  -2.576  0.00  0.00     0.143 A 
ATOM      2  C2  UNL d   1       2.242   4.430  -2.846  0.00  0.00    -0.057 A 
ATOM      3  C3  UNL d   1       2.867   5.281  -3.765  0.00  0.00     0.033 A 
ATOM      4  C4  UNL d   1       4.032   4.881  -4.410  0.00  0.00    -0.042 A 
ATOM      5  C5  UNL d   1       4.569   3.628  -4.139  0.00  0.00     0.033 A 
ATOM      6  C6  UNL d   1       3.936   2.780  -3.225  0.00  0.00    -0.057 A 
ENDROOT
BRANCH   1   7
ATOM      7  N   UNL d   1       2.229   2.300  -1.600  0.00  0.00    -0.732 N 
ATOM      8  C   UNL d   1       1.751   0.981  -1.955  0.00  0.00     0.284 C 
ATOM      9  H3  UNL d   1       2.762   2.330  -0.734  0.00  0.00     0.395 HD
ENDBRANCH   1   7
TORSDOF 1
ENDMDL
