MODEL 1
REMARK minimizedAffinity 9.1532383
REMARK minimizedRMSD -1
REMARK  1 active torsions:
REMARK  status: ('A' for Active; 'I' for Inactive)
REMARK    1  A    between atoms: N_2  and  C1_3 
ROOT
ATOM      1  C1  UNL d   1      -2.698   0.592   1.503  0.00  0.00     0.143 A 
ATOM      2  C2  UNL d   1      -3.163   0.965   2.768  0.00  0.00    -0.057 A 
ATOM      3  C3  UNL d   1      -4.523   1.210   2.999  0.00  0.00     0.033 A 
ATOM      4  C4  UNL d   1      -5.439   1.113   1.958  0.00  0.00    -0.042 A 
ATOM      5  C5  UNL d   1      -4.996   0.768   0.686  0.00  0.00     0.033 A 
ATOM      6  C6  UNL d   1      -3.638   0.519   0.463  0.00  0.00    -0.057 A 
ENDROOT
BRANCH   1   7
ATOM      7  N   UNL d   1      -1.347   0.432   1.187  0.00  0.00    -0.732 N 
ATOM      8  C   UNL d   1      -0.319   0.802   2.136  0.00  0.00     0.284 C 
ATOM      9  H3  UNL d   1      -1.163  -0.439   0.695  0.00  0.00     0.395 HD
ENDBRANCH   1   7
TORSDOF 1
ENDMDL
