MODEL 1
REMARK minimizedAffinity 11.5467606
REMARK minimizedRMSD -1
REMARK  1 active torsions:
REMARK  status: ('A' for Active; 'I' for Inactive)
REMARK    1  A    between atoms: N_2  and  C1_3 
ROOT
ATOM      1  C1  UNL d   1       3.217   0.352  -3.579  0.00  0.00     0.143 A 
ATOM      2  C2  UNL d   1       4.200   0.350  -4.574  0.00  0.00    -0.057 A 
ATOM      3  C3  UNL d   1       4.013  -0.338  -5.779  0.00  0.00     0.033 A 
ATOM      4  C4  UNL d   1       2.847  -1.064  -5.998  0.00  0.00    -0.042 A 
ATOM      5  C5  UNL d   1       1.866  -1.096  -5.013  0.00  0.00     0.033 A 
ATOM      6  C6  UNL d   1       2.056  -0.401  -3.815  0.00  0.00    -0.057 A 
ENDROOT
BRANCH   1   7
ATOM      7  N   UNL d   1       3.385   0.936  -2.321  0.00  0.00    -0.732 N 
ATOM      8  C   UNL d   1       2.292   1.638  -1.683  0.00  0.00     0.284 C 
ATOM      9  H3  UNL d   1       3.927   0.350  -1.690  0.00  0.00     0.395 HD
ENDBRANCH   1   7
TORSDOF 1
ENDMDL
