MODEL 1
REMARK minimizedAffinity -0.0948106274
REMARK minimizedRMSD -1
REMARK  1 active torsions:
REMARK  status: ('A' for Active; 'I' for Inactive)
REMARK    1  A    between atoms: N_2  and  C1_3 
ROOT
ATOM      1  C1  UNL d   1      -1.181   1.257   2.566  0.00  0.00     0.143 A 
ATOM      2  C2  UNL d   1      -0.331   2.241   3.083  0.00  0.00    -0.057 A 
ATOM      3  C3  UNL d   1       1.001   1.954   3.406  0.00  0.00     0.033 A 
ATOM      4  C4  UNL d   1       1.500   0.666   3.245  0.00  0.00    -0.042 A 
ATOM      5  C5  UNL d   1       0.666  -0.334   2.757  0.00  0.00     0.033 A 
ATOM      6  C6  UNL d   1      -0.661  -0.040   2.429  0.00  0.00    -0.057 A 
ENDROOT
BRANCH   1   7
ATOM      7  N   UNL d   1      -2.541   1.455   2.318  0.00  0.00    -0.732 N 
ATOM      8  C   UNL d   1      -3.199   0.771   1.226  0.00  0.00     0.284 C 
ATOM      9  H3  UNL d   1      -3.090   1.496   3.174  0.00  0.00     0.395 HD
ENDBRANCH   1   7
TORSDOF 1
ENDMDL
