MODEL 1
REMARK minimizedAffinity 5.63239145
REMARK minimizedRMSD -1
REMARK  1 active torsions:
REMARK  status: ('A' for Active; 'I' for Inactive)
REMARK    1  A    between atoms: N_2  and  C1_3 
ROOT
ATOM      1  C1  UNL d   1      -3.004   1.300   2.705  0.00  0.00     0.143 A 
ATOM      2  C2  UNL d   1      -3.660   1.788   1.570  0.00  0.00    -0.057 A 
ATOM      3  C3  UNL d   1      -4.928   1.318   1.205  0.00  0.00     0.033 A 
ATOM      4  C4  UNL d   1      -5.552   0.328   1.957  0.00  0.00    -0.042 A 
ATOM      5  C5  UNL d   1      -4.908  -0.189   3.075  0.00  0.00     0.033 A 
ATOM      6  C6  UNL d   1      -3.645   0.289   3.438  0.00  0.00    -0.057 A 
ENDROOT
BRANCH   1   7
ATOM      7  N   UNL d   1      -1.702   1.656   3.064  0.00  0.00    -0.732 N 
ATOM      8  C   UNL d   1      -0.648   0.665   3.089  0.00  0.00     0.284 C 
ATOM      9  H3  UNL d   1      -1.421   2.551   2.671  0.00  0.00     0.395 HD
ENDBRANCH   1   7
TORSDOF 1
ENDMDL
