MODEL 1
REMARK minimizedAffinity 0.0819078907
REMARK minimizedRMSD -1
REMARK  1 active torsions:
REMARK  status: ('A' for Active; 'I' for Inactive)
REMARK    1  A    between atoms: N_2  and  C1_3 
ROOT
ATOM      1  C1  UNL d   1      -2.732  -1.222   0.766  0.00  0.00     0.143 A 
ATOM      2  C2  UNL d   1      -1.413  -1.610   1.023  0.00  0.00    -0.057 A 
ATOM      3  C3  UNL d   1      -1.019  -2.950   0.925  0.00  0.00     0.033 A 
ATOM      4  C4  UNL d   1      -1.947  -3.933   0.596  0.00  0.00    -0.042 A 
ATOM      5  C5  UNL d   1      -3.269  -3.573   0.361  0.00  0.00     0.033 A 
ATOM      6  C6  UNL d   1      -3.655  -2.232   0.453  0.00  0.00    -0.057 A 
ENDROOT
BRANCH   1   7
ATOM      7  N   UNL d   1      -3.208   0.080   0.942  0.00  0.00    -0.732 N 
ATOM      8  C   UNL d   1      -2.776   0.876   2.070  0.00  0.00     0.284 C 
ATOM      9  H3  UNL d   1      -3.264   0.595   0.066  0.00  0.00     0.395 HD
ENDBRANCH   1   7
TORSDOF 1
ENDMDL
