MODEL 1
REMARK minimizedAffinity 8.35607719
REMARK minimizedRMSD -1
REMARK  1 active torsions:
REMARK  status: ('A' for Active; 'I' for Inactive)
REMARK    1  A    between atoms: N_2  and  C1_3 
ROOT
ATOM      1  C1  UNL d   1      -3.509  -2.412  -5.882  0.00  0.00     0.143 A 
ATOM      2  C2  UNL d   1      -3.480  -1.044  -5.591  0.00  0.00    -0.057 A 
ATOM      3  C3  UNL d   1      -2.268  -0.354  -5.466  0.00  0.00     0.033 A 
ATOM      4  C4  UNL d   1      -1.059  -1.029  -5.602  0.00  0.00    -0.042 A 
ATOM      5  C5  UNL d   1      -1.064  -2.394  -5.867  0.00  0.00     0.033 A 
ATOM      6  C6  UNL d   1      -2.278  -3.076  -5.997  0.00  0.00    -0.057 A 
ENDROOT
BRANCH   1   7
ATOM      7  N   UNL d   1      -4.679  -3.174  -5.922  0.00  0.00    -0.732 N 
ATOM      8  C   UNL d   1      -4.617  -4.618  -5.994  0.00  0.00     0.284 C 
ATOM      9  H3  UNL d   1      -5.395  -2.820  -5.291  0.00  0.00     0.395 HD
ENDBRANCH   1   7
TORSDOF 1
ENDMDL
