MODEL 1
REMARK minimizedAffinity 2.52226329
REMARK minimizedRMSD -1
REMARK  1 active torsions:
REMARK  status: ('A' for Active; 'I' for Inactive)
REMARK    1  A    between atoms: N_2  and  C1_3 
ROOT
ATOM      1  C1  UNL d   1      -3.694  -0.860   0.893  0.00  0.00     0.143 A 
ATOM      2  C2  UNL d   1      -4.536   0.053   1.538  0.00  0.00    -0.057 A 
ATOM      3  C3  UNL d   1      -4.017   1.102   2.307  0.00  0.00     0.033 A 
ATOM      4  C4  UNL d   1      -2.642   1.239   2.469  0.00  0.00    -0.042 A 
ATOM      5  C5  UNL d   1      -1.787   0.328   1.859  0.00  0.00     0.033 A 
ATOM      6  C6  UNL d   1      -2.312  -0.713   1.086  0.00  0.00    -0.057 A 
ENDROOT
BRANCH   1   7
ATOM      7  N   UNL d   1      -4.151  -1.980   0.196  0.00  0.00    -0.732 N 
ATOM      8  C   UNL d   1      -3.420  -3.228   0.246  0.00  0.00     0.284 C 
ATOM      9  H3  UNL d   1      -5.161  -2.088   0.252  0.00  0.00     0.395 HD
ENDBRANCH   1   7
TORSDOF 1
ENDMDL
