MODEL 1
REMARK minimizedAffinity 8.02608299
REMARK minimizedRMSD -1
REMARK  1 active torsions:
REMARK  status: ('A' for Active; 'I' for Inactive)
REMARK    1  A    between atoms: N_2  and  C1_3 
ROOT
ATOM      1  C1  UNL d   1      -3.039   0.732   1.336  0.00  0.00     0.143 A 
ATOM      2  C2  UNL d   1      -3.171   1.601   2.424  0.00  0.00    -0.057 A 
ATOM      3  C3  UNL d   1      -2.090   1.871   3.273  0.00  0.00     0.033 A 
ATOM      4  C4  UNL d   1      -0.863   1.251   3.065  0.00  0.00    -0.042 A 
ATOM      5  C5  UNL d   1      -0.716   0.365   2.004  0.00  0.00     0.033 A 
ATOM      6  C6  UNL d   1      -1.796   0.105   1.156  0.00  0.00    -0.057 A 
ENDROOT
BRANCH   1   7
ATOM      7  N   UNL d   1      -4.102   0.348   0.515  0.00  0.00    -0.732 N 
ATOM      8  C   UNL d   1      -4.549  -1.028   0.484  0.00  0.00     0.284 C 
ATOM      9  H3  UNL d   1      -4.856   1.031   0.510  0.00  0.00     0.395 HD
ENDBRANCH   1   7
TORSDOF 1
ENDMDL
