MODEL 1
REMARK minimizedAffinity 8.97166157
REMARK minimizedRMSD -1
REMARK  1 active torsions:
REMARK  status: ('A' for Active; 'I' for Inactive)
REMARK    1  A    between atoms: N_2  and  C1_3 
ROOT
ATOM      1  C1  UNL d   1      -3.956   0.455   3.090  0.00  0.00     0.143 A 
ATOM      2  C2  UNL d   1      -4.517   0.691   1.831  0.00  0.00    -0.057 A 
ATOM      3  C3  UNL d   1      -3.746   0.609   0.665  0.00  0.00     0.033 A 
ATOM      4  C4  UNL d   1      -2.388   0.317   0.741  0.00  0.00    -0.042 A 
ATOM      5  C5  UNL d   1      -1.804   0.103   1.984  0.00  0.00     0.033 A 
ATOM      6  C6  UNL d   1      -2.580   0.180   3.144  0.00  0.00    -0.057 A 
ENDROOT
BRANCH   1   7
ATOM      7  N   UNL d   1      -4.647   0.619   4.293  0.00  0.00    -0.732 N 
ATOM      8  C   UNL d   1      -5.880   1.376   4.338  0.00  0.00     0.284 C 
ATOM      9  H3  UNL d   1      -4.661  -0.232   4.852  0.00  0.00     0.395 HD
ENDBRANCH   1   7
TORSDOF 1
ENDMDL
