MODEL 1
REMARK minimizedAffinity 2.50787067
REMARK minimizedRMSD -1
REMARK  1 active torsions:
REMARK  status: ('A' for Active; 'I' for Inactive)
REMARK    1  A    between atoms: N_2  and  C1_3 
ROOT
ATOM      1  C1  UNL d   1      -5.523  -1.590   2.955  0.00  0.00     0.143 A 
ATOM      2  C2  UNL d   1      -5.194  -0.386   3.587  0.00  0.00    -0.057 A 
ATOM      3  C3  UNL d   1      -4.683   0.698   2.863  0.00  0.00     0.033 A 
ATOM      4  C4  UNL d   1      -4.463   0.586   1.494  0.00  0.00    -0.042 A 
ATOM      5  C5  UNL d   1      -4.759  -0.610   0.849  0.00  0.00     0.033 A 
ATOM      6  C6  UNL d   1      -5.275  -1.686   1.577  0.00  0.00    -0.057 A 
ENDROOT
BRANCH   1   7
ATOM      7  N   UNL d   1      -5.942  -2.736   3.635  0.00  0.00    -0.732 N 
ATOM      8  C   UNL d   1      -5.485  -3.002   4.982  0.00  0.00     0.284 C 
ATOM      9  H3  UNL d   1      -6.927  -2.939   3.483  0.00  0.00     0.395 HD
ENDBRANCH   1   7
TORSDOF 1
ENDMDL
