MODEL 1
REMARK minimizedAffinity 4.10947657
REMARK minimizedRMSD -1
REMARK  1 active torsions:
REMARK  status: ('A' for Active; 'I' for Inactive)
REMARK    1  A    between atoms: N_2  and  C1_3 
ROOT
ATOM      1  C1  UNL d   1      -3.320   0.018   1.410  0.00  0.00     0.143 A 
ATOM      2  C2  UNL d   1      -3.326   1.366   1.785  0.00  0.00    -0.057 A 
ATOM      3  C3  UNL d   1      -2.163   1.996   2.247  0.00  0.00     0.033 A 
ATOM      4  C4  UNL d   1      -0.978   1.278   2.370  0.00  0.00    -0.042 A 
ATOM      5  C5  UNL d   1      -0.956  -0.069   2.026  0.00  0.00     0.033 A 
ATOM      6  C6  UNL d   1      -2.118  -0.691   1.559  0.00  0.00    -0.057 A 
ENDROOT
BRANCH   1   7
ATOM      7  N   UNL d   1      -4.466  -0.690   1.036  0.00  0.00    -0.732 N 
ATOM      8  C   UNL d   1      -4.360  -1.903   0.254  0.00  0.00     0.284 C 
ATOM      9  H3  UNL d   1      -5.155  -0.735   1.783  0.00  0.00     0.395 HD
ENDBRANCH   1   7
TORSDOF 1
ENDMDL
