MODEL 1
REMARK minimizedAffinity 7.6483984
REMARK minimizedRMSD -1
REMARK  1 active torsions:
REMARK  status: ('A' for Active; 'I' for Inactive)
REMARK    1  A    between atoms: N_2  and  C1_3 
ROOT
ATOM      1  C1  UNL d   1      -1.435   1.272   2.737  0.00  0.00     0.143 A 
ATOM      2  C2  UNL d   1      -0.900   2.505   3.124  0.00  0.00    -0.057 A 
ATOM      3  C3  UNL d   1       0.429   2.619   3.549  0.00  0.00     0.033 A 
ATOM      4  C4  UNL d   1       1.241   1.492   3.622  0.00  0.00    -0.042 A 
ATOM      5  C5  UNL d   1       0.723   0.252   3.266  0.00  0.00     0.033 A 
ATOM      6  C6  UNL d   1      -0.603   0.146   2.836  0.00  0.00    -0.057 A 
ENDROOT
BRANCH   1   7
ATOM      7  N   UNL d   1      -2.777   1.077   2.400  0.00  0.00    -0.732 N 
ATOM      8  C   UNL d   1      -3.138   0.343   1.206  0.00  0.00     0.284 C 
ATOM      9  H3  UNL d   1      -3.354   0.863   3.210  0.00  0.00     0.395 HD
ENDBRANCH   1   7
TORSDOF 1
ENDMDL
