MODEL 1
REMARK minimizedAffinity 2.03885102
REMARK minimizedRMSD -1
REMARK  0 active torsions:
REMARK  status: ('A' for Active; 'I' for Inactive)
ROOT
ATOM      1  C1  BNZ d   1      -5.931   3.943   3.638  0.00  0.00     0.000 A 
ATOM      2  C2  BNZ d   1      -5.833   5.309   3.653  0.00  0.00     0.000 A 
ATOM      3  C3  BNZ d   1      -5.791   5.995   4.834  0.00  0.00     0.000 A 
ATOM      4  C4  BNZ d   1      -5.889   5.319   5.997  0.00  0.00     0.000 A 
ATOM      5  C5  BNZ d   1      -5.998   3.943   5.999  0.00  0.00     0.000 A 
ATOM      6  C6  BNZ d   1      -6.000   3.252   4.809  0.00  0.00     0.000 A 
ENDROOT
TORSDOF 0
ENDMDL
