MODEL 1
REMARK minimizedAffinity -0.727556884
REMARK minimizedRMSD -1
REMARK  0 active torsions:
REMARK  status: ('A' for Active; 'I' for Inactive)
ROOT
ATOM      1  C1  BNZ d   1      -5.993   5.165   3.459  0.00  0.00     0.000 A 
ATOM      2  C2  BNZ d   1      -6.000   5.973   4.565  0.00  0.00     0.000 A 
ATOM      3  C3  BNZ d   1      -5.980   5.437   5.823  0.00  0.00     0.000 A 
ATOM      4  C4  BNZ d   1      -5.995   4.097   5.973  0.00  0.00     0.000 A 
ATOM      5  C5  BNZ d   1      -5.998   3.270   4.868  0.00  0.00     0.000 A 
ATOM      6  C6  BNZ d   1      -5.978   3.812   3.603  0.00  0.00     0.000 A 
ENDROOT
TORSDOF 0
ENDMDL
