MODEL 1
REMARK minimizedAffinity 4.78341389
REMARK minimizedRMSD -1
REMARK  0 active torsions:
REMARK  status: ('A' for Active; 'I' for Inactive)
ROOT
ATOM      1  C1  BNZ d   1       6.000   1.873   0.300  0.00  0.00     0.000 A 
ATOM      2  C2  BNZ d   1       6.000   2.784  -0.722  0.00  0.00     0.000 A 
ATOM      3  C3  BNZ d   1       4.881   2.983  -1.481  0.00  0.00     0.000 A 
ATOM      4  C4  BNZ d   1       3.778   2.245  -1.244  0.00  0.00     0.000 A 
ATOM      5  C5  BNZ d   1       3.765   1.316  -0.223  0.00  0.00     0.000 A 
ATOM      6  C6  BNZ d   1       4.881   1.145   0.565  0.00  0.00     0.000 A 
ENDROOT
TORSDOF 0
ENDMDL
