MODEL 1
REMARK minimizedAffinity 5.71425056
REMARK minimizedRMSD -1
REMARK  0 active torsions:
REMARK  status: ('A' for Active; 'I' for Inactive)
ROOT
ATOM      1  C1  BNZ d   1       4.279   3.396   4.232  0.00  0.00     0.000 A 
ATOM      2  C2  BNZ d   1       3.199   3.033   4.992  0.00  0.00     0.000 A 
ATOM      3  C3  BNZ d   1       2.157   2.341   4.442  0.00  0.00     0.000 A 
ATOM      4  C4  BNZ d   1       2.177   2.048   3.125  0.00  0.00     0.000 A 
ATOM      5  C5  BNZ d   1       3.254   2.415   2.344  0.00  0.00     0.000 A 
ATOM      6  C6  BNZ d   1       4.320   3.077   2.910  0.00  0.00     0.000 A 
ENDROOT
TORSDOF 0
ENDMDL
