MODEL 1
REMARK minimizedAffinity 4.35283566
REMARK minimizedRMSD -1
REMARK  0 active torsions:
REMARK  status: ('A' for Active; 'I' for Inactive)
ROOT
ATOM      1  C1  BNZ d   1       3.934   2.690  -0.091  0.00  0.00     0.000 A 
ATOM      2  C2  BNZ d   1       5.236   2.642   0.328  0.00  0.00     0.000 A 
ATOM      3  C3  BNZ d   1       5.806   1.459   0.707  0.00  0.00     0.000 A 
ATOM      4  C4  BNZ d   1       5.062   0.334   0.705  0.00  0.00     0.000 A 
ATOM      5  C5  BNZ d   1       3.744   0.368   0.294  0.00  0.00     0.000 A 
ATOM      6  C6  BNZ d   1       3.186   1.554  -0.124  0.00  0.00     0.000 A 
ENDROOT
TORSDOF 0
ENDMDL
