MODEL 1
REMARK minimizedAffinity -2.33888793
REMARK minimizedRMSD -1
REMARK  0 active torsions:
REMARK  status: ('A' for Active; 'I' for Inactive)
ROOT
ATOM      1  C1  BNZ d   1      -6.000   4.441   4.767  0.00  0.00     0.000 A 
ATOM      2  C2  BNZ d   1      -5.094   4.492   3.741  0.00  0.00     0.000 A 
ATOM      3  C3  BNZ d   1      -3.965   5.257   3.842  0.00  0.00     0.000 A 
ATOM      4  C4  BNZ d   1      -3.764   6.000   4.950  0.00  0.00     0.000 A 
ATOM      5  C5  BNZ d   1      -4.673   5.966   5.988  0.00  0.00     0.000 A 
ATOM      6  C6  BNZ d   1      -5.788   5.164   5.899  0.00  0.00     0.000 A 
ENDROOT
TORSDOF 0
ENDMDL
