MODEL 1
REMARK minimizedAffinity -0.398386747
REMARK minimizedRMSD -1
REMARK  0 active torsions:
REMARK  status: ('A' for Active; 'I' for Inactive)
ROOT
ATOM      1  C1  BNZ d   1       2.854   0.967  -1.082  0.00  0.00     0.000 A 
ATOM      2  C2  BNZ d   1       4.079   1.574  -1.169  0.00  0.00     0.000 A 
ATOM      3  C3  BNZ d   1       4.607   2.242  -0.100  0.00  0.00     0.000 A 
ATOM      4  C4  BNZ d   1       3.894   2.336   1.041  0.00  0.00     0.000 A 
ATOM      5  C5  BNZ d   1       2.654   1.737   1.141  0.00  0.00     0.000 A 
ATOM      6  C6  BNZ d   1       2.142   1.033   0.076  0.00  0.00     0.000 A 
ENDROOT
TORSDOF 0
ENDMDL
