MODEL 1
REMARK minimizedAffinity -1.22145915
REMARK minimizedRMSD -1
REMARK  2 active torsions:
REMARK  status: ('A' for Active; 'I' for Inactive)
REMARK    1  A    between atoms: C2'_3  and  C1'_4 
REMARK    2  A    between atoms: C1'_4  and  C1_5 
ROOT
ATOM      1  C1  I4B d   1      -1.300   0.377   1.635  0.00  0.00    -0.075 A 
ATOM      2  C2  I4B d   1      -0.669   1.419   1.002  0.00  0.00     0.003 A 
ATOM      3  C3  I4B d   1       0.678   1.289   0.585  0.00  0.00     0.002 A 
ATOM      4  C4  I4B d   1       1.367   0.127   0.865  0.00  0.00    -0.004 A 
ATOM      5  C5  I4B d   1       0.719  -0.936   1.486  0.00  0.00     0.002 A 
ATOM      6  C6  I4B d   1      -0.626  -0.816   1.863  0.00  0.00     0.003 A 
ENDROOT
BRANCH   1   7
ATOM      7  C1' I4B d   1      -2.713   0.560   2.091  0.00  0.00     0.060 C 
BRANCH   7   8
ATOM      8  C2' I4B d   1      -2.847   1.964   2.643  0.00  0.00    -0.013 C 
ATOM      9  C4' I4B d   1      -2.776   2.991   1.543  0.00  0.00     0.013 C 
ATOM     10  C3' I4B d   1      -4.150   2.050   3.380  0.00  0.00     0.013 C 
ENDBRANCH   7   8
ENDBRANCH   1   7
TORSDOF 2
ENDMDL
