MODEL 1
REMARK minimizedAffinity 2.80427051
REMARK minimizedRMSD -1
REMARK  2 active torsions:
REMARK  status: ('A' for Active; 'I' for Inactive)
REMARK    1  A    between atoms: C2'_3  and  C1'_4 
REMARK    2  A    between atoms: C1'_4  and  C1_5 
ROOT
ATOM      1  C1  I4B d   1      -0.938   0.094   1.942  0.00  0.00    -0.075 A 
ATOM      2  C2  I4B d   1       0.363   0.271   1.542  0.00  0.00     0.003 A 
ATOM      3  C3  I4B d   1       0.854   1.571   1.269  0.00  0.00     0.002 A 
ATOM      4  C4  I4B d   1       0.002   2.652   1.359  0.00  0.00    -0.004 A 
ATOM      5  C5  I4B d   1      -1.311   2.473   1.787  0.00  0.00     0.002 A 
ATOM      6  C6  I4B d   1      -1.781   1.187   2.092  0.00  0.00     0.003 A 
ENDROOT
BRANCH   1   7
ATOM      7  C1' I4B d   1      -1.432  -1.296   2.190  0.00  0.00     0.060 C 
BRANCH   7   8
ATOM      8  C2' I4B d   1      -2.471  -1.232   3.291  0.00  0.00    -0.013 C 
ATOM      9  C4' I4B d   1      -3.849  -1.528   2.759  0.00  0.00     0.013 C 
ATOM     10  C3' I4B d   1      -2.079  -2.214   4.355  0.00  0.00     0.013 C 
ENDBRANCH   7   8
ENDBRANCH   1   7
TORSDOF 2
ENDMDL
