MODEL 1
REMARK minimizedAffinity 11.0587044
REMARK minimizedRMSD -1
REMARK  2 active torsions:
REMARK  status: ('A' for Active; 'I' for Inactive)
REMARK    1  A    between atoms: C2'_3  and  C1'_4 
REMARK    2  A    between atoms: C1'_4  and  C1_5 
ROOT
ATOM      1  C1  I4B d   1       0.094   0.302   2.214  0.00  0.00    -0.075 A 
ATOM      2  C2  I4B d   1       1.003   0.417   1.191  0.00  0.00     0.003 A 
ATOM      3  C3  I4B d   1       1.077   1.612   0.435  0.00  0.00     0.002 A 
ATOM      4  C4  I4B d   1       0.195   2.640   0.700  0.00  0.00    -0.004 A 
ATOM      5  C5  I4B d   1      -0.710   2.530   1.752  0.00  0.00     0.002 A 
ATOM      6  C6  I4B d   1      -0.753   1.359   2.522  0.00  0.00     0.003 A 
ENDROOT
BRANCH   1   7
ATOM      7  C1' I4B d   1       0.021  -0.986   2.971  0.00  0.00     0.060 C 
BRANCH   7   8
ATOM      8  C2' I4B d   1      -1.058  -1.840   2.336  0.00  0.00    -0.013 C 
ATOM      9  C4' I4B d   1      -0.801  -3.305   2.569  0.00  0.00     0.013 C 
ATOM     10  C3' I4B d   1      -2.378  -1.423   2.913  0.00  0.00     0.013 C 
ENDBRANCH   7   8
ENDBRANCH   1   7
TORSDOF 2
ENDMDL
