MODEL 1
REMARK minimizedAffinity 8.76708126
REMARK minimizedRMSD -1
REMARK  2 active torsions:
REMARK  status: ('A' for Active; 'I' for Inactive)
REMARK    1  A    between atoms: C2'_3  and  C1'_4 
REMARK    2  A    between atoms: C1'_4  and  C1_5 
ROOT
ATOM      1  C1  I4B d   1      -4.434   2.606   3.577  0.00  0.00    -0.075 A 
ATOM      2  C2  I4B d   1      -5.171   3.719   3.897  0.00  0.00     0.003 A 
ATOM      3  C3  I4B d   1      -5.854   3.789   5.136  0.00  0.00     0.002 A 
ATOM      4  C4  I4B d   1      -5.813   2.711   5.996  0.00  0.00    -0.004 A 
ATOM      5  C5  I4B d   1      -5.047   1.593   5.680  0.00  0.00     0.002 A 
ATOM      6  C6  I4B d   1      -4.342   1.545   4.468  0.00  0.00     0.003 A 
ENDROOT
BRANCH   1   7
ATOM      7  C1' I4B d   1      -3.753   2.552   2.246  0.00  0.00     0.060 C 
BRANCH   7   8
ATOM      8  C2' I4B d   1      -2.495   1.721   2.399  0.00  0.00    -0.013 C 
ATOM      9  C4' I4B d   1      -2.768   0.264   2.135  0.00  0.00     0.013 C 
ATOM     10  C3' I4B d   1      -1.466   2.260   1.450  0.00  0.00     0.013 C 
ENDBRANCH   7   8
ENDBRANCH   1   7
TORSDOF 2
ENDMDL
