MODEL 1
REMARK minimizedAffinity 6.09996939
REMARK minimizedRMSD -1
REMARK  2 active torsions:
REMARK  status: ('A' for Active; 'I' for Inactive)
REMARK    1  A    between atoms: C2'_3  and  C1'_4 
REMARK    2  A    between atoms: C1'_4  and  C1_5 
ROOT
ATOM      1  C1  I4B d   1      -2.609  -4.116  -0.958  0.00  0.00    -0.075 A 
ATOM      2  C2  I4B d   1      -3.803  -3.801  -0.358  0.00  0.00     0.003 A 
ATOM      3  C3  I4B d   1      -4.533  -2.663  -0.779  0.00  0.00     0.002 A 
ATOM      4  C4  I4B d   1      -4.013  -1.846  -1.761  0.00  0.00    -0.004 A 
ATOM      5  C5  I4B d   1      -2.814  -2.180  -2.384  0.00  0.00     0.002 A 
ATOM      6  C6  I4B d   1      -2.113  -3.329  -1.989  0.00  0.00     0.003 A 
ENDROOT
BRANCH   1   7
ATOM      7  C1' I4B d   1      -1.848  -5.306  -0.467  0.00  0.00     0.060 C 
BRANCH   7   8
ATOM      8  C2' I4B d   1      -0.556  -4.811   0.150  0.00  0.00    -0.013 C 
ATOM      9  C4' I4B d   1       0.422  -4.373  -0.909  0.00  0.00     0.013 C 
ATOM     10  C3' I4B d   1      -0.889  -3.682   1.080  0.00  0.00     0.013 C 
ENDBRANCH   7   8
ENDBRANCH   1   7
TORSDOF 2
ENDMDL
