MODEL 1
REMARK minimizedAffinity 5.14285326
REMARK minimizedRMSD -1
REMARK  2 active torsions:
REMARK  status: ('A' for Active; 'I' for Inactive)
REMARK    1  A    between atoms: C2'_3  and  C1'_4 
REMARK    2  A    between atoms: C1'_4  and  C1_5 
ROOT
ATOM      1  C1  I4B d   1      -2.385  -2.691  -0.446  0.00  0.00    -0.075 A 
ATOM      2  C2  I4B d   1      -2.753  -3.957  -0.828  0.00  0.00     0.003 A 
ATOM      3  C3  I4B d   1      -1.856  -5.040  -0.663  0.00  0.00     0.002 A 
ATOM      4  C4  I4B d   1      -0.592  -4.805  -0.161  0.00  0.00    -0.004 A 
ATOM      5  C5  I4B d   1      -0.229  -3.524   0.247  0.00  0.00     0.002 A 
ATOM      6  C6  I4B d   1      -1.136  -2.463   0.116  0.00  0.00     0.003 A 
ENDROOT
BRANCH   1   7
ATOM      7  C1' I4B d   1      -3.345  -1.565  -0.665  0.00  0.00     0.060 C 
BRANCH   7   8
ATOM      8  C2' I4B d   1      -2.787  -0.682  -1.763  0.00  0.00    -0.013 C 
ATOM      9  C4' I4B d   1      -2.852  -1.370  -3.101  0.00  0.00     0.013 C 
ATOM     10  C3' I4B d   1      -3.570   0.596  -1.773  0.00  0.00     0.013 C 
ENDBRANCH   7   8
ENDBRANCH   1   7
TORSDOF 2
ENDMDL
