MODEL 1
REMARK minimizedAffinity 10.1147089
REMARK minimizedRMSD -1
REMARK  2 active torsions:
REMARK  status: ('A' for Active; 'I' for Inactive)
REMARK    1  A    between atoms: C2'_3  and  C1'_4 
REMARK    2  A    between atoms: C1'_4  and  C1_5 
ROOT
ATOM      1  C1  I4B d   1      -4.552   2.253   3.729  0.00  0.00    -0.075 A 
ATOM      2  C2  I4B d   1      -5.224   3.450   3.734  0.00  0.00     0.003 A 
ATOM      3  C3  I4B d   1      -5.922   3.871   4.891  0.00  0.00     0.002 A 
ATOM      4  C4  I4B d   1      -5.965   3.046   5.997  0.00  0.00    -0.004 A 
ATOM      5  C5  I4B d   1      -5.264   1.844   5.999  0.00  0.00     0.002 A 
ATOM      6  C6  I4B d   1      -4.543   1.450   4.862  0.00  0.00     0.003 A 
ENDROOT
BRANCH   1   7
ATOM      7  C1' I4B d   1      -3.852   1.824   2.479  0.00  0.00     0.060 C 
BRANCH   7   8
ATOM      8  C2' I4B d   1      -2.603   1.065   2.880  0.00  0.00    -0.013 C 
ATOM      9  C4' I4B d   1      -2.632  -0.347   2.359  0.00  0.00     0.013 C 
ATOM     10  C3' I4B d   1      -1.417   1.814   2.349  0.00  0.00     0.013 C 
ENDBRANCH   7   8
ENDBRANCH   1   7
TORSDOF 2
ENDMDL
