MODEL 1
REMARK minimizedAffinity 6.45590353
REMARK minimizedRMSD -1
REMARK  2 active torsions:
REMARK  status: ('A' for Active; 'I' for Inactive)
REMARK    1  A    between atoms: C2'_3  and  C1'_4 
REMARK    2  A    between atoms: C1'_4  and  C1_5 
ROOT
ATOM      1  C1  I4B d   1      -3.028   1.302   3.036  0.00  0.00    -0.075 A 
ATOM      2  C2  I4B d   1      -2.818  -0.042   2.850  0.00  0.00     0.003 A 
ATOM      3  C3  I4B d   1      -1.607  -0.503   2.280  0.00  0.00     0.002 A 
ATOM      4  C4  I4B d   1      -0.659   0.411   1.867  0.00  0.00    -0.004 A 
ATOM      5  C5  I4B d   1      -0.864   1.772   2.077  0.00  0.00     0.002 A 
ATOM      6  C6  I4B d   1      -2.050   2.220   2.676  0.00  0.00     0.003 A 
ENDROOT
BRANCH   1   7
ATOM      7  C1' I4B d   1      -4.332   1.756   3.610  0.00  0.00     0.060 C 
BRANCH   7   8
ATOM      8  C2' I4B d   1      -4.064   2.319   4.990  0.00  0.00    -0.013 C 
ATOM      9  C4' I4B d   1      -4.796   3.618   5.201  0.00  0.00     0.013 C 
ATOM     10  C3' I4B d   1      -4.483   1.291   5.999  0.00  0.00     0.013 C 
ENDBRANCH   7   8
ENDBRANCH   1   7
TORSDOF 2
ENDMDL
