MODEL 1
REMARK minimizedAffinity 7.45660114
REMARK minimizedRMSD -1
REMARK  2 active torsions:
REMARK  status: ('A' for Active; 'I' for Inactive)
REMARK    1  A    between atoms: C2'_3  and  C1'_4 
REMARK    2  A    between atoms: C1'_4  and  C1_5 
ROOT
ATOM      1  C1  I4B d   1      -1.791  -0.590   2.283  0.00  0.00    -0.075 A 
ATOM      2  C2  I4B d   1      -0.643  -1.221   2.690  0.00  0.00     0.003 A 
ATOM      3  C3  I4B d   1      -0.698  -2.237   3.674  0.00  0.00     0.002 A 
ATOM      4  C4  I4B d   1      -1.909  -2.554   4.256  0.00  0.00    -0.004 A 
ATOM      5  C5  I4B d   1      -3.076  -1.929   3.825  0.00  0.00     0.002 A 
ATOM      6  C6  I4B d   1      -3.019  -0.950   2.824  0.00  0.00     0.003 A 
ENDROOT
BRANCH   1   7
ATOM      7  C1' I4B d   1      -1.692   0.502   1.265  0.00  0.00     0.060 C 
BRANCH   7   8
ATOM      8  C2' I4B d   1      -1.020   1.691   1.921  0.00  0.00    -0.013 C 
ATOM      9  C4' I4B d   1       0.313   1.984   1.283  0.00  0.00     0.013 C 
ATOM     10  C3' I4B d   1      -1.944   2.866   1.807  0.00  0.00     0.013 C 
ENDBRANCH   7   8
ENDBRANCH   1   7
TORSDOF 2
ENDMDL
