MODEL 1
REMARK minimizedAffinity 15.1262226
REMARK minimizedRMSD -1
REMARK  2 active torsions:
REMARK  status: ('A' for Active; 'I' for Inactive)
REMARK    1  A    between atoms: C2'_3  and  C1'_4 
REMARK    2  A    between atoms: C1'_4  and  C1_5 
ROOT
ATOM      1  C1  I4B d   1       3.484   5.682  -2.919  0.00  0.00    -0.075 A 
ATOM      2  C2  I4B d   1       2.679   5.155  -3.898  0.00  0.00     0.003 A 
ATOM      3  C3  I4B d   1       3.208   4.876  -5.182  0.00  0.00     0.002 A 
ATOM      4  C4  I4B d   1       4.524   5.185  -5.457  0.00  0.00    -0.004 A 
ATOM      5  C5  I4B d   1       5.345   5.697  -4.456  0.00  0.00     0.002 A 
ATOM      6  C6  I4B d   1       4.825   5.936  -3.175  0.00  0.00     0.003 A 
ENDROOT
BRANCH   1   7
ATOM      7  C1' I4B d   1       2.886   5.994  -1.584  0.00  0.00     0.060 C 
BRANCH   7   8
ATOM      8  C2' I4B d   1       3.648   5.211  -0.535  0.00  0.00    -0.013 C 
ATOM      9  C4' I4B d   1       3.755   5.985   0.752  0.00  0.00     0.013 C 
ATOM     10  C3' I4B d   1       2.939   3.906  -0.326  0.00  0.00     0.013 C 
ENDBRANCH   7   8
ENDBRANCH   1   7
TORSDOF 2
ENDMDL
