MODEL 1
REMARK minimizedAffinity 0.27148205
REMARK minimizedRMSD -1
REMARK  2 active torsions:
REMARK  status: ('A' for Active; 'I' for Inactive)
REMARK    1  A    between atoms: C2'_3  and  C1'_4 
REMARK    2  A    between atoms: C1'_4  and  C1_5 
ROOT
ATOM      1  C1  I4B d   1       0.443  -0.344   2.841  0.00  0.00    -0.075 A 
ATOM      2  C2  I4B d   1       0.743  -0.476   4.174  0.00  0.00     0.003 A 
ATOM      3  C3  I4B d   1      -0.173  -1.105   5.051  0.00  0.00     0.002 A 
ATOM      4  C4  I4B d   1      -1.390  -1.540   4.566  0.00  0.00    -0.004 A 
ATOM      5  C5  I4B d   1      -1.682  -1.427   3.210  0.00  0.00     0.002 A 
ATOM      6  C6  I4B d   1      -0.755  -0.836   2.339  0.00  0.00     0.003 A 
ENDROOT
BRANCH   1   7
ATOM      7  C1' I4B d   1       1.419   0.355   1.948  0.00  0.00     0.060 C 
BRANCH   7   8
ATOM      8  C2' I4B d   1       0.679   1.458   1.220  0.00  0.00    -0.013 C 
ATOM      9  C4' I4B d   1       0.171   2.501   2.182  0.00  0.00     0.013 C 
ATOM     10  C3' I4B d   1       1.615   2.059   0.215  0.00  0.00     0.013 C 
ENDBRANCH   7   8
ENDBRANCH   1   7
TORSDOF 2
ENDMDL
