MODEL 1
REMARK minimizedAffinity 0.974882603
REMARK minimizedRMSD -1
REMARK  2 active torsions:
REMARK  status: ('A' for Active; 'I' for Inactive)
REMARK    1  A    between atoms: C2'_3  and  C1'_4 
REMARK    2  A    between atoms: C1'_4  and  C1_5 
ROOT
ATOM      1  C1  I4B d   1       0.230   1.122   0.678  0.00  0.00    -0.075 A 
ATOM      2  C2  I4B d   1      -1.142   1.090   0.634  0.00  0.00     0.003 A 
ATOM      3  C3  I4B d   1      -1.849   0.016   1.226  0.00  0.00     0.002 A 
ATOM      4  C4  I4B d   1      -1.148  -1.024   1.803  0.00  0.00    -0.004 A 
ATOM      5  C5  I4B d   1       0.242  -0.978   1.866  0.00  0.00     0.002 A 
ATOM      6  C6  I4B d   1       0.935   0.107   1.311  0.00  0.00     0.003 A 
ENDROOT
BRANCH   1   7
ATOM      7  C1' I4B d   1       0.946   2.255   0.014  0.00  0.00     0.060 C 
BRANCH   7   8
ATOM      8  C2' I4B d   1       1.195   3.326   1.057  0.00  0.00    -0.013 C 
ATOM      9  C4' I4B d   1       2.272   4.280   0.613  0.00  0.00     0.013 C 
ATOM     10  C3' I4B d   1      -0.099   4.044   1.300  0.00  0.00     0.013 C 
ENDBRANCH   7   8
ENDBRANCH   1   7
TORSDOF 2
ENDMDL
