MODEL 1
REMARK minimizedAffinity -4.27819681
REMARK minimizedRMSD -1
REMARK  0 active torsions:
REMARK  status: ('A' for Active; 'I' for Inactive)
ROOT
ATOM      1  C   UNL d   1      -3.453  -2.251   0.727  0.00  0.00     0.023 A 
ATOM      2  C1  UNL d   1      -2.214  -2.644   1.234  0.00  0.00     0.003 A 
ATOM      3  C2  UNL d   1      -1.068  -1.905   0.932  0.00  0.00     0.048 A 
ATOM      4  C3  UNL d   1      -1.168  -0.773   0.123  0.00  0.00     0.023 A 
ATOM      5  C4  UNL d   1      -2.406  -0.376  -0.386  0.00  0.00     0.048 A 
ATOM      6  C5  UNL d   1      -3.549  -1.118  -0.082  0.00  0.00     0.003 A 
ATOM      7  I   UNL d   1       0.535   0.328  -0.328  0.00  0.00    -0.146 I 
ENDROOT
TORSDOF 0
ENDMDL
