MODEL 1
REMARK minimizedAffinity -3.38237858
REMARK minimizedRMSD -1
REMARK  0 active torsions:
REMARK  status: ('A' for Active; 'I' for Inactive)
ROOT
ATOM      1  C   UNL d   1      -3.058  -0.940  -0.706  0.00  0.00     0.023 A 
ATOM      2  C1  UNL d   1      -2.352  -0.065  -1.533  0.00  0.00     0.003 A 
ATOM      3  C2  UNL d   1      -1.041   0.293  -1.215  0.00  0.00     0.048 A 
ATOM      4  C3  UNL d   1      -0.440  -0.229  -0.070  0.00  0.00     0.023 A 
ATOM      5  C4  UNL d   1      -1.141  -1.105   0.760  0.00  0.00     0.048 A 
ATOM      6  C5  UNL d   1      -2.453  -1.459   0.439  0.00  0.00     0.003 A 
ATOM      7  I   UNL d   1       1.513   0.302   0.404  0.00  0.00    -0.146 I 
ENDROOT
TORSDOF 0
ENDMDL
