MODEL 1
REMARK minimizedAffinity -5.44871902
REMARK minimizedRMSD -1
REMARK  0 active torsions:
REMARK  status: ('A' for Active; 'I' for Inactive)
ROOT
ATOM      1  C   UNL d   1      -3.199  -1.859   0.336  0.00  0.00     0.023 A 
ATOM      2  C1  UNL d   1      -2.964  -0.778  -0.514  0.00  0.00     0.003 A 
ATOM      3  C2  UNL d   1      -1.692  -0.207  -0.584  0.00  0.00     0.048 A 
ATOM      4  C3  UNL d   1      -0.659  -0.722   0.199  0.00  0.00     0.023 A 
ATOM      5  C4  UNL d   1      -0.889  -1.803   1.050  0.00  0.00     0.048 A 
ATOM      6  C5  UNL d   1      -2.163  -2.371   1.118  0.00  0.00     0.003 A 
ATOM      7  I   UNL d   1       1.236   0.127   0.096  0.00  0.00    -0.146 I 
ENDROOT
TORSDOF 0
ENDMDL
