MODEL 1
REMARK minimizedAffinity -1.88090134
REMARK minimizedRMSD -1
REMARK  0 active torsions:
REMARK  status: ('A' for Active; 'I' for Inactive)
ROOT
ATOM      1  C   UNL d   1      -3.058  -0.894  -0.175  0.00  0.00     0.023 A 
ATOM      2  C1  UNL d   1      -2.281  -0.375  -1.211  0.00  0.00     0.003 A 
ATOM      3  C2  UNL d   1      -0.966   0.025  -0.966  0.00  0.00     0.048 A 
ATOM      4  C3  UNL d   1      -0.434  -0.098   0.317  0.00  0.00     0.023 A 
ATOM      5  C4  UNL d   1      -1.207  -0.618   1.356  0.00  0.00     0.048 A 
ATOM      6  C5  UNL d   1      -2.522  -1.016   1.107  0.00  0.00     0.003 A 
ATOM      7  I   UNL d   1       1.524   0.496   0.685  0.00  0.00    -0.146 I 
ENDROOT
TORSDOF 0
ENDMDL
