MODEL 1
REMARK minimizedAffinity -5.03864813
REMARK minimizedRMSD -1
REMARK  0 active torsions:
REMARK  status: ('A' for Active; 'I' for Inactive)
ROOT
ATOM      1  C   UNL d   1      -3.225  -1.454  -0.257  0.00  0.00     0.023 A 
ATOM      2  C1  UNL d   1      -2.764  -0.440  -1.097  0.00  0.00     0.003 A 
ATOM      3  C2  UNL d   1      -1.488   0.096  -0.911  0.00  0.00     0.048 A 
ATOM      4  C3  UNL d   1      -0.678  -0.388   0.116  0.00  0.00     0.023 A 
ATOM      5  C4  UNL d   1      -1.134  -1.403   0.958  0.00  0.00     0.048 A 
ATOM      6  C5  UNL d   1      -2.411  -1.935   0.769  0.00  0.00     0.003 A 
ATOM      7  I   UNL d   1       1.222   0.408   0.394  0.00  0.00    -0.146 I 
ENDROOT
TORSDOF 0
ENDMDL
