MODEL 1
REMARK minimizedAffinity -1.94168425
REMARK minimizedRMSD -1
REMARK  0 active torsions:
REMARK  status: ('A' for Active; 'I' for Inactive)
ROOT
ATOM      1  C   UNL d   1       1.373   0.254  -0.304  0.00  0.00     0.023 A 
ATOM      2  C1  UNL d   1       0.585   0.528  -1.422  0.00  0.00     0.003 A 
ATOM      3  C2  UNL d   1      -0.788   0.273  -1.390  0.00  0.00     0.048 A 
ATOM      4  C3  UNL d   1      -1.366  -0.255  -0.236  0.00  0.00     0.023 A 
ATOM      5  C4  UNL d   1      -0.582  -0.531   0.885  0.00  0.00     0.048 A 
ATOM      6  C5  UNL d   1       0.790  -0.275   0.848  0.00  0.00     0.003 A 
ATOM      7  I   UNL d   1      -3.409  -0.635  -0.186  0.00  0.00    -0.146 I 
ENDROOT
TORSDOF 0
ENDMDL
