MODEL 1
REMARK minimizedAffinity -3.3403666
REMARK minimizedRMSD -1
REMARK  0 active torsions:
REMARK  status: ('A' for Active; 'I' for Inactive)
ROOT
ATOM      1  C   UNL d   1       2.964   2.974   1.285  0.00  0.00     0.023 A 
ATOM      2  C1  UNL d   1       1.677   3.512   1.302  0.00  0.00     0.003 A 
ATOM      3  C2  UNL d   1       0.611   2.792   0.758  0.00  0.00     0.048 A 
ATOM      4  C3  UNL d   1       0.839   1.535   0.199  0.00  0.00     0.023 A 
ATOM      5  C4  UNL d   1       2.125   0.993   0.181  0.00  0.00     0.048 A 
ATOM      6  C5  UNL d   1       3.188   1.717   0.725  0.00  0.00     0.003 A 
ATOM      7  I   UNL d   1      -0.745   0.463  -0.612  0.00  0.00    -0.146 I 
ENDROOT
TORSDOF 0
ENDMDL
