MODEL 1
REMARK minimizedAffinity -4.20680141
REMARK minimizedRMSD -1
REMARK  0 active torsions:
REMARK  status: ('A' for Active; 'I' for Inactive)
ROOT
ATOM      1  C   UNL d   1      -3.024  -2.356   0.423  0.00  0.00     0.023 A 
ATOM      2  C1  UNL d   1      -1.918  -2.622   1.230  0.00  0.00     0.003 A 
ATOM      3  C2  UNL d   1      -0.746  -1.878   1.079  0.00  0.00     0.048 A 
ATOM      4  C3  UNL d   1      -0.688  -0.868   0.119  0.00  0.00     0.023 A 
ATOM      5  C4  UNL d   1      -1.793  -0.597  -0.690  0.00  0.00     0.048 A 
ATOM      6  C5  UNL d   1      -2.962  -1.345  -0.536  0.00  0.00     0.003 A 
ATOM      7  I   UNL d   1       1.055   0.242  -0.108  0.00  0.00    -0.146 I 
ENDROOT
TORSDOF 0
ENDMDL
