MODEL 1
REMARK minimizedAffinity -3.65825057
REMARK minimizedRMSD -1
REMARK  0 active torsions:
REMARK  status: ('A' for Active; 'I' for Inactive)
ROOT
ATOM      1  C   UNL d   1      -3.103  -2.158   0.473  0.00  0.00     0.023 A 
ATOM      2  C1  UNL d   1      -2.961  -1.111  -0.437  0.00  0.00     0.003 A 
ATOM      3  C2  UNL d   1      -1.764  -0.394  -0.497  0.00  0.00     0.048 A 
ATOM      4  C3  UNL d   1      -0.713  -0.731   0.355  0.00  0.00     0.023 A 
ATOM      5  C4  UNL d   1      -0.850  -1.779   1.267  0.00  0.00     0.048 A 
ATOM      6  C5  UNL d   1      -2.049  -2.492   1.324  0.00  0.00     0.003 A 
ATOM      7  I   UNL d   1       1.069   0.335   0.268  0.00  0.00    -0.146 I 
ENDROOT
TORSDOF 0
ENDMDL
