MODEL 1
REMARK minimizedAffinity -4.2084384
REMARK minimizedRMSD -1
REMARK  0 active torsions:
REMARK  status: ('A' for Active; 'I' for Inactive)
ROOT
ATOM      1  C   UNL d   1      -3.276  -1.893   0.376  0.00  0.00     0.023 A 
ATOM      2  C1  UNL d   1      -3.039  -0.832  -0.498  0.00  0.00     0.003 A 
ATOM      3  C2  UNL d   1      -1.780  -0.230  -0.541  0.00  0.00     0.048 A 
ATOM      4  C3  UNL d   1      -0.763  -0.693   0.292  0.00  0.00     0.023 A 
ATOM      5  C4  UNL d   1      -0.995  -1.755   1.167  0.00  0.00     0.048 A 
ATOM      6  C5  UNL d   1      -2.255  -2.354   1.208  0.00  0.00     0.003 A 
ATOM      7  I   UNL d   1       1.112   0.202   0.228  0.00  0.00    -0.146 I 
ENDROOT
TORSDOF 0
ENDMDL
