MODEL 1
REMARK minimizedAffinity -3.56393337
REMARK minimizedRMSD -1
REMARK  0 active torsions:
REMARK  status: ('A' for Active; 'I' for Inactive)
ROOT
ATOM      1  C   UNL d   1      -3.398  -1.828   0.364  0.00  0.00     0.023 A 
ATOM      2  C1  UNL d   1      -2.420  -2.398   1.180  0.00  0.00     0.003 A 
ATOM      3  C2  UNL d   1      -1.149  -1.824   1.254  0.00  0.00     0.048 A 
ATOM      4  C3  UNL d   1      -0.863  -0.680   0.510  0.00  0.00     0.023 A 
ATOM      5  C4  UNL d   1      -1.838  -0.106  -0.307  0.00  0.00     0.048 A 
ATOM      6  C5  UNL d   1      -3.107  -0.683  -0.378  0.00  0.00     0.003 A 
ATOM      7  I   UNL d   1       1.028   0.176   0.619  0.00  0.00    -0.146 I 
ENDROOT
TORSDOF 0
ENDMDL
