MODEL 1
REMARK minimizedAffinity -4.06398726
REMARK minimizedRMSD -1
REMARK  0 active torsions:
REMARK  status: ('A' for Active; 'I' for Inactive)
ROOT
ATOM      1  C   UNL d   1      -3.231  -1.749   0.359  0.00  0.00     0.023 A 
ATOM      2  C1  UNL d   1      -3.031  -0.703  -0.542  0.00  0.00     0.003 A 
ATOM      3  C2  UNL d   1      -1.755  -0.165  -0.717  0.00  0.00     0.048 A 
ATOM      4  C3  UNL d   1      -0.682  -0.679   0.010  0.00  0.00     0.023 A 
ATOM      5  C4  UNL d   1      -0.877  -1.727   0.911  0.00  0.00     0.048 A 
ATOM      6  C5  UNL d   1      -2.155  -2.261   1.084  0.00  0.00     0.003 A 
ATOM      7  I   UNL d   1       1.219   0.119  -0.250  0.00  0.00    -0.146 I 
ENDROOT
TORSDOF 0
ENDMDL
