MODEL 1
REMARK minimizedAffinity -2.805686
REMARK minimizedRMSD -1
REMARK  0 active torsions:
REMARK  status: ('A' for Active; 'I' for Inactive)
ROOT
ATOM      1  C   UNL d   1      -2.813  -1.701  -0.411  0.00  0.00     0.023 A 
ATOM      2  C1  UNL d   1      -2.445  -0.635  -1.233  0.00  0.00     0.003 A 
ATOM      3  C2  UNL d   1      -1.228   0.019  -1.027  0.00  0.00     0.048 A 
ATOM      4  C3  UNL d   1      -0.384  -0.398   0.001  0.00  0.00     0.023 A 
ATOM      5  C4  UNL d   1      -0.748  -1.464   0.825  0.00  0.00     0.048 A 
ATOM      6  C5  UNL d   1      -1.965  -2.115   0.617  0.00  0.00     0.003 A 
ATOM      7  I   UNL d   1       1.427   0.574   0.309  0.00  0.00    -0.146 I 
ENDROOT
TORSDOF 0
ENDMDL
