MODEL 1
REMARK minimizedAffinity -1.24888945
REMARK minimizedRMSD -1
REMARK  0 active torsions:
REMARK  status: ('A' for Active; 'I' for Inactive)
ROOT
ATOM      1  C   UNL d   1      -2.084  -0.056  -1.707  0.00  0.00     0.023 A 
ATOM      2  C1  UNL d   1      -0.815   0.289  -2.173  0.00  0.00     0.003 A 
ATOM      3  C2  UNL d   1       0.287   0.219  -1.319  0.00  0.00     0.048 A 
ATOM      4  C3  UNL d   1       0.114  -0.199   0.000  0.00  0.00     0.023 A 
ATOM      5  C4  UNL d   1      -1.154  -0.546   0.471  0.00  0.00     0.048 A 
ATOM      6  C5  UNL d   1      -2.253  -0.473  -0.386  0.00  0.00     0.003 A 
ATOM      7  I   UNL d   1       1.753  -0.306   1.274  0.00  0.00    -0.146 I 
ENDROOT
TORSDOF 0
ENDMDL
