MODEL 1
REMARK minimizedAffinity 4.32774496
REMARK minimizedRMSD -1
REMARK  0 active torsions:
REMARK  status: ('A' for Active; 'I' for Inactive)
ROOT
ATOM      1  C   UNL d   1      -0.029  -5.931  -5.969  0.00  0.00     0.020 A 
ATOM      2  C1  UNL d   1       1.127  -5.368  -5.430  0.00  0.00     0.020 A 
ATOM      3  C2  UNL d   1       1.119  -4.874  -4.124  0.00  0.00     0.034 A 
ATOM      4  C3  UNL d   1      -0.047  -4.942  -3.353  0.00  0.00     0.017 A 
ATOM      5  C4  UNL d   1      -1.207  -5.507  -3.895  0.00  0.00     0.017 A 
ATOM      6  C5  UNL d   1      -1.194  -6.000  -5.203  0.00  0.00     0.034 A 
ATOM      7 Cl   UNL d   1      -2.684  -5.626  -3.005  0.00  0.00    -0.070 Cl
ATOM      8 Cl1  UNL d   1       0.016  -4.313  -1.745  0.00  0.00    -0.070 Cl
ENDROOT
TORSDOF 0
ENDMDL
