MODEL 1
REMARK minimizedAffinity 2.76101685
REMARK minimizedRMSD -1
REMARK  0 active torsions:
REMARK  status: ('A' for Active; 'I' for Inactive)
ROOT
ATOM      1  C   UNL d   1       0.287  -5.999  -5.990  0.00  0.00     0.020 A 
ATOM      2  C1  UNL d   1       1.428  -5.998  -5.188  0.00  0.00     0.020 A 
ATOM      3  C2  UNL d   1       1.303  -5.997  -3.797  0.00  0.00     0.034 A 
ATOM      4  C3  UNL d   1       0.035  -5.997  -3.204  0.00  0.00     0.017 A 
ATOM      5  C4  UNL d   1      -1.109  -5.998  -4.010  0.00  0.00     0.017 A 
ATOM      6  C5  UNL d   1      -0.978  -5.999  -5.402  0.00  0.00     0.034 A 
ATOM      7 Cl   UNL d   1      -2.707  -5.998  -3.352  0.00  0.00    -0.070 Cl
ATOM      8 Cl1  UNL d   1      -0.045  -5.997  -1.478  0.00  0.00    -0.070 Cl
ENDROOT
TORSDOF 0
ENDMDL
