MODEL 1
REMARK minimizedAffinity 2.16388392
REMARK minimizedRMSD -1
REMARK  0 active torsions:
REMARK  status: ('A' for Active; 'I' for Inactive)
ROOT
ATOM      1  C   UNL d   1      -1.461  -5.999  -5.822  0.00  0.00     0.020 A 
ATOM      2  C1  UNL d   1      -0.084  -5.995  -5.606  0.00  0.00     0.020 A 
ATOM      3  C2  UNL d   1       0.419  -5.992  -4.303  0.00  0.00     0.034 A 
ATOM      4  C3  UNL d   1      -0.456  -5.993  -3.211  0.00  0.00     0.017 A 
ATOM      5  C4  UNL d   1      -1.839  -5.996  -3.429  0.00  0.00     0.017 A 
ATOM      6  C5  UNL d   1      -2.337  -5.999  -4.735  0.00  0.00     0.034 A 
ATOM      7 Cl   UNL d   1      -2.981  -5.997  -2.131  0.00  0.00    -0.070 Cl
ATOM      8 Cl1  UNL d   1       0.235  -5.989  -1.628  0.00  0.00    -0.070 Cl
ENDROOT
TORSDOF 0
ENDMDL
