MODEL 1
REMARK minimizedAffinity 4.30148697
REMARK minimizedRMSD -1
REMARK  0 active torsions:
REMARK  status: ('A' for Active; 'I' for Inactive)
ROOT
ATOM      1  C   UNL d   1       4.656   5.131   0.218  0.00  0.00     0.020 A 
ATOM      2  C1  UNL d   1       5.186   4.019  -0.435  0.00  0.00     0.020 A 
ATOM      3  C2  UNL d   1       4.372   2.919  -0.712  0.00  0.00     0.034 A 
ATOM      4  C3  UNL d   1       3.024   2.929  -0.337  0.00  0.00     0.017 A 
ATOM      5  C4  UNL d   1       2.493   4.046   0.318  0.00  0.00     0.017 A 
ATOM      6  C5  UNL d   1       3.312   5.144   0.593  0.00  0.00     0.034 A 
ATOM      7 Cl   UNL d   1       0.838   4.131   0.811  0.00  0.00    -0.070 Cl
ATOM      8 Cl1  UNL d   1       2.075   1.534  -0.712  0.00  0.00    -0.070 Cl
ENDROOT
TORSDOF 0
ENDMDL
