MODEL 1
REMARK minimizedAffinity 5.25293255
REMARK minimizedRMSD -1
REMARK  0 active torsions:
REMARK  status: ('A' for Active; 'I' for Inactive)
ROOT
ATOM      1  C   UNL d   1      -1.175  -1.046   0.312  0.00  0.00     0.020 A 
ATOM      2  C1  UNL d   1      -0.500   0.173   0.261  0.00  0.00     0.020 A 
ATOM      3  C2  UNL d   1       0.875   0.220   0.503  0.00  0.00     0.034 A 
ATOM      4  C3  UNL d   1       1.578  -0.953   0.798  0.00  0.00     0.017 A 
ATOM      5  C4  UNL d   1       0.900  -2.176   0.850  0.00  0.00     0.017 A 
ATOM      6  C5  UNL d   1      -0.477  -2.218   0.606  0.00  0.00     0.034 A 
ATOM      7 Cl   UNL d   1       1.699  -3.666   1.207  0.00  0.00    -0.070 Cl
ATOM      8 Cl1  UNL d   1       3.277  -0.821   1.087  0.00  0.00    -0.070 Cl
ENDROOT
TORSDOF 0
ENDMDL
