MODEL 1
REMARK minimizedAffinity -1.63397658
REMARK minimizedRMSD -1
REMARK  0 active torsions:
REMARK  status: ('A' for Active; 'I' for Inactive)
ROOT
ATOM      1  C   UNL d   1       0.393  -5.796  -5.773  0.00  0.00     0.020 A 
ATOM      2  C1  UNL d   1      -0.979  -5.900  -6.000  0.00  0.00     0.020 A 
ATOM      3  C2  UNL d   1      -1.862  -5.962  -4.920  0.00  0.00     0.034 A 
ATOM      4  C3  UNL d   1      -1.375  -5.919  -3.609  0.00  0.00     0.017 A 
ATOM      5  C4  UNL d   1       0.002  -5.814  -3.382  0.00  0.00     0.017 A 
ATOM      6  C5  UNL d   1       0.882  -5.753  -4.467  0.00  0.00     0.034 A 
ATOM      7 Cl   UNL d   1       0.678  -5.756  -1.792  0.00  0.00    -0.070 Cl
ATOM      8 Cl1  UNL d   1      -2.525  -6.000  -2.321  0.00  0.00    -0.070 Cl
ENDROOT
TORSDOF 0
ENDMDL
