MODEL 1
REMARK minimizedAffinity -1.48849583
REMARK minimizedRMSD -1
REMARK  0 active torsions:
REMARK  status: ('A' for Active; 'I' for Inactive)
ROOT
ATOM      1  C   UNL d   1      -0.006  -5.711  -6.000  0.00  0.00     0.020 A 
ATOM      2  C1  UNL d   1       0.689  -5.671  -4.792  0.00  0.00     0.020 A 
ATOM      3  C2  UNL d   1      -0.007  -5.731  -3.583  0.00  0.00     0.034 A 
ATOM      4  C3  UNL d   1      -1.403  -5.832  -3.579  0.00  0.00     0.017 A 
ATOM      5  C4  UNL d   1      -2.100  -5.872  -4.792  0.00  0.00     0.017 A 
ATOM      6  C5  UNL d   1      -1.398  -5.811  -6.000  0.00  0.00     0.034 A 
ATOM      7 Cl   UNL d   1      -3.823  -5.996  -4.868  0.00  0.00    -0.070 Cl
ATOM      8 Cl1  UNL d   1      -2.199  -5.903  -2.047  0.00  0.00    -0.070 Cl
ENDROOT
TORSDOF 0
ENDMDL
