MODEL 1
REMARK minimizedAffinity 4.98915911
REMARK minimizedRMSD -1
REMARK  0 active torsions:
REMARK  status: ('A' for Active; 'I' for Inactive)
ROOT
ATOM      1  C   UNL d   1      -1.561  -5.993  -2.833  0.00  0.00     0.020 A 
ATOM      2  C1  UNL d   1      -1.886  -5.984  -4.188  0.00  0.00     0.020 A 
ATOM      3  C2  UNL d   1      -0.874  -5.980  -5.150  0.00  0.00     0.034 A 
ATOM      4  C3  UNL d   1       0.470  -5.984  -4.757  0.00  0.00     0.017 A 
ATOM      5  C4  UNL d   1       0.796  -5.993  -3.396  0.00  0.00     0.017 A 
ATOM      6  C5  UNL d   1      -0.223  -5.998  -2.437  0.00  0.00     0.034 A 
ATOM      7 Cl   UNL d   1       2.430  -5.999  -2.834  0.00  0.00    -0.070 Cl
ATOM      8 Cl1  UNL d   1       1.670  -5.979  -5.999  0.00  0.00    -0.070 Cl
ENDROOT
TORSDOF 0
ENDMDL
