MODEL 1
REMARK minimizedAffinity 1.59841228
REMARK minimizedRMSD -1
REMARK  0 active torsions:
REMARK  status: ('A' for Active; 'I' for Inactive)
ROOT
ATOM      1  C   UNL d   1       0.183  -2.952   0.878  0.00  0.00     0.020 A 
ATOM      2  C1  UNL d   1      -0.695  -2.064   0.257  0.00  0.00     0.020 A 
ATOM      3  C2  UNL d   1      -0.232  -0.828  -0.198  0.00  0.00     0.034 A 
ATOM      4  C3  UNL d   1       1.113  -0.475  -0.032  0.00  0.00     0.017 A 
ATOM      5  C4  UNL d   1       1.993  -1.367   0.591  0.00  0.00     0.017 A 
ATOM      6  C5  UNL d   1       1.524  -2.604   1.044  0.00  0.00     0.034 A 
ATOM      7 Cl   UNL d   1       3.666  -1.003   0.830  0.00  0.00    -0.070 Cl
ATOM      8 Cl1  UNL d   1       1.616   1.070  -0.619  0.00  0.00    -0.070 Cl
ENDROOT
TORSDOF 0
ENDMDL
