MODEL 1
REMARK minimizedAffinity 9.56969738
REMARK minimizedRMSD -1
REMARK  0 active torsions:
REMARK  status: ('A' for Active; 'I' for Inactive)
ROOT
ATOM      1  C   UNL d   1      -0.249  -5.965  -1.634  0.00  0.00     0.020 A 
ATOM      2  C1  UNL d   1      -1.624  -5.989  -1.866  0.00  0.00     0.020 A 
ATOM      3  C2  UNL d   1      -2.110  -5.999  -3.175  0.00  0.00     0.034 A 
ATOM      4  C3  UNL d   1      -1.222  -5.985  -4.257  0.00  0.00     0.017 A 
ATOM      5  C4  UNL d   1       0.158  -5.960  -4.022  0.00  0.00     0.017 A 
ATOM      6  C5  UNL d   1       0.639  -5.950  -2.710  0.00  0.00     0.034 A 
ATOM      7 Cl   UNL d   1       1.315  -5.941  -5.305  0.00  0.00    -0.070 Cl
ATOM      8 Cl1  UNL d   1      -1.894  -5.999  -5.848  0.00  0.00    -0.070 Cl
ENDROOT
TORSDOF 0
ENDMDL
