MODEL 1
REMARK minimizedAffinity 3.609267
REMARK minimizedRMSD -1
REMARK  0 active torsions:
REMARK  status: ('A' for Active; 'I' for Inactive)
ROOT
ATOM      1  C   UNL d   1      -0.346  -5.997  -5.655  0.00  0.00     0.020 A 
ATOM      2  C1  UNL d   1      -1.714  -5.999  -5.925  0.00  0.00     0.020 A 
ATOM      3  C2  UNL d   1      -2.633  -6.000  -4.874  0.00  0.00     0.034 A 
ATOM      4  C3  UNL d   1      -2.186  -5.999  -3.548  0.00  0.00     0.017 A 
ATOM      5  C4  UNL d   1      -0.813  -5.996  -3.278  0.00  0.00     0.017 A 
ATOM      6  C5  UNL d   1       0.103  -5.995  -4.334  0.00  0.00     0.034 A 
ATOM      7 Cl   UNL d   1      -0.185  -5.994  -1.667  0.00  0.00    -0.070 Cl
ATOM      8 Cl1  UNL d   1      -3.378  -5.999  -2.297  0.00  0.00    -0.070 Cl
ENDROOT
TORSDOF 0
ENDMDL
