MODEL 1
REMARK minimizedAffinity -1.59958518
REMARK minimizedRMSD -1
REMARK  0 active torsions:
REMARK  status: ('A' for Active; 'I' for Inactive)
ROOT
ATOM      1  C   UNL d   1      -0.618   0.130   1.021  0.00  0.00     0.020 A 
ATOM      2  C1  UNL d   1      -1.270  -1.095   1.155  0.00  0.00     0.020 A 
ATOM      3  C2  UNL d   1      -0.554  -2.286   1.018  0.00  0.00     0.034 A 
ATOM      4  C3  UNL d   1       0.819  -2.254   0.747  0.00  0.00     0.017 A 
ATOM      5  C4  UNL d   1       1.472  -1.024   0.613  0.00  0.00     0.017 A 
ATOM      6  C5  UNL d   1       0.750   0.165   0.751  0.00  0.00     0.034 A 
ATOM      7 Cl   UNL d   1       3.164  -0.904   0.279  0.00  0.00    -0.070 Cl
ATOM      8 Cl1  UNL d   1       1.642  -3.765   0.591  0.00  0.00    -0.070 Cl
ENDROOT
TORSDOF 0
ENDMDL
