MODEL 1
REMARK minimizedAffinity 1.20696223
REMARK minimizedRMSD -1
REMARK  0 active torsions:
REMARK  status: ('A' for Active; 'I' for Inactive)
ROOT
ATOM      1  C   UNL d   1      -3.709   0.523  -2.962  0.00  0.00     0.020 A 
ATOM      2  C1  UNL d   1      -4.052   1.823  -3.332  0.00  0.00     0.020 A 
ATOM      3  C2  UNL d   1      -3.053   2.778  -3.535  0.00  0.00     0.034 A 
ATOM      4  C3  UNL d   1      -1.706   2.434  -3.368  0.00  0.00     0.017 A 
ATOM      5  C4  UNL d   1      -1.363   1.130  -2.996  0.00  0.00     0.017 A 
ATOM      6  C5  UNL d   1      -2.367   0.178  -2.794  0.00  0.00     0.034 A 
ATOM      7 Cl   UNL d   1       0.276   0.631  -2.770  0.00  0.00    -0.070 Cl
ATOM      8 Cl1  UNL d   1      -0.524   3.666  -3.635  0.00  0.00    -0.070 Cl
ENDROOT
TORSDOF 0
ENDMDL
