MODEL 1
REMARK minimizedAffinity -3.66174102
REMARK minimizedRMSD -1
REMARK  0 active torsions:
REMARK  status: ('A' for Active; 'I' for Inactive)
ROOT
ATOM      1  C   UNL d   1      -2.566  -5.923  -2.855  0.00  0.00     0.020 A 
ATOM      2  C1  UNL d   1      -2.891  -5.739  -4.198  0.00  0.00     0.020 A 
ATOM      3  C2  UNL d   1      -1.878  -5.630  -5.153  0.00  0.00     0.034 A 
ATOM      4  C3  UNL d   1      -0.535  -5.706  -4.766  0.00  0.00     0.017 A 
ATOM      5  C4  UNL d   1      -0.210  -5.891  -3.417  0.00  0.00     0.017 A 
ATOM      6  C5  UNL d   1      -1.229  -5.999  -2.465  0.00  0.00     0.034 A 
ATOM      7 Cl   UNL d   1       1.424  -5.993  -2.863  0.00  0.00    -0.070 Cl
ATOM      8 Cl1  UNL d   1       0.666  -5.564  -6.000  0.00  0.00    -0.070 Cl
ENDROOT
TORSDOF 0
ENDMDL
