MODEL 1
REMARK minimizedAffinity 1.51540947
REMARK minimizedRMSD -1
REMARK  0 active torsions:
REMARK  status: ('A' for Active; 'I' for Inactive)
ROOT
ATOM      1  C   UNL d   1      -0.354  -6.000  -5.991  0.00  0.00     0.020 A 
ATOM      2  C1  UNL d   1       0.861  -5.998  -5.308  0.00  0.00     0.020 A 
ATOM      3  C2  UNL d   1       0.877  -5.997  -3.912  0.00  0.00     0.034 A 
ATOM      4  C3  UNL d   1      -0.324  -5.997  -3.194  0.00  0.00     0.017 A 
ATOM      5  C4  UNL d   1      -1.544  -5.998  -3.881  0.00  0.00     0.017 A 
ATOM      6  C5  UNL d   1      -1.554  -6.000  -5.279  0.00  0.00     0.034 A 
ATOM      7 Cl   UNL d   1      -3.067  -5.998  -3.064  0.00  0.00    -0.070 Cl
ATOM      8 Cl1  UNL d   1      -0.230  -5.995  -1.469  0.00  0.00    -0.070 Cl
ENDROOT
TORSDOF 0
ENDMDL
