MODEL 1
REMARK minimizedAffinity 0.32293883
REMARK minimizedRMSD -1
REMARK  0 active torsions:
REMARK  status: ('A' for Active; 'I' for Inactive)
ROOT
ATOM      1  C   UNL d   1       0.110  -1.524   0.257  0.00  0.00     0.020 A 
ATOM      2  C1  UNL d   1       1.088  -2.443   0.636  0.00  0.00     0.020 A 
ATOM      3  C2  UNL d   1       2.411  -2.026   0.802  0.00  0.00     0.034 A 
ATOM      4  C3  UNL d   1       2.759  -0.688   0.588  0.00  0.00     0.017 A 
ATOM      5  C4  UNL d   1       1.777   0.234   0.207  0.00  0.00     0.017 A 
ATOM      6  C5  UNL d   1       0.454  -0.189   0.043  0.00  0.00     0.034 A 
ATOM      7 Cl   UNL d   1       2.130   1.902  -0.074  0.00  0.00    -0.070 Cl
ATOM      8 Cl1  UNL d   1       4.414  -0.243   0.811  0.00  0.00    -0.070 Cl
ENDROOT
TORSDOF 0
ENDMDL
