MODEL 1
REMARK minimizedAffinity 3.22867131
REMARK minimizedRMSD -1
REMARK  0 active torsions:
REMARK  status: ('A' for Active; 'I' for Inactive)
ROOT
ATOM      1  C   UNL d   1      -1.259  -5.936  -6.000  0.00  0.00     0.020 A 
ATOM      2  C1  UNL d   1       0.109  -5.790  -5.773  0.00  0.00     0.020 A 
ATOM      3  C2  UNL d   1       0.595  -5.706  -4.466  0.00  0.00     0.034 A 
ATOM      4  C3  UNL d   1      -0.288  -5.768  -3.382  0.00  0.00     0.017 A 
ATOM      5  C4  UNL d   1      -1.661  -5.915  -3.611  0.00  0.00     0.017 A 
ATOM      6  C5  UNL d   1      -2.142  -5.999  -4.921  0.00  0.00     0.034 A 
ATOM      7 Cl   UNL d   1      -2.811  -6.000  -2.324  0.00  0.00    -0.070 Cl
ATOM      8 Cl1  UNL d   1       0.382  -5.658  -1.793  0.00  0.00    -0.070 Cl
ENDROOT
TORSDOF 0
ENDMDL
