MODEL 1
REMARK minimizedAffinity 6.70354033
REMARK minimizedRMSD -1
REMARK  0 active torsions:
REMARK  status: ('A' for Active; 'I' for Inactive)
ROOT
ATOM      1  C   UNL d   1       1.548  -3.262   1.281  0.00  0.00     0.020 A 
ATOM      2  C1  UNL d   1       0.212  -2.865   1.259  0.00  0.00     0.020 A 
ATOM      3  C2  UNL d   1      -0.117  -1.531   1.009  0.00  0.00     0.034 A 
ATOM      4  C3  UNL d   1       0.893  -0.589   0.781  0.00  0.00     0.017 A 
ATOM      5  C4  UNL d   1       2.234  -0.988   0.803  0.00  0.00     0.017 A 
ATOM      6  C5  UNL d   1       2.557  -2.325   1.054  0.00  0.00     0.034 A 
ATOM      7 Cl   UNL d   1       3.535   0.117   0.530  0.00  0.00    -0.070 Cl
ATOM      8 Cl1  UNL d   1       0.415   1.044   0.479  0.00  0.00    -0.070 Cl
ENDROOT
TORSDOF 0
ENDMDL
