MODEL 1
REMARK minimizedAffinity 2.07545948
REMARK minimizedRMSD -1
REMARK  0 active torsions:
REMARK  status: ('A' for Active; 'I' for Inactive)
ROOT
ATOM      1  C   UNL d   1       3.495  -1.210  -1.263  0.00  0.00     0.023 A 
ATOM      2  C1  UNL d   1       4.230  -0.032  -1.403  0.00  0.00     0.003 A 
ATOM      3  C2  UNL d   1       3.605   1.133  -1.852  0.00  0.00     0.048 A 
ATOM      4  C3  UNL d   1       2.244   1.114  -2.157  0.00  0.00     0.023 A 
ATOM      5  C4  UNL d   1       1.505  -0.062  -2.017  0.00  0.00     0.048 A 
ATOM      6  C5  UNL d   1       2.135  -1.225  -1.569  0.00  0.00     0.003 A 
ATOM      7  I   UNL d   1       1.311   2.847  -2.825  0.00  0.00    -0.146 I 
ENDROOT
TORSDOF 0
ENDMDL
