MODEL 1
REMARK minimizedAffinity 5.71645498
REMARK minimizedRMSD -1
REMARK  0 active torsions:
REMARK  status: ('A' for Active; 'I' for Inactive)
ROOT
ATOM      1  C   UNL d   1       1.180   2.826  -2.939  0.00  0.00     0.023 A 
ATOM      2  C1  UNL d   1       0.635   2.504  -1.696  0.00  0.00     0.003 A 
ATOM      3  C2  UNL d   1       0.884   1.255  -1.125  0.00  0.00     0.048 A 
ATOM      4  C3  UNL d   1       1.681   0.332  -1.802  0.00  0.00     0.023 A 
ATOM      5  C4  UNL d   1       2.230   0.650  -3.045  0.00  0.00     0.048 A 
ATOM      6  C5  UNL d   1       1.977   1.900  -3.612  0.00  0.00     0.003 A 
ATOM      7  I   UNL d   1       2.054  -1.528  -0.954  0.00  0.00    -0.146 I 
ENDROOT
TORSDOF 0
ENDMDL
