MODEL 1
REMARK minimizedAffinity 5.14327478
REMARK minimizedRMSD -1
REMARK  0 active torsions:
REMARK  status: ('A' for Active; 'I' for Inactive)
ROOT
ATOM      1  C   UNL d   1       0.790  -2.855  -2.553  0.00  0.00     0.023 A 
ATOM      2  C1  UNL d   1       0.702  -2.452  -3.886  0.00  0.00     0.003 A 
ATOM      3  C2  UNL d   1       0.858  -1.105  -4.221  0.00  0.00     0.048 A 
ATOM      4  C3  UNL d   1       1.102  -0.167  -3.218  0.00  0.00     0.023 A 
ATOM      5  C4  UNL d   1       1.191  -0.566  -1.884  0.00  0.00     0.048 A 
ATOM      6  C5  UNL d   1       1.033  -1.913  -1.554  0.00  0.00     0.003 A 
ATOM      7  I   UNL d   1       1.334   1.838  -3.714  0.00  0.00    -0.146 I 
ENDROOT
TORSDOF 0
ENDMDL
