MODEL 1
REMARK minimizedAffinity 5.51487303
REMARK minimizedRMSD -1
REMARK  0 active torsions:
REMARK  status: ('A' for Active; 'I' for Inactive)
ROOT
ATOM      1  C   UNL d   1       2.640   1.584  -2.518  0.00  0.00     0.023 A 
ATOM      2  C1  UNL d   1       1.768   1.285  -3.566  0.00  0.00     0.003 A 
ATOM      3  C2  UNL d   1       1.158   0.031  -3.631  0.00  0.00     0.048 A 
ATOM      4  C3  UNL d   1       1.422  -0.919  -2.645  0.00  0.00     0.023 A 
ATOM      5  C4  UNL d   1       2.293  -0.624  -1.595  0.00  0.00     0.048 A 
ATOM      6  C5  UNL d   1       2.902   0.631  -1.534  0.00  0.00     0.003 A 
ATOM      7  I   UNL d   1       0.514  -2.786  -2.740  0.00  0.00    -0.146 I 
ENDROOT
TORSDOF 0
ENDMDL
