MODEL 1
REMARK minimizedAffinity 4.74327183
REMARK minimizedRMSD -1
REMARK  0 active torsions:
REMARK  status: ('A' for Active; 'I' for Inactive)
ROOT
ATOM      1  C   UNL d   1       2.056  -3.356  -0.383  0.00  0.00     0.023 A 
ATOM      2  C1  UNL d   1       2.985  -2.374  -0.039  0.00  0.00     0.003 A 
ATOM      3  C2  UNL d   1       3.020  -1.168  -0.743  0.00  0.00     0.048 A 
ATOM      4  C3  UNL d   1       2.123  -0.950  -1.788  0.00  0.00     0.023 A 
ATOM      5  C4  UNL d   1       1.191  -1.930  -2.135  0.00  0.00     0.048 A 
ATOM      6  C5  UNL d   1       1.160  -3.134  -1.429  0.00  0.00     0.003 A 
ATOM      7  I   UNL d   1       2.174   0.844  -2.836  0.00  0.00    -0.146 I 
ENDROOT
TORSDOF 0
ENDMDL
