MODEL 1
REMARK minimizedAffinity -0.731570184
REMARK minimizedRMSD -1
REMARK  0 active torsions:
REMARK  status: ('A' for Active; 'I' for Inactive)
ROOT
ATOM      1  C   UNL d   1       0.642   2.230   1.101  0.00  0.00     0.023 A 
ATOM      2  C1  UNL d   1       1.962   2.304   0.656  0.00  0.00     0.003 A 
ATOM      3  C2  UNL d   1       2.244   2.242  -0.710  0.00  0.00     0.048 A 
ATOM      4  C3  UNL d   1       1.201   2.106  -1.626  0.00  0.00     0.023 A 
ATOM      5  C4  UNL d   1      -0.121   2.033  -1.185  0.00  0.00     0.048 A 
ATOM      6  C5  UNL d   1      -0.398   2.094   0.182  0.00  0.00     0.003 A 
ATOM      7  I   UNL d   1       1.618   2.014  -3.660  0.00  0.00    -0.146 I 
ENDROOT
TORSDOF 0
ENDMDL
