MODEL 1
REMARK minimizedAffinity 5.86892653
REMARK minimizedRMSD -1
REMARK  0 active torsions:
REMARK  status: ('A' for Active; 'I' for Inactive)
ROOT
ATOM      1  C   UNL d   1      -0.794   2.653   0.988  0.00  0.00     0.023 A 
ATOM      2  C1  UNL d   1       0.568   2.425   1.185  0.00  0.00     0.003 A 
ATOM      3  C2  UNL d   1       1.331   1.832   0.177  0.00  0.00     0.048 A 
ATOM      4  C3  UNL d   1       0.726   1.470  -1.026  0.00  0.00     0.023 A 
ATOM      5  C4  UNL d   1      -0.636   1.697  -1.228  0.00  0.00     0.048 A 
ATOM      6  C5  UNL d   1      -1.396   2.289  -0.218  0.00  0.00     0.003 A 
ATOM      7  I   UNL d   1       1.860   0.588  -2.528  0.00  0.00    -0.146 I 
ENDROOT
TORSDOF 0
ENDMDL
