MODEL 1
REMARK minimizedAffinity 6.7371459
REMARK minimizedRMSD -1
REMARK  0 active torsions:
REMARK  status: ('A' for Active; 'I' for Inactive)
ROOT
ATOM      1  C   UNL d   1       2.327  -2.196  -0.979  0.00  0.00     0.023 A 
ATOM      2  C1  UNL d   1       1.248  -2.194  -1.863  0.00  0.00     0.003 A 
ATOM      3  C2  UNL d   1       1.015  -1.086  -2.680  0.00  0.00     0.048 A 
ATOM      4  C3  UNL d   1       1.866   0.017  -2.608  0.00  0.00     0.023 A 
ATOM      5  C4  UNL d   1       2.947   0.019  -1.725  0.00  0.00     0.048 A 
ATOM      6  C5  UNL d   1       3.176  -1.091  -0.910  0.00  0.00     0.003 A 
ATOM      7  I   UNL d   1       1.522   1.668  -3.822  0.00  0.00    -0.146 I 
ENDROOT
TORSDOF 0
ENDMDL
