MODEL 1
REMARK minimizedAffinity 4.78699589
REMARK minimizedRMSD -1
REMARK  0 active torsions:
REMARK  status: ('A' for Active; 'I' for Inactive)
ROOT
ATOM      1  C   UNL d   1       0.322   1.128  -2.484  0.00  0.00     0.023 A 
ATOM      2  C1  UNL d   1      -0.472   1.607  -1.441  0.00  0.00     0.003 A 
ATOM      3  C2  UNL d   1       0.107   1.926  -0.211  0.00  0.00     0.048 A 
ATOM      4  C3  UNL d   1       1.481   1.765  -0.031  0.00  0.00     0.023 A 
ATOM      5  C4  UNL d   1       2.279   1.288  -1.072  0.00  0.00     0.048 A 
ATOM      6  C5  UNL d   1       1.696   0.969  -2.299  0.00  0.00     0.003 A 
ATOM      7  I   UNL d   1       2.344   2.240   1.799  0.00  0.00    -0.146 I 
ENDROOT
TORSDOF 0
ENDMDL
