MODEL 1
REMARK minimizedAffinity 6.9121666
REMARK minimizedRMSD -1
REMARK  0 active torsions:
REMARK  status: ('A' for Active; 'I' for Inactive)
ROOT
ATOM      1  C   UNL d   1       1.420  -2.419  -0.710  0.00  0.00     0.023 A 
ATOM      2  C1  UNL d   1       2.668  -1.861  -0.987  0.00  0.00     0.003 A 
ATOM      3  C2  UNL d   1       2.753  -0.590  -1.560  0.00  0.00     0.048 A 
ATOM      4  C3  UNL d   1       1.587   0.117  -1.851  0.00  0.00     0.023 A 
ATOM      5  C4  UNL d   1       0.337  -0.438  -1.575  0.00  0.00     0.048 A 
ATOM      6  C5  UNL d   1       0.256  -1.709  -1.004  0.00  0.00     0.003 A 
ATOM      7  I   UNL d   1       1.712   2.009  -2.703  0.00  0.00    -0.146 I 
ENDROOT
TORSDOF 0
ENDMDL
