MODEL 1
REMARK minimizedAffinity 7.62299681
REMARK minimizedRMSD -1
REMARK  0 active torsions:
REMARK  status: ('A' for Active; 'I' for Inactive)
ROOT
ATOM      1  C   UNL d   1       1.499  -2.714  -0.144  0.00  0.00     0.023 A 
ATOM      2  C1  UNL d   1       0.500  -2.334  -1.040  0.00  0.00     0.003 A 
ATOM      3  C2  UNL d   1       0.612  -1.134  -1.745  0.00  0.00     0.048 A 
ATOM      4  C3  UNL d   1       1.726  -0.319  -1.550  0.00  0.00     0.023 A 
ATOM      5  C4  UNL d   1       2.729  -0.696  -0.656  0.00  0.00     0.048 A 
ATOM      6  C5  UNL d   1       2.613  -1.896   0.048  0.00  0.00     0.003 A 
ATOM      7  I   UNL d   1       1.895   1.467  -2.599  0.00  0.00    -0.146 I 
ENDROOT
TORSDOF 0
ENDMDL
