MODEL 1
REMARK minimizedAffinity 4.12531519
REMARK minimizedRMSD -1
REMARK  0 active torsions:
REMARK  status: ('A' for Active; 'I' for Inactive)
ROOT
ATOM      1  C   UNL d   1       1.612   1.362  -3.448  0.00  0.00     0.023 A 
ATOM      2  C1  UNL d   1       0.926   2.550  -3.194  0.00  0.00     0.003 A 
ATOM      3  C2  UNL d   1       0.438   2.815  -1.913  0.00  0.00     0.048 A 
ATOM      4  C3  UNL d   1       0.639   1.888  -0.890  0.00  0.00     0.023 A 
ATOM      5  C4  UNL d   1       1.326   0.699  -1.140  0.00  0.00     0.048 A 
ATOM      6  C5  UNL d   1       1.811   0.437  -2.422  0.00  0.00     0.003 A 
ATOM      7  I   UNL d   1      -0.086   2.281   1.017  0.00  0.00    -0.146 I 
ENDROOT
TORSDOF 0
ENDMDL
