MODEL 1
REMARK minimizedAffinity -1.18549228
REMARK minimizedRMSD -1
REMARK  0 active torsions:
REMARK  status: ('A' for Active; 'I' for Inactive)
ROOT
ATOM      1  C4' PXY d   1      -2.205   0.573  -0.197  0.00  0.00     0.077 C 
ATOM      2  C1' PXY d   1       0.907  -1.344   4.282  0.00  0.00     0.077 C 
ATOM      3  C1  PXY d   1       0.080  -0.844   3.113  0.00  0.00    -0.082 A 
ATOM      4  C2  PXY d   1       0.621  -0.782   1.908  0.00  0.00     0.003 A 
ATOM      5  C3  PXY d   1      -0.102  -0.303   0.846  0.00  0.00     0.003 A 
ATOM      6  C4  PXY d   1      -1.411   0.066   1.010  0.00  0.00    -0.082 A 
ATOM      7  C5  PXY d   1      -1.974  -0.005   2.234  0.00  0.00     0.003 A 
ATOM      8  C6  PXY d   1      -1.210  -0.455   3.307  0.00  0.00     0.003 A 
ENDROOT
TORSDOF 0
ENDMDL
