MODEL 1
REMARK minimizedAffinity 0.629651904
REMARK minimizedRMSD -1
REMARK  0 active torsions:
REMARK  status: ('A' for Active; 'I' for Inactive)
ROOT
ATOM      1  C4' PXY d   1       1.761   0.082   1.843  0.00  0.00     0.077 C 
ATOM      2  C1' PXY d   1      -3.455  -1.310   3.909  0.00  0.00     0.077 C 
ATOM      3  C1  PXY d   1      -2.082  -0.947   3.379  0.00  0.00    -0.082 A 
ATOM      4  C2  PXY d   1      -1.976  -0.183   2.304  0.00  0.00     0.003 A 
ATOM      5  C3  PXY d   1      -0.743   0.129   1.792  0.00  0.00     0.003 A 
ATOM      6  C4  PXY d   1       0.396  -0.302   2.418  0.00  0.00    -0.082 A 
ATOM      7  C5  PXY d   1       0.297  -1.073   3.522  0.00  0.00     0.003 A 
ATOM      8  C6  PXY d   1      -0.965  -1.412   4.002  0.00  0.00     0.003 A 
ENDROOT
TORSDOF 0
ENDMDL
