MODEL 1
REMARK minimizedAffinity 12.1102514
REMARK minimizedRMSD -1
REMARK  0 active torsions:
REMARK  status: ('A' for Active; 'I' for Inactive)
ROOT
ATOM      1  C4' PXY d   1      -1.555  -0.482  -0.737  0.00  0.00     0.077 C 
ATOM      2  C1' PXY d   1       3.463   1.563   1.277  0.00  0.00     0.077 C 
ATOM      3  C1  PXY d   1       2.141   1.032   0.759  0.00  0.00    -0.082 A 
ATOM      4  C2  PXY d   1       2.127  -0.028  -0.033  0.00  0.00     0.003 A 
ATOM      5  C3  PXY d   1       0.943  -0.502  -0.537  0.00  0.00     0.003 A 
ATOM      6  C4  PXY d   1      -0.244   0.083  -0.183  0.00  0.00    -0.082 A 
ATOM      7  C5  PXY d   1      -0.239   1.158   0.634  0.00  0.00     0.003 A 
ATOM      8  C6  PXY d   1       0.977   1.648   1.101  0.00  0.00     0.003 A 
ENDROOT
TORSDOF 0
ENDMDL
