MODEL 1
REMARK minimizedAffinity -4.62438393
REMARK minimizedRMSD -1
REMARK  0 active torsions:
REMARK  status: ('A' for Active; 'I' for Inactive)
ROOT
ATOM      1  C4' PXY d   1      -1.870   1.084   0.338  0.00  0.00     0.077 C 
ATOM      2  C1' PXY d   1       0.802  -1.578   4.719  0.00  0.00     0.077 C 
ATOM      3  C1  PXY d   1       0.113  -0.876   3.565  0.00  0.00    -0.082 A 
ATOM      4  C2  PXY d   1      -1.146  -0.489   3.693  0.00  0.00     0.003 A 
ATOM      5  C3  PXY d   1      -1.794   0.119   2.649  0.00  0.00     0.003 A 
ATOM      6  C4  PXY d   1      -1.131   0.380   1.480  0.00  0.00    -0.082 A 
ATOM      7  C5  PXY d   1       0.156  -0.003   1.345  0.00  0.00     0.003 A 
ATOM      8  C6  PXY d   1       0.784  -0.655   2.403  0.00  0.00     0.003 A 
ENDROOT
TORSDOF 0
ENDMDL
