MODEL 1
REMARK minimizedAffinity 9.1993494
REMARK minimizedRMSD -1
REMARK  0 active torsions:
REMARK  status: ('A' for Active; 'I' for Inactive)
ROOT
ATOM      1  C4' PXY d   1       2.164   0.139   1.045  0.00  0.00     0.077 C 
ATOM      2  C1' PXY d   1      -3.122  -1.182  -0.885  0.00  0.00     0.077 C 
ATOM      3  C1  PXY d   1      -1.741  -0.825  -0.373  0.00  0.00    -0.082 A 
ATOM      4  C2  PXY d   1      -0.671  -1.262  -1.017  0.00  0.00     0.003 A 
ATOM      5  C3  PXY d   1       0.585  -0.976  -0.550  0.00  0.00     0.003 A 
ATOM      6  C4  PXY d   1       0.749  -0.189   0.559  0.00  0.00    -0.082 A 
ATOM      7  C5  PXY d   1      -0.337   0.270   1.216  0.00  0.00     0.003 A 
ATOM      8  C6  PXY d   1      -1.604  -0.067   0.748  0.00  0.00     0.003 A 
ENDROOT
TORSDOF 0
ENDMDL
