MODEL 1
REMARK minimizedAffinity 0.559792876
REMARK minimizedRMSD -1
REMARK  0 active torsions:
REMARK  status: ('A' for Active; 'I' for Inactive)
ROOT
ATOM      1  C4' PXY d   1      -3.633  -1.250   4.069  0.00  0.00     0.077 C 
ATOM      2  C1' PXY d   1       2.147  -1.194   3.972  0.00  0.00     0.077 C 
ATOM      3  C1  PXY d   1       0.631  -1.197   3.991  0.00  0.00    -0.082 A 
ATOM      4  C2  PXY d   1      -0.010  -1.862   4.938  0.00  0.00     0.003 A 
ATOM      5  C3  PXY d   1      -1.381  -1.902   4.952  0.00  0.00     0.003 A 
ATOM      6  C4  PXY d   1      -2.103  -1.211   4.016  0.00  0.00    -0.082 A 
ATOM      7  C5  PXY d   1      -1.457  -0.521   3.053  0.00  0.00     0.003 A 
ATOM      8  C6  PXY d   1      -0.065  -0.527   3.032  0.00  0.00     0.003 A 
ENDROOT
TORSDOF 0
ENDMDL
