MODEL 1
REMARK minimizedAffinity 8.60176468
REMARK minimizedRMSD -1
REMARK  0 active torsions:
REMARK  status: ('A' for Active; 'I' for Inactive)
ROOT
ATOM      1  C4' PXY d   1      -2.589   1.375  -1.225  0.00  0.00     0.077 C 
ATOM      2  C1' PXY d   1      -3.069  -1.326   3.863  0.00  0.00     0.077 C 
ATOM      3  C1  PXY d   1      -2.941  -0.629   2.523  0.00  0.00    -0.082 A 
ATOM      4  C2  PXY d   1      -2.579   0.642   2.479  0.00  0.00     0.003 A 
ATOM      5  C3  PXY d   1      -2.490   1.297   1.277  0.00  0.00     0.003 A 
ATOM      6  C4  PXY d   1      -2.722   0.628   0.105  0.00  0.00    -0.082 A 
ATOM      7  C5  PXY d   1      -3.082  -0.672   0.141  0.00  0.00     0.003 A 
ATOM      8  C6  PXY d   1      -3.207  -1.307   1.373  0.00  0.00     0.003 A 
ENDROOT
TORSDOF 0
ENDMDL
