MODEL 1
REMARK minimizedAffinity 8.25753784
REMARK minimizedRMSD -1
REMARK  0 active torsions:
REMARK  status: ('A' for Active; 'I' for Inactive)
ROOT
ATOM      1  C4' PXY d   1      -0.947   0.208  -3.123  0.00  0.00     0.077 C 
ATOM      2  C1' PXY d   1      -3.040   0.182   2.265  0.00  0.00     0.077 C 
ATOM      3  C1  PXY d   1      -2.503   0.186   0.847  0.00  0.00    -0.082 A 
ATOM      4  C2  PXY d   1      -1.224  -0.073   0.631  0.00  0.00     0.003 A 
ATOM      5  C3  PXY d   1      -0.714  -0.041  -0.641  0.00  0.00     0.003 A 
ATOM      6  C4  PXY d   1      -1.535   0.205  -1.710  0.00  0.00    -0.082 A 
ATOM      7  C5  PXY d   1      -2.843   0.460  -1.499  0.00  0.00     0.003 A 
ATOM      8  C6  PXY d   1      -3.332   0.464  -0.196  0.00  0.00     0.003 A 
ENDROOT
TORSDOF 0
ENDMDL
