MODEL 1
REMARK minimizedAffinity 1.68962276
REMARK minimizedRMSD -1
REMARK  0 active torsions:
REMARK  status: ('A' for Active; 'I' for Inactive)
ROOT
ATOM      1  C4' PXY d   1      -1.727   0.387   1.058  0.00  0.00     0.077 C 
ATOM      2  C1' PXY d   1      -1.953  -2.603   6.000  0.00  0.00     0.077 C 
ATOM      3  C1  PXY d   1      -1.906  -1.823   4.701  0.00  0.00    -0.082 A 
ATOM      4  C2  PXY d   1      -0.736  -1.495   4.177  0.00  0.00     0.003 A 
ATOM      5  C3  PXY d   1      -0.675  -0.762   3.020  0.00  0.00     0.003 A 
ATOM      6  C4  PXY d   1      -1.823  -0.408   2.363  0.00  0.00    -0.082 A 
ATOM      7  C5  PXY d   1      -3.020  -0.748   2.885  0.00  0.00     0.003 A 
ATOM      8  C6  PXY d   1      -3.061  -1.457   4.083  0.00  0.00     0.003 A 
ENDROOT
TORSDOF 0
ENDMDL
