MODEL 1
REMARK minimizedAffinity 1.3920486
REMARK minimizedRMSD -1
REMARK  0 active torsions:
REMARK  status: ('A' for Active; 'I' for Inactive)
ROOT
ATOM      1  C4' PXY d   1      -2.551   0.061   0.616  0.00  0.00     0.077 C 
ATOM      2  C1' PXY d   1      -1.034  -1.399   5.999  0.00  0.00     0.077 C 
ATOM      3  C1  PXY d   1      -1.442  -1.024   4.588  0.00  0.00    -0.082 A 
ATOM      4  C2  PXY d   1      -0.518  -0.660   3.714  0.00  0.00     0.003 A 
ATOM      5  C3  PXY d   1      -0.873  -0.286   2.444  0.00  0.00     0.003 A 
ATOM      6  C4  PXY d   1      -2.183  -0.336   2.048  0.00  0.00    -0.082 A 
ATOM      7  C5  PXY d   1      -3.131  -0.716   2.931  0.00  0.00     0.003 A 
ATOM      8  C6  PXY d   1      -2.754  -1.052   4.228  0.00  0.00     0.003 A 
ENDROOT
TORSDOF 0
ENDMDL
