MODEL 1
REMARK minimizedAffinity 5.58198309
REMARK minimizedRMSD -1
REMARK  1 active torsions:
REMARK  status: ('A' for Active; 'I' for Inactive)
REMARK    1  A    between atoms: C1_2  and  C2_3 
ROOT
ATOM      1  C2  UNL d   1       2.156  -2.636  -1.573  0.00  0.00    -0.073 A 
ATOM      2  C3  UNL d   1       1.266  -3.004  -2.588  0.00  0.00    -0.002 A 
ATOM      3  C4  UNL d   1       1.183  -4.333  -3.006  0.00  0.00     0.004 A 
ATOM      4  C5  UNL d   1       1.983  -5.307  -2.409  0.00  0.00    -0.004 A 
ATOM      5  C6  UNL d   1       2.870  -4.961  -1.385  0.00  0.00    -0.075 A 
ATOM      6  C7  UNL d   1       3.740  -5.997  -0.735  0.00  0.00     0.076 C 
ATOM      7  C8  UNL d   1       2.950  -3.624  -0.973  0.00  0.00     0.001 A 
ENDROOT
BRANCH   1   8
ATOM      8  C1  UNL d   1       2.244  -1.203  -1.114  0.00  0.00     0.053 C 
ATOM      9  C   UNL d   1       1.877  -0.227  -2.221  0.00  0.00     0.018 C 
ENDBRANCH   1   8
TORSDOF 1
ENDMDL
