MODEL 1
REMARK minimizedAffinity 7.82366323
REMARK minimizedRMSD -1
REMARK  1 active torsions:
REMARK  status: ('A' for Active; 'I' for Inactive)
REMARK    1  A    between atoms: C1_2  and  C2_3 
ROOT
ATOM      1  C2  UNL d   1      -2.609  -3.900  -3.865  0.00  0.00    -0.073 A 
ATOM      2  C3  UNL d   1      -2.475  -5.117  -4.543  0.00  0.00    -0.002 A 
ATOM      3  C4  UNL d   1      -3.327  -5.431  -5.603  0.00  0.00     0.004 A 
ATOM      4  C5  UNL d   1      -4.315  -4.531  -6.000  0.00  0.00    -0.004 A 
ATOM      5  C6  UNL d   1      -4.458  -3.305  -5.342  0.00  0.00    -0.075 A 
ATOM      6  C7  UNL d   1      -5.517  -2.326  -5.755  0.00  0.00     0.076 C 
ATOM      7  C8  UNL d   1      -3.600  -2.998  -4.277  0.00  0.00     0.001 A 
ENDROOT
BRANCH   1   8
ATOM      8  C1  UNL d   1      -1.688  -3.554  -2.724  0.00  0.00     0.053 C 
ATOM      9  C   UNL d   1      -1.932  -4.433  -1.507  0.00  0.00     0.018 C 
ENDBRANCH   1   8
TORSDOF 1
ENDMDL
