MODEL 1
REMARK minimizedAffinity 13.1993685
REMARK minimizedRMSD -1
REMARK  1 active torsions:
REMARK  status: ('A' for Active; 'I' for Inactive)
REMARK    1  A    between atoms: C1_2  and  C2_3 
ROOT
ATOM      1  C2  UNL d   1       1.389  -3.901  -2.407  0.00  0.00    -0.073 A 
ATOM      2  C3  UNL d   1       1.897  -2.626  -2.132  0.00  0.00    -0.002 A 
ATOM      3  C4  UNL d   1       2.829  -2.444  -1.110  0.00  0.00     0.004 A 
ATOM      4  C5  UNL d   1       3.268  -3.534  -0.358  0.00  0.00    -0.004 A 
ATOM      5  C6  UNL d   1       2.782  -4.818  -0.626  0.00  0.00    -0.075 A 
ATOM      6  C7  UNL d   1       3.242  -6.000   0.176  0.00  0.00     0.076 C 
ATOM      7  C8  UNL d   1       1.844  -4.992  -1.652  0.00  0.00     0.001 A 
ENDROOT
BRANCH   1   8
ATOM      8  C1  UNL d   1       0.388  -4.104  -3.515  0.00  0.00     0.053 C 
ATOM      9  C   UNL d   1      -0.871  -4.801  -3.024  0.00  0.00     0.018 C 
ENDBRANCH   1   8
TORSDOF 1
ENDMDL
