MODEL 1
REMARK minimizedAffinity 17.4764233
REMARK minimizedRMSD -1
REMARK  1 active torsions:
REMARK  status: ('A' for Active; 'I' for Inactive)
REMARK    1  A    between atoms: C1_2  and  C2_3 
ROOT
ATOM      1  C2  UNL d   1       2.273  -1.397  -0.662  0.00  0.00    -0.073 A 
ATOM      2  C3  UNL d   1       2.887  -2.367   0.138  0.00  0.00    -0.002 A 
ATOM      3  C4  UNL d   1       2.848  -3.712  -0.231  0.00  0.00     0.004 A 
ATOM      4  C5  UNL d   1       2.202  -4.100  -1.404  0.00  0.00    -0.004 A 
ATOM      5  C6  UNL d   1       1.592  -3.144  -2.223  0.00  0.00    -0.075 A 
ATOM      6  C7  UNL d   1       0.891  -3.545  -3.487  0.00  0.00     0.076 C 
ATOM      7  C8  UNL d   1       1.633  -1.795  -1.845  0.00  0.00     0.001 A 
ENDROOT
BRANCH   1   8
ATOM      8  C1  UNL d   1       2.318   0.058  -0.272  0.00  0.00     0.053 C 
ATOM      9  C   UNL d   1       3.608   0.416   0.448  0.00  0.00     0.018 C 
ENDBRANCH   1   8
TORSDOF 1
ENDMDL
