MODEL 1
REMARK minimizedAffinity 2.44024181
REMARK minimizedRMSD -1
REMARK  1 active torsions:
REMARK  status: ('A' for Active; 'I' for Inactive)
REMARK    1  A    between atoms: C1_2  and  C2_3 
ROOT
ATOM      1  C2  UNL d   1       3.032  -4.699  -1.405  0.00  0.00    -0.073 A 
ATOM      2  C3  UNL d   1       3.091  -3.516  -0.658  0.00  0.00    -0.002 A 
ATOM      3  C4  UNL d   1       2.403  -2.379  -1.084  0.00  0.00     0.004 A 
ATOM      4  C5  UNL d   1       1.646  -2.414  -2.255  0.00  0.00    -0.004 A 
ATOM      5  C6  UNL d   1       1.565  -3.590  -3.008  0.00  0.00    -0.075 A 
ATOM      6  C7  UNL d   1       0.757  -3.643  -4.271  0.00  0.00     0.076 C 
ATOM      7  C8  UNL d   1       2.261  -4.727  -2.575  0.00  0.00     0.001 A 
ENDROOT
BRANCH   1   8
ATOM      8  C1  UNL d   1       3.768  -5.931  -0.945  0.00  0.00     0.053 C 
ATOM      9  C   UNL d   1       5.176  -6.000  -1.515  0.00  0.00     0.018 C 
ENDBRANCH   1   8
TORSDOF 1
ENDMDL
