MODEL 1
REMARK minimizedAffinity 17.3179283
REMARK minimizedRMSD -1
REMARK  1 active torsions:
REMARK  status: ('A' for Active; 'I' for Inactive)
REMARK    1  A    between atoms: C1_2  and  C2_3 
ROOT
ATOM      1  C2  UNL d   1       1.751  -2.191  -0.472  0.00  0.00    -0.073 A 
ATOM      2  C3  UNL d   1       1.134  -1.767  -1.654  0.00  0.00    -0.002 A 
ATOM      3  C4  UNL d   1       1.432  -0.517  -2.196  0.00  0.00     0.004 A 
ATOM      4  C5  UNL d   1       2.354   0.319  -1.567  0.00  0.00    -0.004 A 
ATOM      5  C6  UNL d   1       2.991  -0.091  -0.391  0.00  0.00    -0.075 A 
ATOM      6  C7  UNL d   1       3.984   0.797   0.300  0.00  0.00     0.076 C 
ATOM      7  C8  UNL d   1       2.684  -1.348   0.149  0.00  0.00     0.001 A 
ENDROOT
BRANCH   1   8
ATOM      8  C1  UNL d   1       1.437  -3.544   0.114  0.00  0.00     0.053 C 
ATOM      9  C   UNL d   1       2.641  -4.471   0.084  0.00  0.00     0.018 C 
ENDBRANCH   1   8
TORSDOF 1
ENDMDL
