MODEL 1
REMARK minimizedAffinity 5.6864152
REMARK minimizedRMSD -1
REMARK  1 active torsions:
REMARK  status: ('A' for Active; 'I' for Inactive)
REMARK    1  A    between atoms: C1_2  and  C2_3 
ROOT
ATOM      1  C2  UNL d   1      -1.836  -4.934  -3.965  0.00  0.00    -0.073 A 
ATOM      2  C3  UNL d   1      -2.091  -5.997  -4.840  0.00  0.00    -0.002 A 
ATOM      3  C4  UNL d   1      -3.045  -5.865  -5.850  0.00  0.00     0.004 A 
ATOM      4  C5  UNL d   1      -3.748  -4.670  -6.000  0.00  0.00    -0.004 A 
ATOM      5  C6  UNL d   1      -3.499  -3.593  -5.143  0.00  0.00    -0.075 A 
ATOM      6  C7  UNL d   1      -4.249  -2.301  -5.290  0.00  0.00     0.076 C 
ATOM      7  C8  UNL d   1      -2.542  -3.734  -4.130  0.00  0.00     0.001 A 
ENDROOT
BRANCH   1   8
ATOM      8  C1  UNL d   1      -0.802  -5.070  -2.877  0.00  0.00     0.053 C 
ATOM      9  C   UNL d   1       0.367  -5.941  -3.307  0.00  0.00     0.018 C 
ENDBRANCH   1   8
TORSDOF 1
ENDMDL
