MODEL 1
REMARK minimizedAffinity 7.93153
REMARK minimizedRMSD -1
REMARK  1 active torsions:
REMARK  status: ('A' for Active; 'I' for Inactive)
REMARK    1  A    between atoms: C1_2  and  C2_3 
ROOT
ATOM      1  C2  UNL d   1      -3.582   5.184  -5.251  0.00  0.00    -0.073 A 
ATOM      2  C3  UNL d   1      -3.481   3.790  -5.334  0.00  0.00    -0.002 A 
ATOM      3  C4  UNL d   1      -2.466   3.116  -4.654  0.00  0.00     0.004 A 
ATOM      4  C5  UNL d   1      -1.548   3.825  -3.880  0.00  0.00    -0.004 A 
ATOM      5  C6  UNL d   1      -1.640   5.217  -3.775  0.00  0.00    -0.075 A 
ATOM      6  C7  UNL d   1      -0.659   5.995  -2.947  0.00  0.00     0.076 C 
ATOM      7  C8  UNL d   1      -2.660   5.887  -4.462  0.00  0.00     0.001 A 
ENDROOT
BRANCH   1   8
ATOM      8  C1  UNL d   1      -4.681   5.916  -5.978  0.00  0.00     0.053 C 
ATOM      9  C   UNL d   1      -5.977   5.122  -6.000  0.00  0.00     0.018 C 
ENDBRANCH   1   8
TORSDOF 1
ENDMDL
