MODEL 1
REMARK minimizedAffinity 9.69279766
REMARK minimizedRMSD -1
REMARK  1 active torsions:
REMARK  status: ('A' for Active; 'I' for Inactive)
REMARK    1  A    between atoms: C1_2  and  C2_3 
ROOT
ATOM      1  C2  UNL d   1       2.823  -0.944  -0.793  0.00  0.00    -0.073 A 
ATOM      2  C3  UNL d   1       3.287  -2.196  -0.373  0.00  0.00    -0.002 A 
ATOM      3  C4  UNL d   1       4.624  -2.367  -0.012  0.00  0.00     0.004 A 
ATOM      4  C5  UNL d   1       5.508  -1.289  -0.060  0.00  0.00    -0.004 A 
ATOM      5  C6  UNL d   1       5.060  -0.027  -0.466  0.00  0.00    -0.075 A 
ATOM      6  C7  UNL d   1       5.999   1.142  -0.525  0.00  0.00     0.076 C 
ATOM      7  C8  UNL d   1       3.717   0.136  -0.830  0.00  0.00     0.001 A 
ENDROOT
BRANCH   1   8
ATOM      8  C1  UNL d   1       1.379  -0.753  -1.178  0.00  0.00     0.053 C 
ATOM      9  C   UNL d   1       1.111  -1.174  -2.615  0.00  0.00     0.018 C 
ENDBRANCH   1   8
TORSDOF 1
ENDMDL
