MODEL 1
REMARK minimizedAffinity 22.292963
REMARK minimizedRMSD -1
REMARK  1 active torsions:
REMARK  status: ('A' for Active; 'I' for Inactive)
REMARK    1  A    between atoms: C1_2  and  C2_3 
ROOT
ATOM      1  C2  UNL d   1       4.589  -1.521   0.351  0.00  0.00    -0.073 A 
ATOM      2  C3  UNL d   1       3.441  -2.224  -0.034  0.00  0.00    -0.002 A 
ATOM      3  C4  UNL d   1       2.271  -1.538  -0.361  0.00  0.00     0.004 A 
ATOM      4  C5  UNL d   1       2.238  -0.144  -0.313  0.00  0.00    -0.004 A 
ATOM      5  C6  UNL d   1       3.377   0.576   0.058  0.00  0.00    -0.075 A 
ATOM      6  C7  UNL d   1       3.357   2.076   0.117  0.00  0.00     0.076 C 
ATOM      7  C8  UNL d   1       4.548  -0.120   0.388  0.00  0.00     0.001 A 
ENDROOT
BRANCH   1   8
ATOM      8  C1  UNL d   1       5.857  -2.258   0.699  0.00  0.00     0.053 C 
ATOM      9  C   UNL d   1       6.000  -3.550  -0.089  0.00  0.00     0.018 C 
ENDBRANCH   1   8
TORSDOF 1
ENDMDL
