MODEL 1
REMARK minimizedAffinity 8.44449902
REMARK minimizedRMSD -1
REMARK  1 active torsions:
REMARK  status: ('A' for Active; 'I' for Inactive)
REMARK    1  A    between atoms: C1_2  and  C2_3 
ROOT
ATOM      1  C2  UNL d   1       4.593  -2.272   1.037  0.00  0.00    -0.073 A 
ATOM      2  C3  UNL d   1       3.411  -2.964   0.750  0.00  0.00    -0.002 A 
ATOM      3  C4  UNL d   1       2.198  -2.279   0.660  0.00  0.00     0.004 A 
ATOM      4  C5  UNL d   1       2.156  -0.898   0.849  0.00  0.00    -0.004 A 
ATOM      5  C6  UNL d   1       3.329  -0.188   1.125  0.00  0.00    -0.075 A 
ATOM      6  C7  UNL d   1       3.300   1.298   1.333  0.00  0.00     0.076 C 
ATOM      7  C8  UNL d   1       4.542  -0.883   1.216  0.00  0.00     0.001 A 
ENDROOT
BRANCH   1   8
ATOM      8  C1  UNL d   1       5.906  -3.006   1.129  0.00  0.00     0.053 C 
ATOM      9  C   UNL d   1       6.000  -4.136   0.116  0.00  0.00     0.018 C 
ENDBRANCH   1   8
TORSDOF 1
ENDMDL
