MODEL 1
REMARK minimizedAffinity 13.9551935
REMARK minimizedRMSD -1
REMARK  1 active torsions:
REMARK  status: ('A' for Active; 'I' for Inactive)
REMARK    1  A    between atoms: C1_2  and  C2_3 
ROOT
ATOM      1  C2  UNL d   1       0.340  -3.353  -1.998  0.00  0.00    -0.073 A 
ATOM      2  C3  UNL d   1       1.045  -3.691  -0.837  0.00  0.00    -0.002 A 
ATOM      3  C4  UNL d   1       1.966  -2.798  -0.288  0.00  0.00     0.004 A 
ATOM      4  C5  UNL d   1       2.186  -1.558  -0.888  0.00  0.00    -0.004 A 
ATOM      5  C6  UNL d   1       1.483  -1.198  -2.042  0.00  0.00    -0.075 A 
ATOM      6  C7  UNL d   1       1.710   0.131  -2.700  0.00  0.00     0.076 C 
ATOM      7  C8  UNL d   1       0.562  -2.101  -2.589  0.00  0.00     0.001 A 
ENDROOT
BRANCH   1   8
ATOM      8  C1  UNL d   1      -0.660  -4.311  -2.592  0.00  0.00     0.053 C 
ATOM      9  C   UNL d   1      -1.925  -3.603  -3.051  0.00  0.00     0.018 C 
ENDBRANCH   1   8
TORSDOF 1
ENDMDL
