MODEL 1
REMARK minimizedAffinity 15.862402
REMARK minimizedRMSD -1
REMARK  1 active torsions:
REMARK  status: ('A' for Active; 'I' for Inactive)
REMARK    1  A    between atoms: C1_2  and  C2_3 
ROOT
ATOM      1  C2  UNL d   1      -3.217  -3.835  -4.137  0.00  0.00    -0.073 A 
ATOM      2  C3  UNL d   1      -3.885  -4.856  -3.451  0.00  0.00    -0.002 A 
ATOM      3  C4  UNL d   1      -3.212  -5.625  -2.501  0.00  0.00     0.004 A 
ATOM      4  C5  UNL d   1      -1.868  -5.376  -2.221  0.00  0.00    -0.004 A 
ATOM      5  C6  UNL d   1      -1.186  -4.352  -2.886  0.00  0.00    -0.075 A 
ATOM      6  C7  UNL d   1       0.260  -4.074  -2.598  0.00  0.00     0.076 C 
ATOM      7  C8  UNL d   1      -1.868  -3.587  -3.842  0.00  0.00     0.001 A 
ENDROOT
BRANCH   1   8
ATOM      8  C1  UNL d   1      -3.941  -2.999  -5.160  0.00  0.00     0.053 C 
ATOM      9  C   UNL d   1      -4.936  -3.819  -5.965  0.00  0.00     0.018 C 
ENDBRANCH   1   8
TORSDOF 1
ENDMDL
