MODEL 1
REMARK minimizedAffinity 1.64858997
REMARK minimizedRMSD -1
REMARK  0 active torsions:
REMARK  status: ('A' for Active; 'I' for Inactive)
ROOT
ATOM      1  O1  BZF d   1       2.830  -1.970   0.269  0.00  0.00    -0.204 OA
ATOM      2  C2  BZF d   1       3.773  -0.995   0.530  0.00  0.00     0.174 A 
ATOM      3  C3  BZF d   1       3.241   0.236   0.381  0.00  0.00    -0.012 A 
ATOM      4  C3A BZF d   1       1.857   0.016   0.092  0.00  0.00    -0.107 A 
ATOM      5  C4  BZF d   1       0.803   0.851  -0.143  0.00  0.00     0.055 A 
ATOM      6  C5  BZF d   1      -0.404   0.316  -0.466  0.00  0.00    -0.016 A 
ATOM      7  C6  BZF d   1      -0.590  -1.047  -0.568  0.00  0.00     0.022 A 
ATOM      8  C7  BZF d   1       0.425  -1.916  -0.339  0.00  0.00     0.029 A 
ATOM      9  C7A BZF d   1       1.637  -1.379   0.020  0.00  0.00     0.058 A 
ENDROOT
TORSDOF 0
ENDMDL
