MODEL 1
REMARK minimizedAffinity 0.379235595
REMARK minimizedRMSD -1
REMARK  0 active torsions:
REMARK  status: ('A' for Active; 'I' for Inactive)
ROOT
ATOM      1  O1  BZF d   1       0.383   1.345  -0.453  0.00  0.00    -0.204 OA
ATOM      2  C2  BZF d   1      -0.952   1.486  -0.128  0.00  0.00     0.174 A 
ATOM      3  C3  BZF d   1      -1.524   0.282   0.076  0.00  0.00    -0.012 A 
ATOM      4  C3A BZF d   1      -0.460  -0.666  -0.045  0.00  0.00    -0.107 A 
ATOM      5  C4  BZF d   1      -0.396  -2.026   0.069  0.00  0.00     0.055 A 
ATOM      6  C5  BZF d   1       0.783  -2.654  -0.180  0.00  0.00    -0.016 A 
ATOM      7  C6  BZF d   1       1.914  -1.957  -0.549  0.00  0.00     0.022 A 
ATOM      8  C7  BZF d   1       1.901  -0.607  -0.670  0.00  0.00     0.029 A 
ATOM      9  C7A BZF d   1       0.720   0.034  -0.387  0.00  0.00     0.058 A 
ENDROOT
TORSDOF 0
ENDMDL
