MODEL 1
REMARK minimizedAffinity 0.802918851
REMARK minimizedRMSD -1
REMARK  0 active torsions:
REMARK  status: ('A' for Active; 'I' for Inactive)
ROOT
ATOM      1  O1  BZF d   1       2.285   1.362   0.071  0.00  0.00    -0.204 OA
ATOM      2  C2  BZF d   1       1.288   2.317   0.107  0.00  0.00     0.174 A 
ATOM      3  C3  BZF d   1       0.087   1.765  -0.161  0.00  0.00    -0.012 A 
ATOM      4  C3A BZF d   1       0.338   0.362  -0.287  0.00  0.00    -0.107 A 
ATOM      5  C4  BZF d   1      -0.463  -0.716  -0.535  0.00  0.00     0.055 A 
ATOM      6  C5  BZF d   1       0.105  -1.944  -0.668  0.00  0.00    -0.016 A 
ATOM      7  C6  BZF d   1       1.468  -2.128  -0.563  0.00  0.00     0.022 A 
ATOM      8  C7  BZF d   1       2.302  -1.090  -0.312  0.00  0.00     0.029 A 
ATOM      9  C7A BZF d   1       1.728   0.147  -0.145  0.00  0.00     0.058 A 
ENDROOT
TORSDOF 0
ENDMDL
