MODEL 1
REMARK minimizedAffinity -3.81038117
REMARK minimizedRMSD -1
REMARK  0 active torsions:
REMARK  status: ('A' for Active; 'I' for Inactive)
ROOT
ATOM      1  O1  BZF d   1       0.105  -0.910  -0.956  0.00  0.00    -0.204 OA
ATOM      2  C2  BZF d   1      -0.804   0.124  -0.841  0.00  0.00     0.174 A 
ATOM      3  C3  BZF d   1      -0.303   1.119  -0.081  0.00  0.00    -0.012 A 
ATOM      4  C3A BZF d   1       1.036   0.720   0.227  0.00  0.00    -0.107 A 
ATOM      5  C4  BZF d   1       2.048   1.299   0.938  0.00  0.00     0.055 A 
ATOM      6  C5  BZF d   1       3.209   0.615   1.111  0.00  0.00    -0.016 A 
ATOM      7  C6  BZF d   1       3.390  -0.650   0.592  0.00  0.00     0.022 A 
ATOM      8  C7  BZF d   1       2.417  -1.264  -0.125  0.00  0.00     0.029 A 
ATOM      9  C7A BZF d   1       1.255  -0.561  -0.329  0.00  0.00     0.058 A 
ENDROOT
TORSDOF 0
ENDMDL
