MODEL 1
REMARK minimizedAffinity -3.40643692
REMARK minimizedRMSD -1
REMARK  0 active torsions:
REMARK  status: ('A' for Active; 'I' for Inactive)
ROOT
ATOM      1  O1  BZF d   1       2.570  -2.125  -0.676  0.00  0.00    -0.204 OA
ATOM      2  C2  BZF d   1       3.540  -1.538   0.114  0.00  0.00     0.174 A 
ATOM      3  C3  BZF d   1       3.033  -0.489   0.793  0.00  0.00    -0.012 A 
ATOM      4  C3A BZF d   1       1.639  -0.472   0.474  0.00  0.00    -0.107 A 
ATOM      5  C4  BZF d   1       0.598   0.327   0.853  0.00  0.00     0.055 A 
ATOM      6  C5  BZF d   1      -0.627   0.121   0.303  0.00  0.00    -0.016 A 
ATOM      7  C6  BZF d   1      -0.847  -0.869  -0.632  0.00  0.00     0.022 A 
ATOM      8  C7  BZF d   1       0.153  -1.689  -1.036  0.00  0.00     0.029 A 
ATOM      9  C7A BZF d   1       1.385  -1.505  -0.458  0.00  0.00     0.058 A 
ENDROOT
TORSDOF 0
ENDMDL
