MODEL 1
REMARK minimizedAffinity -5.12917137
REMARK minimizedRMSD -1
REMARK  0 active torsions:
REMARK  status: ('A' for Active; 'I' for Inactive)
ROOT
ATOM      1  O1  BZF d   1       0.424   1.493  -0.282  0.00  0.00    -0.204 OA
ATOM      2  C2  BZF d   1      -0.671   0.660  -0.414  0.00  0.00     0.174 A 
ATOM      3  C3  BZF d   1      -0.329  -0.622  -0.173  0.00  0.00    -0.012 A 
ATOM      4  C3A BZF d   1       1.047  -0.577   0.219  0.00  0.00    -0.107 A 
ATOM      5  C4  BZF d   1       1.946  -1.531   0.599  0.00  0.00     0.055 A 
ATOM      6  C5  BZF d   1       3.232  -1.166   0.846  0.00  0.00    -0.016 A 
ATOM      7  C6  BZF d   1       3.653   0.141   0.718  0.00  0.00     0.022 A 
ATOM      8  C7  BZF d   1       2.796   1.124   0.348  0.00  0.00     0.029 A 
ATOM      9  C7A BZF d   1       1.489   0.763   0.129  0.00  0.00     0.058 A 
ENDROOT
TORSDOF 0
ENDMDL
