MODEL 1
REMARK minimizedAffinity -2.8541553
REMARK minimizedRMSD -1
REMARK  0 active torsions:
REMARK  status: ('A' for Active; 'I' for Inactive)
ROOT
ATOM      1  O1  BZF d   1      -2.078   0.723   1.837  0.00  0.00    -0.204 OA
ATOM      2  C2  BZF d   1      -3.074   1.268   1.050  0.00  0.00     0.174 A 
ATOM      3  C3  BZF d   1      -2.794   1.101  -0.259  0.00  0.00    -0.012 A 
ATOM      4  C3A BZF d   1      -1.592   0.326  -0.291  0.00  0.00    -0.107 A 
ATOM      5  C4  BZF d   1      -0.826  -0.177  -1.303  0.00  0.00     0.055 A 
ATOM      6  C5  BZF d   1       0.327  -0.828  -0.998  0.00  0.00    -0.016 A 
ATOM      7  C6  BZF d   1       0.746  -0.991   0.306  0.00  0.00     0.022 A 
ATOM      8  C7  BZF d   1       0.016  -0.515   1.345  0.00  0.00     0.029 A 
ATOM      9  C7A BZF d   1      -1.166   0.115   1.041  0.00  0.00     0.058 A 
ENDROOT
TORSDOF 0
ENDMDL
