MODEL 1
REMARK minimizedAffinity -5.74731207
REMARK minimizedRMSD -1
REMARK  0 active torsions:
REMARK  status: ('A' for Active; 'I' for Inactive)
ROOT
ATOM      1  O1  BZF d   1       0.029   1.730  -0.150  0.00  0.00    -0.204 OA
ATOM      2  C2  BZF d   1      -1.092   1.111  -0.669  0.00  0.00     0.174 A 
ATOM      3  C3  BZF d   1      -0.905  -0.222  -0.757  0.00  0.00    -0.012 A 
ATOM      4  C3A BZF d   1       0.381  -0.460  -0.176  0.00  0.00    -0.107 A 
ATOM      5  C4  BZF d   1       1.118  -1.589   0.041  0.00  0.00     0.055 A 
ATOM      6  C5  BZF d   1       2.367  -1.472   0.563  0.00  0.00    -0.016 A 
ATOM      7  C6  BZF d   1       2.912  -0.243   0.874  0.00  0.00     0.022 A 
ATOM      8  C7  BZF d   1       2.217   0.904   0.680  0.00  0.00     0.029 A 
ATOM      9  C7A BZF d   1       0.942   0.787   0.184  0.00  0.00     0.058 A 
ENDROOT
TORSDOF 0
ENDMDL
