MODEL 1
REMARK minimizedAffinity -5.37621832
REMARK minimizedRMSD -1
REMARK  0 active torsions:
REMARK  status: ('A' for Active; 'I' for Inactive)
ROOT
ATOM      1  O1  BZF d   1       0.080   0.912  -0.041  0.00  0.00    -0.204 OA
ATOM      2  C2  BZF d   1      -0.650  -0.132  -0.574  0.00  0.00     0.174 A 
ATOM      3  C3  BZF d   1       0.097  -1.252  -0.643  0.00  0.00    -0.012 A 
ATOM      4  C3A BZF d   1       1.346  -0.909  -0.034  0.00  0.00    -0.107 A 
ATOM      5  C4  BZF d   1       2.494  -1.607   0.212  0.00  0.00     0.055 A 
ATOM      6  C5  BZF d   1       3.557  -0.959   0.757  0.00  0.00    -0.016 A 
ATOM      7  C6  BZF d   1       3.509   0.385   1.063  0.00  0.00     0.022 A 
ATOM      8  C7  BZF d   1       2.390   1.118   0.842  0.00  0.00     0.029 A 
ATOM      9  C7A BZF d   1       1.303   0.458   0.322  0.00  0.00     0.058 A 
ENDROOT
TORSDOF 0
ENDMDL
