MODEL 1
REMARK minimizedAffinity -0.933408976
REMARK minimizedRMSD -1
REMARK  0 active torsions:
REMARK  status: ('A' for Active; 'I' for Inactive)
ROOT
ATOM      1  O1  BZF d   1       1.434   1.950   0.008  0.00  0.00    -0.204 OA
ATOM      2  C2  BZF d   1       0.060   2.065  -0.071  0.00  0.00     0.174 A 
ATOM      3  C3  BZF d   1      -0.511   0.860  -0.272  0.00  0.00    -0.012 A 
ATOM      4  C3A BZF d   1       0.568  -0.079  -0.230  0.00  0.00    -0.107 A 
ATOM      5  C4  BZF d   1       0.635  -1.437  -0.349  0.00  0.00     0.055 A 
ATOM      6  C5  BZF d   1       1.852  -2.042  -0.334  0.00  0.00    -0.016 A 
ATOM      7  C6  BZF d   1       3.020  -1.320  -0.208  0.00  0.00     0.022 A 
ATOM      8  C7  BZF d   1       3.004   0.030  -0.081  0.00  0.00     0.029 A 
ATOM      9  C7A BZF d   1       1.774   0.640  -0.063  0.00  0.00     0.058 A 
ENDROOT
TORSDOF 0
ENDMDL
