MODEL 1
REMARK minimizedAffinity 1.45303404
REMARK minimizedRMSD -1
REMARK  0 active torsions:
REMARK  status: ('A' for Active; 'I' for Inactive)
ROOT
ATOM      1  C   UNL d   1      -0.677   1.645   0.429  0.00  0.00     0.124 A 
ATOM      2  C1  UNL d   1      -0.648   0.509   1.227  0.00  0.00     0.062 A 
ATOM      3  C2  UNL d   1       0.014  -0.635   0.792  0.00  0.00     0.162 A 
ATOM      4  C3  UNL d   1       0.655  -0.649  -0.447  0.00  0.00    -0.034 A 
ATOM      5  C4  UNL d   1       0.622   0.497  -1.244  0.00  0.00     0.162 A 
ATOM      6  C5  UNL d   1      -0.042   1.638  -0.805  0.00  0.00     0.062 A 
ATOM      7  F   UNL d   1      -0.068   2.734  -1.577  0.00  0.00    -0.097 F 
ATOM      8  F1  UNL d   1       1.227   0.517  -2.440  0.00  0.00    -0.096 F 
ATOM      9  I   UNL d   1       1.647  -2.358  -1.101  0.00  0.00    -0.060 I 
ATOM     10  F2  UNL d   1       0.026  -1.718   1.583  0.00  0.00    -0.096 F 
ATOM     11  F3  UNL d   1      -1.261   0.513   2.419  0.00  0.00    -0.097 F 
ATOM     12  F4  UNL d   1      -1.316   2.744   0.850  0.00  0.00    -0.092 F 
ENDROOT
TORSDOF 0
ENDMDL
