MODEL 1
REMARK minimizedAffinity -3.01933718
REMARK minimizedRMSD -1
REMARK  0 active torsions:
REMARK  status: ('A' for Active; 'I' for Inactive)
ROOT
ATOM      1  C   UNL d   1      -0.327   1.710   0.634  0.00  0.00     0.124 A 
ATOM      2  C1  UNL d   1      -0.897   0.524   1.076  0.00  0.00     0.062 A 
ATOM      3  C2  UNL d   1      -0.567  -0.682   0.465  0.00  0.00     0.162 A 
ATOM      4  C3  UNL d   1       0.340  -0.708  -0.595  0.00  0.00    -0.034 A 
ATOM      5  C4  UNL d   1       0.909   0.488  -1.034  0.00  0.00     0.162 A 
ATOM      6  C5  UNL d   1       0.575   1.691  -0.420  0.00  0.00     0.062 A 
ATOM      7  F   UNL d   1       1.127   2.836  -0.848  0.00  0.00    -0.097 F 
ATOM      8  F1  UNL d   1       1.784   0.499  -2.050  0.00  0.00    -0.096 F 
ATOM      9  I   UNL d   1       0.837  -2.510  -1.512  0.00  0.00    -0.060 I 
ATOM     10  F2  UNL d   1      -1.133  -1.813   0.912  0.00  0.00    -0.096 F 
ATOM     11  F3  UNL d   1      -1.770   0.540   2.094  0.00  0.00    -0.097 F 
ATOM     12  F4  UNL d   1      -0.648   2.869   1.224  0.00  0.00    -0.092 F 
ENDROOT
TORSDOF 0
ENDMDL
