MODEL 1
REMARK minimizedAffinity -2.87592816
REMARK minimizedRMSD -1
REMARK  0 active torsions:
REMARK  status: ('A' for Active; 'I' for Inactive)
ROOT
ATOM      1  C   UNL d   1      -1.140   0.355   2.435  0.00  0.00     0.124 A 
ATOM      2  C1  UNL d   1      -1.588   1.520   1.827  0.00  0.00     0.062 A 
ATOM      3  C2  UNL d   1      -1.158   1.851   0.546  0.00  0.00     0.162 A 
ATOM      4  C3  UNL d   1      -0.276   1.015  -0.139  0.00  0.00    -0.034 A 
ATOM      5  C4  UNL d   1       0.171  -0.155   0.479  0.00  0.00     0.162 A 
ATOM      6  C5  UNL d   1      -0.262  -0.481   1.760  0.00  0.00     0.062 A 
ATOM      7  F   UNL d   1       0.171  -1.607   2.345  0.00  0.00    -0.097 F 
ATOM      8  F1  UNL d   1       1.019  -0.982  -0.150  0.00  0.00    -0.096 F 
ATOM      9  I   UNL d   1       0.369   1.506  -2.055  0.00  0.00    -0.060 I 
ATOM     10  F2  UNL d   1      -1.607   2.983  -0.017  0.00  0.00    -0.096 F 
ATOM     11  F3  UNL d   1      -2.436   2.330   2.477  0.00  0.00    -0.097 F 
ATOM     12  F4  UNL d   1      -1.555   0.039   3.668  0.00  0.00    -0.092 F 
ENDROOT
TORSDOF 0
ENDMDL
