MODEL 1
REMARK minimizedAffinity 3.61527729
REMARK minimizedRMSD -1
REMARK  0 active torsions:
REMARK  status: ('A' for Active; 'I' for Inactive)
ROOT
ATOM      1  C   UNL d   1      -0.990   2.162   0.703  0.00  0.00     0.124 A 
ATOM      2  C1  UNL d   1      -0.549   1.942  -0.595  0.00  0.00     0.062 A 
ATOM      3  C2  UNL d   1       0.000   0.713  -0.948  0.00  0.00     0.162 A 
ATOM      4  C3  UNL d   1       0.110  -0.307  -0.003  0.00  0.00    -0.034 A 
ATOM      5  C4  UNL d   1      -0.335  -0.078   1.300  0.00  0.00     0.162 A 
ATOM      6  C5  UNL d   1      -0.883   1.153   1.649  0.00  0.00     0.062 A 
ATOM      7  F   UNL d   1      -1.309   1.364   2.903  0.00  0.00    -0.097 F 
ATOM      8  F1  UNL d   1      -0.245  -1.036   2.234  0.00  0.00    -0.096 F 
ATOM      9  I   UNL d   1       0.930  -2.147  -0.527  0.00  0.00    -0.060 I 
ATOM     10  F2  UNL d   1       0.418   0.528  -2.209  0.00  0.00    -0.096 F 
ATOM     11  F3  UNL d   1      -0.650   2.916  -1.510  0.00  0.00    -0.097 F 
ATOM     12  F4  UNL d   1      -1.517   3.346   1.040  0.00  0.00    -0.092 F 
ENDROOT
TORSDOF 0
ENDMDL
