MODEL 1
REMARK minimizedAffinity -0.412831008
REMARK minimizedRMSD -1
REMARK  0 active torsions:
REMARK  status: ('A' for Active; 'I' for Inactive)
ROOT
ATOM      1  C   UNL d   1      -1.076   1.920   0.390  0.00  0.00     0.124 A 
ATOM      2  C1  UNL d   1      -0.104   1.958  -0.600  0.00  0.00     0.062 A 
ATOM      3  C2  UNL d   1       0.511   0.782  -1.023  0.00  0.00     0.162 A 
ATOM      4  C3  UNL d   1       0.155  -0.441  -0.455  0.00  0.00    -0.034 A 
ATOM      5  C4  UNL d   1      -0.822  -0.471   0.542  0.00  0.00     0.162 A 
ATOM      6  C5  UNL d   1      -1.434   0.707   0.960  0.00  0.00     0.062 A 
ATOM      7  F   UNL d   1      -2.372   0.669   1.917  0.00  0.00    -0.097 F 
ATOM      8  F1  UNL d   1      -1.188  -1.630   1.109  0.00  0.00    -0.096 F 
ATOM      9  I   UNL d   1       1.072  -2.200  -1.083  0.00  0.00    -0.060 I 
ATOM     10  F2  UNL d   1       1.446   0.848  -1.982  0.00  0.00    -0.096 F 
ATOM     11  F3  UNL d   1       0.244   3.129  -1.152  0.00  0.00    -0.097 F 
ATOM     12  F4  UNL d   1      -1.665   3.053   0.795  0.00  0.00    -0.092 F 
ENDROOT
TORSDOF 0
ENDMDL
