MODEL 1
REMARK minimizedAffinity 0.152547762
REMARK minimizedRMSD -1
REMARK  0 active torsions:
REMARK  status: ('A' for Active; 'I' for Inactive)
ROOT
ATOM      1  C   UNL d   1      -0.416   1.910   0.982  0.00  0.00     0.124 A 
ATOM      2  C1  UNL d   1      -0.542   0.690   1.632  0.00  0.00     0.062 A 
ATOM      3  C2  UNL d   1      -0.094  -0.478   1.023  0.00  0.00     0.162 A 
ATOM      4  C3  UNL d   1       0.486  -0.432  -0.245  0.00  0.00    -0.034 A 
ATOM      5  C4  UNL d   1       0.608   0.798  -0.894  0.00  0.00     0.162 A 
ATOM      6  C5  UNL d   1       0.159   1.962  -0.280  0.00  0.00     0.062 A 
ATOM      7  F   UNL d   1       0.281   3.140  -0.910  0.00  0.00    -0.097 F 
ATOM      8  F1  UNL d   1       1.161   0.878  -2.113  0.00  0.00    -0.096 F 
ATOM      9  I   UNL d   1       1.158  -2.177  -1.161  0.00  0.00    -0.060 I 
ATOM     10  F2  UNL d   1      -0.228  -1.643   1.674  0.00  0.00    -0.096 F 
ATOM     11  F3  UNL d   1      -1.098   0.636   2.851  0.00  0.00    -0.097 F 
ATOM     12  F4  UNL d   1      -0.849   3.032   1.570  0.00  0.00    -0.092 F 
ENDROOT
TORSDOF 0
ENDMDL
