MODEL 1
REMARK minimizedAffinity 5.84319115
REMARK minimizedRMSD -1
REMARK  0 active torsions:
REMARK  status: ('A' for Active; 'I' for Inactive)
ROOT
ATOM      1  C   UNL d   1       0.702  -2.525  -3.639  0.00  0.00     0.124 A 
ATOM      2  C1  UNL d   1       1.653  -2.142  -4.574  0.00  0.00     0.062 A 
ATOM      3  C2  UNL d   1       3.006  -2.355  -4.324  0.00  0.00     0.162 A 
ATOM      4  C3  UNL d   1       3.415  -2.956  -3.133  0.00  0.00    -0.034 A 
ATOM      5  C4  UNL d   1       2.453  -3.337  -2.197  0.00  0.00     0.162 A 
ATOM      6  C5  UNL d   1       1.102  -3.122  -2.452  0.00  0.00     0.062 A 
ATOM      7  F   UNL d   1       0.184  -3.493  -1.547  0.00  0.00    -0.097 F 
ATOM      8  F1  UNL d   1       2.812  -3.917  -1.042  0.00  0.00    -0.096 F 
ATOM      9  I   UNL d   1       5.437  -3.276  -2.755  0.00  0.00    -0.060 I 
ATOM     10  F2  UNL d   1       3.904  -1.975  -5.245  0.00  0.00    -0.096 F 
ATOM     11  F3  UNL d   1       1.269  -1.565  -5.721  0.00  0.00    -0.097 F 
ATOM     12  F4  UNL d   1      -0.599  -2.318  -3.882  0.00  0.00    -0.092 F 
ENDROOT
TORSDOF 0
ENDMDL
