MODEL 1
REMARK minimizedAffinity 4.17733765
REMARK minimizedRMSD -1
REMARK  0 active torsions:
REMARK  status: ('A' for Active; 'I' for Inactive)
ROOT
ATOM      1  C   UNL d   1      -0.802  -0.210   2.206  0.00  0.00     0.124 A 
ATOM      2  C1  UNL d   1      -0.430   1.117   2.377  0.00  0.00     0.062 A 
ATOM      3  C2  UNL d   1      -0.038   1.880   1.281  0.00  0.00     0.162 A 
ATOM      4  C3  UNL d   1      -0.017   1.320   0.004  0.00  0.00    -0.034 A 
ATOM      5  C4  UNL d   1      -0.391  -0.015  -0.160  0.00  0.00     0.162 A 
ATOM      6  C5  UNL d   1      -0.782  -0.774   0.939  0.00  0.00     0.062 A 
ATOM      7  F   UNL d   1      -1.141  -2.056   0.772  0.00  0.00    -0.097 F 
ATOM      8  F1  UNL d   1      -0.383  -0.586  -1.374  0.00  0.00    -0.096 F 
ATOM      9  I   UNL d   1       0.568   2.458  -1.637  0.00  0.00    -0.060 I 
ATOM     10  F2  UNL d   1       0.315   3.160   1.475  0.00  0.00    -0.096 F 
ATOM     11  F3  UNL d   1      -0.447   1.664   3.601  0.00  0.00    -0.097 F 
ATOM     12  F4  UNL d   1      -1.177  -0.942   3.262  0.00  0.00    -0.092 F 
ENDROOT
TORSDOF 0
ENDMDL
