MODEL 1
REMARK minimizedAffinity -0.97744292
REMARK minimizedRMSD -1
REMARK  0 active torsions:
REMARK  status: ('A' for Active; 'I' for Inactive)
ROOT
ATOM      1  C   UNL d   1      -0.039   0.898   0.598  0.00  0.00     0.124 A 
ATOM      2  C1  UNL d   1       0.450   0.970  -0.699  0.00  0.00     0.062 A 
ATOM      3  C2  UNL d   1       0.480  -0.169  -1.499  0.00  0.00     0.162 A 
ATOM      4  C3  UNL d   1       0.018  -1.389  -1.005  0.00  0.00    -0.034 A 
ATOM      5  C4  UNL d   1      -0.472  -1.453   0.301  0.00  0.00     0.162 A 
ATOM      6  C5  UNL d   1      -0.500  -0.312   1.097  0.00  0.00     0.062 A 
ATOM      7  F   UNL d   1      -0.973  -0.383   2.349  0.00  0.00    -0.097 F 
ATOM      8  F1  UNL d   1      -0.924  -2.609   0.807  0.00  0.00    -0.096 F 
ATOM      9  I   UNL d   1       0.060  -3.093  -2.199  0.00  0.00    -0.060 I 
ATOM     10  F2  UNL d   1       0.958  -0.071  -2.748  0.00  0.00    -0.096 F 
ATOM     11  F3  UNL d   1       0.897   2.138  -1.182  0.00  0.00    -0.097 F 
ATOM     12  F4  UNL d   1      -0.066   1.995   1.367  0.00  0.00    -0.092 F 
ENDROOT
TORSDOF 0
ENDMDL
