MODEL 1
REMARK minimizedAffinity -5.95547199
REMARK minimizedRMSD -1
REMARK  0 active torsions:
REMARK  status: ('A' for Active; 'I' for Inactive)
ROOT
ATOM      1  C   UNL d   1      -1.743   2.116   1.559  0.00  0.00     0.124 A 
ATOM      2  C1  UNL d   1      -1.060   1.121   2.245  0.00  0.00     0.062 A 
ATOM      3  C2  UNL d   1      -0.238   0.234   1.557  0.00  0.00     0.162 A 
ATOM      4  C3  UNL d   1      -0.092   0.338   0.174  0.00  0.00    -0.034 A 
ATOM      5  C4  UNL d   1      -0.782   1.341  -0.510  0.00  0.00     0.162 A 
ATOM      6  C5  UNL d   1      -1.603   2.225   0.183  0.00  0.00     0.062 A 
ATOM      7  F   UNL d   1      -2.262   3.186  -0.482  0.00  0.00    -0.097 F 
ATOM      8  F1  UNL d   1      -0.665   1.470  -1.840  0.00  0.00    -0.096 F 
ATOM      9  I   UNL d   1       1.137  -0.986  -0.859  0.00  0.00    -0.060 I 
ATOM     10  F2  UNL d   1       0.410  -0.718   2.246  0.00  0.00    -0.096 F 
ATOM     11  F3  UNL d   1      -1.195   1.013   3.575  0.00  0.00    -0.097 F 
ATOM     12  F4  UNL d   1      -2.535   2.967   2.224  0.00  0.00    -0.092 F 
ENDROOT
TORSDOF 0
ENDMDL
