MODEL 1
REMARK minimizedAffinity -6.76383495
REMARK minimizedRMSD -1
REMARK  0 active torsions:
REMARK  status: ('A' for Active; 'I' for Inactive)
ROOT
ATOM      1  C   UNL d   1      -1.483   2.138   0.718  0.00  0.00     0.124 A 
ATOM      2  C1  UNL d   1      -1.207   0.983   1.436  0.00  0.00     0.062 A 
ATOM      3  C2  UNL d   1      -0.183   0.133   1.029  0.00  0.00     0.162 A 
ATOM      4  C3  UNL d   1       0.575   0.436  -0.102  0.00  0.00    -0.034 A 
ATOM      5  C4  UNL d   1       0.291   1.599  -0.820  0.00  0.00     0.162 A 
ATOM      6  C5  UNL d   1      -0.735   2.445  -0.410  0.00  0.00     0.062 A 
ATOM      7  F   UNL d   1      -1.000   3.560  -1.105  0.00  0.00    -0.097 F 
ATOM      8  F1  UNL d   1       0.999   1.920  -1.913  0.00  0.00    -0.096 F 
ATOM      9  I   UNL d   1       2.108  -0.832  -0.714  0.00  0.00    -0.060 I 
ATOM     10  F2  UNL d   1       0.062  -0.976   1.743  0.00  0.00    -0.096 F 
ATOM     11  F3  UNL d   1      -1.930   0.684   2.525  0.00  0.00    -0.097 F 
ATOM     12  F4  UNL d   1      -2.471   2.953   1.111  0.00  0.00    -0.092 F 
ENDROOT
TORSDOF 0
ENDMDL
