MODEL 1
REMARK minimizedAffinity -4.05077791
REMARK minimizedRMSD -1
REMARK  0 active torsions:
REMARK  status: ('A' for Active; 'I' for Inactive)
ROOT
ATOM      1  C   UNL d   1      -1.112   1.930   0.555  0.00  0.00     0.124 A 
ATOM      2  C1  UNL d   1      -0.385   1.918  -0.628  0.00  0.00     0.062 A 
ATOM      3  C2  UNL d   1       0.480   0.863  -0.906  0.00  0.00     0.162 A 
ATOM      4  C3  UNL d   1       0.622  -0.188  -0.000  0.00  0.00    -0.034 A 
ATOM      5  C4  UNL d   1      -0.112  -0.168   1.187  0.00  0.00     0.162 A 
ATOM      6  C5  UNL d   1      -0.975   0.888   1.460  0.00  0.00     0.062 A 
ATOM      7  F   UNL d   1      -1.677   0.899   2.603  0.00  0.00    -0.097 F 
ATOM      8  F1  UNL d   1       0.000  -1.163   2.079  0.00  0.00    -0.096 F 
ATOM      9  I   UNL d   1       1.915  -1.767  -0.413  0.00  0.00    -0.060 I 
ATOM     10  F2  UNL d   1       1.170   0.877  -2.056  0.00  0.00    -0.096 F 
ATOM     11  F3  UNL d   1      -0.515   2.924  -1.504  0.00  0.00    -0.097 F 
ATOM     12  F4  UNL d   1      -1.943   2.946   0.820  0.00  0.00    -0.092 F 
ENDROOT
TORSDOF 0
ENDMDL
