MODEL 1
REMARK minimizedAffinity -0.605032265
REMARK minimizedRMSD -1
REMARK  0 active torsions:
REMARK  status: ('A' for Active; 'I' for Inactive)
ROOT
ATOM      1  C   UNL d   1      -0.955   0.709   2.275  0.00  0.00     0.124 A 
ATOM      2  C1  UNL d   1      -1.526   1.411   1.222  0.00  0.00     0.062 A 
ATOM      3  C2  UNL d   1      -1.179   1.109  -0.091  0.00  0.00     0.162 A 
ATOM      4  C3  UNL d   1      -0.255   0.098  -0.360  0.00  0.00    -0.034 A 
ATOM      5  C4  UNL d   1       0.316  -0.603   0.704  0.00  0.00     0.162 A 
ATOM      6  C5  UNL d   1      -0.035  -0.297   2.015  0.00  0.00     0.062 A 
ATOM      7  F   UNL d   1       0.518  -0.976   3.030  0.00  0.00    -0.097 F 
ATOM      8  F1  UNL d   1       1.207  -1.580   0.481  0.00  0.00    -0.096 F 
ATOM      9  I   UNL d   1       0.267  -0.357  -2.322  0.00  0.00    -0.060 I 
ATOM     10  F2  UNL d   1      -1.747   1.803  -1.088  0.00  0.00    -0.096 F 
ATOM     11  F3  UNL d   1      -2.415   2.383   1.471  0.00  0.00    -0.097 F 
ATOM     12  F4  UNL d   1      -1.291   1.002   3.538  0.00  0.00    -0.092 F 
ENDROOT
TORSDOF 0
ENDMDL
