MODEL 1
REMARK minimizedAffinity -4.97348452
REMARK minimizedRMSD -1
REMARK  0 active torsions:
REMARK  status: ('A' for Active; 'I' for Inactive)
ROOT
ATOM      1  C   UNL d   1      -0.369   2.665   0.722  0.00  0.00     0.124 A 
ATOM      2  C1  UNL d   1       0.383   2.596  -0.443  0.00  0.00     0.062 A 
ATOM      3  C2  UNL d   1       0.799   1.363  -0.935  0.00  0.00     0.162 A 
ATOM      4  C3  UNL d   1       0.463   0.187  -0.264  0.00  0.00    -0.034 A 
ATOM      5  C4  UNL d   1      -0.292   0.264   0.907  0.00  0.00     0.162 A 
ATOM      6  C5  UNL d   1      -0.706   1.500   1.396  0.00  0.00     0.062 A 
ATOM      7  F   UNL d   1      -1.432   1.564   2.521  0.00  0.00    -0.097 F 
ATOM      8  F1  UNL d   1      -0.633  -0.846   1.578  0.00  0.00    -0.096 F 
ATOM      9  I   UNL d   1       1.084  -1.659  -0.997  0.00  0.00    -0.060 I 
ATOM     10  F2  UNL d   1       1.525   1.326  -2.063  0.00  0.00    -0.096 F 
ATOM     11  F3  UNL d   1       0.711   3.721  -1.095  0.00  0.00    -0.097 F 
ATOM     12  F4  UNL d   1      -0.767   3.853   1.194  0.00  0.00    -0.092 F 
ENDROOT
TORSDOF 0
ENDMDL
