MODEL 1
REMARK minimizedAffinity -2.01644897
REMARK minimizedRMSD -1
REMARK  0 active torsions:
REMARK  status: ('A' for Active; 'I' for Inactive)
ROOT
ATOM      1  C   UNL d   1      -0.767   1.556   1.327  0.00  0.00     0.124 A 
ATOM      2  C1  UNL d   1      -0.050   1.691   0.146  0.00  0.00     0.062 A 
ATOM      3  C2  UNL d   1       0.394   0.563  -0.537  0.00  0.00     0.162 A 
ATOM      4  C3  UNL d   1       0.119  -0.712  -0.042  0.00  0.00    -0.034 A 
ATOM      5  C4  UNL d   1      -0.602  -0.840   1.146  0.00  0.00     0.162 A 
ATOM      6  C5  UNL d   1      -1.043   0.291   1.825  0.00  0.00     0.062 A 
ATOM      7  F   UNL d   1      -1.736   0.158   2.966  0.00  0.00    -0.097 F 
ATOM      8  F1  UNL d   1      -0.884  -2.051   1.650  0.00  0.00    -0.096 F 
ATOM      9  I   UNL d   1       0.780  -2.403  -1.060  0.00  0.00    -0.060 I 
ATOM     10  F2  UNL d   1       1.085   0.723  -1.675  0.00  0.00    -0.096 F 
ATOM     11  F3  UNL d   1       0.219   2.913  -0.337  0.00  0.00    -0.097 F 
ATOM     12  F4  UNL d   1      -1.191   2.644   1.982  0.00  0.00    -0.092 F 
ENDROOT
TORSDOF 0
ENDMDL
