MODEL 1
REMARK minimizedAffinity 0.0290568992
REMARK minimizedRMSD -1
REMARK  0 active torsions:
REMARK  status: ('A' for Active; 'I' for Inactive)
ROOT
ATOM      1  C   UNL d   1      -0.036   1.158   0.659  0.00  0.00     0.124 A 
ATOM      2  C1  UNL d   1       0.316   1.066  -0.680  0.00  0.00     0.062 A 
ATOM      3  C2  UNL d   1       0.324  -0.171  -1.319  0.00  0.00     0.162 A 
ATOM      4  C3  UNL d   1      -0.024  -1.326  -0.619  0.00  0.00    -0.034 A 
ATOM      5  C4  UNL d   1      -0.376  -1.226   0.728  0.00  0.00     0.162 A 
ATOM      6  C5  UNL d   1      -0.382   0.012   1.362  0.00  0.00     0.062 A 
ATOM      7  F   UNL d   1      -0.723   0.099   2.656  0.00  0.00    -0.097 F 
ATOM      8  F1  UNL d   1      -0.716  -2.317   1.431  0.00  0.00    -0.096 F 
ATOM      9  I   UNL d   1      -0.014  -3.177  -1.570  0.00  0.00    -0.060 I 
ATOM     10  F2  UNL d   1       0.669  -0.230  -2.614  0.00  0.00    -0.096 F 
ATOM     11  F3  UNL d   1       0.652   2.171  -1.361  0.00  0.00    -0.097 F 
ATOM     12  F4  UNL d   1      -0.042   2.349   1.272  0.00  0.00    -0.092 F 
ENDROOT
TORSDOF 0
ENDMDL
