MODEL 1
REMARK minimizedAffinity 4.82416964
REMARK minimizedRMSD -1
REMARK  0 active torsions:
REMARK  status: ('A' for Active; 'I' for Inactive)
ROOT
ATOM      1  C   UNL d   1      -3.993   3.435  -4.064  0.00  0.00     0.124 A 
ATOM      2  C1  UNL d   1      -4.381   2.136  -3.765  0.00  0.00     0.062 A 
ATOM      3  C2  UNL d   1      -3.746   1.433  -2.745  0.00  0.00     0.162 A 
ATOM      4  C3  UNL d   1      -2.717   2.029  -2.015  0.00  0.00    -0.034 A 
ATOM      5  C4  UNL d   1      -2.332   3.335  -2.323  0.00  0.00     0.162 A 
ATOM      6  C5  UNL d   1      -2.969   4.033  -3.343  0.00  0.00     0.062 A 
ATOM      7  F   UNL d   1      -2.593   5.287  -3.631  0.00  0.00    -0.097 F 
ATOM      8  F1  UNL d   1      -1.346   3.937  -1.641  0.00  0.00    -0.096 F 
ATOM      9  I   UNL d   1      -1.766   0.982  -0.489  0.00  0.00    -0.060 I 
ATOM     10  F2  UNL d   1      -4.142   0.180  -2.477  0.00  0.00    -0.096 F 
ATOM     11  F3  UNL d   1      -5.369   1.556  -4.461  0.00  0.00    -0.097 F 
ATOM     12  F4  UNL d   1      -4.605   4.108  -5.047  0.00  0.00    -0.092 F 
ENDROOT
TORSDOF 0
ENDMDL
