MODEL 1
REMARK minimizedAffinity -2.36963391
REMARK minimizedRMSD -1
REMARK  0 active torsions:
REMARK  status: ('A' for Active; 'I' for Inactive)
ROOT
ATOM      1  C   UNL d   1      -0.892   1.263   2.295  0.00  0.00     0.124 A 
ATOM      2  C1  UNL d   1      -0.154   0.248   1.703  0.00  0.00     0.062 A 
ATOM      3  C2  UNL d   1       0.059   0.248   0.327  0.00  0.00     0.162 A 
ATOM      4  C3  UNL d   1      -0.468   1.267  -0.466  0.00  0.00    -0.034 A 
ATOM      5  C4  UNL d   1      -1.210   2.284   0.136  0.00  0.00     0.162 A 
ATOM      6  C5  UNL d   1      -1.420   2.280   1.511  0.00  0.00     0.062 A 
ATOM      7  F   UNL d   1      -2.134   3.262   2.082  0.00  0.00    -0.097 F 
ATOM      8  F1  UNL d   1      -1.731   3.280  -0.597  0.00  0.00    -0.096 F 
ATOM      9  I   UNL d   1      -0.152   1.271  -2.524  0.00  0.00    -0.060 I 
ATOM     10  F2  UNL d   1       0.776  -0.745  -0.218  0.00  0.00    -0.096 F 
ATOM     11  F3  UNL d   1       0.356  -0.736   2.457  0.00  0.00    -0.097 F 
ATOM     12  F4  UNL d   1      -1.096   1.261   3.618  0.00  0.00    -0.092 F 
ENDROOT
TORSDOF 0
ENDMDL
