MODEL 1
REMARK minimizedAffinity 8.12682533
REMARK minimizedRMSD -1
REMARK  0 active torsions:
REMARK  status: ('A' for Active; 'I' for Inactive)
ROOT
ATOM      1  C   UNL d   1      -0.930   0.875  -2.319  0.00  0.00     0.124 A 
ATOM      2  C1  UNL d   1       0.370   0.708  -1.863  0.00  0.00     0.062 A 
ATOM      3  C2  UNL d   1       0.610   0.436  -0.519  0.00  0.00     0.162 A 
ATOM      4  C3  UNL d   1      -0.452   0.329   0.379  0.00  0.00    -0.034 A 
ATOM      5  C4  UNL d   1      -1.757   0.500  -0.088  0.00  0.00     0.162 A 
ATOM      6  C5  UNL d   1      -1.992   0.771  -1.432  0.00  0.00     0.062 A 
ATOM      7  F   UNL d   1      -3.249   0.933  -1.871  0.00  0.00    -0.097 F 
ATOM      8  F1  UNL d   1      -2.802   0.403   0.748  0.00  0.00    -0.096 F 
ATOM      9  I   UNL d   1      -0.097  -0.077   2.389  0.00  0.00    -0.060 I 
ATOM     10  F2  UNL d   1       1.876   0.279  -0.105  0.00  0.00    -0.096 F 
ATOM     11  F3  UNL d   1       1.398   0.809  -2.718  0.00  0.00    -0.097 F 
ATOM     12  F4  UNL d   1      -1.158   1.138  -3.612  0.00  0.00    -0.092 F 
ENDROOT
TORSDOF 0
ENDMDL
