MODEL 1
REMARK minimizedAffinity -1.84509289
REMARK minimizedRMSD -1
REMARK  2 active torsions:
REMARK  status: ('A' for Active; 'I' for Inactive)
REMARK    1  A    between atoms: C2'_3  and  C1'_4 
REMARK    2  A    between atoms: C1'_4  and  C1_5 
ROOT
ATOM      1  C1  I4B d   1       4.930  -4.148   3.565  0.00  0.00    -0.075 A 
ATOM      2  C2  I4B d   1       4.382  -2.890   3.558  0.00  0.00     0.003 A 
ATOM      3  C3  I4B d   1       4.484  -2.061   4.702  0.00  0.00     0.002 A 
ATOM      4  C4  I4B d   1       5.094  -2.546   5.840  0.00  0.00    -0.004 A 
ATOM      5  C5  I4B d   1       5.670  -3.814   5.838  0.00  0.00     0.002 A 
ATOM      6  C6  I4B d   1       5.598  -4.615   4.689  0.00  0.00     0.003 A 
ENDROOT
BRANCH   1   7
ATOM      7  C1' I4B d   1       4.775  -5.009   2.352  0.00  0.00     0.060 C 
BRANCH   7   8
ATOM      8  C2' I4B d   1       5.971  -4.768   1.453  0.00  0.00    -0.013 C 
ATOM      9  C4' I4B d   1       5.991  -5.737   0.300  0.00  0.00     0.013 C 
ATOM     10  C3' I4B d   1       5.907  -3.350   0.967  0.00  0.00     0.013 C 
ENDBRANCH   7   8
ENDBRANCH   1   7
TORSDOF 2
ENDMDL
