MODEL 1
REMARK minimizedAffinity -3.75398183
REMARK minimizedRMSD -1
REMARK  2 active torsions:
REMARK  status: ('A' for Active; 'I' for Inactive)
REMARK    1  A    between atoms: C2'_3  and  C1'_4 
REMARK    2  A    between atoms: C1'_4  and  C1_5 
ROOT
ATOM      1  C1  I4B d   1       5.808  -4.281   4.099  0.00  0.00    -0.075 A 
ATOM      2  C2  I4B d   1       5.876  -5.001   2.933  0.00  0.00     0.003 A 
ATOM      3  C3  I4B d   1       5.999  -4.334   1.690  0.00  0.00     0.002 A 
ATOM      4  C4  I4B d   1       6.000  -2.955   1.655  0.00  0.00    -0.004 A 
ATOM      5  C5  I4B d   1       5.954  -2.227   2.841  0.00  0.00     0.002 A 
ATOM      6  C6  I4B d   1       5.870  -2.894   4.072  0.00  0.00     0.003 A 
ENDROOT
BRANCH   1   7
ATOM      7  C1' I4B d   1       5.646  -5.016   5.392  0.00  0.00     0.060 C 
BRANCH   7   8
ATOM      8  C2' I4B d   1       4.308  -4.625   5.986  0.00  0.00    -0.013 C 
ATOM      9  C4' I4B d   1       4.131  -3.129   5.994  0.00  0.00     0.013 C 
ATOM     10  C3' I4B d   1       3.231  -5.293   5.184  0.00  0.00     0.013 C 
ENDBRANCH   7   8
ENDBRANCH   1   7
TORSDOF 2
ENDMDL
