MODEL 1
REMARK minimizedAffinity -1.3889755
REMARK minimizedRMSD -1
REMARK  2 active torsions:
REMARK  status: ('A' for Active; 'I' for Inactive)
REMARK    1  A    between atoms: C2'_3  and  C1'_4 
REMARK    2  A    between atoms: C1'_4  and  C1_5 
ROOT
ATOM      1  C1  I4B d   1       5.943  -4.043   3.370  0.00  0.00    -0.075 A 
ATOM      2  C2  I4B d   1       5.944  -5.409   3.506  0.00  0.00     0.003 A 
ATOM      3  C3  I4B d   1       5.947  -5.997   4.794  0.00  0.00     0.002 A 
ATOM      4  C4  I4B d   1       6.000  -5.188   5.910  0.00  0.00    -0.004 A 
ATOM      5  C5  I4B d   1       5.976  -3.803   5.771  0.00  0.00     0.002 A 
ATOM      6  C6  I4B d   1       5.935  -3.227   4.493  0.00  0.00     0.003 A 
ENDROOT
BRANCH   1   7
ATOM      7  C1' I4B d   1       5.973  -3.456   1.994  0.00  0.00     0.060 C 
BRANCH   7   8
ATOM      8  C2' I4B d   1       5.141  -2.190   2.009  0.00  0.00    -0.013 C 
ATOM      9  C4' I4B d   1       5.999  -0.970   1.798  0.00  0.00     0.013 C 
ATOM     10  C3' I4B d   1       4.097  -2.309   0.939  0.00  0.00     0.013 C 
ENDBRANCH   7   8
ENDBRANCH   1   7
TORSDOF 2
ENDMDL
