MODEL 1
REMARK minimizedAffinity 4.39209223
REMARK minimizedRMSD -1
REMARK  2 active torsions:
REMARK  status: ('A' for Active; 'I' for Inactive)
REMARK    1  A    between atoms: C2'_3  and  C1'_4 
REMARK    2  A    between atoms: C1'_4  and  C1_5 
ROOT
ATOM      1  C1  I4B d   1       5.117  -4.923   3.198  0.00  0.00    -0.075 A 
ATOM      2  C2  I4B d   1       4.025  -5.702   3.490  0.00  0.00     0.003 A 
ATOM      3  C3  I4B d   1       3.699  -5.996   4.836  0.00  0.00     0.002 A 
ATOM      4  C4  I4B d   1       4.516  -5.537   5.849  0.00  0.00    -0.004 A 
ATOM      5  C5  I4B d   1       5.609  -4.728   5.552  0.00  0.00     0.002 A 
ATOM      6  C6  I4B d   1       5.905  -4.409   4.219  0.00  0.00     0.003 A 
ENDROOT
BRANCH   1   7
ATOM      7  C1' I4B d   1       5.450  -4.659   1.764  0.00  0.00     0.060 C 
BRANCH   7   8
ATOM      8  C2' I4B d   1       6.000  -3.250   1.664  0.00  0.00    -0.013 C 
ATOM      9  C4' I4B d   1       5.298  -2.466   0.587  0.00  0.00     0.013 C 
ATOM     10  C3' I4B d   1       5.839  -2.595   3.003  0.00  0.00     0.013 C 
ENDBRANCH   7   8
ENDBRANCH   1   7
TORSDOF 2
ENDMDL
