MODEL 1
REMARK minimizedAffinity -2.86787844
REMARK minimizedRMSD -1
REMARK  2 active torsions:
REMARK  status: ('A' for Active; 'I' for Inactive)
REMARK    1  A    between atoms: C2'_3  and  C1'_4 
REMARK    2  A    between atoms: C1'_4  and  C1_5 
ROOT
ATOM      1  C1  I4B d   1       5.998  -4.299   3.913  0.00  0.00    -0.075 A 
ATOM      2  C2  I4B d   1       6.000  -4.989   2.727  0.00  0.00     0.003 A 
ATOM      3  C3  I4B d   1       5.994  -4.290   1.495  0.00  0.00     0.002 A 
ATOM      4  C4  I4B d   1       5.935  -2.911   1.497  0.00  0.00    -0.004 A 
ATOM      5  C5  I4B d   1       5.956  -2.213   2.700  0.00  0.00     0.002 A 
ATOM      6  C6  I4B d   1       6.000  -2.910   3.916  0.00  0.00     0.003 A 
ENDROOT
BRANCH   1   7
ATOM      7  C1' I4B d   1       5.971  -5.069   5.195  0.00  0.00     0.060 C 
BRANCH   7   8
ATOM      8  C2' I4B d   1       4.670  -4.752   5.904  0.00  0.00    -0.013 C 
ATOM      9  C4' I4B d   1       4.421  -3.267   5.948  0.00  0.00     0.013 C 
ATOM     10  C3' I4B d   1       3.565  -5.465   5.183  0.00  0.00     0.013 C 
ENDBRANCH   7   8
ENDBRANCH   1   7
TORSDOF 2
ENDMDL
