MODEL 1
REMARK minimizedAffinity -3.81735015
REMARK minimizedRMSD -1
REMARK  2 active torsions:
REMARK  status: ('A' for Active; 'I' for Inactive)
REMARK    1  A    between atoms: C2'_3  and  C1'_4 
REMARK    2  A    between atoms: C1'_4  and  C1_5 
ROOT
ATOM      1  C1  I4B d   1       5.960  -4.215   3.993  0.00  0.00    -0.075 A 
ATOM      2  C2  I4B d   1       5.961  -2.987   3.380  0.00  0.00     0.003 A 
ATOM      3  C3  I4B d   1       5.956  -2.895   1.967  0.00  0.00     0.002 A 
ATOM      4  C4  I4B d   1       5.999  -4.049   1.211  0.00  0.00    -0.004 A 
ATOM      5  C5  I4B d   1       5.974  -5.294   1.835  0.00  0.00     0.002 A 
ATOM      6  C6  I4B d   1       5.942  -5.377   3.234  0.00  0.00     0.003 A 
ENDROOT
BRANCH   1   7
ATOM      7  C1' I4B d   1       5.999  -4.274   5.487  0.00  0.00     0.060 C 
BRANCH   7   8
ATOM      8  C2' I4B d   1       4.583  -4.106   5.999  0.00  0.00    -0.013 C 
ATOM      9  C4' I4B d   1       3.943  -2.864   5.435  0.00  0.00     0.013 C 
ATOM     10  C3' I4B d   1       3.806  -5.333   5.624  0.00  0.00     0.013 C 
ENDBRANCH   7   8
ENDBRANCH   1   7
TORSDOF 2
ENDMDL
