MODEL 1
REMARK minimizedAffinity 2.00860691
REMARK minimizedRMSD -1
REMARK  2 active torsions:
REMARK  status: ('A' for Active; 'I' for Inactive)
REMARK    1  A    between atoms: C2'_3  and  C1'_4 
REMARK    2  A    between atoms: C1'_4  and  C1_5 
ROOT
ATOM      1  C1  I4B d   1       5.925  -3.559   3.769  0.00  0.00    -0.075 A 
ATOM      2  C2  I4B d   1       5.901  -2.197   3.599  0.00  0.00     0.003 A 
ATOM      3  C3  I4B d   1       5.912  -1.641   2.297  0.00  0.00     0.002 A 
ATOM      4  C4  I4B d   1       5.998  -2.477   1.202  0.00  0.00    -0.004 A 
ATOM      5  C5  I4B d   1       6.000  -3.858   1.376  0.00  0.00     0.002 A 
ATOM      6  C6  I4B d   1       5.951  -4.403   2.667  0.00  0.00     0.003 A 
ENDROOT
BRANCH   1   7
ATOM      7  C1' I4B d   1       5.946  -4.111   5.159  0.00  0.00     0.060 C 
BRANCH   7   8
ATOM      8  C2' I4B d   1       4.517  -4.414   5.562  0.00  0.00    -0.013 C 
ATOM      9  C4' I4B d   1       3.660  -3.178   5.502  0.00  0.00     0.013 C 
ATOM     10  C3' I4B d   1       3.994  -5.481   4.647  0.00  0.00     0.013 C 
ENDBRANCH   7   8
ENDBRANCH   1   7
TORSDOF 2
ENDMDL
