MODEL 1
REMARK minimizedAffinity -0.47407338
REMARK minimizedRMSD -1
REMARK  2 active torsions:
REMARK  status: ('A' for Active; 'I' for Inactive)
REMARK    1  A    between atoms: C2'_3  and  C1'_4 
REMARK    2  A    between atoms: C1'_4  and  C1_5 
ROOT
ATOM      1  C1  I4B d   1       5.529  -4.374   4.045  0.00  0.00    -0.075 A 
ATOM      2  C2  I4B d   1       6.000  -3.085   4.072  0.00  0.00     0.003 A 
ATOM      3  C3  I4B d   1       5.555  -2.184   5.070  0.00  0.00     0.002 A 
ATOM      4  C4  I4B d   1       4.607  -2.597   5.984  0.00  0.00    -0.004 A 
ATOM      5  C5  I4B d   1       4.148  -3.910   5.970  0.00  0.00     0.002 A 
ATOM      6  C6  I4B d   1       4.621  -4.809   5.002  0.00  0.00     0.003 A 
ENDROOT
BRANCH   1   7
ATOM      7  C1' I4B d   1       5.995  -5.289   2.957  0.00  0.00     0.060 C 
BRANCH   7   8
ATOM      8  C2' I4B d   1       5.915  -4.534   1.646  0.00  0.00    -0.013 C 
ATOM      9  C4' I4B d   1       5.991  -5.472   0.471  0.00  0.00     0.013 C 
ATOM     10  C3' I4B d   1       4.632  -3.757   1.637  0.00  0.00     0.013 C 
ENDBRANCH   7   8
ENDBRANCH   1   7
TORSDOF 2
ENDMDL
