MODEL 1
REMARK minimizedAffinity -1.67874062
REMARK minimizedRMSD -1
REMARK  2 active torsions:
REMARK  status: ('A' for Active; 'I' for Inactive)
REMARK    1  A    between atoms: C2'_3  and  C1'_4 
REMARK    2  A    between atoms: C1'_4  and  C1_5 
ROOT
ATOM      1  C1  I4B d   1       5.899  -4.256   3.945  0.00  0.00    -0.075 A 
ATOM      2  C2  I4B d   1       5.925  -4.985   2.783  0.00  0.00     0.003 A 
ATOM      3  C3  I4B d   1       5.999  -4.329   1.531  0.00  0.00     0.002 A 
ATOM      4  C4  I4B d   1       5.995  -2.950   1.485  0.00  0.00    -0.004 A 
ATOM      5  C5  I4B d   1       5.992  -2.212   2.665  0.00  0.00     0.002 A 
ATOM      6  C6  I4B d   1       5.957  -2.869   3.904  0.00  0.00     0.003 A 
ENDROOT
BRANCH   1   7
ATOM      7  C1' I4B d   1       5.787  -4.980   5.249  0.00  0.00     0.060 C 
BRANCH   7   8
ATOM      8  C2' I4B d   1       4.335  -4.945   5.679  0.00  0.00    -0.013 C 
ATOM      9  C4' I4B d   1       3.739  -3.577   5.477  0.00  0.00     0.013 C 
ATOM     10  C3' I4B d   1       3.593  -5.981   4.888  0.00  0.00     0.013 C 
ENDBRANCH   7   8
ENDBRANCH   1   7
TORSDOF 2
ENDMDL
