MODEL 1
REMARK minimizedAffinity -2.62777472
REMARK minimizedRMSD -1
REMARK  2 active torsions:
REMARK  status: ('A' for Active; 'I' for Inactive)
REMARK    1  A    between atoms: C2'_3  and  C1'_4 
REMARK    2  A    between atoms: C1'_4  and  C1_5 
ROOT
ATOM      1  C1  I4B d   1       5.957  -4.243   4.064  0.00  0.00    -0.075 A 
ATOM      2  C2  I4B d   1       5.896  -5.290   3.179  0.00  0.00     0.003 A 
ATOM      3  C3  I4B d   1       5.866  -5.044   1.785  0.00  0.00     0.002 A 
ATOM      4  C4  I4B d   1       5.848  -3.743   1.324  0.00  0.00    -0.004 A 
ATOM      5  C5  I4B d   1       5.933  -2.683   2.223  0.00  0.00     0.002 A 
ATOM      6  C6  I4B d   1       6.000  -2.934   3.601  0.00  0.00     0.003 A 
ENDROOT
BRANCH   1   7
ATOM      7  C1' I4B d   1       5.953  -4.538   5.531  0.00  0.00     0.060 C 
BRANCH   7   8
ATOM      8  C2' I4B d   1       4.513  -4.555   6.000  0.00  0.00    -0.013 C 
ATOM      9  C4' I4B d   1       3.729  -3.421   5.394  0.00  0.00     0.013 C 
ATOM     10  C3' I4B d   1       3.920  -5.882   5.629  0.00  0.00     0.013 C 
ENDBRANCH   7   8
ENDBRANCH   1   7
TORSDOF 2
ENDMDL
