MODEL 1
REMARK minimizedAffinity -2.61006093
REMARK minimizedRMSD -1
REMARK  2 active torsions:
REMARK  status: ('A' for Active; 'I' for Inactive)
REMARK    1  A    between atoms: C2'_3  and  C1'_4 
REMARK    2  A    between atoms: C1'_4  and  C1_5 
ROOT
ATOM      1  C1  I4B d   1       5.852  -3.996   4.344  0.00  0.00    -0.075 A 
ATOM      2  C2  I4B d   1       5.885  -4.650   3.138  0.00  0.00     0.003 A 
ATOM      3  C3  I4B d   1       5.986  -3.916   1.932  0.00  0.00     0.002 A 
ATOM      4  C4  I4B d   1       6.000  -2.537   1.975  0.00  0.00    -0.004 A 
ATOM      5  C5  I4B d   1       5.989  -1.876   3.200  0.00  0.00     0.002 A 
ATOM      6  C6  I4B d   1       5.927  -2.610   4.393  0.00  0.00     0.003 A 
ENDROOT
BRANCH   1   7
ATOM      7  C1' I4B d   1       5.712  -4.801   5.597  0.00  0.00     0.060 C 
BRANCH   7   8
ATOM      8  C2' I4B d   1       4.251  -4.788   6.000  0.00  0.00    -0.013 C 
ATOM      9  C4' I4B d   1       3.601  -3.475   5.651  0.00  0.00     0.013 C 
ATOM     10  C3' I4B d   1       3.570  -5.931   5.307  0.00  0.00     0.013 C 
ENDBRANCH   7   8
ENDBRANCH   1   7
TORSDOF 2
ENDMDL
