MODEL 1
REMARK minimizedAffinity -3.35475349
REMARK minimizedRMSD -1
REMARK  0 active torsions:
REMARK  status: ('A' for Active; 'I' for Inactive)
ROOT
ATOM      1  C   UNL d   1      -1.279  -0.316  -0.925  0.00  0.00    -0.002 A 
ATOM      2  C1  UNL d   1      -1.505   0.659   0.036  0.00  0.00     0.010 A 
ATOM      3  C2  UNL d   1      -0.455   1.134   0.825  0.00  0.00     0.041 A 
ATOM      4  C3  UNL d   1       0.837   0.608   0.629  0.00  0.00    -0.075 A 
ATOM      5  S   UNL d   1       2.274   1.039   1.478  0.00  0.00     0.015 SA
ATOM      6  C4  UNL d   1       3.221  -0.061   0.585  0.00  0.00     0.022 A 
ATOM      7  C5  UNL d   1       2.475  -0.748  -0.343  0.00  0.00     0.026 A 
ATOM      8  C6  UNL d   1       1.089  -0.374  -0.333  0.00  0.00    -0.082 A 
ATOM      9  C7  UNL d   1       0.004  -0.835  -1.117  0.00  0.00     0.045 A 
ENDROOT
TORSDOF 0
ENDMDL
