MODEL 1
REMARK minimizedAffinity -4.38957024
REMARK minimizedRMSD -1
REMARK  0 active torsions:
REMARK  status: ('A' for Active; 'I' for Inactive)
ROOT
ATOM      1  C   UNL d   1       3.116  -0.728   1.453  0.00  0.00    -0.002 A 
ATOM      2  C1  UNL d   1       2.267  -1.822   1.546  0.00  0.00     0.010 A 
ATOM      3  C2  UNL d   1       0.950  -1.740   1.090  0.00  0.00     0.041 A 
ATOM      4  C3  UNL d   1       0.497  -0.529   0.530  0.00  0.00    -0.075 A 
ATOM      5  S   UNL d   1      -1.074  -0.196  -0.095  0.00  0.00     0.015 SA
ATOM      6  C4  UNL d   1      -0.655   1.405  -0.503  0.00  0.00     0.022 A 
ATOM      7  C5  UNL d   1       0.648   1.696  -0.176  0.00  0.00     0.026 A 
ATOM      8  C6  UNL d   1       1.334   0.586   0.424  0.00  0.00    -0.082 A 
ATOM      9  C7  UNL d   1       2.664   0.471   0.897  0.00  0.00     0.045 A 
ENDROOT
TORSDOF 0
ENDMDL
