MODEL 1
REMARK minimizedAffinity -5.07410383
REMARK minimizedRMSD -1
REMARK  0 active torsions:
REMARK  status: ('A' for Active; 'I' for Inactive)
ROOT
ATOM      1  C   UNL d   1       2.388  -1.827   1.839  0.00  0.00    -0.002 A 
ATOM      2  C1  UNL d   1       3.113  -0.668   1.602  0.00  0.00     0.010 A 
ATOM      3  C2  UNL d   1       2.539   0.399   0.909  0.00  0.00     0.041 A 
ATOM      4  C3  UNL d   1       1.210   0.282   0.455  0.00  0.00    -0.075 A 
ATOM      5  S   UNL d   1       0.300   1.460  -0.414  0.00  0.00     0.015 SA
ATOM      6  C4  UNL d   1      -1.072   0.453  -0.490  0.00  0.00     0.022 A 
ATOM      7  C5  UNL d   1      -0.859  -0.757   0.127  0.00  0.00     0.026 A 
ATOM      8  C6  UNL d   1       0.460  -0.875   0.683  0.00  0.00    -0.082 A 
ATOM      9  C7  UNL d   1       1.070  -1.940   1.388  0.00  0.00     0.045 A 
ENDROOT
TORSDOF 0
ENDMDL
