MODEL 1
REMARK minimizedAffinity -2.87331128
REMARK minimizedRMSD -1
REMARK  0 active torsions:
REMARK  status: ('A' for Active; 'I' for Inactive)
ROOT
ATOM      1  C   UNL d   1       3.068  -1.284   1.355  0.00  0.00    -0.002 A 
ATOM      2  C1  UNL d   1       1.831  -1.910   1.412  0.00  0.00     0.010 A 
ATOM      3  C2  UNL d   1       0.687  -1.268   0.932  0.00  0.00     0.041 A 
ATOM      4  C3  UNL d   1       0.810   0.025   0.387  0.00  0.00    -0.075 A 
ATOM      5  S   UNL d   1      -0.453   1.004  -0.261  0.00  0.00     0.015 SA
ATOM      6  C4  UNL d   1       0.621   2.275  -0.630  0.00  0.00     0.022 A 
ATOM      7  C5  UNL d   1       1.914   1.977  -0.274  0.00  0.00     0.026 A 
ATOM      8  C6  UNL d   1       2.045   0.676   0.318  0.00  0.00    -0.082 A 
ATOM      9  C7  UNL d   1       3.186  -0.001   0.813  0.00  0.00     0.045 A 
ENDROOT
TORSDOF 0
ENDMDL
