MODEL 1
REMARK minimizedAffinity 0.381808192
REMARK minimizedRMSD -1
REMARK  0 active torsions:
REMARK  status: ('A' for Active; 'I' for Inactive)
ROOT
ATOM      1  C   UNL d   1       2.981   0.492   4.017  0.00  0.00    -0.002 A 
ATOM      2  C1  UNL d   1       2.184  -0.610   4.291  0.00  0.00     0.010 A 
ATOM      3  C2  UNL d   1       1.114  -0.938   3.455  0.00  0.00     0.041 A 
ATOM      4  C3  UNL d   1       0.859  -0.134   2.327  0.00  0.00    -0.075 A 
ATOM      5  S   UNL d   1      -0.395  -0.345   1.163  0.00  0.00     0.015 SA
ATOM      6  C4  UNL d   1       0.099   1.022   0.273  0.00  0.00     0.022 A 
ATOM      7  C5  UNL d   1       1.192   1.637   0.837  0.00  0.00     0.026 A 
ATOM      8  C6  UNL d   1       1.648   0.980   2.030  0.00  0.00    -0.082 A 
ATOM      9  C7  UNL d   1       2.725   1.288   2.897  0.00  0.00     0.045 A 
ENDROOT
TORSDOF 0
ENDMDL
