MODEL 1
REMARK minimizedAffinity 2.21436882
REMARK minimizedRMSD -1
REMARK  0 active torsions:
REMARK  status: ('A' for Active; 'I' for Inactive)
ROOT
ATOM      1  C   UNL d   1       2.793  -1.457   2.728  0.00  0.00    -0.002 A 
ATOM      2  C1  UNL d   1       1.730  -2.315   2.482  0.00  0.00     0.010 A 
ATOM      3  C2  UNL d   1       0.661  -1.911   1.680  0.00  0.00     0.041 A 
ATOM      4  C3  UNL d   1       0.680  -0.618   1.121  0.00  0.00    -0.075 A 
ATOM      5  S   UNL d   1      -0.519   0.093   0.106  0.00  0.00     0.015 SA
ATOM      6  C4  UNL d   1       0.352   1.552  -0.027  0.00  0.00     0.022 A 
ATOM      7  C5  UNL d   1       1.531   1.515   0.680  0.00  0.00     0.026 A 
ATOM      8  C6  UNL d   1       1.739   0.264   1.353  0.00  0.00    -0.082 A 
ATOM      9  C7  UNL d   1       2.808  -0.175   2.172  0.00  0.00     0.045 A 
ENDROOT
TORSDOF 0
ENDMDL
