MODEL 1
REMARK minimizedAffinity -4.49517679
REMARK minimizedRMSD -1
REMARK  0 active torsions:
REMARK  status: ('A' for Active; 'I' for Inactive)
ROOT
ATOM      1  C   UNL d   1       3.230  -1.280   2.017  0.00  0.00    -0.002 A 
ATOM      2  C1  UNL d   1       2.433  -2.393   2.241  0.00  0.00     0.010 A 
ATOM      3  C2  UNL d   1       1.091  -2.396   1.854  0.00  0.00     0.041 A 
ATOM      4  C3  UNL d   1       0.560  -1.250   1.230  0.00  0.00    -0.075 A 
ATOM      5  S   UNL d   1      -1.055  -1.026   0.670  0.00  0.00     0.015 SA
ATOM      6  C4  UNL d   1      -0.725   0.553   0.119  0.00  0.00     0.022 A 
ATOM      7  C5  UNL d   1       0.581   0.916   0.349  0.00  0.00     0.026 A 
ATOM      8  C6  UNL d   1       1.343  -0.117   0.993  0.00  0.00    -0.082 A 
ATOM      9  C7  UNL d   1       2.699  -0.145   1.398  0.00  0.00     0.045 A 
ENDROOT
TORSDOF 0
ENDMDL
