MODEL 1
REMARK minimizedAffinity -1.63155532
REMARK minimizedRMSD -1
REMARK  0 active torsions:
REMARK  status: ('A' for Active; 'I' for Inactive)
ROOT
ATOM      1  C   UNL d   1      -0.217  -0.489   0.234  0.00  0.00    -0.002 A 
ATOM      2  C1  UNL d   1      -0.258   0.891   0.095  0.00  0.00     0.010 A 
ATOM      3  C2  UNL d   1      -1.101   1.485  -0.846  0.00  0.00     0.041 A 
ATOM      4  C3  UNL d   1      -1.910   0.661  -1.653  0.00  0.00    -0.075 A 
ATOM      5  S   UNL d   1      -3.019   1.166  -2.873  0.00  0.00     0.015 SA
ATOM      6  C4  UNL d   1      -3.464  -0.438  -3.238  0.00  0.00     0.022 A 
ATOM      7  C5  UNL d   1      -2.793  -1.350  -2.458  0.00  0.00     0.026 A 
ATOM      8  C6  UNL d   1      -1.886  -0.731  -1.531  0.00  0.00    -0.082 A 
ATOM      9  C7  UNL d   1      -1.021  -1.304  -0.568  0.00  0.00     0.045 A 
ENDROOT
TORSDOF 0
ENDMDL
