MODEL 1
REMARK minimizedAffinity 20.7729435
REMARK minimizedRMSD -1
REMARK  0 active torsions:
REMARK  status: ('A' for Active; 'I' for Inactive)
ROOT
ATOM      1  N1  IND d   1      -3.996  -4.314  -5.903  0.00  0.00    -0.196 N 
ATOM      2  C2  IND d   1      -3.825  -5.665  -5.780  0.00  0.00     0.054 A 
ATOM      3  C3  IND d   1      -2.513  -5.963  -5.648  0.00  0.00    -0.031 A 
ATOM      4  C4  IND d   1      -0.484  -4.385  -5.504  0.00  0.00     0.051 A 
ATOM      5  C5  IND d   1      -0.135  -3.068  -5.603  0.00  0.00    -0.031 A 
ATOM      6  C6  IND d   1      -1.074  -2.078  -5.809  0.00  0.00     0.015 A 
ATOM      7  C7  IND d   1      -2.405  -2.370  -5.912  0.00  0.00    -0.016 A 
ATOM      8  C8  IND d   1      -2.763  -3.707  -5.819  0.00  0.00    -0.047 A 
ATOM      9  C9  IND d   1      -1.810  -4.720  -5.653  0.00  0.00    -0.096 A 
ATOM     10  HN1 IND d   1      -4.748  -3.912  -6.015  0.00  0.00     0.298 HD
ENDROOT
TORSDOF 0
ENDMDL
