MODEL 1
REMARK minimizedAffinity 5.55988598
REMARK minimizedRMSD -1
REMARK  0 active torsions:
REMARK  status: ('A' for Active; 'I' for Inactive)
ROOT
ATOM      1  N1  IND d   1      -4.395   0.875  -2.394  0.00  0.00    -0.196 N 
ATOM      2  C2  IND d   1      -4.214  -0.052  -1.406  0.00  0.00     0.054 A 
ATOM      3  C3  IND d   1      -3.005   0.111  -0.823  0.00  0.00    -0.031 A 
ATOM      4  C4  IND d   1      -1.205   1.899  -1.265  0.00  0.00     0.051 A 
ATOM      5  C5  IND d   1      -0.901   2.938  -2.098  0.00  0.00    -0.031 A 
ATOM      6  C6  IND d   1      -1.765   3.354  -3.091  0.00  0.00     0.015 A 
ATOM      7  C7  IND d   1      -2.975   2.749  -3.281  0.00  0.00    -0.016 A 
ATOM      8  C8  IND d   1      -3.284   1.688  -2.441  0.00  0.00    -0.047 A 
ATOM      9  C9  IND d   1      -2.394   1.235  -1.460  0.00  0.00    -0.096 A 
ATOM     10  HN1 IND d   1      -5.086   0.939  -2.902  0.00  0.00     0.298 HD
ENDROOT
TORSDOF 0
ENDMDL
