MODEL 1
REMARK minimizedAffinity -1.83369398
REMARK minimizedRMSD -1
REMARK  0 active torsions:
REMARK  status: ('A' for Active; 'I' for Inactive)
ROOT
ATOM      1  N1  IND d   1      -0.325   2.677  -1.101  0.00  0.00    -0.196 N 
ATOM      2  C2  IND d   1       0.348   3.852  -1.293  0.00  0.00     0.054 A 
ATOM      3  C3  IND d   1       0.886   4.281  -0.129  0.00  0.00    -0.031 A 
ATOM      4  C4  IND d   1       0.874   3.163   2.190  0.00  0.00     0.051 A 
ATOM      5  C5  IND d   1       0.355   2.096   2.868  0.00  0.00    -0.031 A 
ATOM      6  C6  IND d   1      -0.430   1.147   2.246  0.00  0.00     0.015 A 
ATOM      7  C7  IND d   1      -0.717   1.225   0.912  0.00  0.00    -0.016 A 
ATOM      8  C8  IND d   1      -0.199   2.311   0.222  0.00  0.00    -0.047 A 
ATOM      9  C9  IND d   1       0.563   3.300   0.857  0.00  0.00    -0.096 A 
ATOM     10  HN1 IND d   1      -0.754   2.240  -1.704  0.00  0.00     0.298 HD
ENDROOT
TORSDOF 0
ENDMDL
