MODEL 1
REMARK minimizedAffinity 7.46904802
REMARK minimizedRMSD -1
REMARK  0 active torsions:
REMARK  status: ('A' for Active; 'I' for Inactive)
ROOT
ATOM      1  N1  IND d   1      -2.157   1.291   2.848  0.00  0.00    -0.196 N 
ATOM      2  C2  IND d   1      -2.587   2.349   2.097  0.00  0.00     0.054 A 
ATOM      3  C3  IND d   1      -1.555   2.886   1.408  0.00  0.00    -0.031 A 
ATOM      4  C4  IND d   1       0.901   2.126   1.284  0.00  0.00     0.051 A 
ATOM      5  C5  IND d   1       1.779   1.228   1.823  0.00  0.00    -0.031 A 
ATOM      6  C6  IND d   1       1.382   0.285   2.748  0.00  0.00     0.015 A 
ATOM      7  C7  IND d   1       0.083   0.196   3.162  0.00  0.00    -0.016 A 
ATOM      8  C8  IND d   1      -0.810   1.110   2.622  0.00  0.00    -0.047 A 
ATOM      9  C9  IND d   1      -0.404   2.097   1.714  0.00  0.00    -0.096 A 
ATOM     10  HN1 IND d   1      -2.646   0.817   3.374  0.00  0.00     0.298 HD
ENDROOT
TORSDOF 0
ENDMDL
