MODEL 1
REMARK minimizedAffinity 10.9403696
REMARK minimizedRMSD -1
REMARK  0 active torsions:
REMARK  status: ('A' for Active; 'I' for Inactive)
ROOT
ATOM      1  N1  IND d   1       1.149  -4.311  -0.613  0.00  0.00    -0.196 N 
ATOM      2  C2  IND d   1       0.220  -4.166  -1.605  0.00  0.00     0.054 A 
ATOM      3  C3  IND d   1       0.207  -2.890  -2.054  0.00  0.00    -0.031 A 
ATOM      4  C4  IND d   1       1.693  -0.902  -1.374  0.00  0.00     0.051 A 
ATOM      5  C5  IND d   1       2.663  -0.537  -0.482  0.00  0.00    -0.031 A 
ATOM      6  C6  IND d   1       3.190  -1.430   0.428  0.00  0.00     0.015 A 
ATOM      7  C7  IND d   1       2.773  -2.731   0.473  0.00  0.00    -0.016 A 
ATOM      8  C8  IND d   1       1.784  -3.103  -0.426  0.00  0.00    -0.047 A 
ATOM      9  C9  IND d   1       1.215  -2.190  -1.324  0.00  0.00    -0.096 A 
ATOM     10  HN1 IND d   1       1.310  -5.036  -0.179  0.00  0.00     0.298 HD
ENDROOT
TORSDOF 0
ENDMDL
