MODEL 1
REMARK minimizedAffinity 19.3600636
REMARK minimizedRMSD -1
REMARK  0 active torsions:
REMARK  status: ('A' for Active; 'I' for Inactive)
ROOT
ATOM      1  N1  IND d   1      -2.466   3.498   2.409  0.00  0.00    -0.196 N 
ATOM      2  C2  IND d   1      -3.190   4.500   1.825  0.00  0.00     0.054 A 
ATOM      3  C3  IND d   1      -2.706   4.773   0.592  0.00  0.00    -0.031 A 
ATOM      4  C4  IND d   1      -0.799   3.631  -0.706  0.00  0.00     0.051 A 
ATOM      5  C5  IND d   1       0.181   2.688  -0.572  0.00  0.00    -0.031 A 
ATOM      6  C6  IND d   1       0.331   1.951   0.584  0.00  0.00     0.015 A 
ATOM      7  C7  IND d   1      -0.506   2.121   1.651  0.00  0.00    -0.016 A 
ATOM      8  C8  IND d   1      -1.498   3.082   1.521  0.00  0.00    -0.047 A 
ATOM      9  C9  IND d   1      -1.628   3.864   0.366  0.00  0.00    -0.096 A 
ATOM     10  HN1 IND d   1      -2.594   3.181   3.198  0.00  0.00     0.298 HD
ENDROOT
TORSDOF 0
ENDMDL
