MODEL 1
REMARK minimizedAffinity 12.6424713
REMARK minimizedRMSD -1
REMARK  0 active torsions:
REMARK  status: ('A' for Active; 'I' for Inactive)
ROOT
ATOM      1  N1  IND d   1       1.236   4.399   0.501  0.00  0.00    -0.196 N 
ATOM      2  C2  IND d   1       2.442   4.115   1.080  0.00  0.00     0.054 A 
ATOM      3  C3  IND d   1       2.264   3.370   2.194  0.00  0.00    -0.031 A 
ATOM      4  C4  IND d   1       0.093   2.417   3.196  0.00  0.00     0.051 A 
ATOM      5  C5  IND d   1      -1.265   2.437   3.040  0.00  0.00    -0.031 A 
ATOM      6  C6  IND d   1      -1.870   3.124   2.008  0.00  0.00     0.015 A 
ATOM      7  C7  IND d   1      -1.136   3.810   1.082  0.00  0.00    -0.016 A 
ATOM      8  C8  IND d   1       0.242   3.798   1.241  0.00  0.00    -0.047 A 
ATOM      9  C9  IND d   1       0.860   3.138   2.311  0.00  0.00    -0.096 A 
ATOM     10  HN1 IND d   1       1.119   4.874  -0.206  0.00  0.00     0.298 HD
ENDROOT
TORSDOF 0
ENDMDL
