MODEL 1
REMARK minimizedAffinity 20.7314491
REMARK minimizedRMSD -1
REMARK  0 active torsions:
REMARK  status: ('A' for Active; 'I' for Inactive)
ROOT
ATOM      1  N1  IND d   1      -1.948   3.205   3.058  0.00  0.00    -0.196 N 
ATOM      2  C2  IND d   1      -2.590   4.117   2.268  0.00  0.00     0.054 A 
ATOM      3  C3  IND d   1      -1.801   4.483   1.234  0.00  0.00    -0.031 A 
ATOM      4  C4  IND d   1       0.541   3.633   0.584  0.00  0.00     0.051 A 
ATOM      5  C5  IND d   1       1.553   2.824   1.019  0.00  0.00    -0.031 A 
ATOM      6  C6  IND d   1       1.446   2.083   2.179  0.00  0.00     0.015 A 
ATOM      7  C7  IND d   1       0.314   2.116   2.943  0.00  0.00    -0.016 A 
ATOM      8  C8  IND d   1      -0.713   2.942   2.508  0.00  0.00    -0.047 A 
ATOM      9  C9  IND d   1      -0.594   3.728   1.354  0.00  0.00    -0.096 A 
ATOM     10  HN1 IND d   1      -2.262   2.854   3.777  0.00  0.00     0.298 HD
ENDROOT
TORSDOF 0
ENDMDL
