MODEL 1
REMARK minimizedAffinity 19.0601215
REMARK minimizedRMSD -1
REMARK  0 active torsions:
REMARK  status: ('A' for Active; 'I' for Inactive)
ROOT
ATOM      1  C   UNL d   1      -1.581   0.171   2.777  0.00  0.00     0.077 C 
ATOM      2  C1  UNL d   1      -0.718  -1.045   2.615  0.00  0.00    -0.074 A 
ATOM      3  C2  UNL d   1      -1.118  -2.107   1.798  0.00  0.00    -0.005 A 
ATOM      4  C3  UNL d   1      -0.301  -3.227   1.650  0.00  0.00     0.006 A 
ATOM      5  C4  UNL d   1       0.923  -3.297   2.316  0.00  0.00    -0.005 A 
ATOM      6  C5  UNL d   1       1.340  -2.244   3.137  0.00  0.00    -0.074 A 
ATOM      7  C6  UNL d   1       2.657  -2.299   3.853  0.00  0.00     0.077 C 
ATOM      8  C7  UNL d   1       0.516  -1.119   3.275  0.00  0.00    -0.001 A 
ENDROOT
TORSDOF 0
ENDMDL
