MODEL 1
REMARK minimizedAffinity 6.19770145
REMARK minimizedRMSD -1
REMARK  0 active torsions:
REMARK  status: ('A' for Active; 'I' for Inactive)
ROOT
ATOM      1  C   UNL d   1       2.798   1.769   0.755  0.00  0.00     0.077 C 
ATOM      2  C1  UNL d   1       3.908   2.777   0.801  0.00  0.00    -0.074 A 
ATOM      3  C2  UNL d   1       4.451   3.193   2.020  0.00  0.00    -0.005 A 
ATOM      4  C3  UNL d   1       5.489   4.124   2.047  0.00  0.00     0.006 A 
ATOM      5  C4  UNL d   1       5.993   4.649   0.856  0.00  0.00    -0.005 A 
ATOM      6  C5  UNL d   1       5.463   4.244  -0.373  0.00  0.00    -0.074 A 
ATOM      7  C6  UNL d   1       5.999   4.791  -1.663  0.00  0.00     0.077 C 
ATOM      8  C7  UNL d   1       4.425   3.303  -0.392  0.00  0.00    -0.001 A 
ENDROOT
TORSDOF 0
ENDMDL
