MODEL 1
REMARK minimizedAffinity 8.86345291
REMARK minimizedRMSD -1
REMARK  0 active torsions:
REMARK  status: ('A' for Active; 'I' for Inactive)
ROOT
ATOM      1  C   UNL d   1      -1.524   4.466  -5.184  0.00  0.00     0.077 C 
ATOM      2  C1  UNL d   1      -0.428   4.393  -4.163  0.00  0.00    -0.074 A 
ATOM      3  C2  UNL d   1      -0.232   5.428  -3.243  0.00  0.00    -0.005 A 
ATOM      4  C3  UNL d   1       0.786   5.341  -2.293  0.00  0.00     0.006 A 
ATOM      5  C4  UNL d   1       1.617   4.220  -2.254  0.00  0.00    -0.005 A 
ATOM      6  C5  UNL d   1       1.435   3.175  -3.165  0.00  0.00    -0.074 A 
ATOM      7  C6  UNL d   1       2.313   1.959  -3.130  0.00  0.00     0.077 C 
ATOM      8  C7  UNL d   1       0.406   3.267  -4.112  0.00  0.00    -0.001 A 
ENDROOT
TORSDOF 0
ENDMDL
