MODEL 1
REMARK minimizedAffinity 13.2905731
REMARK minimizedRMSD -1
REMARK  0 active torsions:
REMARK  status: ('A' for Active; 'I' for Inactive)
ROOT
ATOM      1  C   UNL d   1       1.677  -1.245   2.139  0.00  0.00     0.077 C 
ATOM      2  C1  UNL d   1       0.182  -1.132   2.146  0.00  0.00    -0.074 A 
ATOM      3  C2  UNL d   1      -0.615  -2.089   1.510  0.00  0.00    -0.005 A 
ATOM      4  C3  UNL d   1      -2.005  -1.976   1.534  0.00  0.00     0.006 A 
ATOM      5  C4  UNL d   1      -2.612  -0.905   2.192  0.00  0.00    -0.005 A 
ATOM      6  C5  UNL d   1      -1.831   0.061   2.835  0.00  0.00    -0.074 A 
ATOM      7  C6  UNL d   1      -2.467   1.213   3.555  0.00  0.00     0.077 C 
ATOM      8  C7  UNL d   1      -0.435  -0.064   2.812  0.00  0.00    -0.001 A 
ENDROOT
TORSDOF 0
ENDMDL
