MODEL 1
REMARK minimizedAffinity 15.1868839
REMARK minimizedRMSD -1
REMARK  0 active torsions:
REMARK  status: ('A' for Active; 'I' for Inactive)
ROOT
ATOM      1  C   UNL d   1       1.213  -1.826   2.360  0.00  0.00     0.077 C 
ATOM      2  C1  UNL d   1      -0.203  -1.377   2.152  0.00  0.00    -0.074 A 
ATOM      3  C2  UNL d   1      -1.025  -2.001   1.208  0.00  0.00    -0.005 A 
ATOM      4  C3  UNL d   1      -2.342  -1.578   1.033  0.00  0.00     0.006 A 
ATOM      5  C4  UNL d   1      -2.851  -0.529   1.799  0.00  0.00    -0.005 A 
ATOM      6  C5  UNL d   1      -2.045   0.107   2.749  0.00  0.00    -0.074 A 
ATOM      7  C6  UNL d   1      -2.579   1.230   3.588  0.00  0.00     0.077 C 
ATOM      8  C7  UNL d   1      -0.724  -0.328   2.924  0.00  0.00    -0.001 A 
ENDROOT
TORSDOF 0
ENDMDL
