MODEL 1
REMARK minimizedAffinity 10.3616314
REMARK minimizedRMSD -1
REMARK  0 active torsions:
REMARK  status: ('A' for Active; 'I' for Inactive)
ROOT
ATOM      1  C   UNL d   1      -1.218   4.344  -5.197  0.00  0.00     0.077 C 
ATOM      2  C1  UNL d   1      -0.151   4.352  -4.143  0.00  0.00    -0.074 A 
ATOM      3  C2  UNL d   1       0.049   5.472  -3.330  0.00  0.00    -0.005 A 
ATOM      4  C3  UNL d   1       1.038   5.462  -2.347  0.00  0.00     0.006 A 
ATOM      5  C4  UNL d   1       1.837   4.332  -2.168  0.00  0.00    -0.005 A 
ATOM      6  C5  UNL d   1       1.652   3.201  -2.970  0.00  0.00    -0.074 A 
ATOM      7  C6  UNL d   1       2.495   1.975  -2.783  0.00  0.00     0.077 C 
ATOM      8  C7  UNL d   1       0.651   3.218  -3.950  0.00  0.00    -0.001 A 
ENDROOT
TORSDOF 0
ENDMDL
