MODEL 1
REMARK minimizedAffinity 13.6466665
REMARK minimizedRMSD -1
REMARK  0 active torsions:
REMARK  status: ('A' for Active; 'I' for Inactive)
ROOT
ATOM      1  C   UNL d   1       2.669  -4.306   0.604  0.00  0.00     0.077 C 
ATOM      2  C1  UNL d   1       1.945  -3.233   1.362  0.00  0.00    -0.074 A 
ATOM      3  C2  UNL d   1       2.642  -2.322   2.161  0.00  0.00    -0.005 A 
ATOM      4  C3  UNL d   1       1.956  -1.324   2.853  0.00  0.00     0.006 A 
ATOM      5  C4  UNL d   1       0.568  -1.227   2.753  0.00  0.00    -0.005 A 
ATOM      6  C5  UNL d   1      -0.147  -2.129   1.958  0.00  0.00    -0.074 A 
ATOM      7  C6  UNL d   1      -1.638  -2.033   1.831  0.00  0.00     0.077 C 
ATOM      8  C7  UNL d   1       0.551  -3.125   1.260  0.00  0.00    -0.001 A 
ENDROOT
TORSDOF 0
ENDMDL
