MODEL 1
REMARK minimizedAffinity 9.04903603
REMARK minimizedRMSD -1
REMARK  0 active torsions:
REMARK  status: ('A' for Active; 'I' for Inactive)
ROOT
ATOM      1  C   UNL d   1       1.982   5.195  -1.873  0.00  0.00     0.077 C 
ATOM      2  C1  UNL d   1       2.684   4.581  -3.047  0.00  0.00    -0.074 A 
ATOM      3  C2  UNL d   1       2.077   3.571  -3.800  0.00  0.00    -0.005 A 
ATOM      4  C3  UNL d   1       2.738   3.016  -4.896  0.00  0.00     0.006 A 
ATOM      5  C4  UNL d   1       4.012   3.465  -5.249  0.00  0.00    -0.005 A 
ATOM      6  C5  UNL d   1       4.634   4.475  -4.508  0.00  0.00    -0.074 A 
ATOM      7  C6  UNL d   1       5.998   4.976  -4.879  0.00  0.00     0.077 C 
ATOM      8  C7  UNL d   1       3.960   5.032  -3.413  0.00  0.00    -0.001 A 
ENDROOT
TORSDOF 0
ENDMDL
