MODEL 1
REMARK minimizedAffinity 16.2752609
REMARK minimizedRMSD -1
REMARK  0 active torsions:
REMARK  status: ('A' for Active; 'I' for Inactive)
ROOT
ATOM      1  C   UNL d   1       2.348   0.831   1.037  0.00  0.00     0.077 C 
ATOM      2  C1  UNL d   1       3.626   1.565   0.758  0.00  0.00    -0.074 A 
ATOM      3  C2  UNL d   1       4.448   1.196  -0.312  0.00  0.00    -0.005 A 
ATOM      4  C3  UNL d   1       5.629   1.894  -0.564  0.00  0.00     0.006 A 
ATOM      5  C4  UNL d   1       6.000   2.965   0.249  0.00  0.00    -0.005 A 
ATOM      6  C5  UNL d   1       5.190   3.349   1.323  0.00  0.00    -0.074 A 
ATOM      7  C6  UNL d   1       5.569   4.505   2.201  0.00  0.00     0.077 C 
ATOM      8  C7  UNL d   1       4.001   2.647   1.566  0.00  0.00    -0.001 A 
ENDROOT
TORSDOF 0
ENDMDL
