MODEL 1
REMARK minimizedAffinity 10.353404
REMARK minimizedRMSD -1
REMARK  0 active torsions:
REMARK  status: ('A' for Active; 'I' for Inactive)
ROOT
ATOM      1  C   UNL d   1       1.379  -2.144   4.113  0.00  0.00     0.077 C 
ATOM      2  C1  UNL d   1       0.223  -1.551   3.363  0.00  0.00    -0.074 A 
ATOM      3  C2  UNL d   1      -0.229  -2.123   2.169  0.00  0.00    -0.005 A 
ATOM      4  C3  UNL d   1      -1.310  -1.566   1.487  0.00  0.00     0.006 A 
ATOM      5  C4  UNL d   1      -1.950  -0.433   1.991  0.00  0.00    -0.005 A 
ATOM      6  C5  UNL d   1      -1.513   0.152   3.183  0.00  0.00    -0.074 A 
ATOM      7  C6  UNL d   1      -2.196   1.364   3.744  0.00  0.00     0.077 C 
ATOM      8  C7  UNL d   1      -0.430  -0.417   3.866  0.00  0.00    -0.001 A 
ENDROOT
TORSDOF 0
ENDMDL
