MODEL 1
REMARK minimizedAffinity 13.0549259
REMARK minimizedRMSD -1
REMARK  0 active torsions:
REMARK  status: ('A' for Active; 'I' for Inactive)
ROOT
ATOM      1  C   UNL d   1      -3.777   0.096   0.925  0.00  0.00     0.077 C 
ATOM      2  C1  UNL d   1      -2.533  -0.348   1.636  0.00  0.00    -0.074 A 
ATOM      3  C2  UNL d   1      -1.705  -1.333   1.088  0.00  0.00    -0.005 A 
ATOM      4  C3  UNL d   1      -0.546  -1.728   1.756  0.00  0.00     0.006 A 
ATOM      5  C4  UNL d   1      -0.204  -1.144   2.976  0.00  0.00    -0.005 A 
ATOM      6  C5  UNL d   1      -1.020  -0.157   3.539  0.00  0.00    -0.074 A 
ATOM      7  C6  UNL d   1      -0.662   0.488   4.845  0.00  0.00     0.077 C 
ATOM      8  C7  UNL d   1      -2.179   0.240   2.858  0.00  0.00    -0.001 A 
ENDROOT
TORSDOF 0
ENDMDL
