MODEL 1
REMARK minimizedAffinity 9.619771
REMARK minimizedRMSD -1
REMARK  0 active torsions:
REMARK  status: ('A' for Active; 'I' for Inactive)
ROOT
ATOM      1  C   UNL d   1      -4.497  -0.408   0.407  0.00  0.00     0.077 C 
ATOM      2  C1  UNL d   1      -3.360  -0.230   1.368  0.00  0.00    -0.074 A 
ATOM      3  C2  UNL d   1      -3.401   0.760   2.356  0.00  0.00    -0.005 A 
ATOM      4  C3  UNL d   1      -2.339   0.906   3.249  0.00  0.00     0.006 A 
ATOM      5  C4  UNL d   1      -1.228   0.067   3.164  0.00  0.00    -0.005 A 
ATOM      6  C5  UNL d   1      -1.170  -0.929   2.184  0.00  0.00    -0.074 A 
ATOM      7  C6  UNL d   1       0.013  -1.847   2.085  0.00  0.00     0.077 C 
ATOM      8  C7  UNL d   1      -2.243  -1.075   1.294  0.00  0.00    -0.001 A 
ENDROOT
TORSDOF 0
ENDMDL
