MODEL 1
REMARK minimizedAffinity 11.0266752
REMARK minimizedRMSD -1
REMARK  0 active torsions:
REMARK  status: ('A' for Active; 'I' for Inactive)
ROOT
ATOM      1  C   UNL d   1      -5.005   1.490   0.827  0.00  0.00     0.077 C 
ATOM      2  C1  UNL d   1      -3.818   0.977   1.587  0.00  0.00    -0.074 A 
ATOM      3  C2  UNL d   1      -3.306   1.682   2.681  0.00  0.00    -0.005 A 
ATOM      4  C3  UNL d   1      -2.207   1.188   3.384  0.00  0.00     0.006 A 
ATOM      5  C4  UNL d   1      -1.610  -0.013   3.001  0.00  0.00    -0.005 A 
ATOM      6  C5  UNL d   1      -2.109  -0.732   1.910  0.00  0.00    -0.074 A 
ATOM      7  C6  UNL d   1      -1.485  -2.030   1.492  0.00  0.00     0.077 C 
ATOM      8  C7  UNL d   1      -3.217  -0.233   1.213  0.00  0.00    -0.001 A 
ENDROOT
TORSDOF 0
ENDMDL
