MODEL 1
REMARK minimizedAffinity 12.8828535
REMARK minimizedRMSD -1
REMARK  0 active torsions:
REMARK  status: ('A' for Active; 'I' for Inactive)
ROOT
ATOM      1  C   UNL d   1       5.951   5.673  -1.380  0.00  0.00     0.077 C 
ATOM      2  C1  UNL d   1       5.282   4.918  -2.491  0.00  0.00    -0.074 A 
ATOM      3  C2  UNL d   1       5.926   4.725  -3.717  0.00  0.00    -0.005 A 
ATOM      4  C3  UNL d   1       5.295   4.013  -4.738  0.00  0.00     0.006 A 
ATOM      5  C4  UNL d   1       4.018   3.488  -4.542  0.00  0.00    -0.005 A 
ATOM      6  C5  UNL d   1       3.359   3.670  -3.322  0.00  0.00    -0.074 A 
ATOM      7  C6  UNL d   1       1.990   3.103  -3.092  0.00  0.00     0.077 C 
ATOM      8  C7  UNL d   1       4.002   4.380  -2.299  0.00  0.00    -0.001 A 
ENDROOT
TORSDOF 0
ENDMDL
