MODEL 1
REMARK minimizedAffinity 19.6175404
REMARK minimizedRMSD -1
REMARK  0 active torsions:
REMARK  status: ('A' for Active; 'I' for Inactive)
ROOT
ATOM      1  C1  DEN d   1       5.563  -2.712   2.448  0.00  0.00     0.130 A 
ATOM      2  C2  DEN d   1       5.426  -1.410   3.097  0.00  0.00    -0.031 A 
ATOM      3  C3  DEN d   1       5.501  -1.618   4.557  0.00  0.00     0.027 A 
ATOM      4  C4  DEN d   1       5.816  -3.816   5.869  0.00  0.00     0.027 A 
ATOM      5  C5  DEN d   1       5.966  -5.180   5.754  0.00  0.00    -0.003 A 
ATOM      6  C6  DEN d   1       5.959  -5.816   4.541  0.00  0.00     0.001 A 
ATOM      7  C7  DEN d   1       5.843  -5.082   3.390  0.00  0.00     0.017 A 
ATOM      8  C8  DEN d   1       5.683  -3.706   3.499  0.00  0.00    -0.094 A 
ATOM      9  C9  DEN d   1       5.706  -3.081   4.734  0.00  0.00    -0.072 A 
ENDROOT
TORSDOF 0
ENDMDL
