MODEL 1
REMARK minimizedAffinity -1.75785923
REMARK minimizedRMSD -1
REMARK  0 active torsions:
REMARK  status: ('A' for Active; 'I' for Inactive)
ROOT
ATOM      1  C1  DEN d   1       5.998  -3.946   4.800  0.00  0.00     0.130 A 
ATOM      2  C2  DEN d   1       5.703  -4.994   5.773  0.00  0.00    -0.031 A 
ATOM      3  C3  DEN d   1       4.816  -5.982   5.126  0.00  0.00     0.027 A 
ATOM      4  C4  DEN d   1       3.880  -5.991   2.723  0.00  0.00     0.027 A 
ATOM      5  C5  DEN d   1       3.843  -5.304   1.530  0.00  0.00    -0.003 A 
ATOM      6  C6  DEN d   1       4.488  -4.108   1.355  0.00  0.00     0.001 A 
ATOM      7  C7  DEN d   1       5.236  -3.586   2.377  0.00  0.00     0.017 A 
ATOM      8  C8  DEN d   1       5.273  -4.269   3.585  0.00  0.00    -0.094 A 
ATOM      9  C9  DEN d   1       4.623  -5.482   3.738  0.00  0.00    -0.072 A 
ENDROOT
TORSDOF 0
ENDMDL
