MODEL 1
REMARK minimizedAffinity -3.00967979
REMARK minimizedRMSD -1
REMARK  0 active torsions:
REMARK  status: ('A' for Active; 'I' for Inactive)
ROOT
ATOM      1  C1  DEN d   1       5.980  -1.926   4.908  0.00  0.00     0.130 A 
ATOM      2  C2  DEN d   1       5.957  -0.809   3.968  0.00  0.00    -0.031 A 
ATOM      3  C3  DEN d   1       5.903  -1.364   2.600  0.00  0.00     0.027 A 
ATOM      4  C4  DEN d   1       5.849  -3.831   1.852  0.00  0.00     0.027 A 
ATOM      5  C5  DEN d   1       5.864  -5.138   2.289  0.00  0.00    -0.003 A 
ATOM      6  C6  DEN d   1       5.952  -5.462   3.617  0.00  0.00     0.001 A 
ATOM      7  C7  DEN d   1       5.983  -4.468   4.558  0.00  0.00     0.017 A 
ATOM      8  C8  DEN d   1       5.976  -3.148   4.125  0.00  0.00    -0.094 A 
ATOM      9  C9  DEN d   1       5.875  -2.840   2.779  0.00  0.00    -0.072 A 
ENDROOT
TORSDOF 0
ENDMDL
