MODEL 1
REMARK minimizedAffinity 6.40091276
REMARK minimizedRMSD -1
REMARK  0 active torsions:
REMARK  status: ('A' for Active; 'I' for Inactive)
ROOT
ATOM      1  C1  DEN d   1       5.934  -4.962   3.371  0.00  0.00     0.130 A 
ATOM      2  C2  DEN d   1       5.966  -5.869   4.515  0.00  0.00    -0.031 A 
ATOM      3  C3  DEN d   1       5.999  -5.052   5.745  0.00  0.00     0.027 A 
ATOM      4  C4  DEN d   1       5.999  -2.484   5.987  0.00  0.00     0.027 A 
ATOM      5  C5  DEN d   1       5.991  -1.291   5.298  0.00  0.00    -0.003 A 
ATOM      6  C6  DEN d   1       5.997  -1.239   3.929  0.00  0.00     0.001 A 
ATOM      7  C7  DEN d   1       5.967  -2.401   3.205  0.00  0.00     0.017 A 
ATOM      8  C8  DEN d   1       5.983  -3.608   3.893  0.00  0.00    -0.094 A 
ATOM      9  C9  DEN d   1       5.964  -3.640   5.277  0.00  0.00    -0.072 A 
ENDROOT
TORSDOF 0
ENDMDL
