MODEL 1
REMARK minimizedAffinity 0.163379818
REMARK minimizedRMSD -1
REMARK  0 active torsions:
REMARK  status: ('A' for Active; 'I' for Inactive)
ROOT
ATOM      1  C1  DEN d   1       5.979  -5.914   3.251  0.00  0.00     0.130 A 
ATOM      2  C2  DEN d   1       5.981  -5.960   4.711  0.00  0.00    -0.031 A 
ATOM      3  C3  DEN d   1       4.578  -5.999   5.168  0.00  0.00     0.027 A 
ATOM      4  C4  DEN d   1       2.413  -5.999   3.766  0.00  0.00     0.027 A 
ATOM      5  C5  DEN d   1       1.904  -5.957   2.487  0.00  0.00    -0.003 A 
ATOM      6  C6  DEN d   1       2.710  -5.864   1.383  0.00  0.00     0.001 A 
ATOM      7  C7  DEN d   1       4.072  -5.856   1.536  0.00  0.00     0.017 A 
ATOM      8  C8  DEN d   1       4.592  -5.890   2.823  0.00  0.00    -0.094 A 
ATOM      9  C9  DEN d   1       3.761  -5.996   3.925  0.00  0.00    -0.072 A 
ENDROOT
TORSDOF 0
ENDMDL
