MODEL 1
REMARK minimizedAffinity 3.09686542
REMARK minimizedRMSD -1
REMARK  0 active torsions:
REMARK  status: ('A' for Active; 'I' for Inactive)
ROOT
ATOM      1  C1  DEN d   1       4.225  -5.998   3.675  0.00  0.00     0.130 A 
ATOM      2  C2  DEN d   1       5.201  -5.574   2.675  0.00  0.00    -0.031 A 
ATOM      3  C3  DEN d   1       4.462  -5.049   1.509  0.00  0.00     0.027 A 
ATOM      4  C4  DEN d   1       1.914  -4.847   1.161  0.00  0.00     0.027 A 
ATOM      5  C5  DEN d   1       0.681  -5.087   1.726  0.00  0.00    -0.003 A 
ATOM      6  C6  DEN d   1       0.544  -5.673   2.956  0.00  0.00     0.001 A 
ATOM      7  C7  DEN d   1       1.660  -5.999   3.682  0.00  0.00     0.017 A 
ATOM      8  C8  DEN d   1       2.906  -5.767   3.115  0.00  0.00    -0.094 A 
ATOM      9  C9  DEN d   1       3.024  -5.162   1.875  0.00  0.00    -0.072 A 
ENDROOT
TORSDOF 0
ENDMDL
