MODEL 1
REMARK minimizedAffinity 0.0743354559
REMARK minimizedRMSD -1
REMARK  0 active torsions:
REMARK  status: ('A' for Active; 'I' for Inactive)
ROOT
ATOM      1  C1  DEN d   1      -3.936   6.000   5.745  0.00  0.00     0.130 A 
ATOM      2  C2  DEN d   1      -5.383   5.999   5.938  0.00  0.00    -0.031 A 
ATOM      3  C3  DEN d   1      -5.999   5.329   4.775  0.00  0.00     0.027 A 
ATOM      4  C4  DEN d   1      -4.857   4.296   2.706  0.00  0.00     0.027 A 
ATOM      5  C5  DEN d   1      -3.648   4.066   2.089  0.00  0.00    -0.003 A 
ATOM      6  C6  DEN d   1      -2.461   4.490   2.626  0.00  0.00     0.001 A 
ATOM      7  C7  DEN d   1      -2.455   5.129   3.839  0.00  0.00     0.017 A 
ATOM      8  C8  DEN d   1      -3.672   5.371   4.463  0.00  0.00    -0.094 A 
ATOM      9  C9  DEN d   1      -4.859   4.923   3.909  0.00  0.00    -0.072 A 
ENDROOT
TORSDOF 0
ENDMDL
