MODEL 1
REMARK minimizedAffinity 1.55511224
REMARK minimizedRMSD -1
REMARK  0 active torsions:
REMARK  status: ('A' for Active; 'I' for Inactive)
ROOT
ATOM      1  C1  DEN d   1       4.108  -5.976   5.538  0.00  0.00     0.130 A 
ATOM      2  C2  DEN d   1       5.375  -5.978   4.813  0.00  0.00    -0.031 A 
ATOM      3  C3  DEN d   1       5.074  -5.967   3.367  0.00  0.00     0.027 A 
ATOM      4  C4  DEN d   1       2.780  -5.943   2.188  0.00  0.00     0.027 A 
ATOM      5  C5  DEN d   1       1.417  -5.948   2.385  0.00  0.00    -0.003 A 
ATOM      6  C6  DEN d   1       0.859  -5.997   3.635  0.00  0.00     0.001 A 
ATOM      7  C7  DEN d   1       1.669  -5.997   4.740  0.00  0.00     0.017 A 
ATOM      8  C8  DEN d   1       3.045  -5.999   4.549  0.00  0.00    -0.094 A 
ATOM      9  C9  DEN d   1       3.589  -5.937   3.278  0.00  0.00    -0.072 A 
ENDROOT
TORSDOF 0
ENDMDL
