MODEL 1
REMARK minimizedAffinity -0.727266848
REMARK minimizedRMSD -1
REMARK  0 active torsions:
REMARK  status: ('A' for Active; 'I' for Inactive)
ROOT
ATOM      1  C1  DEN d   1       0.971  -6.000   3.371  0.00  0.00     0.130 A 
ATOM      2  C2  DEN d   1       2.091  -5.562   2.543  0.00  0.00    -0.031 A 
ATOM      3  C3  DEN d   1       1.542  -5.018   1.284  0.00  0.00     0.027 A 
ATOM      4  C4  DEN d   1      -0.919  -4.808   0.544  0.00  0.00     0.027 A 
ATOM      5  C5  DEN d   1      -2.225  -5.055   0.906  0.00  0.00    -0.003 A 
ATOM      6  C6  DEN d   1      -2.553  -5.660   2.090  0.00  0.00     0.001 A 
ATOM      7  C7  DEN d   1      -1.564  -5.998   2.976  0.00  0.00     0.017 A 
ATOM      8  C8  DEN d   1      -0.245  -5.759   2.615  0.00  0.00    -0.094 A 
ATOM      9  C9  DEN d   1       0.065  -5.135   1.419  0.00  0.00    -0.072 A 
ENDROOT
TORSDOF 0
ENDMDL
