MODEL 1
REMARK minimizedAffinity 7.96198797
REMARK minimizedRMSD -1
REMARK  0 active torsions:
REMARK  status: ('A' for Active; 'I' for Inactive)
ROOT
ATOM      1  C1  DEN d   1      -5.893   2.528   4.552  0.00  0.00     0.130 A 
ATOM      2  C2  DEN d   1      -5.929   2.118   5.954  0.00  0.00    -0.031 A 
ATOM      3  C3  DEN d   1      -5.974   0.643   5.997  0.00  0.00     0.027 A 
ATOM      4  C4  DEN d   1      -5.987  -1.038   4.040  0.00  0.00     0.027 A 
ATOM      5  C5  DEN d   1      -5.979  -1.165   2.669  0.00  0.00    -0.003 A 
ATOM      6  C6  DEN d   1      -5.976  -0.077   1.836  0.00  0.00     0.001 A 
ATOM      7  C7  DEN d   1      -5.935   1.185   2.367  0.00  0.00     0.017 A 
ATOM      8  C8  DEN d   1      -5.951   1.320   3.749  0.00  0.00    -0.094 A 
ATOM      9  C9  DEN d   1      -5.942   0.209   4.574  0.00  0.00    -0.072 A 
ENDROOT
TORSDOF 0
ENDMDL
