MODEL 1
REMARK minimizedAffinity 5.86898708
REMARK minimizedRMSD -1
REMARK  0 active torsions:
REMARK  status: ('A' for Active; 'I' for Inactive)
ROOT
ATOM      1  C1  DEN d   1      -1.339  -5.998   1.095  0.00  0.00     0.130 A 
ATOM      2  C2  DEN d   1       0.078  -5.887   1.431  0.00  0.00    -0.031 A 
ATOM      3  C3  DEN d   1       0.464  -4.466   1.315  0.00  0.00     0.027 A 
ATOM      4  C4  DEN d   1      -0.986  -2.438   0.655  0.00  0.00     0.027 A 
ATOM      5  C5  DEN d   1      -2.246  -2.038   0.269  0.00  0.00    -0.003 A 
ATOM      6  C6  DEN d   1      -3.275  -2.926   0.101  0.00  0.00     0.001 A 
ATOM      7  C7  DEN d   1      -3.074  -4.255   0.362  0.00  0.00     0.017 A 
ATOM      8  C8  DEN d   1      -1.804  -4.668   0.743  0.00  0.00    -0.094 A 
ATOM      9  C9  DEN d   1      -0.780  -3.753   0.920  0.00  0.00    -0.072 A 
ENDROOT
TORSDOF 0
ENDMDL
