MODEL 1
REMARK minimizedAffinity 5.43918037
REMARK minimizedRMSD -1
REMARK  0 active torsions:
REMARK  status: ('A' for Active; 'I' for Inactive)
ROOT
ATOM      1  C1  DEN d   1      -2.077   1.461   0.292  0.00  0.00     0.130 A 
ATOM      2  C2  DEN d   1      -3.164   0.490   0.385  0.00  0.00    -0.031 A 
ATOM      3  C3  DEN d   1      -2.671  -0.677   1.143  0.00  0.00     0.027 A 
ATOM      4  C4  DEN d   1      -0.343  -1.071   2.181  0.00  0.00     0.027 A 
ATOM      5  C5  DEN d   1       0.915  -0.536   2.354  0.00  0.00    -0.003 A 
ATOM      6  C6  DEN d   1       1.270   0.678   1.827  0.00  0.00     0.001 A 
ATOM      7  C7  DEN d   1       0.344   1.417   1.139  0.00  0.00     0.017 A 
ATOM      8  C8  DEN d   1      -0.923   0.880   0.955  0.00  0.00    -0.094 A 
ATOM      9  C9  DEN d   1      -1.267  -0.342   1.506  0.00  0.00    -0.072 A 
ENDROOT
TORSDOF 0
ENDMDL
