MODEL 1
REMARK minimizedAffinity 10.1626348
REMARK minimizedRMSD -1
REMARK  0 active torsions:
REMARK  status: ('A' for Active; 'I' for Inactive)
ROOT
ATOM      1  C1  DEN d   1       4.593   1.651   0.379  0.00  0.00     0.130 A 
ATOM      2  C2  DEN d   1       3.208   1.560   0.833  0.00  0.00    -0.031 A 
ATOM      3  C3  DEN d   1       2.599   2.900   0.709  0.00  0.00     0.027 A 
ATOM      4  C4  DEN d   1       3.659   5.092  -0.142  0.00  0.00     0.027 A 
ATOM      5  C5  DEN d   1       4.813   5.667  -0.626  0.00  0.00    -0.003 A 
ATOM      6  C6  DEN d   1       5.975   4.957  -0.775  0.00  0.00     0.001 A 
ATOM      7  C7  DEN d   1       5.996   3.620  -0.480  0.00  0.00     0.017 A 
ATOM      8  C8  DEN d   1       4.838   3.035   0.015  0.00  0.00    -0.094 A 
ATOM      9  C9  DEN d   1       3.670   3.766   0.148  0.00  0.00    -0.072 A 
ENDROOT
TORSDOF 0
ENDMDL
