MODEL 1
REMARK minimizedAffinity 17.2825279
REMARK minimizedRMSD -1
REMARK  0 active torsions:
REMARK  status: ('A' for Active; 'I' for Inactive)
ROOT
ATOM      1  C1  DEN d   1       3.235   0.244  -4.231  0.00  0.00     0.130 A 
ATOM      2  C2  DEN d   1       4.592  -0.225  -4.501  0.00  0.00    -0.031 A 
ATOM      3  C3  DEN d   1       4.495  -1.498  -5.242  0.00  0.00     0.027 A 
ATOM      4  C4  DEN d   1       2.389  -2.780  -5.998  0.00  0.00     0.027 A 
ATOM      5  C5  DEN d   1       1.011  -2.781  -5.988  0.00  0.00    -0.003 A 
ATOM      6  C6  DEN d   1       0.285  -1.800  -5.368  0.00  0.00     0.001 A 
ATOM      7  C7  DEN d   1       0.933  -0.751  -4.770  0.00  0.00     0.017 A 
ATOM      8  C8  DEN d   1       2.321  -0.747  -4.769  0.00  0.00    -0.094 A 
ATOM      9  C9  DEN d   1       3.037  -1.742  -5.412  0.00  0.00    -0.072 A 
ENDROOT
TORSDOF 0
ENDMDL
