MODEL 1
REMARK minimizedAffinity 0.103602268
REMARK minimizedRMSD -1
REMARK  0 active torsions:
REMARK  status: ('A' for Active; 'I' for Inactive)
ROOT
ATOM      1  C   UNL d   1      -1.223  -0.961   2.345  0.00  0.00     0.077 C 
ATOM      2  C1  UNL d   1       0.270  -0.932   2.203  0.00  0.00    -0.074 A 
ATOM      3  C2  UNL d   1       1.078  -0.409   3.217  0.00  0.00    -0.005 A 
ATOM      4  C3  UNL d   1       2.466  -0.398   3.074  0.00  0.00     0.006 A 
ATOM      5  C4  UNL d   1       3.058  -0.909   1.918  0.00  0.00    -0.005 A 
ATOM      6  C5  UNL d   1       2.265  -1.437   0.894  0.00  0.00    -0.074 A 
ATOM      7  C6  UNL d   1       2.886  -1.999  -0.350  0.00  0.00     0.077 C 
ATOM      8  C7  UNL d   1       0.872  -1.451   1.048  0.00  0.00    -0.001 A 
ENDROOT
TORSDOF 0
ENDMDL
