MODEL 1
REMARK minimizedAffinity 3.36085081
REMARK minimizedRMSD -1
REMARK  0 active torsions:
REMARK  status: ('A' for Active; 'I' for Inactive)
ROOT
ATOM      1  C   UNL d   1       1.765  -1.567  -1.188  0.00  0.00     0.077 C 
ATOM      2  C1  UNL d   1       1.825  -1.763   0.297  0.00  0.00    -0.074 A 
ATOM      3  C2  UNL d   1       2.791  -2.594   0.874  0.00  0.00    -0.005 A 
ATOM      4  C3  UNL d   1       2.841  -2.758   2.258  0.00  0.00     0.006 A 
ATOM      5  C4  UNL d   1       1.927  -2.096   3.078  0.00  0.00    -0.005 A 
ATOM      6  C5  UNL d   1       0.955  -1.260   2.519  0.00  0.00    -0.074 A 
ATOM      7  C6  UNL d   1      -0.029  -0.533   3.387  0.00  0.00     0.077 C 
ATOM      8  C7  UNL d   1       0.916  -1.094   1.128  0.00  0.00    -0.001 A 
ENDROOT
TORSDOF 0
ENDMDL
