MODEL 1
REMARK minimizedAffinity 3.06522012
REMARK minimizedRMSD -1
REMARK  0 active torsions:
REMARK  status: ('A' for Active; 'I' for Inactive)
ROOT
ATOM      1  C   UNL d   1       0.307  -0.497   3.077  0.00  0.00     0.077 C 
ATOM      2  C1  UNL d   1       1.098  -1.076   1.943  0.00  0.00    -0.074 A 
ATOM      3  C2  UNL d   1       2.252  -1.829   2.182  0.00  0.00    -0.005 A 
ATOM      4  C3  UNL d   1       2.972  -2.370   1.116  0.00  0.00     0.006 A 
ATOM      5  C4  UNL d   1       2.546  -2.163  -0.196  0.00  0.00    -0.005 A 
ATOM      6  C5  UNL d   1       1.394  -1.413  -0.455  0.00  0.00    -0.074 A 
ATOM      7  C6  UNL d   1       0.918  -1.190  -1.859  0.00  0.00     0.077 C 
ATOM      8  C7  UNL d   1       0.672  -0.879   0.621  0.00  0.00    -0.001 A 
ENDROOT
TORSDOF 0
ENDMDL
