MODEL 1
REMARK minimizedAffinity 6.99437189
REMARK minimizedRMSD -1
REMARK  0 active torsions:
REMARK  status: ('A' for Active; 'I' for Inactive)
ROOT
ATOM      1  C   UNL d   1       2.049   0.911  -1.696  0.00  0.00     0.077 C 
ATOM      2  C1  UNL d   1       2.266  -0.241  -0.761  0.00  0.00    -0.074 A 
ATOM      3  C2  UNL d   1       3.351  -1.108  -0.928  0.00  0.00    -0.005 A 
ATOM      4  C3  UNL d   1       3.545  -2.170  -0.044  0.00  0.00     0.006 A 
ATOM      5  C4  UNL d   1       2.657  -2.375   1.013  0.00  0.00    -0.005 A 
ATOM      6  C5  UNL d   1       1.567  -1.518   1.196  0.00  0.00    -0.074 A 
ATOM      7  C6  UNL d   1       0.610  -1.719   2.332  0.00  0.00     0.077 C 
ATOM      8  C7  UNL d   1       1.383  -0.449   0.308  0.00  0.00    -0.001 A 
ENDROOT
TORSDOF 0
ENDMDL
