MODEL 1
REMARK minimizedAffinity 7.58252001
REMARK minimizedRMSD -1
REMARK  0 active torsions:
REMARK  status: ('A' for Active; 'I' for Inactive)
ROOT
ATOM      1  C   UNL d   1       1.494  -1.207  -2.192  0.00  0.00     0.077 C 
ATOM      2  C1  UNL d   1       1.762  -1.477  -0.741  0.00  0.00    -0.074 A 
ATOM      3  C2  UNL d   1       3.006  -1.955  -0.316  0.00  0.00    -0.005 A 
ATOM      4  C3  UNL d   1       3.243  -2.193   1.038  0.00  0.00     0.006 A 
ATOM      5  C4  UNL d   1       2.240  -1.955   1.979  0.00  0.00    -0.005 A 
ATOM      6  C5  UNL d   1       0.991  -1.477   1.573  0.00  0.00    -0.074 A 
ATOM      7  C6  UNL d   1      -0.095  -1.207   2.573  0.00  0.00     0.077 C 
ATOM      8  C7  UNL d   1       0.762  -1.234   0.212  0.00  0.00    -0.001 A 
ENDROOT
TORSDOF 0
ENDMDL
