MODEL 1
REMARK minimizedAffinity 1.86303079
REMARK minimizedRMSD -1
REMARK  0 active torsions:
REMARK  status: ('A' for Active; 'I' for Inactive)
ROOT
ATOM      1  C   UNL d   1      -0.820  -0.342   2.993  0.00  0.00     0.077 C 
ATOM      2  C1  UNL d   1      -0.053  -0.774   1.779  0.00  0.00    -0.074 A 
ATOM      3  C2  UNL d   1      -0.582  -0.603   0.496  0.00  0.00    -0.005 A 
ATOM      4  C3  UNL d   1       0.147  -1.001  -0.624  0.00  0.00     0.006 A 
ATOM      5  C4  UNL d   1       1.411  -1.573  -0.473  0.00  0.00    -0.005 A 
ATOM      6  C5  UNL d   1       1.957  -1.752   0.802  0.00  0.00    -0.074 A 
ATOM      7  C6  UNL d   1       3.317  -2.356   0.982  0.00  0.00     0.077 C 
ATOM      8  C7  UNL d   1       1.220  -1.343   1.922  0.00  0.00    -0.001 A 
ENDROOT
TORSDOF 0
ENDMDL
