MODEL 1
REMARK minimizedAffinity 6.33843851
REMARK minimizedRMSD -1
REMARK  0 active torsions:
REMARK  status: ('A' for Active; 'I' for Inactive)
ROOT
ATOM      1  C   UNL d   1       3.101  -1.973   2.005  0.00  0.00     0.077 C 
ATOM      2  C1  UNL d   1       1.712  -1.589   2.423  0.00  0.00    -0.074 A 
ATOM      3  C2  UNL d   1       1.433  -0.304   2.899  0.00  0.00    -0.005 A 
ATOM      4  C3  UNL d   1       0.135   0.040   3.274  0.00  0.00     0.006 A 
ATOM      5  C4  UNL d   1      -0.896  -0.895   3.177  0.00  0.00    -0.005 A 
ATOM      6  C5  UNL d   1      -0.636  -2.184   2.702  0.00  0.00    -0.074 A 
ATOM      7  C6  UNL d   1      -1.735  -3.199   2.582  0.00  0.00     0.077 C 
ATOM      8  C7  UNL d   1       0.669  -2.521   2.321  0.00  0.00    -0.001 A 
ENDROOT
TORSDOF 0
ENDMDL
