MODEL 1
REMARK minimizedAffinity 4.51519871
REMARK minimizedRMSD -1
REMARK  0 active torsions:
REMARK  status: ('A' for Active; 'I' for Inactive)
ROOT
ATOM      1  C   UNL d   1       2.064   2.570  -0.052  0.00  0.00     0.077 C 
ATOM      2  C1  UNL d   1       1.885   1.084  -0.143  0.00  0.00    -0.074 A 
ATOM      3  C2  UNL d   1       1.164   0.510  -1.196  0.00  0.00    -0.005 A 
ATOM      4  C3  UNL d   1       1.013  -0.874  -1.273  0.00  0.00     0.006 A 
ATOM      5  C4  UNL d   1       1.581  -1.698  -0.300  0.00  0.00    -0.005 A 
ATOM      6  C5  UNL d   1       2.306  -1.143   0.759  0.00  0.00    -0.074 A 
ATOM      7  C6  UNL d   1       2.931  -2.014   1.808  0.00  0.00     0.077 C 
ATOM      8  C7  UNL d   1       2.459   0.249   0.826  0.00  0.00    -0.001 A 
ENDROOT
TORSDOF 0
ENDMDL
