MODEL 1
REMARK minimizedAffinity -3.4295156
REMARK minimizedRMSD -1
REMARK  0 active torsions:
REMARK  status: ('A' for Active; 'I' for Inactive)
ROOT
ATOM      1  C   UNL d   1      -3.054  -1.588   4.168  0.00  0.00     0.077 C 
ATOM      2  C1  UNL d   1      -2.448  -0.409   3.467  0.00  0.00    -0.074 A 
ATOM      3  C2  UNL d   1      -1.699   0.539   4.172  0.00  0.00    -0.005 A 
ATOM      4  C3  UNL d   1      -1.134   1.626   3.505  0.00  0.00     0.006 A 
ATOM      5  C4  UNL d   1      -1.311   1.776   2.129  0.00  0.00    -0.005 A 
ATOM      6  C5  UNL d   1      -2.056   0.838   1.407  0.00  0.00    -0.074 A 
ATOM      7  C6  UNL d   1      -2.249   0.978  -0.073  0.00  0.00     0.077 C 
ATOM      8  C7  UNL d   1      -2.616  -0.256   2.083  0.00  0.00    -0.001 A 
ENDROOT
TORSDOF 0
ENDMDL
