MODEL 1
REMARK minimizedAffinity -5.61940241
REMARK minimizedRMSD -1
REMARK  0 active torsions:
REMARK  status: ('A' for Active; 'I' for Inactive)
ROOT
ATOM      1  C   UNL d   1      -4.485  -1.695   2.979  0.00  0.00     0.077 C 
ATOM      2  C1  UNL d   1      -3.487  -0.591   2.794  0.00  0.00    -0.074 A 
ATOM      3  C2  UNL d   1      -3.155   0.263   3.851  0.00  0.00    -0.005 A 
ATOM      4  C3  UNL d   1      -2.218   1.279   3.666  0.00  0.00     0.006 A 
ATOM      5  C4  UNL d   1      -1.606   1.453   2.424  0.00  0.00    -0.005 A 
ATOM      6  C5  UNL d   1      -1.925   0.609   1.356  0.00  0.00    -0.074 A 
ATOM      7  C6  UNL d   1      -1.268   0.775   0.018  0.00  0.00     0.077 C 
ATOM      8  C7  UNL d   1      -2.862  -0.415   1.551  0.00  0.00    -0.001 A 
ENDROOT
TORSDOF 0
ENDMDL
