MODEL 1
REMARK minimizedAffinity -3.73010206
REMARK minimizedRMSD -1
REMARK  0 active torsions:
REMARK  status: ('A' for Active; 'I' for Inactive)
ROOT
ATOM      1  C   UNL d   1      -5.624  -3.530   3.196  0.00  0.00     0.077 C 
ATOM      2  C1  UNL d   1      -4.715  -2.385   3.531  0.00  0.00    -0.074 A 
ATOM      3  C2  UNL d   1      -4.574  -1.941   4.850  0.00  0.00    -0.005 A 
ATOM      4  C3  UNL d   1      -3.717  -0.881   5.147  0.00  0.00     0.006 A 
ATOM      5  C4  UNL d   1      -2.995  -0.255   4.131  0.00  0.00    -0.005 A 
ATOM      6  C5  UNL d   1      -3.123  -0.685   2.806  0.00  0.00    -0.074 A 
ATOM      7  C6  UNL d   1      -2.346  -0.029   1.704  0.00  0.00     0.077 C 
ATOM      8  C7  UNL d   1      -3.980  -1.755   2.516  0.00  0.00    -0.001 A 
ENDROOT
TORSDOF 0
ENDMDL
