MODEL 1
REMARK minimizedAffinity -1.92623937
REMARK minimizedRMSD -1
REMARK  0 active torsions:
REMARK  status: ('A' for Active; 'I' for Inactive)
ROOT
ATOM      1  C   UNL d   1      -0.196  -1.846   0.018  0.00  0.00     0.077 C 
ATOM      2  C1  UNL d   1       0.785  -0.957  -0.685  0.00  0.00    -0.074 A 
ATOM      3  C2  UNL d   1       2.053  -1.427  -1.044  0.00  0.00    -0.005 A 
ATOM      4  C3  UNL d   1       2.951  -0.591  -1.706  0.00  0.00     0.006 A 
ATOM      5  C4  UNL d   1       2.593   0.722  -2.016  0.00  0.00    -0.005 A 
ATOM      6  C5  UNL d   1       1.329   1.209  -1.666  0.00  0.00    -0.074 A 
ATOM      7  C6  UNL d   1       0.924   2.614  -2.001  0.00  0.00     0.077 C 
ATOM      8  C7  UNL d   1       0.429   0.361  -1.007  0.00  0.00    -0.001 A 
ENDROOT
TORSDOF 0
ENDMDL
