MODEL 1
REMARK minimizedAffinity -3.31788707
REMARK minimizedRMSD -1
REMARK  0 active torsions:
REMARK  status: ('A' for Active; 'I' for Inactive)
ROOT
ATOM      1  C   UNL d   1      -1.133   0.268  -0.136  0.00  0.00     0.077 C 
ATOM      2  C1  UNL d   1      -1.520   0.393   1.308  0.00  0.00    -0.074 A 
ATOM      3  C2  UNL d   1      -1.188   1.536   2.044  0.00  0.00    -0.005 A 
ATOM      4  C3  UNL d   1      -1.563   1.643   3.383  0.00  0.00     0.006 A 
ATOM      5  C4  UNL d   1      -2.272   0.610   3.999  0.00  0.00    -0.005 A 
ATOM      6  C5  UNL d   1      -2.613  -0.539   3.279  0.00  0.00    -0.074 A 
ATOM      7  C6  UNL d   1      -3.383  -1.653   3.922  0.00  0.00     0.077 C 
ATOM      8  C7  UNL d   1      -2.239  -0.636   1.931  0.00  0.00    -0.001 A 
ENDROOT
TORSDOF 0
ENDMDL
