MODEL 1
REMARK minimizedAffinity -3.46641278
REMARK minimizedRMSD -1
REMARK  0 active torsions:
REMARK  status: ('A' for Active; 'I' for Inactive)
ROOT
ATOM      1  C   UNL d   1      -1.498   1.045   0.386  0.00  0.00     0.077 C 
ATOM      2  C1  UNL d   1      -0.241   0.488  -0.213  0.00  0.00    -0.074 A 
ATOM      3  C2  UNL d   1       0.834   1.324  -0.534  0.00  0.00    -0.005 A 
ATOM      4  C3  UNL d   1       2.000   0.790  -1.082  0.00  0.00     0.006 A 
ATOM      5  C4  UNL d   1       2.103  -0.582  -1.314  0.00  0.00    -0.005 A 
ATOM      6  C5  UNL d   1       1.039  -1.433  -0.999  0.00  0.00    -0.074 A 
ATOM      7  C6  UNL d   1       1.138  -2.911  -1.234  0.00  0.00     0.077 C 
ATOM      8  C7  UNL d   1      -0.127  -0.890  -0.443  0.00  0.00    -0.001 A 
ENDROOT
TORSDOF 0
ENDMDL
