MODEL 1
REMARK minimizedAffinity -0.550167501
REMARK minimizedRMSD -1
REMARK  0 active torsions:
REMARK  status: ('A' for Active; 'I' for Inactive)
ROOT
ATOM      1  C   UNL d   1      -0.009  -3.200  -2.331  0.00  0.00     0.077 C 
ATOM      2  C1  UNL d   1       1.018  -3.023  -1.252  0.00  0.00    -0.074 A 
ATOM      3  C2  UNL d   1       1.138  -3.954  -0.215  0.00  0.00    -0.005 A 
ATOM      4  C3  UNL d   1       2.104  -3.781   0.776  0.00  0.00     0.006 A 
ATOM      5  C4  UNL d   1       2.958  -2.679   0.741  0.00  0.00    -0.005 A 
ATOM      6  C5  UNL d   1       2.854  -1.739  -0.289  0.00  0.00    -0.074 A 
ATOM      7  C6  UNL d   1       3.771  -0.553  -0.348  0.00  0.00     0.077 C 
ATOM      8  C7  UNL d   1       1.885  -1.923  -1.286  0.00  0.00    -0.001 A 
ENDROOT
TORSDOF 0
ENDMDL
