MODEL 1
REMARK minimizedAffinity 2.89795876
REMARK minimizedRMSD -1
REMARK  0 active torsions:
REMARK  status: ('A' for Active; 'I' for Inactive)
ROOT
ATOM      1  C   UNL d   1      -3.720  -2.445   4.351  0.00  0.00     0.077 C 
ATOM      2  C1  UNL d   1      -3.141  -1.249   3.656  0.00  0.00    -0.074 A 
ATOM      3  C2  UNL d   1      -3.244   0.029   4.216  0.00  0.00    -0.005 A 
ATOM      4  C3  UNL d   1      -2.693   1.130   3.563  0.00  0.00     0.006 A 
ATOM      5  C4  UNL d   1      -2.034   0.967   2.344  0.00  0.00    -0.005 A 
ATOM      6  C5  UNL d   1      -1.920  -0.303   1.768  0.00  0.00    -0.074 A 
ATOM      7  C6  UNL d   1      -1.206  -0.498   0.463  0.00  0.00     0.077 C 
ATOM      8  C7  UNL d   1      -2.471  -1.406   2.435  0.00  0.00    -0.001 A 
ENDROOT
TORSDOF 0
ENDMDL
