MODEL 1
REMARK minimizedAffinity -0.596489191
REMARK minimizedRMSD -1
REMARK  0 active torsions:
REMARK  status: ('A' for Active; 'I' for Inactive)
ROOT
ATOM      1  C   UNL d   1      -3.767   1.468   3.998  0.00  0.00     0.077 C 
ATOM      2  C1  UNL d   1      -3.072   1.786   2.707  0.00  0.00    -0.074 A 
ATOM      3  C2  UNL d   1      -2.215   2.886   2.604  0.00  0.00    -0.005 A 
ATOM      4  C3  UNL d   1      -1.569   3.163   1.399  0.00  0.00     0.006 A 
ATOM      5  C4  UNL d   1      -1.772   2.344   0.288  0.00  0.00    -0.005 A 
ATOM      6  C5  UNL d   1      -2.625   1.239   0.373  0.00  0.00    -0.074 A 
ATOM      7  C6  UNL d   1      -2.847   0.343  -0.809  0.00  0.00     0.077 C 
ATOM      8  C7  UNL d   1      -3.266   0.963   1.588  0.00  0.00    -0.001 A 
ENDROOT
TORSDOF 0
ENDMDL
