MODEL 1
REMARK minimizedAffinity -1.4124136
REMARK minimizedRMSD -1
REMARK  0 active torsions:
REMARK  status: ('A' for Active; 'I' for Inactive)
ROOT
ATOM      1  C   UNL d   1       2.826  -0.560  -2.910  0.00  0.00     0.077 C 
ATOM      2  C1  UNL d   1       1.698   0.210  -2.292  0.00  0.00    -0.074 A 
ATOM      3  C2  UNL d   1       1.354   1.482  -2.761  0.00  0.00    -0.005 A 
ATOM      4  C3  UNL d   1       0.296   2.183  -2.182  0.00  0.00     0.006 A 
ATOM      5  C4  UNL d   1      -0.427   1.620  -1.130  0.00  0.00    -0.005 A 
ATOM      6  C5  UNL d   1      -0.099   0.349  -0.648  0.00  0.00    -0.074 A 
ATOM      7  C6  UNL d   1      -0.873  -0.275   0.475  0.00  0.00     0.077 C 
ATOM      8  C7  UNL d   1       0.961  -0.352  -1.240  0.00  0.00    -0.001 A 
ENDROOT
TORSDOF 0
ENDMDL
