MODEL 1
REMARK minimizedAffinity -1.73930812
REMARK minimizedRMSD -1
REMARK  0 active torsions:
REMARK  status: ('A' for Active; 'I' for Inactive)
ROOT
ATOM      1  C   UNL d   1      -2.536  -1.282   4.377  0.00  0.00     0.077 C 
ATOM      2  C1  UNL d   1      -2.184  -0.067   3.571  0.00  0.00    -0.074 A 
ATOM      3  C2  UNL d   1      -2.051   1.186   4.180  0.00  0.00    -0.005 A 
ATOM      4  C3  UNL d   1      -1.714   2.305   3.418  0.00  0.00     0.006 A 
ATOM      5  C4  UNL d   1      -1.507   2.183   2.044  0.00  0.00    -0.005 A 
ATOM      6  C5  UNL d   1      -1.634   0.939   1.419  0.00  0.00    -0.074 A 
ATOM      7  C6  UNL d   1      -1.405   0.789  -0.056  0.00  0.00     0.077 C 
ATOM      8  C7  UNL d   1      -1.966  -0.182   2.191  0.00  0.00    -0.001 A 
ENDROOT
TORSDOF 0
ENDMDL
