MODEL 1
REMARK minimizedAffinity -2.21508408
REMARK minimizedRMSD -1
REMARK  0 active torsions:
REMARK  status: ('A' for Active; 'I' for Inactive)
ROOT
ATOM      1  C   UNL d   1      -0.587   2.712  -1.518  0.00  0.00     0.077 C 
ATOM      2  C1  UNL d   1      -0.373   1.372  -0.879  0.00  0.00    -0.074 A 
ATOM      3  C2  UNL d   1      -1.062   1.012   0.283  0.00  0.00    -0.005 A 
ATOM      4  C3  UNL d   1      -0.860  -0.242   0.861  0.00  0.00     0.006 A 
ATOM      5  C4  UNL d   1       0.032  -1.146   0.282  0.00  0.00    -0.005 A 
ATOM      6  C5  UNL d   1       0.729  -0.803  -0.880  0.00  0.00    -0.074 A 
ATOM      7  C6  UNL d   1       1.684  -1.767  -1.520  0.00  0.00     0.077 C 
ATOM      8  C7  UNL d   1       0.515   0.455  -1.458  0.00  0.00    -0.001 A 
ENDROOT
TORSDOF 0
ENDMDL
