MODEL 1
REMARK minimizedAffinity -3.82509899
REMARK minimizedRMSD -1
REMARK  0 active torsions:
REMARK  status: ('A' for Active; 'I' for Inactive)
ROOT
ATOM      1  C   UNL d   1       2.399  -0.673  -0.879  0.00  0.00     0.077 C 
ATOM      2  C1  UNL d   1       1.145   0.136  -0.729  0.00  0.00    -0.074 A 
ATOM      3  C2  UNL d   1       0.849   1.175  -1.617  0.00  0.00    -0.005 A 
ATOM      4  C3  UNL d   1      -0.327   1.911  -1.471  0.00  0.00     0.006 A 
ATOM      5  C4  UNL d   1      -1.216   1.617  -0.437  0.00  0.00    -0.005 A 
ATOM      6  C5  UNL d   1      -0.937   0.581   0.460  0.00  0.00    -0.074 A 
ATOM      7  C6  UNL d   1      -1.887   0.245   1.571  0.00  0.00     0.077 C 
ATOM      8  C7  UNL d   1       0.242  -0.159   0.302  0.00  0.00    -0.001 A 
ENDROOT
TORSDOF 0
ENDMDL
