MODEL 1
REMARK minimizedAffinity -3.8204565
REMARK minimizedRMSD -1
REMARK  0 active torsions:
REMARK  status: ('A' for Active; 'I' for Inactive)
ROOT
ATOM      1  C   UNL d   1       3.399   0.015  -1.755  0.00  0.00     0.077 C 
ATOM      2  C1  UNL d   1       2.048  -0.378  -1.236  0.00  0.00    -0.074 A 
ATOM      3  C2  UNL d   1       1.714  -1.723  -1.047  0.00  0.00    -0.005 A 
ATOM      4  C3  UNL d   1       0.456  -2.072  -0.555  0.00  0.00     0.006 A 
ATOM      5  C4  UNL d   1      -0.478  -1.082  -0.248  0.00  0.00    -0.005 A 
ATOM      6  C5  UNL d   1      -0.161   0.268  -0.430  0.00  0.00    -0.074 A 
ATOM      7  C6  UNL d   1      -1.150   1.345  -0.095  0.00  0.00     0.077 C 
ATOM      8  C7  UNL d   1       1.107   0.611  -0.918  0.00  0.00    -0.001 A 
ENDROOT
TORSDOF 0
ENDMDL
