MODEL 1
REMARK minimizedAffinity -0.0305262152
REMARK minimizedRMSD -1
REMARK  0 active torsions:
REMARK  status: ('A' for Active; 'I' for Inactive)
ROOT
ATOM      1  C   UNL d   1       1.921   1.612  -2.464  0.00  0.00     0.077 C 
ATOM      2  C1  UNL d   1       1.888   0.244  -1.850  0.00  0.00    -0.074 A 
ATOM      3  C2  UNL d   1       2.985  -0.251  -1.138  0.00  0.00    -0.005 A 
ATOM      4  C3  UNL d   1       2.937  -1.521  -0.564  0.00  0.00     0.006 A 
ATOM      5  C4  UNL d   1       1.792  -2.308  -0.696  0.00  0.00    -0.005 A 
ATOM      6  C5  UNL d   1       0.685  -1.830  -1.404  0.00  0.00    -0.074 A 
ATOM      7  C6  UNL d   1      -0.557  -2.659  -1.547  0.00  0.00     0.077 C 
ATOM      8  C7  UNL d   1       0.739  -0.550  -1.971  0.00  0.00    -0.001 A 
ENDROOT
TORSDOF 0
ENDMDL
