MODEL 1
REMARK minimizedAffinity -2.75149179
REMARK minimizedRMSD -1
REMARK  0 active torsions:
REMARK  status: ('A' for Active; 'I' for Inactive)
ROOT
ATOM      1  C2' OXE d   1       2.228   1.556  -3.268  0.00  0.00     0.078 C 
ATOM      2  C1' OXE d   1       0.447   0.026  -1.729  0.00  0.00     0.078 C 
ATOM      3  C1  OXE d   1       0.260   0.030  -3.226  0.00  0.00    -0.078 A 
ATOM      4  C2  OXE d   1       1.106   0.818  -3.967  0.00  0.00    -0.078 A 
ATOM      5  C3  OXE d   1       1.011   0.815  -5.356  0.00  0.00     0.003 A 
ATOM      6  C4  OXE d   1      -0.035   0.138  -5.993  0.00  0.00    -0.002 A 
ATOM      7  C5  OXE d   1      -0.933  -0.639  -5.254  0.00  0.00    -0.002 A 
ATOM      8  C6  OXE d   1      -0.774  -0.738  -3.876  0.00  0.00     0.003 A 
ENDROOT
TORSDOF 0
ENDMDL
