MODEL 1
REMARK minimizedAffinity -1.06591833
REMARK minimizedRMSD -1
REMARK  0 active torsions:
REMARK  status: ('A' for Active; 'I' for Inactive)
ROOT
ATOM      1  C2' OXE d   1       2.519   1.372  -3.078  0.00  0.00     0.078 C 
ATOM      2  C1' OXE d   1       0.904  -0.378  -1.591  0.00  0.00     0.078 C 
ATOM      3  C1  OXE d   1       0.592  -0.207  -3.057  0.00  0.00    -0.078 A 
ATOM      4  C2  OXE d   1       1.358   0.686  -3.766  0.00  0.00    -0.078 A 
ATOM      5  C3  OXE d   1       1.148   0.841  -5.134  0.00  0.00     0.003 A 
ATOM      6  C4  OXE d   1       0.066   0.211  -5.760  0.00  0.00    -0.002 A 
ATOM      7  C5  OXE d   1      -0.751  -0.672  -5.047  0.00  0.00    -0.002 A 
ATOM      8  C6  OXE d   1      -0.476  -0.925  -3.708  0.00  0.00     0.003 A 
ENDROOT
TORSDOF 0
ENDMDL
