MODEL 1
REMARK minimizedAffinity -1.26788127
REMARK minimizedRMSD -1
REMARK  0 active torsions:
REMARK  status: ('A' for Active; 'I' for Inactive)
ROOT
ATOM      1  C2' OXE d   1       2.453   0.453   3.404  0.00  0.00     0.078 C 
ATOM      2  C1' OXE d   1       0.049   1.739   2.737  0.00  0.00     0.078 C 
ATOM      3  C1  OXE d   1       0.640   0.786   1.728  0.00  0.00    -0.078 A 
ATOM      4  C2  OXE d   1       1.841   0.197   2.043  0.00  0.00    -0.078 A 
ATOM      5  C3  OXE d   1       2.403  -0.731   1.172  0.00  0.00     0.003 A 
ATOM      6  C4  OXE d   1       1.836  -0.955  -0.088  0.00  0.00    -0.002 A 
ATOM      7  C5  OXE d   1       0.634  -0.335  -0.446  0.00  0.00    -0.002 A 
ATOM      8  C6  OXE d   1       0.002   0.504   0.466  0.00  0.00     0.003 A 
ENDROOT
TORSDOF 0
ENDMDL
