MODEL 1
REMARK minimizedAffinity -1.507249
REMARK minimizedRMSD -1
REMARK  0 active torsions:
REMARK  status: ('A' for Active; 'I' for Inactive)
ROOT
ATOM      1  C2' OXE d   1       0.941  -0.144  -0.460  0.00  0.00     0.078 C 
ATOM      2  C1' OXE d   1      -1.551  -1.358  -0.017  0.00  0.00     0.078 C 
ATOM      3  C1  OXE d   1      -1.108  -0.288   0.949  0.00  0.00    -0.078 A 
ATOM      4  C2  OXE d   1       0.133   0.268   0.752  0.00  0.00    -0.078 A 
ATOM      5  C3  OXE d   1       0.567   1.298   1.582  0.00  0.00     0.003 A 
ATOM      6  C4  OXE d   1      -0.182   1.665   2.706  0.00  0.00    -0.002 A 
ATOM      7  C5  OXE d   1      -1.431   1.083   2.948  0.00  0.00    -0.002 A 
ATOM      8  C6  OXE d   1      -1.926   0.137   2.058  0.00  0.00     0.003 A 
ENDROOT
TORSDOF 0
ENDMDL
