MODEL 1
REMARK minimizedAffinity -3.15517926
REMARK minimizedRMSD -1
REMARK  0 active torsions:
REMARK  status: ('A' for Active; 'I' for Inactive)
ROOT
ATOM      1  C2' OXE d   1       2.267   1.170  -3.736  0.00  0.00     0.078 C 
ATOM      2  C1' OXE d   1       1.113  -0.285  -1.631  0.00  0.00     0.078 C 
ATOM      3  C1  OXE d   1       0.427  -0.327  -2.973  0.00  0.00    -0.078 A 
ATOM      4  C2  OXE d   1       0.973   0.426  -3.986  0.00  0.00    -0.078 A 
ATOM      5  C3  OXE d   1       0.411   0.380  -5.258  0.00  0.00     0.003 A 
ATOM      6  C4  OXE d   1      -0.792  -0.303  -5.478  0.00  0.00    -0.002 A 
ATOM      7  C5  OXE d   1      -1.386  -1.043  -4.450  0.00  0.00    -0.002 A 
ATOM      8  C6  OXE d   1      -0.768  -1.100  -3.206  0.00  0.00     0.003 A 
ENDROOT
TORSDOF 0
ENDMDL
