MODEL 1
REMARK minimizedAffinity 2.21514249
REMARK minimizedRMSD -1
REMARK  0 active torsions:
REMARK  status: ('A' for Active; 'I' for Inactive)
ROOT
ATOM      1  C2' OXE d   1       2.143   1.482  -3.747  0.00  0.00     0.078 C 
ATOM      2  C1' OXE d   1       0.311   0.546  -1.838  0.00  0.00     0.078 C 
ATOM      3  C1  OXE d   1       0.031   0.243  -3.288  0.00  0.00    -0.078 A 
ATOM      4  C2  OXE d   1       0.908   0.745  -4.220  0.00  0.00    -0.078 A 
ATOM      5  C3  OXE d   1       0.726   0.449  -5.567  0.00  0.00     0.003 A 
ATOM      6  C4  OXE d   1      -0.424  -0.224  -5.997  0.00  0.00    -0.002 A 
ATOM      7  C5  OXE d   1      -1.351  -0.709  -5.068  0.00  0.00    -0.002 A 
ATOM      8  C6  OXE d   1      -1.117  -0.522  -3.710  0.00  0.00     0.003 A 
ENDROOT
TORSDOF 0
ENDMDL
