MODEL 1
REMARK minimizedAffinity -2.58789301
REMARK minimizedRMSD -1
REMARK  0 active torsions:
REMARK  status: ('A' for Active; 'I' for Inactive)
ROOT
ATOM      1  C2' OXE d   1       2.319  -1.339   0.133  0.00  0.00     0.078 C 
ATOM      2  C1' OXE d   1       0.740  -0.046  -1.795  0.00  0.00     0.078 C 
ATOM      3  C1  OXE d   1       0.532   0.329  -0.349  0.00  0.00    -0.078 A 
ATOM      4  C2  OXE d   1       1.276  -0.342   0.592  0.00  0.00    -0.078 A 
ATOM      5  C3  OXE d   1       1.163   0.003   1.935  0.00  0.00     0.003 A 
ATOM      6  C4  OXE d   1       0.189   0.918   2.352  0.00  0.00    -0.002 A 
ATOM      7  C5  OXE d   1      -0.606   1.585   1.414  0.00  0.00    -0.002 A 
ATOM      8  C6  OXE d   1      -0.419   1.333   0.060  0.00  0.00     0.003 A 
ENDROOT
TORSDOF 0
ENDMDL
