MODEL 1
REMARK minimizedAffinity -4.96312094
REMARK minimizedRMSD -1
REMARK  3 active torsions:
REMARK  status: ('A' for Active; 'I' for Inactive)
REMARK    1  A    between atoms: C3'_2  and  C2'_3 
REMARK    2  A    between atoms: C2'_3  and  C1'_4 
REMARK    3  A    between atoms: C1'_4  and  C1_5 
ROOT
ATOM      1  C1  N4B d   1      -0.743   0.314   1.359  0.00  0.00    -0.075 A 
ATOM      2  C2  N4B d   1      -1.518   0.992   2.325  0.00  0.00     0.002 A 
ATOM      3  C3  N4B d   1      -1.117   1.010   3.638  0.00  0.00     0.002 A 
ATOM      4  C4  N4B d   1       0.041   0.343   4.010  0.00  0.00    -0.004 A 
ATOM      5  C5  N4B d   1       0.797  -0.288   3.067  0.00  0.00     0.002 A 
ATOM      6  C6  N4B d   1       0.408  -0.311   1.742  0.00  0.00     0.002 A 
ENDROOT
BRANCH   1   7
ATOM      7  C1' N4B d   1      -1.187   0.194  -0.074  0.00  0.00     0.057 C 
BRANCH   7   8
ATOM      8  C2' N4B d   1      -0.057   0.658  -0.988  0.00  0.00     0.009 C 
BRANCH   8   9
ATOM      9  C3' N4B d   1       0.456  -0.466  -1.873  0.00  0.00     0.004 C 
ATOM     10  C4' N4B d   1       0.796  -0.005  -3.259  0.00  0.00     0.003 C 
ENDBRANCH   8   9
ENDBRANCH   7   8
ENDBRANCH   1   7
TORSDOF 3
ENDMDL
