MODEL 1
REMARK minimizedAffinity -4.51891422
REMARK minimizedRMSD -1
REMARK  3 active torsions:
REMARK  status: ('A' for Active; 'I' for Inactive)
REMARK    1  A    between atoms: C3'_2  and  C2'_3 
REMARK    2  A    between atoms: C2'_3  and  C1'_4 
REMARK    3  A    between atoms: C1'_4  and  C1_5 
ROOT
ATOM      1  C1  N4B d   1      -0.299   0.359   0.525  0.00  0.00    -0.075 A 
ATOM      2  C2  N4B d   1       0.992  -0.052   0.922  0.00  0.00     0.002 A 
ATOM      3  C3  N4B d   1       1.373   0.057   2.237  0.00  0.00     0.002 A 
ATOM      4  C4  N4B d   1       0.491   0.589   3.165  0.00  0.00    -0.004 A 
ATOM      5  C5  N4B d   1      -0.764   0.960   2.778  0.00  0.00     0.002 A 
ATOM      6  C6  N4B d   1      -1.161   0.852   1.460  0.00  0.00     0.002 A 
ENDROOT
BRANCH   1   7
ATOM      7  C1' N4B d   1      -0.731   0.338  -0.916  0.00  0.00     0.057 C 
BRANCH   7   8
ATOM      8  C2' N4B d   1       0.462  -0.037  -1.791  0.00  0.00     0.009 C 
BRANCH   8   9
ATOM      9  C3' N4B d   1       0.038  -0.404  -3.202  0.00  0.00     0.004 C 
ATOM     10  C4' N4B d   1       0.931   0.190  -4.250  0.00  0.00     0.003 C 
ENDBRANCH   8   9
ENDBRANCH   7   8
ENDBRANCH   1   7
TORSDOF 3
ENDMDL
