MODEL 1
REMARK minimizedAffinity -4.29649448
REMARK minimizedRMSD -1
REMARK  3 active torsions:
REMARK  status: ('A' for Active; 'I' for Inactive)
REMARK    1  A    between atoms: C3'_2  and  C2'_3 
REMARK    2  A    between atoms: C2'_3  and  C1'_4 
REMARK    3  A    between atoms: C1'_4  and  C1_5 
ROOT
ATOM      1  C1  N4B d   1       0.690  -0.675  -1.842  0.00  0.00    -0.075 A 
ATOM      2  C2  N4B d   1       0.012  -1.119  -2.999  0.00  0.00     0.002 A 
ATOM      3  C3  N4B d   1       0.333  -0.593  -4.227  0.00  0.00     0.002 A 
ATOM      4  C4  N4B d   1       1.310   0.387  -4.319  0.00  0.00    -0.004 A 
ATOM      5  C5  N4B d   1       1.978   0.792  -3.200  0.00  0.00     0.002 A 
ATOM      6  C6  N4B d   1       1.668   0.269  -1.960  0.00  0.00     0.002 A 
ENDROOT
BRANCH   1   7
ATOM      7  C1' N4B d   1       0.314  -1.159  -0.468  0.00  0.00     0.057 C 
BRANCH   7   8
ATOM      8  C2' N4B d   1      -1.148  -0.816  -0.199  0.00  0.00     0.009 C 
BRANCH   8   9
ATOM      9  C3' N4B d   1      -1.309   0.584   0.368  0.00  0.00     0.004 C 
ATOM     10  C4' N4B d   1      -1.514   0.590   1.853  0.00  0.00     0.003 C 
ENDBRANCH   8   9
ENDBRANCH   7   8
ENDBRANCH   1   7
TORSDOF 3
ENDMDL
