MODEL 1
REMARK minimizedAffinity -2.3305707
REMARK minimizedRMSD -1
REMARK  3 active torsions:
REMARK  status: ('A' for Active; 'I' for Inactive)
REMARK    1  A    between atoms: C3'_2  and  C2'_3 
REMARK    2  A    between atoms: C2'_3  and  C1'_4 
REMARK    3  A    between atoms: C1'_4  and  C1_5 
ROOT
ATOM      1  C1  N4B d   1       0.878   0.151  -1.764  0.00  0.00    -0.075 A 
ATOM      2  C2  N4B d   1       1.159  -0.343  -3.056  0.00  0.00     0.002 A 
ATOM      3  C3  N4B d   1       1.412   0.531  -4.086  0.00  0.00     0.002 A 
ATOM      4  C4  N4B d   1       1.370   1.897  -3.851  0.00  0.00    -0.004 A 
ATOM      5  C5  N4B d   1       1.122   2.366  -2.594  0.00  0.00     0.002 A 
ATOM      6  C6  N4B d   1       0.871   1.499  -1.550  0.00  0.00     0.002 A 
ENDROOT
BRANCH   1   7
ATOM      7  C1' N4B d   1       0.511  -0.762  -0.627  0.00  0.00     0.057 C 
BRANCH   7   8
ATOM      8  C2' N4B d   1      -0.380  -0.007   0.355  0.00  0.00     0.009 C 
BRANCH   8   9
ATOM      9  C3' N4B d   1       0.188  -0.020   1.764  0.00  0.00     0.004 C 
ATOM     10  C4' N4B d   1       1.550  -0.643   1.835  0.00  0.00     0.003 C 
ENDBRANCH   8   9
ENDBRANCH   7   8
ENDBRANCH   1   7
TORSDOF 3
ENDMDL
