MODEL 1
REMARK minimizedAffinity 5.0988903
REMARK minimizedRMSD -1
REMARK  0 active torsions:
REMARK  status: ('A' for Active; 'I' for Inactive)
ROOT
ATOM      1  C1  DEN d   1       2.524  -5.997  -2.254  0.00  0.00     0.130 A 
ATOM      2  C2  DEN d   1       3.702  -5.954  -1.392  0.00  0.00    -0.031 A 
ATOM      3  C3  DEN d   1       4.897  -5.877  -2.256  0.00  0.00     0.027 A 
ATOM      4  C4  DEN d   1       5.036  -5.816  -4.831  0.00  0.00     0.027 A 
ATOM      5  C5  DEN d   1       4.302  -5.841  -5.996  0.00  0.00    -0.003 A 
ATOM      6  C6  DEN d   1       2.937  -5.954  -5.996  0.00  0.00     0.001 A 
ATOM      7  C7  DEN d   1       2.259  -5.999  -4.806  0.00  0.00     0.017 A 
ATOM      8  C8  DEN d   1       2.994  -5.982  -3.627  0.00  0.00    -0.094 A 
ATOM      9  C9  DEN d   1       4.372  -5.855  -3.648  0.00  0.00    -0.072 A 
ENDROOT
TORSDOF 0
ENDMDL
