MODEL 1
REMARK minimizedAffinity 6.11805725
REMARK minimizedRMSD -1
REMARK  0 active torsions:
REMARK  status: ('A' for Active; 'I' for Inactive)
ROOT
ATOM      1  C1  DEN d   1       2.665  -4.994   3.621  0.00  0.00     0.130 A 
ATOM      2  C2  DEN d   1       3.534  -4.529   4.698  0.00  0.00    -0.031 A 
ATOM      3  C3  DEN d   1       3.443  -3.056   4.754  0.00  0.00     0.027 A 
ATOM      4  C4  DEN d   1       2.044  -1.460   3.288  0.00  0.00     0.027 A 
ATOM      5  C5  DEN d   1       1.160  -1.388   2.235  0.00  0.00    -0.003 A 
ATOM      6  C6  DEN d   1       0.745  -2.501   1.553  0.00  0.00     0.001 A 
ATOM      7  C7  DEN d   1       1.180  -3.740   1.946  0.00  0.00     0.017 A 
ATOM      8  C8  DEN d   1       2.077  -3.819   3.003  0.00  0.00    -0.094 A 
ATOM      9  C9  DEN d   1       2.476  -2.683   3.687  0.00  0.00    -0.072 A 
ENDROOT
TORSDOF 0
ENDMDL
