MODEL 1
REMARK minimizedAffinity 6.52682734
REMARK minimizedRMSD -1
REMARK  0 active torsions:
REMARK  status: ('A' for Active; 'I' for Inactive)
ROOT
ATOM      1  C1  DEN d   1       5.402  -2.236   3.672  0.00  0.00     0.130 A 
ATOM      2  C2  DEN d   1       6.000  -2.455   4.987  0.00  0.00    -0.031 A 
ATOM      3  C3  DEN d   1       4.929  -2.356   5.998  0.00  0.00     0.027 A 
ATOM      4  C4  DEN d   1       2.414  -1.892   5.658  0.00  0.00     0.027 A 
ATOM      5  C5  DEN d   1       1.438  -1.628   4.723  0.00  0.00    -0.003 A 
ATOM      6  C6  DEN d   1       1.717  -1.516   3.387  0.00  0.00     0.001 A 
ATOM      7  C7  DEN d   1       2.998  -1.713   2.943  0.00  0.00     0.017 A 
ATOM      8  C8  DEN d   1       3.990  -1.972   3.880  0.00  0.00    -0.094 A 
ATOM      9  C9  DEN d   1       3.685  -2.093   5.225  0.00  0.00    -0.072 A 
ENDROOT
TORSDOF 0
ENDMDL
