MODEL 1
REMARK minimizedAffinity 7.31902266
REMARK minimizedRMSD -1
REMARK  0 active torsions:
REMARK  status: ('A' for Active; 'I' for Inactive)
ROOT
ATOM      1  C1  DEN d   1       2.222   2.007   2.343  0.00  0.00     0.130 A 
ATOM      2  C2  DEN d   1       2.673   2.114   0.958  0.00  0.00    -0.031 A 
ATOM      3  C3  DEN d   1       2.770   0.749   0.403  0.00  0.00     0.027 A 
ATOM      4  C4  DEN d   1       2.263  -1.507   1.545  0.00  0.00     0.027 A 
ATOM      5  C5  DEN d   1       1.862  -2.106   2.718  0.00  0.00    -0.003 A 
ATOM      6  C6  DEN d   1       1.588  -1.385   3.850  0.00  0.00     0.001 A 
ATOM      7  C7  DEN d   1       1.668  -0.018   3.819  0.00  0.00     0.017 A 
ATOM      8  C8  DEN d   1       2.079   0.593   2.641  0.00  0.00    -0.094 A 
ATOM      9  C9  DEN d   1       2.339  -0.153   1.505  0.00  0.00    -0.072 A 
ENDROOT
TORSDOF 0
ENDMDL
