MODEL 1
REMARK minimizedAffinity 14.6232615
REMARK minimizedRMSD -1
REMARK  0 active torsions:
REMARK  status: ('A' for Active; 'I' for Inactive)
ROOT
ATOM      1  C1  DEN d   1      -5.997   3.377   0.647  0.00  0.00     0.130 A 
ATOM      2  C2  DEN d   1      -4.917   3.566   1.611  0.00  0.00    -0.031 A 
ATOM      3  C3  DEN d   1      -3.641   3.268   0.932  0.00  0.00     0.027 A 
ATOM      4  C4  DEN d   1      -3.233   2.540  -1.509  0.00  0.00     0.027 A 
ATOM      5  C5  DEN d   1      -3.843   2.235  -2.706  0.00  0.00    -0.003 A 
ATOM      6  C6  DEN d   1      -5.204   2.255  -2.858  0.00  0.00     0.001 A 
ATOM      7  C7  DEN d   1      -5.999   2.633  -1.808  0.00  0.00     0.017 A 
ATOM      8  C8  DEN d   1      -5.392   2.935  -0.596  0.00  0.00    -0.094 A 
ATOM      9  C9  DEN d   1      -4.014   2.920  -0.466  0.00  0.00    -0.072 A 
ENDROOT
TORSDOF 0
ENDMDL
