MODEL 1
REMARK minimizedAffinity 15.127614
REMARK minimizedRMSD -1
REMARK  0 active torsions:
REMARK  status: ('A' for Active; 'I' for Inactive)
ROOT
ATOM      1  C1  DEN d   1      -5.936  -1.566  -2.448  0.00  0.00     0.130 A 
ATOM      2  C2  DEN d   1      -5.408  -2.922  -2.573  0.00  0.00    -0.031 A 
ATOM      3  C3  DEN d   1      -3.958  -2.824  -2.840  0.00  0.00     0.027 A 
ATOM      4  C4  DEN d   1      -2.488  -0.717  -3.066  0.00  0.00     0.027 A 
ATOM      5  C5  DEN d   1      -2.491   0.660  -3.050  0.00  0.00    -0.003 A 
ATOM      6  C6  DEN d   1      -3.637   1.386  -2.867  0.00  0.00     0.001 A 
ATOM      7  C7  DEN d   1      -4.824   0.738  -2.648  0.00  0.00     0.017 A 
ATOM      8  C8  DEN d   1      -4.831  -0.651  -2.671  0.00  0.00    -0.094 A 
ATOM      9  C9  DEN d   1      -3.659  -1.367  -2.845  0.00  0.00    -0.072 A 
ENDROOT
TORSDOF 0
ENDMDL
