MODEL 1
REMARK minimizedAffinity 1.12997949
REMARK minimizedRMSD -1
REMARK  0 active torsions:
REMARK  status: ('A' for Active; 'I' for Inactive)
ROOT
ATOM      1  C1  DEN d   1       1.840  -5.998  -4.116  0.00  0.00     0.130 A 
ATOM      2  C2  DEN d   1       2.099  -5.960  -5.553  0.00  0.00    -0.031 A 
ATOM      3  C3  DEN d   1       3.562  -5.944  -5.753  0.00  0.00     0.027 A 
ATOM      4  C4  DEN d   1       5.441  -5.979  -3.987  0.00  0.00     0.027 A 
ATOM      5  C5  DEN d   1       5.713  -6.000  -2.637  0.00  0.00    -0.003 A 
ATOM      6  C6  DEN d   1       4.721  -5.987  -1.693  0.00  0.00     0.001 A 
ATOM      7  C7  DEN d   1       3.409  -5.998  -2.086  0.00  0.00     0.017 A 
ATOM      8  C8  DEN d   1       3.127  -5.970  -3.446  0.00  0.00    -0.094 A 
ATOM      9  C9  DEN d   1       4.144  -5.996  -4.385  0.00  0.00    -0.072 A 
ENDROOT
TORSDOF 0
ENDMDL
