MODEL 1
REMARK minimizedAffinity 4.47829199
REMARK minimizedRMSD -1
REMARK  3 active torsions:
REMARK  status: ('A' for Active; 'I' for Inactive)
REMARK    1  A    between atoms: C3'_2  and  C2'_3 
REMARK    2  A    between atoms: C2'_3  and  C1'_4 
REMARK    3  A    between atoms: C1'_4  and  C1_5 
ROOT
ATOM      1  C1  N4B d   1       0.010   1.536  -3.280  0.00  0.00    -0.075 A 
ATOM      2  C2  N4B d   1      -1.064   2.374  -3.652  0.00  0.00     0.002 A 
ATOM      3  C3  N4B d   1      -2.257   1.825  -4.052  0.00  0.00     0.002 A 
ATOM      4  C4  N4B d   1      -2.393   0.446  -4.107  0.00  0.00    -0.004 A 
ATOM      5  C5  N4B d   1      -1.360  -0.357  -3.722  0.00  0.00     0.002 A 
ATOM      6  C6  N4B d   1      -0.156   0.181  -3.313  0.00  0.00     0.002 A 
ENDROOT
BRANCH   1   7
ATOM      7  C1' N4B d   1       1.361   2.089  -2.918  0.00  0.00     0.057 C 
BRANCH   7   8
ATOM      8  C2' N4B d   1       2.275   0.942  -2.497  0.00  0.00     0.009 C 
BRANCH   8   9
ATOM      9  C3' N4B d   1       3.000   0.329  -3.683  0.00  0.00     0.004 C 
ATOM     10  C4' N4B d   1       2.838  -1.160  -3.755  0.00  0.00     0.003 C 
ENDBRANCH   8   9
ENDBRANCH   7   8
ENDBRANCH   1   7
TORSDOF 3
ENDMDL
