MODEL 1
REMARK minimizedAffinity -0.852560341
REMARK minimizedRMSD -1
REMARK  3 active torsions:
REMARK  status: ('A' for Active; 'I' for Inactive)
REMARK    1  A    between atoms: C3'_2  and  C2'_3 
REMARK    2  A    between atoms: C2'_3  and  C1'_4 
REMARK    3  A    between atoms: C1'_4  and  C1_5 
ROOT
ATOM      1  C1  N4B d   1       1.032   0.519  -3.219  0.00  0.00    -0.075 A 
ATOM      2  C2  N4B d   1       0.509  -0.504  -4.040  0.00  0.00     0.002 A 
ATOM      3  C3  N4B d   1       1.334  -1.496  -4.509  0.00  0.00     0.002 A 
ATOM      4  C4  N4B d   1       2.683  -1.475  -4.188  0.00  0.00    -0.004 A 
ATOM      5  C5  N4B d   1       3.175  -0.498  -3.373  0.00  0.00     0.002 A 
ATOM      6  C6  N4B d   1       2.356   0.503  -2.891  0.00  0.00     0.002 A 
ENDROOT
BRANCH   1   7
ATOM      7  C1' N4B d   1       0.186   1.673  -2.752  0.00  0.00     0.057 C 
BRANCH   7   8
ATOM      8  C2' N4B d   1      -1.256   1.202  -2.588  0.00  0.00     0.009 C 
BRANCH   8   9
ATOM      9  C3' N4B d   1      -2.196   1.905  -3.553  0.00  0.00     0.004 C 
ATOM     10  C4' N4B d   1      -2.935   0.950  -4.443  0.00  0.00     0.003 C 
ENDBRANCH   8   9
ENDBRANCH   7   8
ENDBRANCH   1   7
TORSDOF 3
ENDMDL
