MODEL 1
REMARK minimizedAffinity -3.12659121
REMARK minimizedRMSD -1
REMARK  3 active torsions:
REMARK  status: ('A' for Active; 'I' for Inactive)
REMARK    1  A    between atoms: C3'_2  and  C2'_3 
REMARK    2  A    between atoms: C2'_3  and  C1'_4 
REMARK    3  A    between atoms: C1'_4  and  C1_5 
ROOT
ATOM      1  C1  N4B d   1       1.984  -0.888   1.847  0.00  0.00    -0.075 A 
ATOM      2  C2  N4B d   1       3.335  -0.912   2.256  0.00  0.00     0.002 A 
ATOM      3  C3  N4B d   1       4.176   0.118   1.908  0.00  0.00     0.002 A 
ATOM      4  C4  N4B d   1       3.694   1.167   1.141  0.00  0.00    -0.004 A 
ATOM      5  C5  N4B d   1       2.380   1.195   0.772  0.00  0.00     0.002 A 
ATOM      6  C6  N4B d   1       1.524   0.170   1.117  0.00  0.00     0.002 A 
ENDROOT
BRANCH   1   7
ATOM      7  C1' N4B d   1       1.048  -2.032   2.130  0.00  0.00     0.057 C 
BRANCH   7   8
ATOM      8  C2' N4B d   1       1.269  -3.127   1.091  0.00  0.00     0.009 C 
BRANCH   8   9
ATOM      9  C3' N4B d   1       0.614  -4.436   1.497  0.00  0.00     0.004 C 
ATOM     10  C4' N4B d   1       1.611  -5.501   1.845  0.00  0.00     0.003 C 
ENDBRANCH   8   9
ENDBRANCH   7   8
ENDBRANCH   1   7
TORSDOF 3
ENDMDL
