MODEL 1
REMARK minimizedAffinity 14.0932674
REMARK minimizedRMSD -1
REMARK  3 active torsions:
REMARK  status: ('A' for Active; 'I' for Inactive)
REMARK    1  A    between atoms: C3'_2  and  C2'_3 
REMARK    2  A    between atoms: C2'_3  and  C1'_4 
REMARK    3  A    between atoms: C1'_4  and  C1_5 
ROOT
ATOM      1  C1  N4B d   1       1.319  -5.359   1.751  0.00  0.00    -0.075 A 
ATOM      2  C2  N4B d   1       2.211  -5.905   0.801  0.00  0.00     0.002 A 
ATOM      3  C3  N4B d   1       3.377  -5.247   0.496  0.00  0.00     0.002 A 
ATOM      4  C4  N4B d   1       3.662  -4.037   1.110  0.00  0.00    -0.004 A 
ATOM      5  C5  N4B d   1       2.809  -3.529   2.045  0.00  0.00     0.002 A 
ATOM      6  C6  N4B d   1       1.635  -4.182   2.365  0.00  0.00     0.002 A 
ENDROOT
BRANCH   1   7
ATOM      7  C1' N4B d   1      -0.008  -5.999   2.054  0.00  0.00     0.057 C 
BRANCH   7   8
ATOM      8  C2' N4B d   1      -0.869  -5.988   0.795  0.00  0.00     0.009 C 
BRANCH   8   9
ATOM      9  C3' N4B d   1      -2.222  -5.343   1.037  0.00  0.00     0.004 C 
ATOM     10  C4' N4B d   1      -2.328  -3.971   0.439  0.00  0.00     0.003 C 
ENDBRANCH   8   9
ENDBRANCH   7   8
ENDBRANCH   1   7
TORSDOF 3
ENDMDL
