MODEL 1
REMARK minimizedAffinity 1.94210637
REMARK minimizedRMSD -1
REMARK  3 active torsions:
REMARK  status: ('A' for Active; 'I' for Inactive)
REMARK    1  A    between atoms: C3'_2  and  C2'_3 
REMARK    2  A    between atoms: C2'_3  and  C1'_4 
REMARK    3  A    between atoms: C1'_4  and  C1_5 
ROOT
ATOM      1  C1  N4B d   1      -0.499   1.545  -3.408  0.00  0.00    -0.075 A 
ATOM      2  C2  N4B d   1      -1.096   1.614  -4.686  0.00  0.00     0.002 A 
ATOM      3  C3  N4B d   1      -2.280   0.961  -4.927  0.00  0.00     0.002 A 
ATOM      4  C4  N4B d   1      -2.874   0.222  -3.915  0.00  0.00    -0.004 A 
ATOM      5  C5  N4B d   1      -2.304   0.181  -2.676  0.00  0.00     0.002 A 
ATOM      6  C6  N4B d   1      -1.116   0.836  -2.419  0.00  0.00     0.002 A 
ENDROOT
BRANCH   1   7
ATOM      7  C1' N4B d   1       0.838   2.171  -3.121  0.00  0.00     0.057 C 
BRANCH   7   8
ATOM      8  C2' N4B d   1       1.781   1.107  -2.567  0.00  0.00     0.009 C 
BRANCH   8   9
ATOM      9  C3' N4B d   1       1.914  -0.079  -3.507  0.00  0.00     0.004 C 
ATOM     10  C4' N4B d   1       3.342  -0.454  -3.770  0.00  0.00     0.003 C 
ENDBRANCH   8   9
ENDBRANCH   7   8
ENDBRANCH   1   7
TORSDOF 3
ENDMDL
