MODEL 1
REMARK minimizedAffinity 8.34216785
REMARK minimizedRMSD -1
REMARK  3 active torsions:
REMARK  status: ('A' for Active; 'I' for Inactive)
REMARK    1  A    between atoms: C3'_2  and  C2'_3 
REMARK    2  A    between atoms: C2'_3  and  C1'_4 
REMARK    3  A    between atoms: C1'_4  and  C1_5 
ROOT
ATOM      1  C1  N4B d   1      -2.403   0.840  -0.133  0.00  0.00    -0.075 A 
ATOM      2  C2  N4B d   1      -1.304   1.259   0.649  0.00  0.00     0.002 A 
ATOM      3  C3  N4B d   1      -1.512   1.778   1.903  0.00  0.00     0.002 A 
ATOM      4  C4  N4B d   1      -2.806   1.906   2.387  0.00  0.00    -0.004 A 
ATOM      5  C5  N4B d   1      -3.860   1.475   1.636  0.00  0.00     0.002 A 
ATOM      6  C6  N4B d   1      -3.665   0.947   0.375  0.00  0.00     0.002 A 
ENDROOT
BRANCH   1   7
ATOM      7  C1' N4B d   1      -2.232   0.345  -1.543  0.00  0.00     0.057 C 
BRANCH   7   8
ATOM      8  C2' N4B d   1      -1.327   1.308  -2.305  0.00  0.00     0.009 C 
BRANCH   8   9
ATOM      9  C3' N4B d   1      -2.104   2.140  -3.312  0.00  0.00     0.004 C 
ATOM     10  C4' N4B d   1      -2.697   1.314  -4.414  0.00  0.00     0.003 C 
ENDBRANCH   8   9
ENDBRANCH   7   8
ENDBRANCH   1   7
TORSDOF 3
ENDMDL
