MODEL 1
REMARK minimizedAffinity 7.55461931
REMARK minimizedRMSD -1
REMARK  3 active torsions:
REMARK  status: ('A' for Active; 'I' for Inactive)
REMARK    1  A    between atoms: C3'_2  and  C2'_3 
REMARK    2  A    between atoms: C2'_3  and  C1'_4 
REMARK    3  A    between atoms: C1'_4  and  C1_5 
ROOT
ATOM      1  C1  N4B d   1       2.635   0.395  -1.706  0.00  0.00    -0.075 A 
ATOM      2  C2  N4B d   1       3.758   0.633  -2.529  0.00  0.00     0.002 A 
ATOM      3  C3  N4B d   1       3.971  -0.145  -3.641  0.00  0.00     0.002 A 
ATOM      4  C4  N4B d   1       3.089  -1.172  -3.939  0.00  0.00    -0.004 A 
ATOM      5  C5  N4B d   1       1.992  -1.378  -3.154  0.00  0.00     0.002 A 
ATOM      6  C6  N4B d   1       1.764  -0.603  -2.035  0.00  0.00     0.002 A 
ENDROOT
BRANCH   1   7
ATOM      7  C1' N4B d   1       2.407   1.163  -0.433  0.00  0.00     0.057 C 
BRANCH   7   8
ATOM      8  C2' N4B d   1       3.663   1.086   0.430  0.00  0.00     0.009 C 
BRANCH   8   9
ATOM      9  C3' N4B d   1       3.342   0.714   1.868  0.00  0.00     0.004 C 
ATOM     10  C4' N4B d   1       4.336  -0.243   2.456  0.00  0.00     0.003 C 
ENDBRANCH   8   9
ENDBRANCH   7   8
ENDBRANCH   1   7
TORSDOF 3
ENDMDL
