MODEL 1
REMARK minimizedAffinity 4.9286747
REMARK minimizedRMSD -1
REMARK  3 active torsions:
REMARK  status: ('A' for Active; 'I' for Inactive)
REMARK    1  A    between atoms: C3'_2  and  C2'_3 
REMARK    2  A    between atoms: C2'_3  and  C1'_4 
REMARK    3  A    between atoms: C1'_4  and  C1_5 
ROOT
ATOM      1  C1  N4B d   1      -1.497   0.931  -1.670  0.00  0.00    -0.075 A 
ATOM      2  C2  N4B d   1      -2.610   0.154  -2.062  0.00  0.00     0.002 A 
ATOM      3  C3  N4B d   1      -3.266   0.437  -3.235  0.00  0.00     0.002 A 
ATOM      4  C4  N4B d   1      -2.841   1.499  -4.019  0.00  0.00    -0.004 A 
ATOM      5  C5  N4B d   1      -1.751   2.229  -3.646  0.00  0.00     0.002 A 
ATOM      6  C6  N4B d   1      -1.079   1.953  -2.472  0.00  0.00     0.002 A 
ENDROOT
BRANCH   1   7
ATOM      7  C1' N4B d   1      -0.801   0.714  -0.355  0.00  0.00     0.057 C 
BRANCH   7   8
ATOM      8  C2' N4B d   1      -1.839   0.684   0.763  0.00  0.00     0.009 C 
BRANCH   8   9
ATOM      9  C3' N4B d   1      -2.526   2.028   0.936  0.00  0.00     0.004 C 
ATOM     10  C4' N4B d   1      -3.888   1.908   1.554  0.00  0.00     0.003 C 
ENDBRANCH   8   9
ENDBRANCH   7   8
ENDBRANCH   1   7
TORSDOF 3
ENDMDL
