MODEL 1
REMARK minimizedAffinity 11.3028679
REMARK minimizedRMSD -1
REMARK  3 active torsions:
REMARK  status: ('A' for Active; 'I' for Inactive)
REMARK    1  A    between atoms: C3'_2  and  C2'_3 
REMARK    2  A    between atoms: C2'_3  and  C1'_4 
REMARK    3  A    between atoms: C1'_4  and  C1_5 
ROOT
ATOM      1  C1  N4B d   1       3.262   0.467  -1.802  0.00  0.00    -0.075 A 
ATOM      2  C2  N4B d   1       2.922  -0.875  -2.079  0.00  0.00     0.002 A 
ATOM      3  C3  N4B d   1       2.868  -1.315  -3.379  0.00  0.00     0.002 A 
ATOM      4  C4  N4B d   1       3.131  -0.430  -4.414  0.00  0.00    -0.004 A 
ATOM      5  C5  N4B d   1       3.484   0.858  -4.136  0.00  0.00     0.002 A 
ATOM      6  C6  N4B d   1       3.546   1.313  -2.834  0.00  0.00     0.002 A 
ENDROOT
BRANCH   1   7
ATOM      7  C1' N4B d   1       3.250   1.015  -0.401  0.00  0.00     0.057 C 
BRANCH   7   8
ATOM      8  C2' N4B d   1       4.597   0.735   0.259  0.00  0.00     0.009 C 
BRANCH   8   9
ATOM      9  C3' N4B d   1       4.457   0.478   1.749  0.00  0.00     0.004 C 
ATOM     10  C4' N4B d   1       5.340  -0.634   2.233  0.00  0.00     0.003 C 
ENDBRANCH   8   9
ENDBRANCH   7   8
ENDBRANCH   1   7
TORSDOF 3
ENDMDL
