MODEL 1
REMARK minimizedAffinity 10.0803938
REMARK minimizedRMSD -1
REMARK  3 active torsions:
REMARK  status: ('A' for Active; 'I' for Inactive)
REMARK    1  A    between atoms: C3'_2  and  C2'_3 
REMARK    2  A    between atoms: C2'_3  and  C1'_4 
REMARK    3  A    between atoms: C1'_4  and  C1_5 
ROOT
ATOM      1  C1  N4B d   1      -2.648   0.628  -0.385  0.00  0.00    -0.075 A 
ATOM      2  C2  N4B d   1      -1.591   1.211   0.347  0.00  0.00     0.002 A 
ATOM      3  C3  N4B d   1      -1.864   2.005   1.434  0.00  0.00     0.002 A 
ATOM      4  C4  N4B d   1      -3.182   2.243   1.795  0.00  0.00    -0.004 A 
ATOM      5  C5  N4B d   1      -4.197   1.655   1.098  0.00  0.00     0.002 A 
ATOM      6  C6  N4B d   1      -3.936   0.852   0.006  0.00  0.00     0.002 A 
ENDROOT
BRANCH   1   7
ATOM      7  C1' N4B d   1      -2.402  -0.177  -1.632  0.00  0.00     0.057 C 
BRANCH   7   8
ATOM      8  C2' N4B d   1      -1.919   0.752  -2.741  0.00  0.00     0.009 C 
BRANCH   8   9
ATOM      9  C3' N4B d   1      -3.075   1.428  -3.459  0.00  0.00     0.004 C 
ATOM     10  C4' N4B d   1      -3.127   1.093  -4.919  0.00  0.00     0.003 C 
ENDBRANCH   8   9
ENDBRANCH   7   8
ENDBRANCH   1   7
TORSDOF 3
ENDMDL
