MODEL 1
REMARK minimizedAffinity 3.53876376
REMARK minimizedRMSD -1
REMARK  3 active torsions:
REMARK  status: ('A' for Active; 'I' for Inactive)
REMARK    1  A    between atoms: C3'_2  and  C2'_3 
REMARK    2  A    between atoms: C2'_3  and  C1'_4 
REMARK    3  A    between atoms: C1'_4  and  C1_5 
ROOT
ATOM      1  C1  N4B d   1       1.924   3.709  -5.092  0.00  0.00    -0.075 A 
ATOM      2  C2  N4B d   1       0.961   3.782  -4.062  0.00  0.00     0.002 A 
ATOM      3  C3  N4B d   1       0.207   4.919  -3.907  0.00  0.00     0.002 A 
ATOM      4  C4  N4B d   1       0.409   5.998  -4.754  0.00  0.00    -0.004 A 
ATOM      5  C5  N4B d   1       1.323   5.910  -5.763  0.00  0.00     0.002 A 
ATOM      6  C6  N4B d   1       2.086   4.772  -5.933  0.00  0.00     0.002 A 
ENDROOT
BRANCH   1   7
ATOM      7  C1' N4B d   1       2.833   2.521  -5.248  0.00  0.00     0.057 C 
BRANCH   7   8
ATOM      8  C2' N4B d   1       3.057   1.880  -3.881  0.00  0.00     0.009 C 
BRANCH   8   9
ATOM      9  C3' N4B d   1       3.903   0.622  -3.976  0.00  0.00     0.004 C 
ATOM     10  C4' N4B d   1       3.439  -0.461  -3.047  0.00  0.00     0.003 C 
ENDBRANCH   8   9
ENDBRANCH   7   8
ENDBRANCH   1   7
TORSDOF 3
ENDMDL
