MODEL 1
REMARK minimizedAffinity 2.20688462
REMARK minimizedRMSD -1
REMARK  3 active torsions:
REMARK  status: ('A' for Active; 'I' for Inactive)
REMARK    1  A    between atoms: C3'_2  and  C2'_3 
REMARK    2  A    between atoms: C2'_3  and  C1'_4 
REMARK    3  A    between atoms: C1'_4  and  C1_5 
ROOT
ATOM      1  C1  N4B d   1      -2.461   0.579  -0.268  0.00  0.00    -0.075 A 
ATOM      2  C2  N4B d   1      -3.223   1.308   0.672  0.00  0.00     0.002 A 
ATOM      3  C3  N4B d   1      -4.405   0.793   1.146  0.00  0.00     0.002 A 
ATOM      4  C4  N4B d   1      -4.852  -0.435   0.682  0.00  0.00    -0.004 A 
ATOM      5  C5  N4B d   1      -4.098  -1.145  -0.206  0.00  0.00     0.002 A 
ATOM      6  C6  N4B d   1      -2.907  -0.641  -0.688  0.00  0.00     0.002 A 
ENDROOT
BRANCH   1   7
ATOM      7  C1' N4B d   1      -1.206   1.139  -0.879  0.00  0.00     0.057 C 
BRANCH   7   8
ATOM      8  C2' N4B d   1      -1.189   0.817  -2.370  0.00  0.00     0.009 C 
BRANCH   8   9
ATOM      9  C3' N4B d   1       0.051   1.365  -3.055  0.00  0.00     0.004 C 
ATOM     10  C4' N4B d   1       1.085   0.311  -3.315  0.00  0.00     0.003 C 
ENDBRANCH   8   9
ENDBRANCH   7   8
ENDBRANCH   1   7
TORSDOF 3
ENDMDL
