MODEL 1
REMARK minimizedAffinity 4.42669868
REMARK minimizedRMSD -1
REMARK  0 active torsions:
REMARK  status: ('A' for Active; 'I' for Inactive)
ROOT
ATOM      1  C2' OXE d   1      -1.887   1.735   1.371  0.00  0.00     0.078 C 
ATOM      2  C1' OXE d   1      -3.989   0.192   0.330  0.00  0.00     0.078 C 
ATOM      3  C1  OXE d   1      -2.842  -0.534   0.988  0.00  0.00    -0.078 A 
ATOM      4  C2  OXE d   1      -1.796   0.226   1.452  0.00  0.00    -0.078 A 
ATOM      5  C3  OXE d   1      -0.738  -0.389   2.116  0.00  0.00     0.003 A 
ATOM      6  C4  OXE d   1      -0.657  -1.785   2.179  0.00  0.00    -0.002 A 
ATOM      7  C5  OXE d   1      -1.693  -2.580   1.677  0.00  0.00    -0.002 A 
ATOM      8  C6  OXE d   1      -2.810  -1.970   1.117  0.00  0.00     0.003 A 
ENDROOT
TORSDOF 0
ENDMDL
