MODEL 1
REMARK minimizedAffinity 16.6404762
REMARK minimizedRMSD -1
REMARK  0 active torsions:
REMARK  status: ('A' for Active; 'I' for Inactive)
ROOT
ATOM      1  C2' OXE d   1       2.706   2.252  -2.990  0.00  0.00     0.078 C 
ATOM      2  C1' OXE d   1       4.521   2.993  -4.999  0.00  0.00     0.078 C 
ATOM      3  C1  OXE d   1       4.755   3.527  -3.608  0.00  0.00    -0.078 A 
ATOM      4  C2  OXE d   1       3.835   3.197  -2.641  0.00  0.00    -0.078 A 
ATOM      5  C3  OXE d   1       4.033   3.618  -1.330  0.00  0.00     0.003 A 
ATOM      6  C4  OXE d   1       5.074   4.501  -1.017  0.00  0.00    -0.002 A 
ATOM      7  C5  OXE d   1       5.999   4.881  -1.995  0.00  0.00    -0.002 A 
ATOM      8  C6  OXE d   1       5.879   4.370  -3.283  0.00  0.00     0.003 A 
ENDROOT
TORSDOF 0
ENDMDL
