MODEL 1
REMARK minimizedAffinity 15.6239309
REMARK minimizedRMSD -1
REMARK  0 active torsions:
REMARK  status: ('A' for Active; 'I' for Inactive)
ROOT
ATOM      1  C2' OXE d   1       2.752   2.151  -2.257  0.00  0.00     0.078 C 
ATOM      2  C1' OXE d   1       4.076   4.619  -2.446  0.00  0.00     0.078 C 
ATOM      3  C1  OXE d   1       2.633   4.560  -2.882  0.00  0.00    -0.078 A 
ATOM      4  C2  OXE d   1       2.007   3.338  -2.830  0.00  0.00    -0.078 A 
ATOM      5  C3  OXE d   1       0.660   3.239  -3.168  0.00  0.00     0.003 A 
ATOM      6  C4  OXE d   1      -0.018   4.339  -3.706  0.00  0.00    -0.002 A 
ATOM      7  C5  OXE d   1       0.613   5.583  -3.805  0.00  0.00    -0.002 A 
ATOM      8  C6  OXE d   1       1.923   5.721  -3.358  0.00  0.00     0.003 A 
ENDROOT
TORSDOF 0
ENDMDL
