MODEL 1
REMARK minimizedAffinity 10.4845829
REMARK minimizedRMSD -1
REMARK  0 active torsions:
REMARK  status: ('A' for Active; 'I' for Inactive)
ROOT
ATOM      1  C2' OXE d   1      -5.976   1.040   0.038  0.00  0.00     0.078 C 
ATOM      2  C1' OXE d   1      -5.808   0.844  -2.757  0.00  0.00     0.078 C 
ATOM      3  C1  OXE d   1      -5.856   2.224  -2.151  0.00  0.00    -0.078 A 
ATOM      4  C2  OXE d   1      -5.985   2.310  -0.785  0.00  0.00    -0.078 A 
ATOM      5  C3  OXE d   1      -5.979   3.559  -0.170  0.00  0.00     0.003 A 
ATOM      6  C4  OXE d   1      -5.997   4.728  -0.939  0.00  0.00    -0.002 A 
ATOM      7  C5  OXE d   1      -5.906   4.662  -2.334  0.00  0.00    -0.002 A 
ATOM      8  C6  OXE d   1      -5.792   3.421  -2.951  0.00  0.00     0.003 A 
ENDROOT
TORSDOF 0
ENDMDL
