MODEL 1
REMARK minimizedAffinity 8.66547871
REMARK minimizedRMSD -1
REMARK  0 active torsions:
REMARK  status: ('A' for Active; 'I' for Inactive)
ROOT
ATOM      1  C2' OXE d   1       0.451  -2.841   2.135  0.00  0.00     0.078 C 
ATOM      2  C1' OXE d   1      -2.190  -3.382   1.351  0.00  0.00     0.078 C 
ATOM      3  C1  OXE d   1      -1.808  -1.943   1.590  0.00  0.00    -0.078 A 
ATOM      4  C2  OXE d   1      -0.527  -1.692   2.019  0.00  0.00    -0.078 A 
ATOM      5  C3  OXE d   1      -0.106  -0.377   2.201  0.00  0.00     0.003 A 
ATOM      6  C4  OXE d   1      -1.019   0.679   2.102  0.00  0.00    -0.002 A 
ATOM      7  C5  OXE d   1      -2.340   0.441   1.705  0.00  0.00    -0.002 A 
ATOM      8  C6  OXE d   1      -2.738  -0.857   1.405  0.00  0.00     0.003 A 
ENDROOT
TORSDOF 0
ENDMDL
