MODEL 1
REMARK minimizedAffinity 11.8405476
REMARK minimizedRMSD -1
REMARK  0 active torsions:
REMARK  status: ('A' for Active; 'I' for Inactive)
ROOT
ATOM      1  C2' OXE d   1       0.797   5.999  -1.564  0.00  0.00     0.078 C 
ATOM      2  C1' OXE d   1       3.603   5.999  -1.494  0.00  0.00     0.078 C 
ATOM      3  C1  OXE d   1       2.909   4.716  -1.876  0.00  0.00    -0.078 A 
ATOM      4  C2  OXE d   1       1.534   4.712  -1.863  0.00  0.00    -0.078 A 
ATOM      5  C3  OXE d   1       0.844   3.571  -2.260  0.00  0.00     0.003 A 
ATOM      6  C4  OXE d   1       1.534   2.382  -2.526  0.00  0.00    -0.002 A 
ATOM      7  C5  OXE d   1       2.932   2.353  -2.507  0.00  0.00    -0.002 A 
ATOM      8  C6  OXE d   1       3.634   3.520  -2.226  0.00  0.00     0.003 A 
ENDROOT
TORSDOF 0
ENDMDL
