MODEL 1
REMARK minimizedAffinity 10.8955441
REMARK minimizedRMSD -1
REMARK  0 active torsions:
REMARK  status: ('A' for Active; 'I' for Inactive)
ROOT
ATOM      1  C2' OXE d   1       0.801  -1.815   3.069  0.00  0.00     0.078 C 
ATOM      2  C1' OXE d   1      -1.527  -0.416   3.780  0.00  0.00     0.078 C 
ATOM      3  C1  OXE d   1      -1.636  -1.459   2.696  0.00  0.00    -0.078 A 
ATOM      4  C2  OXE d   1      -0.483  -2.106   2.322  0.00  0.00    -0.078 A 
ATOM      5  C3  OXE d   1      -0.539  -3.116   1.366  0.00  0.00     0.003 A 
ATOM      6  C4  OXE d   1      -1.728  -3.371   0.673  0.00  0.00    -0.002 A 
ATOM      7  C5  OXE d   1      -2.906  -2.696   1.011  0.00  0.00    -0.002 A 
ATOM      8  C6  OXE d   1      -2.886  -1.769   2.047  0.00  0.00     0.003 A 
ENDROOT
TORSDOF 0
ENDMDL
