MODEL 1
REMARK minimizedAffinity 11.5314484
REMARK minimizedRMSD -1
REMARK  0 active torsions:
REMARK  status: ('A' for Active; 'I' for Inactive)
ROOT
ATOM      1  C2' OXE d   1       4.813   5.906  -1.196  0.00  0.00     0.078 C 
ATOM      2  C1' OXE d   1       2.463   4.605  -2.010  0.00  0.00     0.078 C 
ATOM      3  C1  OXE d   1       3.691   4.442  -2.871  0.00  0.00    -0.078 A 
ATOM      4  C2  OXE d   1       4.824   5.120  -2.490  0.00  0.00    -0.078 A 
ATOM      5  C3  OXE d   1       6.000   4.961  -3.218  0.00  0.00     0.003 A 
ATOM      6  C4  OXE d   1       5.999   4.241  -4.418  0.00  0.00    -0.002 A 
ATOM      7  C5  OXE d   1       4.845   3.575  -4.845  0.00  0.00    -0.002 A 
ATOM      8  C6  OXE d   1       3.697   3.630  -4.063  0.00  0.00     0.003 A 
ENDROOT
TORSDOF 0
ENDMDL
