MODEL 1
REMARK minimizedAffinity 7.85548925
REMARK minimizedRMSD -1
REMARK  0 active torsions:
REMARK  status: ('A' for Active; 'I' for Inactive)
ROOT
ATOM      1  C2' OXE d   1      -5.948   3.013  -1.045  0.00  0.00     0.078 C 
ATOM      2  C1' OXE d   1      -6.000   0.687   0.525  0.00  0.00     0.078 C 
ATOM      3  C1  OXE d   1      -5.977   0.524  -0.975  0.00  0.00    -0.078 A 
ATOM      4  C2  OXE d   1      -5.999   1.668  -1.736  0.00  0.00    -0.078 A 
ATOM      5  C3  OXE d   1      -5.924   1.574  -3.122  0.00  0.00     0.003 A 
ATOM      6  C4  OXE d   1      -5.982   0.326  -3.753  0.00  0.00    -0.002 A 
ATOM      7  C5  OXE d   1      -6.000  -0.851  -2.997  0.00  0.00    -0.002 A 
ATOM      8  C6  OXE d   1      -5.955  -0.771  -1.610  0.00  0.00     0.003 A 
ENDROOT
TORSDOF 0
ENDMDL
