MODEL 1
REMARK minimizedAffinity 16.4095554
REMARK minimizedRMSD -1
REMARK  0 active torsions:
REMARK  status: ('A' for Active; 'I' for Inactive)
ROOT
ATOM      1  C2' OXE d   1       0.368   3.415  -3.384  0.00  0.00     0.078 C 
ATOM      2  C1' OXE d   1       3.111   2.883  -3.650  0.00  0.00     0.078 C 
ATOM      3  C1  OXE d   1       2.470   2.619  -2.311  0.00  0.00    -0.078 A 
ATOM      4  C2  OXE d   1       1.138   2.927  -2.176  0.00  0.00    -0.078 A 
ATOM      5  C3  OXE d   1       0.485   2.652  -0.978  0.00  0.00     0.003 A 
ATOM      6  C4  OXE d   1       1.206   2.209   0.138  0.00  0.00    -0.002 A 
ATOM      7  C5  OXE d   1       2.572   1.928   0.033  0.00  0.00    -0.002 A 
ATOM      8  C6  OXE d   1       3.209   2.086  -1.193  0.00  0.00     0.003 A 
ENDROOT
TORSDOF 0
ENDMDL
