MODEL 1
REMARK minimizedAffinity 11.4559612
REMARK minimizedRMSD -1
REMARK  0 active torsions:
REMARK  status: ('A' for Active; 'I' for Inactive)
ROOT
ATOM      1  C2' OXE d   1       3.951   1.674  -1.365  0.00  0.00     0.078 C 
ATOM      2  C1' OXE d   1       4.255   2.922  -3.861  0.00  0.00     0.078 C 
ATOM      3  C1  OXE d   1       2.889   2.950  -3.222  0.00  0.00    -0.078 A 
ATOM      4  C2  OXE d   1       2.739   2.297  -2.022  0.00  0.00    -0.078 A 
ATOM      5  C3  OXE d   1       1.513   2.338  -1.363  0.00  0.00     0.003 A 
ATOM      6  C4  OXE d   1       0.394   2.907  -1.983  0.00  0.00    -0.002 A 
ATOM      7  C5  OXE d   1       0.516   3.544  -3.223  0.00  0.00    -0.002 A 
ATOM      8  C6  OXE d   1       1.763   3.611  -3.834  0.00  0.00     0.003 A 
ENDROOT
TORSDOF 0
ENDMDL
