MODEL 1
REMARK minimizedAffinity 2.89150739
REMARK minimizedRMSD -1
REMARK  0 active torsions:
REMARK  status: ('A' for Active; 'I' for Inactive)
ROOT
ATOM      1  C2' OXE d   1      -5.523   1.723   3.357  0.00  0.00     0.078 C 
ATOM      2  C1' OXE d   1      -5.166   1.175   0.628  0.00  0.00     0.078 C 
ATOM      3  C1  OXE d   1      -4.099   0.705   1.585  0.00  0.00    -0.078 A 
ATOM      4  C2  OXE d   1      -4.260   1.019   2.913  0.00  0.00    -0.078 A 
ATOM      5  C3  OXE d   1      -3.333   0.562   3.846  0.00  0.00     0.003 A 
ATOM      6  C4  OXE d   1      -2.162  -0.080   3.425  0.00  0.00    -0.002 A 
ATOM      7  C5  OXE d   1      -1.959  -0.374   2.073  0.00  0.00    -0.002 A 
ATOM      8  C6  OXE d   1      -2.937  -0.027   1.147  0.00  0.00     0.003 A 
ENDROOT
TORSDOF 0
ENDMDL
