MODEL 1
REMARK minimizedAffinity 14.274107
REMARK minimizedRMSD -1
REMARK  0 active torsions:
REMARK  status: ('A' for Active; 'I' for Inactive)
ROOT
ATOM      1  C2' OXE d   1       0.458  -3.247   1.225  0.00  0.00     0.078 C 
ATOM      2  C1' OXE d   1      -2.243  -3.639   0.569  0.00  0.00     0.078 C 
ATOM      3  C1  OXE d   1      -1.873  -2.374   1.302  0.00  0.00    -0.078 A 
ATOM      4  C2  OXE d   1      -0.557  -2.212   1.660  0.00  0.00    -0.078 A 
ATOM      5  C3  OXE d   1      -0.153  -1.038   2.289  0.00  0.00     0.003 A 
ATOM      6  C4  OXE d   1      -1.099  -0.090   2.696  0.00  0.00    -0.002 A 
ATOM      7  C5  OXE d   1      -2.451  -0.254   2.377  0.00  0.00    -0.002 A 
ATOM      8  C6  OXE d   1      -2.848  -1.367   1.644  0.00  0.00     0.003 A 
ENDROOT
TORSDOF 0
ENDMDL
