MODEL 1
REMARK minimizedAffinity 2.72836733
REMARK minimizedRMSD -1
REMARK  0 active torsions:
REMARK  status: ('A' for Active; 'I' for Inactive)
ROOT
ATOM      1  C2' OXE d   1       5.999   2.907  -3.758  0.00  0.00     0.078 C 
ATOM      2  C1' OXE d   1       6.000   0.122  -4.114  0.00  0.00     0.078 C 
ATOM      3  C1  OXE d   1       4.724   0.770  -3.637  0.00  0.00    -0.078 A 
ATOM      4  C2  OXE d   1       4.747   2.127  -3.421  0.00  0.00    -0.078 A 
ATOM      5  C3  OXE d   1       3.582   2.783  -3.034  0.00  0.00     0.003 A 
ATOM      6  C4  OXE d   1       2.430   2.053  -2.715  0.00  0.00    -0.002 A 
ATOM      7  C5  OXE d   1       2.398   0.666  -2.890  0.00  0.00    -0.002 A 
ATOM      8  C6  OXE d   1       3.520   0.016  -3.390  0.00  0.00     0.003 A 
ENDROOT
TORSDOF 0
ENDMDL
