MODEL 1
REMARK minimizedAffinity 14.0887899
REMARK minimizedRMSD -1
REMARK  0 active torsions:
REMARK  status: ('A' for Active; 'I' for Inactive)
ROOT
ATOM      1  C2' OXE d   1      -2.598  -2.476  -3.511  0.00  0.00     0.078 C 
ATOM      2  C1' OXE d   1      -4.710  -3.214  -5.207  0.00  0.00     0.078 C 
ATOM      3  C1  OXE d   1      -3.479  -4.085  -5.197  0.00  0.00    -0.078 A 
ATOM      4  C2  OXE d   1      -2.432  -3.690  -4.399  0.00  0.00    -0.078 A 
ATOM      5  C3  OXE d   1      -1.294  -4.487  -4.311  0.00  0.00     0.003 A 
ATOM      6  C4  OXE d   1      -1.144  -5.603  -5.143  0.00  0.00    -0.002 A 
ATOM      7  C5  OXE d   1      -2.182  -6.000  -5.992  0.00  0.00    -0.002 A 
ATOM      8  C6  OXE d   1      -3.370  -5.278  -6.000  0.00  0.00     0.003 A 
ENDROOT
TORSDOF 0
ENDMDL
