MODEL 1
REMARK minimizedAffinity 3.71152735
REMARK minimizedRMSD -1
REMARK  0 active torsions:
REMARK  status: ('A' for Active; 'I' for Inactive)
ROOT
ATOM      1  C2' OXE d   1       0.526  -1.029   3.036  0.00  0.00     0.078 C 
ATOM      2  C1' OXE d   1      -1.885  -1.210   1.611  0.00  0.00     0.078 C 
ATOM      3  C1  OXE d   1      -0.693  -1.963   1.075  0.00  0.00    -0.078 A 
ATOM      4  C2  OXE d   1       0.495  -1.831   1.753  0.00  0.00    -0.078 A 
ATOM      5  C3  OXE d   1       1.612  -2.547   1.333  0.00  0.00     0.003 A 
ATOM      6  C4  OXE d   1       1.577  -3.279   0.140  0.00  0.00    -0.002 A 
ATOM      7  C5  OXE d   1       0.387  -3.394  -0.588  0.00  0.00    -0.002 A 
ATOM      8  C6  OXE d   1      -0.765  -2.779  -0.112  0.00  0.00     0.003 A 
ENDROOT
TORSDOF 0
ENDMDL
