MODEL 1
REMARK minimizedAffinity -2.3357296
REMARK minimizedRMSD -1
REMARK  0 active torsions:
REMARK  status: ('A' for Active; 'I' for Inactive)
ROOT
ATOM      1  C2' OXE d   1      -1.867  -0.545  -0.454  0.00  0.00     0.078 C 
ATOM      2  C1' OXE d   1      -0.570  -2.071   1.512  0.00  0.00     0.078 C 
ATOM      3  C1  OXE d   1       0.245  -1.044   0.768  0.00  0.00    -0.078 A 
ATOM      4  C2  OXE d   1      -0.386  -0.334  -0.225  0.00  0.00    -0.078 A 
ATOM      5  C3  OXE d   1       0.306   0.665  -0.904  0.00  0.00     0.003 A 
ATOM      6  C4  OXE d   1       1.678   0.846  -0.693  0.00  0.00    -0.002 A 
ATOM      7  C5  OXE d   1       2.350   0.106   0.286  0.00  0.00    -0.002 A 
ATOM      8  C6  OXE d   1       1.640  -0.811   1.053  0.00  0.00     0.003 A 
ENDROOT
TORSDOF 0
ENDMDL
