MODEL 1
REMARK minimizedAffinity 8.38067436
REMARK minimizedRMSD -1
REMARK  0 active torsions:
REMARK  status: ('A' for Active; 'I' for Inactive)
ROOT
ATOM      1  C   UNL d   1       2.179  -3.748   0.014  0.00  0.00    -0.002 A 
ATOM      2  C1  UNL d   1       2.707  -2.491   0.278  0.00  0.00     0.010 A 
ATOM      3  C2  UNL d   1       1.897  -1.473   0.784  0.00  0.00     0.041 A 
ATOM      4  C3  UNL d   1       0.535  -1.741   1.024  0.00  0.00    -0.075 A 
ATOM      5  S   UNL d   1      -0.647  -0.648   1.642  0.00  0.00     0.015 SA
ATOM      6  C4  UNL d   1      -1.879  -1.824   1.572  0.00  0.00     0.022 A 
ATOM      7  C5  UNL d   1      -1.418  -3.026   1.090  0.00  0.00     0.026 A 
ATOM      8  C6  UNL d   1      -0.019  -2.999   0.767  0.00  0.00    -0.082 A 
ATOM      9  C7  UNL d   1       0.828  -4.010   0.254  0.00  0.00     0.045 A 
ENDROOT
TORSDOF 0
ENDMDL
