MODEL 1
REMARK minimizedAffinity 7.23190498
REMARK minimizedRMSD -1
REMARK  0 active torsions:
REMARK  status: ('A' for Active; 'I' for Inactive)
ROOT
ATOM      1  C   UNL d   1      -0.554  -1.446  -0.295  0.00  0.00    -0.002 A 
ATOM      2  C1  UNL d   1       0.804  -1.361  -0.566  0.00  0.00     0.010 A 
ATOM      3  C2  UNL d   1       1.700  -0.935   0.417  0.00  0.00     0.041 A 
ATOM      4  C3  UNL d   1       1.203  -0.594   1.690  0.00  0.00    -0.075 A 
ATOM      5  S   UNL d   1       2.113  -0.048   3.049  0.00  0.00     0.015 SA
ATOM      6  C4  UNL d   1       0.720   0.084   4.022  0.00  0.00     0.022 A 
ATOM      7  C5  UNL d   1      -0.420  -0.275   3.343  0.00  0.00     0.026 A 
ATOM      8  C6  UNL d   1      -0.161  -0.673   1.988  0.00  0.00    -0.082 A 
ATOM      9  C7  UNL d   1      -1.043  -1.107   0.970  0.00  0.00     0.045 A 
ENDROOT
TORSDOF 0
ENDMDL
