MODEL 1
REMARK minimizedAffinity 0.0307181049
REMARK minimizedRMSD -1
REMARK  0 active torsions:
REMARK  status: ('A' for Active; 'I' for Inactive)
ROOT
ATOM      1  C   UNL d   1      -0.423  -3.150   0.167  0.00  0.00    -0.002 A 
ATOM      2  C1  UNL d   1       0.753  -3.748  -0.263  0.00  0.00     0.010 A 
ATOM      3  C2  UNL d   1       1.977  -3.092  -0.118  0.00  0.00     0.041 A 
ATOM      4  C3  UNL d   1       1.999  -1.814   0.475  0.00  0.00    -0.075 A 
ATOM      5  S   UNL d   1       3.382  -0.823   0.757  0.00  0.00     0.015 SA
ATOM      6  C4  UNL d   1       2.443   0.416   1.456  0.00  0.00     0.022 A 
ATOM      7  C5  UNL d   1       1.106   0.099   1.481  0.00  0.00     0.026 A 
ATOM      8  C6  UNL d   1       0.828  -1.192   0.916  0.00  0.00    -0.082 A 
ATOM      9  C7  UNL d   1      -0.397  -1.883   0.754  0.00  0.00     0.045 A 
ENDROOT
TORSDOF 0
ENDMDL
