MODEL 1
REMARK minimizedAffinity 8.80643749
REMARK minimizedRMSD -1
REMARK  0 active torsions:
REMARK  status: ('A' for Active; 'I' for Inactive)
ROOT
ATOM      1  C   UNL d   1       0.566   0.072   1.753  0.00  0.00    -0.002 A 
ATOM      2  C1  UNL d   1      -0.650  -0.250   1.166  0.00  0.00     0.010 A 
ATOM      3  C2  UNL d   1      -0.756  -1.347   0.309  0.00  0.00     0.041 A 
ATOM      4  C3  UNL d   1       0.391  -2.123   0.050  0.00  0.00    -0.075 A 
ATOM      5  S   UNL d   1       0.499  -3.512  -0.966  0.00  0.00     0.015 SA
ATOM      6  C4  UNL d   1       2.161  -3.710  -0.645  0.00  0.00     0.022 A 
ATOM      7  C5  UNL d   1       2.638  -2.749   0.214  0.00  0.00     0.026 A 
ATOM      8  C6  UNL d   1       1.626  -1.818   0.629  0.00  0.00    -0.082 A 
ATOM      9  C7  UNL d   1       1.701  -0.700   1.493  0.00  0.00     0.045 A 
ENDROOT
TORSDOF 0
ENDMDL
