MODEL 1
REMARK minimizedAffinity 7.56808233
REMARK minimizedRMSD -1
REMARK  0 active torsions:
REMARK  status: ('A' for Active; 'I' for Inactive)
ROOT
ATOM      1  C   UNL d   1       0.598   0.171   1.643  0.00  0.00    -0.002 A 
ATOM      2  C1  UNL d   1      -0.727  -0.036   1.286  0.00  0.00     0.010 A 
ATOM      3  C2  UNL d   1      -1.112  -1.210   0.634  0.00  0.00     0.041 A 
ATOM      4  C3  UNL d   1      -0.133  -2.181   0.346  0.00  0.00    -0.075 A 
ATOM      5  S   UNL d   1      -0.372  -3.695  -0.445  0.00  0.00     0.015 SA
ATOM      6  C4  UNL d   1       1.279  -4.102  -0.327  0.00  0.00     0.022 A 
ATOM      7  C5  UNL d   1       2.009  -3.118   0.297  0.00  0.00     0.026 A 
ATOM      8  C6  UNL d   1       1.207  -1.995   0.696  0.00  0.00    -0.082 A 
ATOM      9  C7  UNL d   1       1.566  -0.795   1.355  0.00  0.00     0.045 A 
ENDROOT
TORSDOF 0
ENDMDL
