MODEL 1
REMARK minimizedAffinity 2.04961443
REMARK minimizedRMSD -1
REMARK  0 active torsions:
REMARK  status: ('A' for Active; 'I' for Inactive)
ROOT
ATOM      1  C   UNL d   1      -3.265   1.159   0.731  0.00  0.00    -0.002 A 
ATOM      2  C1  UNL d   1      -2.717   1.841   1.808  0.00  0.00     0.010 A 
ATOM      3  C2  UNL d   1      -1.470   1.477   2.319  0.00  0.00     0.041 A 
ATOM      4  C3  UNL d   1      -0.775   0.407   1.722  0.00  0.00    -0.075 A 
ATOM      5  S   UNL d   1       0.767  -0.215   2.179  0.00  0.00     0.015 SA
ATOM      6  C4  UNL d   1       0.736  -1.399   0.954  0.00  0.00     0.022 A 
ATOM      7  C5  UNL d   1      -0.416  -1.337   0.206  0.00  0.00     0.026 A 
ATOM      8  C6  UNL d   1      -1.305  -0.295   0.636  0.00  0.00    -0.082 A 
ATOM      9  C7  UNL d   1      -2.573   0.098   0.141  0.00  0.00     0.045 A 
ENDROOT
TORSDOF 0
ENDMDL
