MODEL 1
REMARK minimizedAffinity 5.25975513
REMARK minimizedRMSD -1
REMARK  0 active torsions:
REMARK  status: ('A' for Active; 'I' for Inactive)
ROOT
ATOM      1  C   UNL d   1       0.153  -2.510  -0.678  0.00  0.00    -0.002 A 
ATOM      2  C1  UNL d   1       1.162  -1.616  -1.007  0.00  0.00     0.010 A 
ATOM      3  C2  UNL d   1       1.778  -0.844  -0.020  0.00  0.00     0.041 A 
ATOM      4  C3  UNL d   1       1.360  -0.990   1.318  0.00  0.00    -0.075 A 
ATOM      5  S   UNL d   1       1.971  -0.151   2.695  0.00  0.00     0.015 SA
ATOM      6  C4  UNL d   1       0.908  -0.961   3.753  0.00  0.00     0.022 A 
ATOM      7  C5  UNL d   1       0.099  -1.852   3.089  0.00  0.00     0.026 A 
ATOM      8  C6  UNL d   1       0.347  -1.884   1.674  0.00  0.00    -0.082 A 
ATOM      9  C7  UNL d   1      -0.258  -2.651   0.650  0.00  0.00     0.045 A 
ENDROOT
TORSDOF 0
ENDMDL
