MODEL 1
REMARK minimizedAffinity 9.21102715
REMARK minimizedRMSD -1
REMARK  0 active torsions:
REMARK  status: ('A' for Active; 'I' for Inactive)
ROOT
ATOM      1  C   UNL d   1      -1.083  -0.971   1.070  0.00  0.00    -0.002 A 
ATOM      2  C1  UNL d   1      -0.155   0.059   1.019  0.00  0.00     0.010 A 
ATOM      3  C2  UNL d   1       1.144  -0.176   0.562  0.00  0.00     0.041 A 
ATOM      4  C3  UNL d   1       1.496  -1.476   0.150  0.00  0.00    -0.075 A 
ATOM      5  S   UNL d   1       3.027  -1.998  -0.447  0.00  0.00     0.015 SA
ATOM      6  C4  UNL d   1       2.485  -3.601  -0.650  0.00  0.00     0.022 A 
ATOM      7  C5  UNL d   1       1.171  -3.752  -0.276  0.00  0.00     0.026 A 
ATOM      8  C6  UNL d   1       0.579  -2.530   0.191  0.00  0.00    -0.082 A 
ATOM      9  C7  UNL d   1      -0.729  -2.260   0.660  0.00  0.00     0.045 A 
ENDROOT
TORSDOF 0
ENDMDL
