MODEL 1
REMARK minimizedAffinity 7.18613672
REMARK minimizedRMSD -1
REMARK  0 active torsions:
REMARK  status: ('A' for Active; 'I' for Inactive)
ROOT
ATOM      1  C   UNL d   1       0.376   0.138   1.405  0.00  0.00    -0.002 A 
ATOM      2  C1  UNL d   1      -0.864  -0.275   0.938  0.00  0.00     0.010 A 
ATOM      3  C2  UNL d   1      -0.993  -1.466   0.222  0.00  0.00     0.041 A 
ATOM      4  C3  UNL d   1       0.157  -2.244  -0.019  0.00  0.00    -0.075 A 
ATOM      5  S   UNL d   1       0.240  -3.740  -0.873  0.00  0.00     0.015 SA
ATOM      6  C4  UNL d   1       1.923  -3.866  -0.637  0.00  0.00     0.022 A 
ATOM      7  C5  UNL d   1       2.426  -2.802   0.073  0.00  0.00     0.026 A 
ATOM      8  C6  UNL d   1       1.416  -1.850   0.441  0.00  0.00    -0.082 A 
ATOM      9  C7  UNL d   1       1.514  -0.636   1.164  0.00  0.00     0.045 A 
ENDROOT
TORSDOF 0
ENDMDL
