MODEL 1
REMARK minimizedAffinity 5.72670841
REMARK minimizedRMSD -1
REMARK  0 active torsions:
REMARK  status: ('A' for Active; 'I' for Inactive)
ROOT
ATOM      1  C   UNL d   1      -5.605  -3.664   1.552  0.00  0.00    -0.002 A 
ATOM      2  C1  UNL d   1      -5.076  -2.567   2.218  0.00  0.00     0.010 A 
ATOM      3  C2  UNL d   1      -4.870  -2.606   3.599  0.00  0.00     0.041 A 
ATOM      4  C3  UNL d   1      -5.206  -3.778   4.305  0.00  0.00    -0.075 A 
ATOM      5  S   UNL d   1      -5.040  -4.055   5.998  0.00  0.00     0.015 SA
ATOM      6  C4  UNL d   1      -5.666  -5.635   5.878  0.00  0.00     0.022 A 
ATOM      7  C5  UNL d   1      -6.000  -5.960   4.584  0.00  0.00     0.026 A 
ATOM      8  C6  UNL d   1      -5.739  -4.895   3.656  0.00  0.00    -0.082 A 
ATOM      9  C7  UNL d   1      -5.937  -4.824   2.256  0.00  0.00     0.045 A 
ENDROOT
TORSDOF 0
ENDMDL
