MODEL 1
REMARK minimizedAffinity 8.83857632
REMARK minimizedRMSD -1
REMARK  0 active torsions:
REMARK  status: ('A' for Active; 'I' for Inactive)
ROOT
ATOM      1  N1  IND d   1       3.022  -2.881  -1.099  0.00  0.00    -0.196 N 
ATOM      2  C2  IND d   1       1.973  -2.218  -1.671  0.00  0.00     0.054 A 
ATOM      3  C3  IND d   1       1.328  -1.472  -0.746  0.00  0.00    -0.031 A 
ATOM      4  C4  IND d   1       1.884  -1.110   1.742  0.00  0.00     0.051 A 
ATOM      5  C5  IND d   1       2.729  -1.533   2.729  0.00  0.00    -0.031 A 
ATOM      6  C6  IND d   1       3.738  -2.443   2.485  0.00  0.00     0.015 A 
ATOM      7  C7  IND d   1       3.946  -2.958   1.237  0.00  0.00    -0.016 A 
ATOM      8  C8  IND d   1       3.085  -2.536   0.234  0.00  0.00    -0.047 A 
ATOM      9  C9  IND d   1       2.034  -1.645   0.484  0.00  0.00    -0.096 A 
ATOM     10  HN1 IND d   1       3.554  -3.423  -1.503  0.00  0.00     0.298 HD
ENDROOT
TORSDOF 0
ENDMDL
