MODEL 1
REMARK minimizedAffinity 8.91584206
REMARK minimizedRMSD -1
REMARK  0 active torsions:
REMARK  status: ('A' for Active; 'I' for Inactive)
ROOT
ATOM      1  N1  IND d   1       5.437   1.658   1.161  0.00  0.00    -0.196 N 
ATOM      2  C2  IND d   1       4.438   1.080   0.428  0.00  0.00     0.054 A 
ATOM      3  C3  IND d   1       3.606   2.026  -0.061  0.00  0.00    -0.031 A 
ATOM      4  C4  IND d   1       3.750   4.589   0.130  0.00  0.00     0.051 A 
ATOM      5  C5  IND d   1       4.466   5.586   0.731  0.00  0.00    -0.031 A 
ATOM      6  C6  IND d   1       5.566   5.319   1.520  0.00  0.00     0.015 A 
ATOM      7  C7  IND d   1       6.000   4.041   1.729  0.00  0.00    -0.016 A 
ATOM      8  C8  IND d   1       5.271   3.025   1.126  0.00  0.00    -0.047 A 
ATOM      9  C9  IND d   1       4.129   3.287   0.359  0.00  0.00    -0.096 A 
ATOM     10  HN1 IND d   1       6.063   1.239   1.575  0.00  0.00     0.298 HD
ENDROOT
TORSDOF 0
ENDMDL
