MODEL 1
REMARK minimizedAffinity -1.54749596
REMARK minimizedRMSD -1
REMARK  0 active torsions:
REMARK  status: ('A' for Active; 'I' for Inactive)
ROOT
ATOM      1  N1  IND d   1       4.717  -3.205   2.867  0.00  0.00    -0.196 N 
ATOM      2  C2  IND d   1       4.637  -2.684   4.128  0.00  0.00     0.054 A 
ATOM      3  C3  IND d   1       3.489  -1.985   4.275  0.00  0.00    -0.031 A 
ATOM      4  C4  IND d   1       1.552  -1.650   2.612  0.00  0.00     0.051 A 
ATOM      5  C5  IND d   1       1.186  -1.905   1.321  0.00  0.00    -0.031 A 
ATOM      6  C6  IND d   1       1.992  -2.623   0.462  0.00  0.00     0.015 A 
ATOM      7  C7  IND d   1       3.197  -3.125   0.868  0.00  0.00    -0.016 A 
ATOM      8  C8  IND d   1       3.575  -2.862   2.177  0.00  0.00    -0.047 A 
ATOM      9  C9  IND d   1       2.780  -2.098   3.040  0.00  0.00    -0.096 A 
ATOM     10  HN1 IND d   1       5.372  -3.668   2.556  0.00  0.00     0.298 HD
ENDROOT
TORSDOF 0
ENDMDL
