MODEL 1
REMARK minimizedAffinity 8.13581181
REMARK minimizedRMSD -1
REMARK  0 active torsions:
REMARK  status: ('A' for Active; 'I' for Inactive)
ROOT
ATOM      1  N1  IND d   1       6.000   0.853   1.675  0.00  0.00    -0.196 N 
ATOM      2  C2  IND d   1       5.948  -0.392   1.113  0.00  0.00     0.054 A 
ATOM      3  C3  IND d   1       5.327  -0.341  -0.087  0.00  0.00    -0.031 A 
ATOM      4  C4  IND d   1       4.408   1.695  -1.367  0.00  0.00     0.051 A 
ATOM      5  C5  IND d   1       4.194   3.039  -1.242  0.00  0.00    -0.031 A 
ATOM      6  C6  IND d   1       4.581   3.737  -0.117  0.00  0.00     0.015 A 
ATOM      7  C7  IND d   1       5.209   3.117   0.926  0.00  0.00    -0.016 A 
ATOM      8  C8  IND d   1       5.422   1.751   0.805  0.00  0.00    -0.047 A 
ATOM      9  C9  IND d   1       4.994   1.029  -0.316  0.00  0.00    -0.096 A 
ATOM     10  HN1 IND d   1       6.336   1.043   2.444  0.00  0.00     0.298 HD
ENDROOT
TORSDOF 0
ENDMDL
