MODEL 1
REMARK minimizedAffinity 4.0850482
REMARK minimizedRMSD -1
REMARK  0 active torsions:
REMARK  status: ('A' for Active; 'I' for Inactive)
ROOT
ATOM      1  N1  IND d   1       4.891  -3.904   4.384  0.00  0.00    -0.196 N 
ATOM      2  C2  IND d   1       4.237  -3.341   5.444  0.00  0.00     0.054 A 
ATOM      3  C3  IND d   1       2.974  -3.009   5.096  0.00  0.00    -0.031 A 
ATOM      4  C4  IND d   1       1.738  -3.391   2.870  0.00  0.00     0.051 A 
ATOM      5  C5  IND d   1       1.932  -3.838   1.593  0.00  0.00    -0.031 A 
ATOM      6  C6  IND d   1       3.146  -4.342   1.173  0.00  0.00     0.015 A 
ATOM      7  C7  IND d   1       4.212  -4.429   2.022  0.00  0.00    -0.016 A 
ATOM      8  C8  IND d   1       4.021  -3.970   3.318  0.00  0.00    -0.047 A 
ATOM      9  C9  IND d   1       2.804  -3.418   3.738  0.00  0.00    -0.096 A 
ATOM     10  HN1 IND d   1       5.708  -4.172   4.383  0.00  0.00     0.298 HD
ENDROOT
TORSDOF 0
ENDMDL
