MODEL 1
REMARK minimizedAffinity -2.68050551
REMARK minimizedRMSD -1
REMARK  0 active torsions:
REMARK  status: ('A' for Active; 'I' for Inactive)
ROOT
ATOM      1  N1  IND d   1       4.970  -4.605   5.406  0.00  0.00    -0.196 N 
ATOM      2  C2  IND d   1       4.847  -3.348   5.929  0.00  0.00     0.054 A 
ATOM      3  C3  IND d   1       4.274  -2.518   5.030  0.00  0.00    -0.031 A 
ATOM      4  C4  IND d   1       3.366  -3.032   2.676  0.00  0.00     0.051 A 
ATOM      5  C5  IND d   1       3.285  -4.031   1.747  0.00  0.00    -0.031 A 
ATOM      6  C6  IND d   1       3.770  -5.299   1.996  0.00  0.00     0.015 A 
ATOM      7  C7  IND d   1       4.345  -5.619   3.193  0.00  0.00    -0.016 A 
ATOM      8  C8  IND d   1       4.435  -4.605   4.136  0.00  0.00    -0.047 A 
ATOM      9  C9  IND d   1       3.983  -3.305   3.874  0.00  0.00    -0.096 A 
ATOM     10  HN1 IND d   1       5.323  -5.281   5.803  0.00  0.00     0.298 HD
ENDROOT
TORSDOF 0
ENDMDL
