MODEL 1
REMARK minimizedAffinity 13.0259209
REMARK minimizedRMSD -1
REMARK  0 active torsions:
REMARK  status: ('A' for Active; 'I' for Inactive)
ROOT
ATOM      1  N1  IND d   1       2.354  -4.025   0.482  0.00  0.00    -0.196 N 
ATOM      2  C2  IND d   1       1.361  -3.103   0.298  0.00  0.00     0.054 A 
ATOM      3  C3  IND d   1       1.891  -1.885   0.046  0.00  0.00    -0.031 A 
ATOM      4  C4  IND d   1       4.358  -1.196  -0.212  0.00  0.00     0.051 A 
ATOM      5  C5  IND d   1       5.630  -1.683  -0.096  0.00  0.00    -0.031 A 
ATOM      6  C6  IND d   1       5.880  -3.002   0.222  0.00  0.00     0.015 A 
ATOM      7  C7  IND d   1       4.862  -3.891   0.426  0.00  0.00    -0.016 A 
ATOM      8  C8  IND d   1       3.570  -3.398   0.316  0.00  0.00    -0.047 A 
ATOM      9  C9  IND d   1       3.310  -2.051   0.036  0.00  0.00    -0.096 A 
ATOM     10  HN1 IND d   1       2.238  -4.856   0.669  0.00  0.00     0.298 HD
ENDROOT
TORSDOF 0
ENDMDL
