MODEL 1
REMARK minimizedAffinity 10.4656429
REMARK minimizedRMSD -1
REMARK  0 active torsions:
REMARK  status: ('A' for Active; 'I' for Inactive)
ROOT
ATOM      1  N1  IND d   1       1.172  -4.338   1.063  0.00  0.00    -0.196 N 
ATOM      2  C2  IND d   1       2.364  -3.839   0.618  0.00  0.00     0.054 A 
ATOM      3  C3  IND d   1       2.498  -2.544   0.982  0.00  0.00    -0.031 A 
ATOM      4  C4  IND d   1       0.931  -1.074   2.400  0.00  0.00     0.051 A 
ATOM      5  C5  IND d   1      -0.295  -1.076   3.003  0.00  0.00    -0.031 A 
ATOM      6  C6  IND d   1      -1.111  -2.189   2.993  0.00  0.00     0.015 A 
ATOM      7  C7  IND d   1      -0.723  -3.351   2.386  0.00  0.00    -0.016 A 
ATOM      8  C8  IND d   1       0.518  -3.349   1.766  0.00  0.00    -0.047 A 
ATOM      9  C9  IND d   1       1.332  -2.209   1.737  0.00  0.00    -0.096 A 
ATOM     10  HN1 IND d   1       0.879  -5.135   0.928  0.00  0.00     0.298 HD
ENDROOT
TORSDOF 0
ENDMDL
