MODEL 1
REMARK minimizedAffinity 2.94321299
REMARK minimizedRMSD -1
REMARK  0 active torsions:
REMARK  status: ('A' for Active; 'I' for Inactive)
ROOT
ATOM      1  C   UNL d   1      -3.156   4.956   2.688  0.00  0.00     0.020 A 
ATOM      2  C1  UNL d   1      -1.820   5.304   2.492  0.00  0.00     0.020 A 
ATOM      3  C2  UNL d   1      -0.990   4.484   1.725  0.00  0.00     0.034 A 
ATOM      4  C3  UNL d   1      -1.495   3.312   1.150  0.00  0.00     0.017 A 
ATOM      5  C4  UNL d   1      -2.837   2.964   1.346  0.00  0.00     0.017 A 
ATOM      6  C5  UNL d   1      -3.663   3.788   2.116  0.00  0.00     0.034 A 
ATOM      7 Cl   UNL d   1      -3.532   1.534   0.668  0.00  0.00    -0.070 Cl
ATOM      8 Cl1  UNL d   1      -0.412   2.346   0.212  0.00  0.00    -0.070 Cl
ENDROOT
TORSDOF 0
ENDMDL
