MODEL 1
REMARK minimizedAffinity 4.90714645
REMARK minimizedRMSD -1
REMARK  0 active torsions:
REMARK  status: ('A' for Active; 'I' for Inactive)
ROOT
ATOM      1  C   UNL d   1       5.998   1.099  -0.728  0.00  0.00     0.020 A 
ATOM      2  C1  UNL d   1       5.131   2.160  -0.987  0.00  0.00     0.020 A 
ATOM      3  C2  UNL d   1       3.750   1.961  -0.936  0.00  0.00     0.034 A 
ATOM      4  C3  UNL d   1       3.231   0.698  -0.626  0.00  0.00     0.017 A 
ATOM      5  C4  UNL d   1       4.102  -0.366  -0.367  0.00  0.00     0.017 A 
ATOM      6  C5  UNL d   1       5.485  -0.161  -0.419  0.00  0.00     0.034 A 
ATOM      7 Cl   UNL d   1       3.537  -1.953   0.022  0.00  0.00    -0.070 Cl
ATOM      8 Cl1  UNL d   1       1.513   0.524  -0.581  0.00  0.00    -0.070 Cl
ENDROOT
TORSDOF 0
ENDMDL
