MODEL 1
REMARK minimizedAffinity 0.237498894
REMARK minimizedRMSD -1
REMARK  0 active torsions:
REMARK  status: ('A' for Active; 'I' for Inactive)
ROOT
ATOM      1  C   UNL d   1       6.000   5.089  -0.313  0.00  0.00     0.020 A 
ATOM      2  C1  UNL d   1       5.624   4.440  -1.488  0.00  0.00     0.020 A 
ATOM      3  C2  UNL d   1       5.249   3.095  -1.453  0.00  0.00     0.034 A 
ATOM      4  C3  UNL d   1       5.248   2.396  -0.241  0.00  0.00     0.017 A 
ATOM      5  C4  UNL d   1       5.625   3.049   0.938  0.00  0.00     0.017 A 
ATOM      6  C5  UNL d   1       6.000   4.395   0.898  0.00  0.00     0.034 A 
ATOM      7 Cl   UNL d   1       5.649   2.252   2.472  0.00  0.00    -0.070 Cl
ATOM      8 Cl1  UNL d   1       4.772   0.735  -0.271  0.00  0.00    -0.070 Cl
ENDROOT
TORSDOF 0
ENDMDL
