MODEL 1
REMARK minimizedAffinity 5.20783281
REMARK minimizedRMSD -1
REMARK  0 active torsions:
REMARK  status: ('A' for Active; 'I' for Inactive)
ROOT
ATOM      1  C   UNL d   1      -1.454   2.112   0.807  0.00  0.00     0.020 A 
ATOM      2  C1  UNL d   1      -0.561   1.075   1.076  0.00  0.00     0.020 A 
ATOM      3  C2  UNL d   1       0.615   1.332   1.785  0.00  0.00     0.034 A 
ATOM      4  C3  UNL d   1       0.901   2.629   2.226  0.00  0.00     0.017 A 
ATOM      5  C4  UNL d   1       0.005   3.669   1.956  0.00  0.00     0.017 A 
ATOM      6  C5  UNL d   1      -1.171   3.406   1.246  0.00  0.00     0.034 A 
ATOM      7 Cl   UNL d   1       0.289   5.295   2.468  0.00  0.00    -0.070 Cl
ATOM      8 Cl1  UNL d   1       2.373   2.874   3.097  0.00  0.00    -0.070 Cl
ENDROOT
TORSDOF 0
ENDMDL
