MODEL 1
REMARK minimizedAffinity 9.0444746
REMARK minimizedRMSD -1
REMARK  0 active torsions:
REMARK  status: ('A' for Active; 'I' for Inactive)
ROOT
ATOM      1  C   UNL d   1       5.662   5.453  -1.543  0.00  0.00     0.020 A 
ATOM      2  C1  UNL d   1       6.000   5.886  -0.262  0.00  0.00     0.020 A 
ATOM      3  C2  UNL d   1       5.843   5.028   0.829  0.00  0.00     0.034 A 
ATOM      4  C3  UNL d   1       5.346   3.733   0.640  0.00  0.00     0.017 A 
ATOM      5  C4  UNL d   1       5.007   3.300  -0.647  0.00  0.00     0.017 A 
ATOM      6  C5  UNL d   1       5.166   4.163  -1.735  0.00  0.00     0.034 A 
ATOM      7 Cl   UNL d   1       4.388   1.716  -0.958  0.00  0.00    -0.070 Cl
ATOM      8 Cl1  UNL d   1       5.178   2.726   2.034  0.00  0.00    -0.070 Cl
ENDROOT
TORSDOF 0
ENDMDL
