MODEL 1
REMARK minimizedAffinity 4.21895695
REMARK minimizedRMSD -1
REMARK  0 active torsions:
REMARK  status: ('A' for Active; 'I' for Inactive)
ROOT
ATOM      1  C   UNL d   1       5.998   0.444  -1.107  0.00  0.00     0.020 A 
ATOM      2  C1  UNL d   1       5.320   1.659  -1.021  0.00  0.00     0.020 A 
ATOM      3  C2  UNL d   1       3.938   1.674  -0.819  0.00  0.00     0.034 A 
ATOM      4  C3  UNL d   1       3.231   0.472  -0.701  0.00  0.00     0.017 A 
ATOM      5  C4  UNL d   1       3.913  -0.747  -0.787  0.00  0.00     0.017 A 
ATOM      6  C5  UNL d   1       5.296  -0.756  -0.990  0.00  0.00     0.034 A 
ATOM      7 Cl   UNL d   1       3.108  -2.271  -0.651  0.00  0.00    -0.070 Cl
ATOM      8 Cl1  UNL d   1       1.523   0.566  -0.451  0.00  0.00    -0.070 Cl
ENDROOT
TORSDOF 0
ENDMDL
