MODEL 1
REMARK minimizedAffinity 8.86459923
REMARK minimizedRMSD -1
REMARK  0 active torsions:
REMARK  status: ('A' for Active; 'I' for Inactive)
ROOT
ATOM      1  C   UNL d   1      -2.873  -0.155  -4.290  0.00  0.00     0.020 A 
ATOM      2  C1  UNL d   1      -2.718   0.819  -5.276  0.00  0.00     0.020 A 
ATOM      3  C2  UNL d   1      -3.503   1.973  -5.247  0.00  0.00     0.034 A 
ATOM      4  C3  UNL d   1      -4.448   2.156  -4.231  0.00  0.00     0.017 A 
ATOM      5  C4  UNL d   1      -4.603   1.178  -3.242  0.00  0.00     0.017 A 
ATOM      6  C5  UNL d   1      -3.814   0.024  -3.275  0.00  0.00     0.034 A 
ATOM      7 Cl   UNL d   1      -5.748   1.334  -1.956  0.00  0.00    -0.070 Cl
ATOM      8 Cl1  UNL d   1      -5.385   3.607  -4.257  0.00  0.00    -0.070 Cl
ENDROOT
TORSDOF 0
ENDMDL
