MODEL 1
REMARK minimizedAffinity 5.01025963
REMARK minimizedRMSD -1
REMARK  0 active torsions:
REMARK  status: ('A' for Active; 'I' for Inactive)
ROOT
ATOM      1  C   UNL d   1       3.163   0.337  -0.509  0.00  0.00     0.020 A 
ATOM      2  C1  UNL d   1       4.270  -0.184  -1.179  0.00  0.00     0.020 A 
ATOM      3  C2  UNL d   1       4.183  -1.426  -1.811  0.00  0.00     0.034 A 
ATOM      4  C3  UNL d   1       2.986  -2.151  -1.775  0.00  0.00     0.017 A 
ATOM      5  C4  UNL d   1       1.876  -1.628  -1.103  0.00  0.00     0.017 A 
ATOM      6  C5  UNL d   1       1.969  -0.384  -0.471  0.00  0.00     0.034 A 
ATOM      7 Cl   UNL d   1       0.366  -2.465  -1.015  0.00  0.00    -0.070 Cl
ATOM      8 Cl1  UNL d   1       2.949  -3.680  -2.579  0.00  0.00    -0.070 Cl
ENDROOT
TORSDOF 0
ENDMDL
