MODEL 1
REMARK minimizedAffinity 6.60629606
REMARK minimizedRMSD -1
REMARK  0 active torsions:
REMARK  status: ('A' for Active; 'I' for Inactive)
ROOT
ATOM      1  C   UNL d   1       3.591  -0.684  -0.423  0.00  0.00     0.020 A 
ATOM      2  C1  UNL d   1       3.744  -1.867   0.299  0.00  0.00     0.020 A 
ATOM      3  C2  UNL d   1       2.852  -2.923   0.106  0.00  0.00     0.034 A 
ATOM      4  C3  UNL d   1       1.803  -2.799  -0.812  0.00  0.00     0.017 A 
ATOM      5  C4  UNL d   1       1.650  -1.612  -1.537  0.00  0.00     0.017 A 
ATOM      6  C5  UNL d   1       2.546  -0.557  -1.339  0.00  0.00     0.034 A 
ATOM      7 Cl   UNL d   1       0.380  -1.384  -2.687  0.00  0.00    -0.070 Cl
ATOM      8 Cl1  UNL d   1       0.737  -4.146  -1.001  0.00  0.00    -0.070 Cl
ENDROOT
TORSDOF 0
ENDMDL
