MODEL 1
REMARK minimizedAffinity 11.2946033
REMARK minimizedRMSD -1
REMARK  0 active torsions:
REMARK  status: ('A' for Active; 'I' for Inactive)
ROOT
ATOM      1  C   UNL d   1       0.727  -2.682   2.991  0.00  0.00     0.020 A 
ATOM      2  C1  UNL d   1       1.734  -3.190   2.172  0.00  0.00     0.020 A 
ATOM      3  C2  UNL d   1       2.377  -2.355   1.256  0.00  0.00     0.034 A 
ATOM      4  C3  UNL d   1       2.014  -1.007   1.156  0.00  0.00     0.017 A 
ATOM      5  C4  UNL d   1       1.002  -0.498   1.979  0.00  0.00     0.017 A 
ATOM      6  C5  UNL d   1       0.362  -1.338   2.895  0.00  0.00     0.034 A 
ATOM      7 Cl   UNL d   1       0.499   1.154   1.914  0.00  0.00    -0.070 Cl
ATOM      8 Cl1  UNL d   1       2.851  -0.032   0.002  0.00  0.00    -0.070 Cl
ENDROOT
TORSDOF 0
ENDMDL
