MODEL 1
REMARK minimizedAffinity -1.57968223
REMARK minimizedRMSD -1
REMARK  0 active torsions:
REMARK  status: ('A' for Active; 'I' for Inactive)
ROOT
ATOM      1  C   UNL d   1      -5.193   3.708  -4.123  0.00  0.00     0.020 A 
ATOM      2  C1  UNL d   1      -5.999   3.604  -2.990  0.00  0.00     0.020 A 
ATOM      3  C2  UNL d   1      -5.882   2.495  -2.149  0.00  0.00     0.034 A 
ATOM      4  C3  UNL d   1      -4.958   1.486  -2.440  0.00  0.00     0.017 A 
ATOM      5  C4  UNL d   1      -4.149   1.591  -3.578  0.00  0.00     0.017 A 
ATOM      6  C5  UNL d   1      -4.270   2.703  -4.416  0.00  0.00     0.034 A 
ATOM      7 Cl   UNL d   1      -2.985   0.386  -4.002  0.00  0.00    -0.070 Cl
ATOM      8 Cl1  UNL d   1      -4.867   0.143  -1.357  0.00  0.00    -0.070 Cl
ENDROOT
TORSDOF 0
ENDMDL
