MODEL 1
REMARK minimizedAffinity -3.2761848
REMARK minimizedRMSD -1
REMARK  1 active torsions:
REMARK  status: ('A' for Active; 'I' for Inactive)
REMARK    1  A    between atoms: C1_2  and  C2_3 
ROOT
ATOM      1  C2  UNL d   1      -0.231   0.097   0.150  0.00  0.00    -0.073 A 
ATOM      2  C3  UNL d   1      -1.112   0.014   1.235  0.00  0.00    -0.002 A 
ATOM      3  C4  UNL d   1      -1.371  -1.217   1.839  0.00  0.00     0.004 A 
ATOM      4  C5  UNL d   1      -0.749  -2.374   1.371  0.00  0.00    -0.004 A 
ATOM      5  C6  UNL d   1       0.143  -2.310   0.295  0.00  0.00    -0.075 A 
ATOM      6  C7  UNL d   1       0.818  -3.546  -0.222  0.00  0.00     0.076 C 
ATOM      7  C8  UNL d   1       0.396  -1.071  -0.308  0.00  0.00     0.001 A 
ENDROOT
BRANCH   1   8
ATOM      8  C1  UNL d   1       0.057   1.424  -0.502  0.00  0.00     0.053 C 
ATOM      9  C   UNL d   1       0.583   2.446   0.494  0.00  0.00     0.018 C 
ENDBRANCH   1   8
TORSDOF 1
ENDMDL
