MODEL 1
REMARK minimizedAffinity -4.65553188
REMARK minimizedRMSD -1
REMARK  1 active torsions:
REMARK  status: ('A' for Active; 'I' for Inactive)
REMARK    1  A    between atoms: C1_2  and  C2_3 
ROOT
ATOM      1  C2  UNL d   1       0.316   0.453  -0.008  0.00  0.00    -0.073 A 
ATOM      2  C3  UNL d   1       0.250   0.406  -1.406  0.00  0.00    -0.002 A 
ATOM      3  C4  UNL d   1       0.201  -0.822  -2.068  0.00  0.00     0.004 A 
ATOM      4  C5  UNL d   1       0.209  -2.012  -1.342  0.00  0.00    -0.004 A 
ATOM      5  C6  UNL d   1       0.263  -1.986   0.056  0.00  0.00    -0.075 A 
ATOM      6  C7  UNL d   1       0.275  -3.258   0.852  0.00  0.00     0.076 C 
ATOM      7  C8  UNL d   1       0.315  -0.749   0.714  0.00  0.00     0.001 A 
ENDROOT
BRANCH   1   8
ATOM      8  C1  UNL d   1       0.363   1.776   0.711  0.00  0.00     0.053 C 
ATOM      9  C   UNL d   1       1.643   2.541   0.414  0.00  0.00     0.018 C 
ENDBRANCH   1   8
TORSDOF 1
ENDMDL
