MODEL 1
REMARK minimizedAffinity -5.0873251
REMARK minimizedRMSD -1
REMARK  1 active torsions:
REMARK  status: ('A' for Active; 'I' for Inactive)
REMARK    1  A    between atoms: C1_2  and  C2_3 
ROOT
ATOM      1  C2  UNL d   1      -0.406   0.180  -0.227  0.00  0.00    -0.073 A 
ATOM      2  C3  UNL d   1      -1.266   0.320   0.868  0.00  0.00    -0.002 A 
ATOM      3  C4  UNL d   1      -1.712  -0.805   1.563  0.00  0.00     0.004 A 
ATOM      4  C5  UNL d   1      -1.296  -2.079   1.176  0.00  0.00    -0.004 A 
ATOM      5  C6  UNL d   1      -0.427  -2.239   0.092  0.00  0.00    -0.075 A 
ATOM      6  C7  UNL d   1       0.027  -3.603  -0.339  0.00  0.00     0.076 C 
ATOM      7  C8  UNL d   1       0.013  -1.104  -0.603  0.00  0.00     0.001 A 
ENDROOT
BRANCH   1   8
ATOM      8  C1  UNL d   1       0.082   1.392  -0.977  0.00  0.00     0.053 C 
ATOM      9  C   UNL d   1       0.267   2.592  -0.061  0.00  0.00     0.018 C 
ENDBRANCH   1   8
TORSDOF 1
ENDMDL
