MODEL 1
REMARK minimizedAffinity -2.16252756
REMARK minimizedRMSD -1
REMARK  1 active torsions:
REMARK  status: ('A' for Active; 'I' for Inactive)
REMARK    1  A    between atoms: C1_2  and  C2_3 
ROOT
ATOM      1  C2  UNL d   1       0.315   0.428   0.152  0.00  0.00    -0.073 A 
ATOM      2  C3  UNL d   1      -0.942   0.638   0.730  0.00  0.00    -0.002 A 
ATOM      3  C4  UNL d   1      -1.735  -0.446   1.108  0.00  0.00     0.004 A 
ATOM      4  C5  UNL d   1      -1.276  -1.750   0.918  0.00  0.00    -0.004 A 
ATOM      5  C6  UNL d   1      -0.017  -1.980   0.354  0.00  0.00    -0.075 A 
ATOM      6  C7  UNL d   1       0.489  -3.377   0.142  0.00  0.00     0.076 C 
ATOM      7  C8  UNL d   1       0.771  -0.886  -0.025  0.00  0.00     0.001 A 
ENDROOT
BRANCH   1   8
ATOM      8  C1  UNL d   1       1.177   1.597  -0.251  0.00  0.00     0.053 C 
ATOM      9  C   UNL d   1       1.223   2.670   0.825  0.00  0.00     0.018 C 
ENDBRANCH   1   8
TORSDOF 1
ENDMDL
