MODEL 1
REMARK minimizedAffinity -5.12606192
REMARK minimizedRMSD -1
REMARK  1 active torsions:
REMARK  status: ('A' for Active; 'I' for Inactive)
REMARK    1  A    between atoms: C1_2  and  C2_3 
ROOT
ATOM      1  C2  UNL d   1       0.079   0.048   0.486  0.00  0.00    -0.073 A 
ATOM      2  C3  UNL d   1      -0.423   0.235  -0.807  0.00  0.00    -0.002 A 
ATOM      3  C4  UNL d   1      -0.150   1.411  -1.506  0.00  0.00     0.004 A 
ATOM      4  C5  UNL d   1       0.633   2.408  -0.924  0.00  0.00    -0.004 A 
ATOM      5  C6  UNL d   1       1.154   2.235   0.363  0.00  0.00    -0.075 A 
ATOM      6  C7  UNL d   1       1.995   3.299   1.004  0.00  0.00     0.076 C 
ATOM      7  C8  UNL d   1       0.872   1.052   1.059  0.00  0.00     0.001 A 
ENDROOT
BRANCH   1   8
ATOM      8  C1  UNL d   1      -0.208  -1.223   1.242  0.00  0.00     0.053 C 
ATOM      9  C   UNL d   1      -0.457  -2.398   0.309  0.00  0.00     0.018 C 
ENDBRANCH   1   8
TORSDOF 1
ENDMDL
