MODEL 1
REMARK minimizedAffinity -5.62159777
REMARK minimizedRMSD -1
REMARK  1 active torsions:
REMARK  status: ('A' for Active; 'I' for Inactive)
REMARK    1  A    between atoms: C1_2  and  C2_3 
ROOT
ATOM      1  C2  UNL d   1      -0.481  -0.231  -0.266  0.00  0.00    -0.073 A 
ATOM      2  C3  UNL d   1      -1.184   0.115   0.894  0.00  0.00    -0.002 A 
ATOM      3  C4  UNL d   1      -1.482  -0.854   1.853  0.00  0.00     0.004 A 
ATOM      4  C5  UNL d   1      -1.075  -2.175   1.666  0.00  0.00    -0.004 A 
ATOM      5  C6  UNL d   1      -0.361  -2.537   0.520  0.00  0.00    -0.075 A 
ATOM      6  C7  UNL d   1       0.083  -3.955   0.303  0.00  0.00     0.076 C 
ATOM      7  C8  UNL d   1      -0.068  -1.559  -0.440  0.00  0.00     0.001 A 
ENDROOT
BRANCH   1   8
ATOM      8  C1  UNL d   1      -0.151   0.813  -1.301  0.00  0.00     0.053 C 
ATOM      9  C   UNL d   1       0.376   0.195  -2.586  0.00  0.00     0.018 C 
ENDBRANCH   1   8
TORSDOF 1
ENDMDL
