MODEL 1
REMARK minimizedAffinity -3.56947637
REMARK minimizedRMSD -1
REMARK  1 active torsions:
REMARK  status: ('A' for Active; 'I' for Inactive)
REMARK    1  A    between atoms: C1_2  and  C2_3 
ROOT
ATOM      1  C2  UNL d   1       0.548   1.667  -0.042  0.00  0.00    -0.073 A 
ATOM      2  C3  UNL d   1       0.369   1.547  -1.425  0.00  0.00    -0.002 A 
ATOM      3  C4  UNL d   1      -0.257   0.420  -1.959  0.00  0.00     0.004 A 
ATOM      4  C5  UNL d   1      -0.717  -0.593  -1.118  0.00  0.00    -0.004 A 
ATOM      5  C6  UNL d   1      -0.559  -0.485   0.267  0.00  0.00    -0.075 A 
ATOM      6  C7  UNL d   1      -1.046  -1.568   1.186  0.00  0.00     0.076 C 
ATOM      7  C8  UNL d   1       0.074   0.648   0.796  0.00  0.00     0.001 A 
ENDROOT
BRANCH   1   8
ATOM      8  C1  UNL d   1       1.218   2.885   0.540  0.00  0.00     0.053 C 
ATOM      9  C   UNL d   1       2.733   2.763   0.526  0.00  0.00     0.018 C 
ENDBRANCH   1   8
TORSDOF 1
ENDMDL
