MODEL 1
REMARK minimizedAffinity -4.20976305
REMARK minimizedRMSD -1
REMARK  1 active torsions:
REMARK  status: ('A' for Active; 'I' for Inactive)
REMARK    1  A    between atoms: C1_2  and  C2_3 
ROOT
ATOM      1  C2  UNL d   1       0.499   0.856  -0.391  0.00  0.00    -0.073 A 
ATOM      2  C3  UNL d   1       0.779   0.607  -1.739  0.00  0.00    -0.002 A 
ATOM      3  C4  UNL d   1       0.739  -0.696  -2.238  0.00  0.00     0.004 A 
ATOM      4  C5  UNL d   1       0.413  -1.760  -1.397  0.00  0.00    -0.004 A 
ATOM      5  C6  UNL d   1       0.119  -1.530  -0.049  0.00  0.00    -0.075 A 
ATOM      6  C7  UNL d   1      -0.232  -2.664   0.869  0.00  0.00     0.076 C 
ATOM      7  C8  UNL d   1       0.163  -0.219   0.445  0.00  0.00     0.001 A 
ENDROOT
BRANCH   1   8
ATOM      8  C1  UNL d   1       0.534   2.262   0.151  0.00  0.00     0.053 C 
ATOM      9  C   UNL d   1       1.953   2.803   0.240  0.00  0.00     0.018 C 
ENDBRANCH   1   8
TORSDOF 1
ENDMDL
