MODEL 1
REMARK minimizedAffinity -5.10575247
REMARK minimizedRMSD -1
REMARK  1 active torsions:
REMARK  status: ('A' for Active; 'I' for Inactive)
REMARK    1  A    between atoms: C1_2  and  C2_3 
ROOT
ATOM      1  C2  UNL d   1       0.372   0.947  -0.317  0.00  0.00    -0.073 A 
ATOM      2  C3  UNL d   1       0.305   0.862  -1.712  0.00  0.00    -0.002 A 
ATOM      3  C4  UNL d   1       0.298  -0.383  -2.343  0.00  0.00     0.004 A 
ATOM      4  C5  UNL d   1       0.349  -1.553  -1.586  0.00  0.00    -0.004 A 
ATOM      5  C6  UNL d   1       0.404  -1.489  -0.190  0.00  0.00    -0.075 A 
ATOM      6  C7  UNL d   1       0.463  -2.739   0.638  0.00  0.00     0.076 C 
ATOM      7  C8  UNL d   1       0.414  -0.235   0.436  0.00  0.00     0.001 A 
ENDROOT
BRANCH   1   8
ATOM      8  C1  UNL d   1       0.374   2.289   0.369  0.00  0.00     0.053 C 
ATOM      9  C   UNL d   1       1.741   2.953   0.319  0.00  0.00     0.018 C 
ENDBRANCH   1   8
TORSDOF 1
ENDMDL
