MODEL 1
REMARK minimizedAffinity -2.26429772
REMARK minimizedRMSD -1
REMARK  1 active torsions:
REMARK  status: ('A' for Active; 'I' for Inactive)
REMARK    1  A    between atoms: N_2  and  C1_3 
ROOT
ATOM      1  C1  UNL d   1       0.993   0.720   0.481  0.00  0.00     0.143 A 
ATOM      2  C2  UNL d   1       1.207  -0.620   0.819  0.00  0.00    -0.057 A 
ATOM      3  C3  UNL d   1       0.152  -1.441   1.238  0.00  0.00     0.033 A 
ATOM      4  C4  UNL d   1      -1.135  -0.925   1.353  0.00  0.00    -0.042 A 
ATOM      5  C5  UNL d   1      -1.366   0.411   1.046  0.00  0.00     0.033 A 
ATOM      6  C6  UNL d   1      -0.310   1.224   0.622  0.00  0.00    -0.057 A 
ENDROOT
BRANCH   1   7
ATOM      7  N   UNL d   1       2.017   1.612   0.152  0.00  0.00    -0.732 N 
ATOM      8  C   UNL d   1       2.516   2.554   1.131  0.00  0.00     0.284 C 
ATOM      9  H3  UNL d   1       2.742   1.179  -0.416  0.00  0.00     0.395 HD
ENDBRANCH   1   7
TORSDOF 1
ENDMDL
