MODEL 1
REMARK minimizedAffinity -0.494093657
REMARK minimizedRMSD -1
REMARK  1 active torsions:
REMARK  status: ('A' for Active; 'I' for Inactive)
REMARK    1  A    between atoms: N_2  and  C1_3 
ROOT
ATOM      1  C1  UNL d   1       1.474   0.628   0.423  0.00  0.00     0.143 A 
ATOM      2  C2  UNL d   1       1.592  -0.724   0.765  0.00  0.00    -0.057 A 
ATOM      3  C3  UNL d   1       0.462  -1.535   0.922  0.00  0.00     0.033 A 
ATOM      4  C4  UNL d   1      -0.813  -0.999   0.768  0.00  0.00    -0.042 A 
ATOM      5  C5  UNL d   1      -0.955   0.347   0.452  0.00  0.00     0.033 A 
ATOM      6  C6  UNL d   1       0.178   1.151   0.291  0.00  0.00    -0.057 A 
ENDROOT
BRANCH   1   7
ATOM      7  N   UNL d   1       2.555   1.509   0.350  0.00  0.00    -0.732 N 
ATOM      8  C   UNL d   1       2.613   2.678   1.201  0.00  0.00     0.284 C 
ATOM      9  H3  UNL d   1       3.444   1.025   0.247  0.00  0.00     0.395 HD
ENDBRANCH   1   7
TORSDOF 1
ENDMDL
