MODEL 1
REMARK minimizedAffinity -2.98930597
REMARK minimizedRMSD -1
REMARK  1 active torsions:
REMARK  status: ('A' for Active; 'I' for Inactive)
REMARK    1  A    between atoms: N_2  and  C1_3 
ROOT
ATOM      1  C1  UNL d   1      -1.803  -0.422  -0.980  0.00  0.00     0.143 A 
ATOM      2  C2  UNL d   1      -2.050   0.131   0.281  0.00  0.00    -0.057 A 
ATOM      3  C3  UNL d   1      -1.021   0.707   1.036  0.00  0.00     0.033 A 
ATOM      4  C4  UNL d   1       0.284   0.713   0.553  0.00  0.00    -0.042 A 
ATOM      5  C5  UNL d   1       0.557   0.146  -0.687  0.00  0.00     0.033 A 
ATOM      6  C6  UNL d   1      -0.477  -0.421  -1.439  0.00  0.00    -0.057 A 
ENDROOT
BRANCH   1   7
ATOM      7  N   UNL d   1      -2.765  -1.097  -1.735  0.00  0.00    -0.732 N 
ATOM      8  C   UNL d   1      -2.378  -1.898  -2.876  0.00  0.00     0.284 C 
ATOM      9  H3  UNL d   1      -3.488  -1.519  -1.157  0.00  0.00     0.395 HD
ENDBRANCH   1   7
TORSDOF 1
ENDMDL
