MODEL 1
REMARK minimizedAffinity -4.10130167
REMARK minimizedRMSD -1
REMARK  1 active torsions:
REMARK  status: ('A' for Active; 'I' for Inactive)
REMARK    1  A    between atoms: N_2  and  C1_3 
ROOT
ATOM      1  C1  UNL d   1       0.723  -0.115   0.155  0.00  0.00     0.143 A 
ATOM      2  C2  UNL d   1      -0.251  -0.826   0.864  0.00  0.00    -0.057 A 
ATOM      3  C3  UNL d   1      -1.581  -0.867   0.429  0.00  0.00     0.033 A 
ATOM      4  C4  UNL d   1      -1.968  -0.171  -0.712  0.00  0.00    -0.042 A 
ATOM      5  C5  UNL d   1      -1.022   0.563  -1.418  0.00  0.00     0.033 A 
ATOM      6  C6  UNL d   1       0.306   0.595  -0.982  0.00  0.00    -0.057 A 
ENDROOT
BRANCH   1   7
ATOM      7  N   UNL d   1       2.040   0.045   0.591  0.00  0.00    -0.732 N 
ATOM      8  C   UNL d   1       2.677   1.344   0.553  0.00  0.00     0.284 C 
ATOM      9  H3  UNL d   1       2.239  -0.491   1.433  0.00  0.00     0.395 HD
ENDBRANCH   1   7
TORSDOF 1
ENDMDL
