MODEL 1
REMARK minimizedAffinity -2.10854483
REMARK minimizedRMSD -1
REMARK  1 active torsions:
REMARK  status: ('A' for Active; 'I' for Inactive)
REMARK    1  A    between atoms: N_2  and  C1_3 
ROOT
ATOM      1  C1  UNL d   1       0.002  -0.359  -0.614  0.00  0.00     0.143 A 
ATOM      2  C2  UNL d   1      -1.386  -0.468  -0.745  0.00  0.00    -0.057 A 
ATOM      3  C3  UNL d   1      -2.142  -1.237   0.148  0.00  0.00     0.033 A 
ATOM      4  C4  UNL d   1      -1.516  -1.938   1.174  0.00  0.00    -0.042 A 
ATOM      5  C5  UNL d   1      -0.134  -1.865   1.308  0.00  0.00     0.033 A 
ATOM      6  C6  UNL d   1       0.614  -1.089   0.417  0.00  0.00    -0.057 A 
ENDROOT
BRANCH   1   7
ATOM      7  N   UNL d   1       0.820   0.310  -1.528  0.00  0.00    -0.732 N 
ATOM      8  C   UNL d   1       0.312   0.697  -2.826  0.00  0.00     0.284 C 
ATOM      9  H3  UNL d   1       1.404   1.015  -1.083  0.00  0.00     0.395 HD
ENDBRANCH   1   7
TORSDOF 1
ENDMDL
