MODEL 1
REMARK minimizedAffinity -4.38591194
REMARK minimizedRMSD -1
REMARK  1 active torsions:
REMARK  status: ('A' for Active; 'I' for Inactive)
REMARK    1  A    between atoms: N_2  and  C1_3 
ROOT
ATOM      1  C1  UNL d   1      -0.571   0.253  -0.816  0.00  0.00     0.143 A 
ATOM      2  C2  UNL d   1      -1.244  -0.795  -1.452  0.00  0.00    -0.057 A 
ATOM      3  C3  UNL d   1      -2.643  -0.863  -1.456  0.00  0.00     0.033 A 
ATOM      4  C4  UNL d   1      -3.394   0.104  -0.797  0.00  0.00    -0.042 A 
ATOM      5  C5  UNL d   1      -2.745   1.142  -0.137  0.00  0.00     0.033 A 
ATOM      6  C6  UNL d   1      -1.348   1.208  -0.142  0.00  0.00    -0.057 A 
ENDROOT
BRANCH   1   7
ATOM      7  N   UNL d   1       0.819   0.323  -0.693  0.00  0.00    -0.732 N 
ATOM      8  C   UNL d   1       1.428   1.139   0.336  0.00  0.00     0.284 C 
ATOM      9  H3  UNL d   1       1.267  -0.581  -0.826  0.00  0.00     0.395 HD
ENDBRANCH   1   7
TORSDOF 1
ENDMDL
