MODEL 1
REMARK minimizedAffinity -5.04414749
REMARK minimizedRMSD -1
REMARK  1 active torsions:
REMARK  status: ('A' for Active; 'I' for Inactive)
REMARK    1  A    between atoms: N_2  and  C1_3 
ROOT
ATOM      1  C1  UNL d   1      -0.621  -0.017  -0.478  0.00  0.00     0.143 A 
ATOM      2  C2  UNL d   1      -1.145   0.224  -1.752  0.00  0.00    -0.057 A 
ATOM      3  C3  UNL d   1      -2.488  -0.042  -2.047  0.00  0.00     0.033 A 
ATOM      4  C4  UNL d   1      -3.325  -0.584  -1.077  0.00  0.00    -0.042 A 
ATOM      5  C5  UNL d   1      -2.819  -0.855   0.189  0.00  0.00     0.033 A 
ATOM      6  C6  UNL d   1      -1.479  -0.580   0.479  0.00  0.00    -0.057 A 
ENDROOT
BRANCH   1   7
ATOM      7  N   UNL d   1       0.729   0.135  -0.151  0.00  0.00    -0.732 N 
ATOM      8  C   UNL d   1       1.171   1.252   0.656  0.00  0.00     0.284 C 
ATOM      9  H3  UNL d   1       1.173  -0.750   0.085  0.00  0.00     0.395 HD
ENDBRANCH   1   7
TORSDOF 1
ENDMDL
