MODEL 1
REMARK minimizedAffinity -5.09728098
REMARK minimizedRMSD -1
REMARK  1 active torsions:
REMARK  status: ('A' for Active; 'I' for Inactive)
REMARK    1  A    between atoms: N_2  and  C1_3 
ROOT
ATOM      1  C1  UNL d   1       0.014   0.201   0.194  0.00  0.00     0.143 A 
ATOM      2  C2  UNL d   1      -1.171  -0.398   0.633  0.00  0.00    -0.057 A 
ATOM      3  C3  UNL d   1      -2.219  -0.672  -0.255  0.00  0.00     0.033 A 
ATOM      4  C4  UNL d   1      -2.110  -0.322  -1.597  0.00  0.00    -0.042 A 
ATOM      5  C5  UNL d   1      -0.952   0.297  -2.051  0.00  0.00     0.033 A 
ATOM      6  C6  UNL d   1       0.094   0.562  -1.161  0.00  0.00    -0.057 A 
ENDROOT
BRANCH   1   7
ATOM      7  N   UNL d   1       1.052   0.588   1.045  0.00  0.00    -0.732 N 
ATOM      8  C   UNL d   1       0.996   1.852   1.748  0.00  0.00     0.284 C 
ATOM      9  H3  UNL d   1       1.403  -0.184   1.606  0.00  0.00     0.395 HD
ENDBRANCH   1   7
TORSDOF 1
ENDMDL
