MODEL 1
REMARK minimizedAffinity -5.03345966
REMARK minimizedRMSD -1
REMARK  1 active torsions:
REMARK  status: ('A' for Active; 'I' for Inactive)
REMARK    1  A    between atoms: N_2  and  C1_3 
ROOT
ATOM      1  C1  UNL d   1      -0.699   0.752   0.024  0.00  0.00     0.143 A 
ATOM      2  C2  UNL d   1      -0.647   0.136  -1.231  0.00  0.00    -0.057 A 
ATOM      3  C3  UNL d   1      -1.729  -0.606  -1.721  0.00  0.00     0.033 A 
ATOM      4  C4  UNL d   1      -2.875  -0.769  -0.949  0.00  0.00    -0.042 A 
ATOM      5  C5  UNL d   1      -2.939  -0.187   0.312  0.00  0.00     0.033 A 
ATOM      6  C6  UNL d   1      -1.858   0.559   0.793  0.00  0.00    -0.057 A 
ENDROOT
BRANCH   1   7
ATOM      7  N   UNL d   1       0.380   1.420   0.608  0.00  0.00    -0.732 N 
ATOM      8  C   UNL d   1       1.698   0.823   0.617  0.00  0.00     0.284 C 
ATOM      9  H3  UNL d   1       0.376   2.417   0.404  0.00  0.00     0.395 HD
ENDBRANCH   1   7
TORSDOF 1
ENDMDL
