MODEL 1
REMARK minimizedAffinity -3.93338847
REMARK minimizedRMSD -1
REMARK  1 active torsions:
REMARK  status: ('A' for Active; 'I' for Inactive)
REMARK    1  A    between atoms: N_2  and  C1_3 
ROOT
ATOM      1  C1  UNL d   1       0.906   0.655   0.597  0.00  0.00     0.143 A 
ATOM      2  C2  UNL d   1       0.400   0.810   1.892  0.00  0.00    -0.057 A 
ATOM      3  C3  UNL d   1       0.972   1.718   2.791  0.00  0.00     0.033 A 
ATOM      4  C4  UNL d   1       2.083   2.469   2.419  0.00  0.00    -0.042 A 
ATOM      5  C5  UNL d   1       2.618   2.313   1.146  0.00  0.00     0.033 A 
ATOM      6  C6  UNL d   1       2.038   1.409   0.250  0.00  0.00    -0.057 A 
ENDROOT
BRANCH   1   7
ATOM      7  N   UNL d   1       0.443  -0.301  -0.310  0.00  0.00    -0.732 N 
ATOM      8  C   UNL d   1      -0.310   0.096  -1.480  0.00  0.00     0.284 C 
ATOM      9  H3  UNL d   1       1.127  -1.034  -0.485  0.00  0.00     0.395 HD
ENDBRANCH   1   7
TORSDOF 1
ENDMDL
