MODEL 1
REMARK minimizedAffinity 6.24803162
REMARK minimizedRMSD -1
REMARK  0 active torsions:
REMARK  status: ('A' for Active; 'I' for Inactive)
ROOT
ATOM      1  O1  BZF d   1      -0.868  -0.579   3.676  0.00  0.00    -0.204 OA
ATOM      2  C2  BZF d   1      -2.248  -0.526   3.673  0.00  0.00     0.174 A 
ATOM      3  C3  BZF d   1      -2.715  -0.266   2.435  0.00  0.00    -0.012 A 
ATOM      4  C3A BZF d   1      -1.557  -0.241   1.594  0.00  0.00    -0.107 A 
ATOM      5  C4  BZF d   1      -1.373  -0.046   0.255  0.00  0.00     0.055 A 
ATOM      6  C5  BZF d   1      -0.108  -0.010  -0.239  0.00  0.00    -0.016 A 
ATOM      7  C6  BZF d   1       0.995  -0.160   0.576  0.00  0.00     0.022 A 
ATOM      8  C7  BZF d   1       0.863  -0.361   1.910  0.00  0.00     0.029 A 
ATOM      9  C7A BZF d   1      -0.416  -0.431   2.407  0.00  0.00     0.058 A 
ENDROOT
TORSDOF 0
ENDMDL
