MODEL 1
REMARK minimizedAffinity 2.79719496
REMARK minimizedRMSD -1
REMARK  0 active torsions:
REMARK  status: ('A' for Active; 'I' for Inactive)
ROOT
ATOM      1  O1  BZF d   1       4.630  -5.994  -2.666  0.00  0.00    -0.204 OA
ATOM      2  C2  BZF d   1       3.386  -5.615  -2.201  0.00  0.00     0.174 A 
ATOM      3  C3  BZF d   1       2.848  -4.666  -2.995  0.00  0.00    -0.012 A 
ATOM      4  C3A BZF d   1       3.777  -4.504  -4.071  0.00  0.00    -0.107 A 
ATOM      5  C4  BZF d   1       3.794  -3.716  -5.186  0.00  0.00     0.055 A 
ATOM      6  C5  BZF d   1       4.883  -3.745  -5.998  0.00  0.00    -0.016 A 
ATOM      7  C6  BZF d   1       5.973  -4.545  -5.724  0.00  0.00     0.022 A 
ATOM      8  C7  BZF d   1       6.000  -5.348  -4.632  0.00  0.00     0.029 A 
ATOM      9  C7A BZF d   1       4.887  -5.345  -3.827  0.00  0.00     0.058 A 
ENDROOT
TORSDOF 0
ENDMDL
