MODEL 1
REMARK minimizedAffinity 5.98805237
REMARK minimizedRMSD -1
REMARK  0 active torsions:
REMARK  status: ('A' for Active; 'I' for Inactive)
ROOT
ATOM      1  O1  BZF d   1       4.579  -2.393  -3.660  0.00  0.00    -0.204 OA
ATOM      2  C2  BZF d   1       5.362  -2.447  -2.524  0.00  0.00     0.174 A 
ATOM      3  C3  BZF d   1       6.000  -3.633  -2.439  0.00  0.00    -0.012 A 
ATOM      4  C3A BZF d   1       5.660  -4.330  -3.641  0.00  0.00    -0.107 A 
ATOM      5  C4  BZF d   1       5.999  -5.553  -4.145  0.00  0.00     0.055 A 
ATOM      6  C5  BZF d   1       5.439  -5.965  -5.312  0.00  0.00    -0.016 A 
ATOM      7  C6  BZF d   1       4.533  -5.183  -5.999  0.00  0.00     0.022 A 
ATOM      8  C7  BZF d   1       4.170  -3.960  -5.541  0.00  0.00     0.029 A 
ATOM      9  C7A BZF d   1       4.760  -3.527  -4.379  0.00  0.00     0.058 A 
ENDROOT
TORSDOF 0
ENDMDL
