MODEL 1
REMARK minimizedAffinity 3.15940285
REMARK minimizedRMSD -1
REMARK  0 active torsions:
REMARK  status: ('A' for Active; 'I' for Inactive)
ROOT
ATOM      1  O1  BZF d   1      -1.966  -2.091  -1.392  0.00  0.00    -0.204 OA
ATOM      2  C2  BZF d   1      -0.768  -2.502  -1.943  0.00  0.00     0.174 A 
ATOM      3  C3  BZF d   1      -0.746  -3.843  -2.092  0.00  0.00    -0.012 A 
ATOM      4  C3A BZF d   1      -2.044  -4.288  -1.689  0.00  0.00    -0.107 A 
ATOM      5  C4  BZF d   1      -2.639  -5.516  -1.628  0.00  0.00     0.055 A 
ATOM      6  C5  BZF d   1      -3.895  -5.617  -1.119  0.00  0.00    -0.016 A 
ATOM      7  C6  BZF d   1      -4.583  -4.514  -0.658  0.00  0.00     0.022 A 
ATOM      8  C7  BZF d   1      -4.036  -3.274  -0.703  0.00  0.00     0.029 A 
ATOM      9  C7A BZF d   1      -2.780  -3.164  -1.247  0.00  0.00     0.058 A 
ENDROOT
TORSDOF 0
ENDMDL
