MODEL 1
REMARK minimizedAffinity 7.84341764
REMARK minimizedRMSD -1
REMARK  0 active torsions:
REMARK  status: ('A' for Active; 'I' for Inactive)
ROOT
ATOM      1  O1  BZF d   1       5.991  -4.842  -5.491  0.00  0.00    -0.204 OA
ATOM      2  C2  BZF d   1       5.946  -5.778  -4.476  0.00  0.00     0.174 A 
ATOM      3  C3  BZF d   1       4.998  -5.458  -3.572  0.00  0.00    -0.012 A 
ATOM      4  C3A BZF d   1       4.351  -4.296  -4.100  0.00  0.00    -0.107 A 
ATOM      5  C4  BZF d   1       3.317  -3.518  -3.666  0.00  0.00     0.055 A 
ATOM      6  C5  BZF d   1       2.977  -2.412  -4.379  0.00  0.00    -0.016 A 
ATOM      7  C6  BZF d   1       3.652  -2.053  -5.526  0.00  0.00     0.022 A 
ATOM      8  C7  BZF d   1       4.682  -2.796  -6.000  0.00  0.00     0.029 A 
ATOM      9  C7A BZF d   1       5.006  -3.932  -5.299  0.00  0.00     0.058 A 
ENDROOT
TORSDOF 0
ENDMDL
