MODEL 1
REMARK minimizedAffinity 10.6662951
REMARK minimizedRMSD -1
REMARK  0 active torsions:
REMARK  status: ('A' for Active; 'I' for Inactive)
ROOT
ATOM      1  O1  BZF d   1       2.385  -5.393  -5.996  0.00  0.00    -0.204 OA
ATOM      2  C2  BZF d   1       1.567  -4.281  -5.957  0.00  0.00     0.174 A 
ATOM      3  C3  BZF d   1       2.278  -3.174  -5.661  0.00  0.00    -0.012 A 
ATOM      4  C3A BZF d   1       3.640  -3.607  -5.597  0.00  0.00    -0.107 A 
ATOM      5  C4  BZF d   1       4.820  -2.963  -5.356  0.00  0.00     0.055 A 
ATOM      6  C5  BZF d   1       5.967  -3.689  -5.291  0.00  0.00    -0.016 A 
ATOM      7  C6  BZF d   1       5.970  -5.058  -5.457  0.00  0.00     0.022 A 
ATOM      8  C7  BZF d   1       4.825  -5.741  -5.703  0.00  0.00     0.029 A 
ATOM      9  C7A BZF d   1       3.669  -5.006  -5.802  0.00  0.00     0.058 A 
ENDROOT
TORSDOF 0
ENDMDL
