MODEL 1
REMARK minimizedAffinity 9.67060757
REMARK minimizedRMSD -1
REMARK  0 active torsions:
REMARK  status: ('A' for Active; 'I' for Inactive)
ROOT
ATOM      1  O1  BZF d   1       0.459   1.648  -2.150  0.00  0.00    -0.204 OA
ATOM      2  C2  BZF d   1      -0.730   1.820  -1.468  0.00  0.00     0.174 A 
ATOM      3  C3  BZF d   1      -0.836   0.931  -0.459  0.00  0.00    -0.012 A 
ATOM      4  C3A BZF d   1       0.404   0.216  -0.457  0.00  0.00    -0.107 A 
ATOM      5  C4  BZF d   1       0.908  -0.786   0.323  0.00  0.00     0.055 A 
ATOM      6  C5  BZF d   1       2.122  -1.313   0.016  0.00  0.00    -0.016 A 
ATOM      7  C6  BZF d   1       2.855  -0.868  -1.064  0.00  0.00     0.022 A 
ATOM      8  C7  BZF d   1       2.399   0.127  -1.863  0.00  0.00     0.029 A 
ATOM      9  C7A BZF d   1       1.187   0.685  -1.537  0.00  0.00     0.058 A 
ENDROOT
TORSDOF 0
ENDMDL
