MODEL 1
REMARK minimizedAffinity 7.75841141
REMARK minimizedRMSD -1
REMARK  0 active torsions:
REMARK  status: ('A' for Active; 'I' for Inactive)
ROOT
ATOM      1  O1  BZF d   1       3.468  -3.165  -3.771  0.00  0.00    -0.204 OA
ATOM      2  C2  BZF d   1       3.149  -2.519  -4.950  0.00  0.00     0.174 A 
ATOM      3  C3  BZF d   1       3.825  -3.054  -5.987  0.00  0.00    -0.012 A 
ATOM      4  C3A BZF d   1       4.547  -4.160  -5.435  0.00  0.00    -0.107 A 
ATOM      5  C4  BZF d   1       5.388  -5.093  -5.971  0.00  0.00     0.055 A 
ATOM      6  C5  BZF d   1       5.985  -5.994  -5.147  0.00  0.00    -0.016 A 
ATOM      7  C6  BZF d   1       5.768  -5.988  -3.785  0.00  0.00     0.022 A 
ATOM      8  C7  BZF d   1       4.938  -5.085  -3.208  0.00  0.00     0.029 A 
ATOM      9  C7A BZF d   1       4.307  -4.193  -4.042  0.00  0.00     0.058 A 
ENDROOT
TORSDOF 0
ENDMDL
