MODEL 1
REMARK minimizedAffinity -1.21560311
REMARK minimizedRMSD -1
REMARK  0 active torsions:
REMARK  status: ('A' for Active; 'I' for Inactive)
ROOT
ATOM      1  O1  BZF d   1       5.968  -3.303  -3.217  0.00  0.00    -0.204 OA
ATOM      2  C2  BZF d   1       5.083  -2.252  -3.078  0.00  0.00     0.174 A 
ATOM      3  C3  BZF d   1       4.045  -2.384  -3.929  0.00  0.00    -0.012 A 
ATOM      4  C3A BZF d   1       4.250  -3.641  -4.580  0.00  0.00    -0.107 A 
ATOM      5  C4  BZF d   1       3.547  -4.337  -5.521  0.00  0.00     0.055 A 
ATOM      6  C5  BZF d   1       4.056  -5.502  -5.999  0.00  0.00    -0.016 A 
ATOM      7  C6  BZF d   1       5.267  -5.998  -5.562  0.00  0.00     0.022 A 
ATOM      8  C7  BZF d   1       5.998  -5.347  -4.626  0.00  0.00     0.029 A 
ATOM      9  C7A BZF d   1       5.470  -4.186  -4.117  0.00  0.00     0.058 A 
ENDROOT
TORSDOF 0
ENDMDL
