MODEL 1
REMARK minimizedAffinity 4.84217596
REMARK minimizedRMSD -1
REMARK  0 active torsions:
REMARK  status: ('A' for Active; 'I' for Inactive)
ROOT
ATOM      1  O1  BZF d   1       5.120  -5.988  -4.888  0.00  0.00    -0.204 OA
ATOM      2  C2  BZF d   1       4.196  -5.966  -5.915  0.00  0.00     0.174 A 
ATOM      3  C3  BZF d   1       3.602  -4.758  -5.998  0.00  0.00    -0.012 A 
ATOM      4  C3A BZF d   1       4.258  -3.948  -5.018  0.00  0.00    -0.107 A 
ATOM      5  C4  BZF d   1       4.121  -2.645  -4.633  0.00  0.00     0.055 A 
ATOM      6  C5  BZF d   1       4.865  -2.182  -3.594  0.00  0.00    -0.016 A 
ATOM      7  C6  BZF d   1       5.748  -2.994  -2.914  0.00  0.00     0.022 A 
ATOM      8  C7  BZF d   1       5.922  -4.292  -3.263  0.00  0.00     0.029 A 
ATOM      9  C7A BZF d   1       5.196  -4.754  -4.333  0.00  0.00     0.058 A 
ENDROOT
TORSDOF 0
ENDMDL
