MODEL 1
REMARK minimizedAffinity 9.43589592
REMARK minimizedRMSD -1
REMARK  0 active torsions:
REMARK  status: ('A' for Active; 'I' for Inactive)
ROOT
ATOM      1  O1  BZF d   1       5.957  -2.625   2.802  0.00  0.00    -0.204 OA
ATOM      2  C2  BZF d   1       5.948  -1.591   3.718  0.00  0.00     0.174 A 
ATOM      3  C3  BZF d   1       5.998  -0.397   3.093  0.00  0.00    -0.012 A 
ATOM      4  C3A BZF d   1       5.949  -0.702   1.696  0.00  0.00    -0.107 A 
ATOM      5  C4  BZF d   1       5.950   0.066   0.567  0.00  0.00     0.055 A 
ATOM      6  C5  BZF d   1       5.967  -0.544  -0.647  0.00  0.00    -0.016 A 
ATOM      7  C6  BZF d   1       5.990  -1.918  -0.769  0.00  0.00     0.022 A 
ATOM      8  C7  BZF d   1       5.985  -2.722   0.322  0.00  0.00     0.029 A 
ATOM      9  C7A BZF d   1       5.934  -2.109   1.550  0.00  0.00     0.058 A 
ENDROOT
TORSDOF 0
ENDMDL
