MODEL 1
REMARK minimizedAffinity 5.91235209
REMARK minimizedRMSD -1
REMARK  0 active torsions:
REMARK  status: ('A' for Active; 'I' for Inactive)
ROOT
ATOM      1  O1  BZF d   1       5.233  -3.157  -2.754  0.00  0.00    -0.204 OA
ATOM      2  C2  BZF d   1       5.994  -4.157  -2.179  0.00  0.00     0.174 A 
ATOM      3  C3  BZF d   1       5.854  -5.314  -2.858  0.00  0.00    -0.012 A 
ATOM      4  C3A BZF d   1       5.022  -4.996  -3.977  0.00  0.00    -0.107 A 
ATOM      5  C4  BZF d   1       4.539  -5.726  -5.026  0.00  0.00     0.055 A 
ATOM      6  C5  BZF d   1       3.693  -5.134  -5.908  0.00  0.00    -0.016 A 
ATOM      7  C6  BZF d   1       3.305  -3.817  -5.771  0.00  0.00     0.022 A 
ATOM      8  C7  BZF d   1       3.762  -3.051  -4.750  0.00  0.00     0.029 A 
ATOM      9  C7A BZF d   1       4.643  -3.638  -3.875  0.00  0.00     0.058 A 
ENDROOT
TORSDOF 0
ENDMDL
