MODEL 1
REMARK minimizedAffinity 4.58710909
REMARK minimizedRMSD -1
REMARK  0 active torsions:
REMARK  status: ('A' for Active; 'I' for Inactive)
ROOT
ATOM      1  O1  BZF d   1       4.866  -5.870  -4.063  0.00  0.00    -0.204 OA
ATOM      2  C2  BZF d   1       5.999  -5.201  -3.639  0.00  0.00     0.174 A 
ATOM      3  C3  BZF d   1       5.995  -3.927  -4.081  0.00  0.00    -0.012 A 
ATOM      4  C3A BZF d   1       4.741  -3.764  -4.750  0.00  0.00    -0.107 A 
ATOM      5  C4  BZF d   1       4.145  -2.713  -5.387  0.00  0.00     0.055 A 
ATOM      6  C5  BZF d   1       2.947  -2.904  -5.999  0.00  0.00    -0.016 A 
ATOM      7  C6  BZF d   1       2.319  -4.132  -5.998  0.00  0.00     0.022 A 
ATOM      8  C7  BZF d   1       2.868  -5.203  -5.376  0.00  0.00     0.029 A 
ATOM      9  C7A BZF d   1       4.063  -5.005  -4.728  0.00  0.00     0.058 A 
ENDROOT
TORSDOF 0
ENDMDL
