MODEL 1
REMARK minimizedAffinity 8.76304245
REMARK minimizedRMSD -1
REMARK  0 active torsions:
REMARK  status: ('A' for Active; 'I' for Inactive)
ROOT
ATOM      1  O1  BZF d   1       2.447  -5.125  -6.000  0.00  0.00    -0.204 OA
ATOM      2  C2  BZF d   1       1.655  -4.335  -5.189  0.00  0.00     0.174 A 
ATOM      3  C3  BZF d   1       2.365  -3.855  -4.148  0.00  0.00    -0.012 A 
ATOM      4  C3A BZF d   1       3.706  -4.301  -4.370  0.00  0.00    -0.107 A 
ATOM      5  C4  BZF d   1       4.877  -4.132  -3.688  0.00  0.00     0.055 A 
ATOM      6  C5  BZF d   1       5.997  -4.760  -4.132  0.00  0.00    -0.016 A 
ATOM      7  C6  BZF d   1       5.981  -5.569  -5.249  0.00  0.00     0.022 A 
ATOM      8  C7  BZF d   1       4.845  -5.764  -5.961  0.00  0.00     0.029 A 
ATOM      9  C7A BZF d   1       3.719  -5.104  -5.534  0.00  0.00     0.058 A 
ENDROOT
TORSDOF 0
ENDMDL
