MODEL 1
REMARK minimizedAffinity 9.32885456
REMARK minimizedRMSD -1
REMARK  0 active torsions:
REMARK  status: ('A' for Active; 'I' for Inactive)
ROOT
ATOM      1  O1  BZF d   1       3.405  -2.385  -5.976  0.00  0.00    -0.204 OA
ATOM      2  C2  BZF d   1       4.507  -1.552  -5.981  0.00  0.00     0.174 A 
ATOM      3  C3  BZF d   1       5.648  -2.268  -5.915  0.00  0.00    -0.012 A 
ATOM      4  C3A BZF d   1       5.236  -3.637  -5.960  0.00  0.00    -0.107 A 
ATOM      5  C4  BZF d   1       5.914  -4.823  -5.945  0.00  0.00     0.055 A 
ATOM      6  C5  BZF d   1       5.211  -5.986  -5.926  0.00  0.00    -0.016 A 
ATOM      7  C6  BZF d   1       3.831  -6.000  -5.916  0.00  0.00     0.022 A 
ATOM      8  C7  BZF d   1       3.115  -4.849  -5.935  0.00  0.00     0.029 A 
ATOM      9  C7A BZF d   1       3.823  -3.673  -5.987  0.00  0.00     0.058 A 
ENDROOT
TORSDOF 0
ENDMDL
