MODEL 1
REMARK minimizedAffinity 3.82986641
REMARK minimizedRMSD -1
REMARK  0 active torsions:
REMARK  status: ('A' for Active; 'I' for Inactive)
ROOT
ATOM      1  O1  BZF d   1       5.236  -2.500  -5.998  0.00  0.00    -0.204 OA
ATOM      2  C2  BZF d   1       4.540  -1.720  -5.095  0.00  0.00     0.174 A 
ATOM      3  C3  BZF d   1       4.191  -2.440  -4.010  0.00  0.00    -0.012 A 
ATOM      4  C3A BZF d   1       4.781  -3.729  -4.208  0.00  0.00    -0.107 A 
ATOM      5  C4  BZF d   1       4.802  -4.876  -3.467  0.00  0.00     0.055 A 
ATOM      6  C5  BZF d   1       5.405  -5.981  -3.978  0.00  0.00    -0.016 A 
ATOM      7  C6  BZF d   1       5.991  -5.977  -5.227  0.00  0.00     0.022 A 
ATOM      8  C7  BZF d   1       5.999  -4.862  -5.997  0.00  0.00     0.029 A 
ATOM      9  C7A BZF d   1       5.419  -3.734  -5.470  0.00  0.00     0.058 A 
ENDROOT
TORSDOF 0
ENDMDL
