MODEL 1
REMARK minimizedAffinity 10.3707781
REMARK minimizedRMSD -1
REMARK  0 active torsions:
REMARK  status: ('A' for Active; 'I' for Inactive)
ROOT
ATOM      1  O1  BZF d   1       4.719  -5.753  -2.916  0.00  0.00    -0.204 OA
ATOM      2  C2  BZF d   1       5.987  -5.828  -3.458  0.00  0.00     0.174 A 
ATOM      3  C3  BZF d   1       6.000  -5.339  -4.715  0.00  0.00    -0.012 A 
ATOM      4  C3A BZF d   1       4.675  -4.848  -4.942  0.00  0.00    -0.107 A 
ATOM      5  C4  BZF d   1       4.070  -4.233  -6.000  0.00  0.00     0.055 A 
ATOM      6  C5  BZF d   1       2.743  -3.947  -5.927  0.00  0.00    -0.016 A 
ATOM      7  C6  BZF d   1       1.991  -4.267  -4.816  0.00  0.00     0.022 A 
ATOM      8  C7  BZF d   1       2.549  -4.873  -3.739  0.00  0.00     0.029 A 
ATOM      9  C7A BZF d   1       3.896  -5.133  -3.796  0.00  0.00     0.058 A 
ENDROOT
TORSDOF 0
ENDMDL
