MODEL 1
REMARK minimizedAffinity 6.9853282
REMARK minimizedRMSD -1
REMARK  0 active torsions:
REMARK  status: ('A' for Active; 'I' for Inactive)
ROOT
ATOM      1  O1  BZF d   1       3.897  -2.821  -3.803  0.00  0.00    -0.204 OA
ATOM      2  C2  BZF d   1       3.744  -2.098  -4.970  0.00  0.00     0.174 A 
ATOM      3  C3  BZF d   1       4.375  -2.705  -5.995  0.00  0.00    -0.012 A 
ATOM      4  C3A BZF d   1       4.880  -3.930  -5.454  0.00  0.00    -0.107 A 
ATOM      5  C4  BZF d   1       5.584  -4.972  -5.986  0.00  0.00     0.055 A 
ATOM      6  C5  BZF d   1       5.986  -5.982  -5.171  0.00  0.00    -0.016 A 
ATOM      7  C6  BZF d   1       5.707  -5.980  -3.820  0.00  0.00     0.022 A 
ATOM      8  C7  BZF d   1       5.007  -4.971  -3.248  0.00  0.00     0.029 A 
ATOM      9  C7A BZF d   1       4.571  -3.964  -4.075  0.00  0.00     0.058 A 
ENDROOT
TORSDOF 0
ENDMDL
