MODEL 1
REMARK minimizedAffinity 11.2166595
REMARK minimizedRMSD -1
REMARK  0 active torsions:
REMARK  status: ('A' for Active; 'I' for Inactive)
ROOT
ATOM      1  O1  BZF d   1       5.648  -5.050  -5.999  0.00  0.00    -0.204 OA
ATOM      2  C2  BZF d   1       5.849  -5.999  -5.016  0.00  0.00     0.174 A 
ATOM      3  C3  BZF d   1       5.479  -5.525  -3.809  0.00  0.00    -0.012 A 
ATOM      4  C3A BZF d   1       4.931  -4.228  -4.067  0.00  0.00    -0.107 A 
ATOM      5  C4  BZF d   1       4.380  -3.267  -3.269  0.00  0.00     0.055 A 
ATOM      6  C5  BZF d   1       4.009  -2.082  -3.823  0.00  0.00    -0.016 A 
ATOM      7  C6  BZF d   1       4.179  -1.824  -5.167  0.00  0.00     0.022 A 
ATOM      8  C7  BZF d   1       4.717  -2.749  -5.999  0.00  0.00     0.029 A 
ATOM      9  C7A BZF d   1       5.062  -3.959  -5.449  0.00  0.00     0.058 A 
ENDROOT
TORSDOF 0
ENDMDL
