MODEL 1
REMARK minimizedAffinity 9.59947014
REMARK minimizedRMSD -1
REMARK  0 active torsions:
REMARK  status: ('A' for Active; 'I' for Inactive)
ROOT
ATOM      1  C4' PXY d   1      -5.960   1.200   5.999  0.00  0.00     0.077 C 
ATOM      2  C1' PXY d   1      -5.852   5.997   2.775  0.00  0.00     0.077 C 
ATOM      3  C1  PXY d   1      -5.876   4.746   3.631  0.00  0.00    -0.082 A 
ATOM      4  C2  PXY d   1      -5.797   3.558   3.054  0.00  0.00     0.003 A 
ATOM      5  C3  PXY d   1      -5.849   2.415   3.810  0.00  0.00     0.003 A 
ATOM      6  C4  PXY d   1      -5.930   2.491   5.175  0.00  0.00    -0.082 A 
ATOM      7  C5  PXY d   1      -6.000   3.699   5.771  0.00  0.00     0.003 A 
ATOM      8  C6  PXY d   1      -5.986   4.846   4.983  0.00  0.00     0.003 A 
ENDROOT
TORSDOF 0
ENDMDL
