MODEL 1
REMARK minimizedAffinity 4.96089649
REMARK minimizedRMSD -1
REMARK  0 active torsions:
REMARK  status: ('A' for Active; 'I' for Inactive)
ROOT
ATOM      1  C4' PXY d   1       5.053   2.870  -1.126  0.00  0.00     0.077 C 
ATOM      2  C1' PXY d   1       3.049  -2.520  -0.544  0.00  0.00     0.077 C 
ATOM      3  C1  PXY d   1       3.586  -1.111  -0.692  0.00  0.00    -0.082 A 
ATOM      4  C2  PXY d   1       2.753  -0.084  -0.644  0.00  0.00     0.003 A 
ATOM      5  C3  PXY d   1       3.217   1.195  -0.809  0.00  0.00     0.003 A 
ATOM      6  C4  PXY d   1       4.556   1.430  -0.971  0.00  0.00    -0.082 A 
ATOM      7  C5  PXY d   1       5.415   0.389  -1.011  0.00  0.00     0.003 A 
ATOM      8  C6  PXY d   1       4.918  -0.905  -0.883  0.00  0.00     0.003 A 
ENDROOT
TORSDOF 0
ENDMDL
