MODEL 1
REMARK minimizedAffinity 7.34207392
REMARK minimizedRMSD -1
REMARK  0 active torsions:
REMARK  status: ('A' for Active; 'I' for Inactive)
ROOT
ATOM      1  C4' PXY d   1       4.203   0.526  -0.622  0.00  0.00     0.077 C 
ATOM      2  C1' PXY d   1       5.999   5.995  -0.088  0.00  0.00     0.077 C 
ATOM      3  C1  PXY d   1       5.535   4.557  -0.218  0.00  0.00    -0.082 A 
ATOM      4  C2  PXY d   1       5.130   4.104  -1.393  0.00  0.00     0.003 A 
ATOM      5  C3  PXY d   1       4.677   2.816  -1.521  0.00  0.00     0.003 A 
ATOM      6  C4  PXY d   1       4.689   1.967  -0.447  0.00  0.00    -0.082 A 
ATOM      7  C5  PXY d   1       5.111   2.419   0.753  0.00  0.00     0.003 A 
ATOM      8  C6  PXY d   1       5.528   3.742   0.872  0.00  0.00     0.003 A 
ENDROOT
TORSDOF 0
ENDMDL
