MODEL 1
REMARK minimizedAffinity 1.64401901
REMARK minimizedRMSD -1
REMARK  0 active torsions:
REMARK  status: ('A' for Active; 'I' for Inactive)
ROOT
ATOM      1  C4' PXY d   1       6.000   4.574  -1.273  0.00  0.00     0.077 C 
ATOM      2  C1' PXY d   1       4.104  -0.744  -0.033  0.00  0.00     0.077 C 
ATOM      3  C1  PXY d   1       4.600   0.654  -0.346  0.00  0.00    -0.082 A 
ATOM      4  C2  PXY d   1       4.497   1.124  -1.578  0.00  0.00     0.003 A 
ATOM      5  C3  PXY d   1       4.969   2.374  -1.885  0.00  0.00     0.003 A 
ATOM      6  C4  PXY d   1       5.504   3.172  -0.909  0.00  0.00    -0.082 A 
ATOM      7  C5  PXY d   1       5.603   2.703   0.353  0.00  0.00     0.003 A 
ATOM      8  C6  PXY d   1       5.155   1.416   0.635  0.00  0.00     0.003 A 
ENDROOT
TORSDOF 0
ENDMDL
