MODEL 1
REMARK minimizedAffinity 4.50834846
REMARK minimizedRMSD -1
REMARK  0 active torsions:
REMARK  status: ('A' for Active; 'I' for Inactive)
ROOT
ATOM      1  C4' PXY d   1       0.374  -4.323  -1.216  0.00  0.00     0.077 C 
ATOM      2  C1' PXY d   1       4.147   0.006  -0.558  0.00  0.00     0.077 C 
ATOM      3  C1  PXY d   1       3.150  -1.121  -0.737  0.00  0.00    -0.082 A 
ATOM      4  C2  PXY d   1       3.176  -2.155   0.088  0.00  0.00     0.003 A 
ATOM      5  C3  PXY d   1       2.302  -3.198  -0.078  0.00  0.00     0.003 A 
ATOM      6  C4  PXY d   1       1.356  -3.158  -1.067  0.00  0.00    -0.082 A 
ATOM      7  C5  PXY d   1       1.315  -2.101  -1.907  0.00  0.00     0.003 A 
ATOM      8  C6  PXY d   1       2.238  -1.072  -1.746  0.00  0.00     0.003 A 
ENDROOT
TORSDOF 0
ENDMDL
