MODEL 1
REMARK minimizedAffinity 9.4307003
REMARK minimizedRMSD -1
REMARK  0 active torsions:
REMARK  status: ('A' for Active; 'I' for Inactive)
ROOT
ATOM      1  C4' PXY d   1       4.418  -0.144   0.109  0.00  0.00     0.077 C 
ATOM      2  C1' PXY d   1      -1.065   1.524   0.860  0.00  0.00     0.077 C 
ATOM      3  C1  PXY d   1       0.369   1.080   0.653  0.00  0.00    -0.082 A 
ATOM      4  C2  PXY d   1       1.204   1.063   1.679  0.00  0.00     0.003 A 
ATOM      5  C3  PXY d   1       2.513   0.695   1.503  0.00  0.00     0.003 A 
ATOM      6  C4  PXY d   1       2.958   0.288   0.274  0.00  0.00    -0.082 A 
ATOM      7  C5  PXY d   1       2.110   0.292  -0.776  0.00  0.00     0.003 A 
ATOM      8  C6  PXY d   1       0.796   0.709  -0.585  0.00  0.00     0.003 A 
ENDROOT
TORSDOF 0
ENDMDL
