MODEL 1
REMARK minimizedAffinity 3.65687227
REMARK minimizedRMSD -1
REMARK  0 active torsions:
REMARK  status: ('A' for Active; 'I' for Inactive)
ROOT
ATOM      1  C4' PXY d   1       6.000   3.749  -0.005  0.00  0.00     0.077 C 
ATOM      2  C1' PXY d   1       3.033  -1.208  -0.196  0.00  0.00     0.077 C 
ATOM      3  C1  PXY d   1       3.806   0.094  -0.134  0.00  0.00    -0.082 A 
ATOM      4  C2  PXY d   1       4.119   0.723  -1.255  0.00  0.00     0.003 A 
ATOM      5  C3  PXY d   1       4.846   1.885  -1.219  0.00  0.00     0.003 A 
ATOM      6  C4  PXY d   1       5.211   2.437  -0.020  0.00  0.00    -0.082 A 
ATOM      7  C5  PXY d   1       4.886   1.806   1.129  0.00  0.00     0.003 A 
ATOM      8  C6  PXY d   1       4.184   0.606   1.069  0.00  0.00     0.003 A 
ENDROOT
TORSDOF 0
ENDMDL
