MODEL 1
REMARK minimizedAffinity -1.04428899
REMARK minimizedRMSD -1
REMARK  0 active torsions:
REMARK  status: ('A' for Active; 'I' for Inactive)
ROOT
ATOM      1  C4' PXY d   1      -5.996   4.121  -1.499  0.00  0.00     0.077 C 
ATOM      2  C1' PXY d   1      -4.152   0.606  -5.702  0.00  0.00     0.077 C 
ATOM      3  C1  PXY d   1      -4.631   1.538  -4.606  0.00  0.00    -0.082 A 
ATOM      4  C2  PXY d   1      -4.859   1.059  -3.394  0.00  0.00     0.003 A 
ATOM      5  C3  PXY d   1      -5.323   1.882  -2.399  0.00  0.00     0.003 A 
ATOM      6  C4  PXY d   1      -5.503   3.219  -2.634  0.00  0.00    -0.082 A 
ATOM      7  C5  PXY d   1      -5.262   3.717  -3.865  0.00  0.00     0.003 A 
ATOM      8  C6  PXY d   1      -4.831   2.857  -4.872  0.00  0.00     0.003 A 
ENDROOT
TORSDOF 0
ENDMDL
