MODEL 1
REMARK minimizedAffinity 8.31827068
REMARK minimizedRMSD -1
REMARK  0 active torsions:
REMARK  status: ('A' for Active; 'I' for Inactive)
ROOT
ATOM      1  C   UNL d   1       2.881   4.800   2.053  0.00  0.00    -0.002 A 
ATOM      2  C1  UNL d   1       2.616   5.272   0.775  0.00  0.00     0.010 A 
ATOM      3  C2  UNL d   1       2.237   4.395  -0.242  0.00  0.00     0.041 A 
ATOM      4  C3  UNL d   1       2.126   3.021   0.049  0.00  0.00    -0.075 A 
ATOM      5  S   UNL d   1       1.677   1.761  -1.038  0.00  0.00     0.015 SA
ATOM      6  C4  UNL d   1       1.825   0.565   0.168  0.00  0.00     0.022 A 
ATOM      7  C5  UNL d   1       2.207   1.097   1.376  0.00  0.00     0.026 A 
ATOM      8  C6  UNL d   1       2.387   2.521   1.328  0.00  0.00    -0.082 A 
ATOM      9  C7  UNL d   1       2.770   3.436   2.338  0.00  0.00     0.045 A 
ENDROOT
TORSDOF 0
ENDMDL
