MODEL 1
REMARK minimizedAffinity -5.05928898
REMARK minimizedRMSD -1
REMARK  0 active torsions:
REMARK  status: ('A' for Active; 'I' for Inactive)
ROOT
ATOM      1  C   UNL d   1       2.127  -2.085  -3.106  0.00  0.00    -0.002 A 
ATOM      2  C1  UNL d   1       1.508  -2.899  -2.168  0.00  0.00     0.010 A 
ATOM      3  C2  UNL d   1       0.857  -2.344  -1.065  0.00  0.00     0.041 A 
ATOM      4  C3  UNL d   1       0.835  -0.942  -0.921  0.00  0.00    -0.075 A 
ATOM      5  S   UNL d   1       0.096  -0.039   0.349  0.00  0.00     0.015 SA
ATOM      6  C4  UNL d   1       0.584   1.448  -0.325  0.00  0.00     0.022 A 
ATOM      7  C5  UNL d   1       1.294   1.279  -1.490  0.00  0.00     0.026 A 
ATOM      8  C6  UNL d   1       1.450  -0.102  -1.853  0.00  0.00    -0.082 A 
ATOM      9  C7  UNL d   1       2.104  -0.695  -2.960  0.00  0.00     0.045 A 
ENDROOT
TORSDOF 0
ENDMDL
