MODEL 1
REMARK minimizedAffinity -4.14391565
REMARK minimizedRMSD -1
REMARK  0 active torsions:
REMARK  status: ('A' for Active; 'I' for Inactive)
ROOT
ATOM      1  C   UNL d   1       2.014  -1.498  -3.080  0.00  0.00    -0.002 A 
ATOM      2  C1  UNL d   1       2.329  -0.159  -3.265  0.00  0.00     0.010 A 
ATOM      3  C2  UNL d   1       1.872   0.809  -2.369  0.00  0.00     0.041 A 
ATOM      4  C3  UNL d   1       1.087   0.405  -1.271  0.00  0.00    -0.075 A 
ATOM      5  S   UNL d   1       0.418   1.414  -0.044  0.00  0.00     0.015 SA
ATOM      6  C4  UNL d   1      -0.301   0.092   0.756  0.00  0.00     0.022 A 
ATOM      7  C5  UNL d   1      -0.047  -1.098   0.116  0.00  0.00     0.026 A 
ATOM      8  C6  UNL d   1       0.757  -0.937  -1.062  0.00  0.00    -0.082 A 
ATOM      9  C7  UNL d   1       1.235  -1.895  -1.989  0.00  0.00     0.045 A 
ENDROOT
TORSDOF 0
ENDMDL
