MODEL 1
REMARK minimizedAffinity -5.33470535
REMARK minimizedRMSD -1
REMARK  0 active torsions:
REMARK  status: ('A' for Active; 'I' for Inactive)
ROOT
ATOM      1  C   UNL d   1       2.017  -1.051  -3.000  0.00  0.00    -0.002 A 
ATOM      2  C1  UNL d   1       1.558  -2.218  -2.406  0.00  0.00     0.010 A 
ATOM      3  C2  UNL d   1       0.865  -2.173  -1.195  0.00  0.00     0.041 A 
ATOM      4  C3  UNL d   1       0.637  -0.923  -0.586  0.00  0.00    -0.075 A 
ATOM      5  S   UNL d   1      -0.190  -0.624   0.897  0.00  0.00     0.015 SA
ATOM      6  C4  UNL d   1       0.047   1.059   0.776  0.00  0.00     0.022 A 
ATOM      7  C5  UNL d   1       0.738   1.402  -0.362  0.00  0.00     0.026 A 
ATOM      8  C6  UNL d   1       1.089   0.266  -1.166  0.00  0.00    -0.082 A 
ATOM      9  C7  UNL d   1       1.789   0.187  -2.394  0.00  0.00     0.045 A 
ENDROOT
TORSDOF 0
ENDMDL
