MODEL 1
REMARK minimizedAffinity -1.44314384
REMARK minimizedRMSD -1
REMARK  0 active torsions:
REMARK  status: ('A' for Active; 'I' for Inactive)
ROOT
ATOM      1  C   UNL d   1      -3.415   0.165   0.964  0.00  0.00    -0.002 A 
ATOM      2  C1  UNL d   1      -2.831   0.372   2.205  0.00  0.00     0.010 A 
ATOM      3  C2  UNL d   1      -1.468   0.656   2.311  0.00  0.00     0.041 A 
ATOM      4  C3  UNL d   1      -0.694   0.732   1.135  0.00  0.00    -0.075 A 
ATOM      5  S   UNL d   1       0.993   1.067   1.021  0.00  0.00     0.015 SA
ATOM      6  C4  UNL d   1       0.978   0.944  -0.679  0.00  0.00     0.022 A 
ATOM      7  C5  UNL d   1      -0.276   0.655  -1.164  0.00  0.00     0.026 A 
ATOM      8  C6  UNL d   1      -1.260   0.528  -0.127  0.00  0.00    -0.082 A 
ATOM      9  C7  UNL d   1      -2.644   0.241  -0.200  0.00  0.00     0.045 A 
ENDROOT
TORSDOF 0
ENDMDL
