MODEL 1
REMARK minimizedAffinity 1.26918066
REMARK minimizedRMSD -1
REMARK  0 active torsions:
REMARK  status: ('A' for Active; 'I' for Inactive)
ROOT
ATOM      1  C   UNL d   1       1.881   1.557  -1.636  0.00  0.00    -0.002 A 
ATOM      2  C1  UNL d   1       2.424   0.373  -2.117  0.00  0.00     0.010 A 
ATOM      3  C2  UNL d   1       2.019  -0.857  -1.594  0.00  0.00     0.041 A 
ATOM      4  C3  UNL d   1       1.050  -0.878  -0.572  0.00  0.00    -0.075 A 
ATOM      5  S   UNL d   1       0.402  -2.267   0.218  0.00  0.00     0.015 SA
ATOM      6  C4  UNL d   1      -0.610  -1.322   1.211  0.00  0.00     0.022 A 
ATOM      7  C5  UNL d   1      -0.470   0.023   0.960  0.00  0.00     0.026 A 
ATOM      8  C6  UNL d   1       0.489   0.301  -0.072  0.00  0.00    -0.082 A 
ATOM      9  C7  UNL d   1       0.920   1.532  -0.622  0.00  0.00     0.045 A 
ENDROOT
TORSDOF 0
ENDMDL
