MODEL 1
REMARK minimizedAffinity -2.5903604
REMARK minimizedRMSD -1
REMARK  0 active torsions:
REMARK  status: ('A' for Active; 'I' for Inactive)
ROOT
ATOM      1  C   UNL d   1      -4.009   0.610   2.024  0.00  0.00    -0.002 A 
ATOM      2  C1  UNL d   1      -4.359   0.882   0.710  0.00  0.00     0.010 A 
ATOM      3  C2  UNL d   1      -3.420   0.757  -0.316  0.00  0.00     0.041 A 
ATOM      4  C3  UNL d   1      -2.111   0.347   0.005  0.00  0.00    -0.075 A 
ATOM      5  S   UNL d   1      -0.795   0.124  -1.086  0.00  0.00     0.015 SA
ATOM      6  C4  UNL d   1       0.263  -0.339   0.167  0.00  0.00     0.022 A 
ATOM      7  C5  UNL d   1      -0.356  -0.329   1.395  0.00  0.00     0.026 A 
ATOM      8  C6  UNL d   1      -1.735   0.066   1.321  0.00  0.00    -0.082 A 
ATOM      9  C7  UNL d   1      -2.710   0.204   2.339  0.00  0.00     0.045 A 
ENDROOT
TORSDOF 0
ENDMDL
