MODEL 1
REMARK minimizedAffinity -4.99505377
REMARK minimizedRMSD -1
REMARK  0 active torsions:
REMARK  status: ('A' for Active; 'I' for Inactive)
ROOT
ATOM      1  C   UNL d   1       1.368   0.407  -2.776  0.00  0.00    -0.002 A 
ATOM      2  C1  UNL d   1       1.346  -0.966  -2.977  0.00  0.00     0.010 A 
ATOM      3  C2  UNL d   1       0.977  -1.830  -1.944  0.00  0.00     0.041 A 
ATOM      4  C3  UNL d   1       0.625  -1.285  -0.693  0.00  0.00    -0.075 A 
ATOM      5  S   UNL d   1       0.140  -2.149   0.717  0.00  0.00     0.015 SA
ATOM      6  C4  UNL d   1      -0.051  -0.716   1.620  0.00  0.00     0.022 A 
ATOM      7  C5  UNL d   1       0.244   0.404   0.879  0.00  0.00     0.026 A 
ATOM      8  C6  UNL d   1       0.639   0.094  -0.467  0.00  0.00    -0.082 A 
ATOM      9  C7  UNL d   1       1.018   0.943  -1.534  0.00  0.00     0.045 A 
ENDROOT
TORSDOF 0
ENDMDL
