MODEL 1
REMARK minimizedAffinity 1.92502451
REMARK minimizedRMSD -1
REMARK  0 active torsions:
REMARK  status: ('A' for Active; 'I' for Inactive)
ROOT
ATOM      1  C   UNL d   1      -3.665   1.215   2.279  0.00  0.00    -0.002 A 
ATOM      2  C1  UNL d   1      -4.257   0.718   1.126  0.00  0.00     0.010 A 
ATOM      3  C2  UNL d   1      -3.482   0.115   0.134  0.00  0.00     0.041 A 
ATOM      4  C3  UNL d   1      -2.090   0.016   0.322  0.00  0.00    -0.075 A 
ATOM      5  S   UNL d   1      -0.942  -0.684  -0.758  0.00  0.00     0.015 SA
ATOM      6  C4  UNL d   1       0.361  -0.341   0.286  0.00  0.00     0.022 A 
ATOM      7  C5  UNL d   1      -0.052   0.292   1.435  0.00  0.00     0.026 A 
ATOM      8  C6  UNL d   1      -1.471   0.508   1.475  0.00  0.00    -0.082 A 
ATOM      9  C7  UNL d   1      -2.283   1.115   2.462  0.00  0.00     0.045 A 
ENDROOT
TORSDOF 0
ENDMDL
