MODEL 1
REMARK minimizedAffinity -4.55028486
REMARK minimizedRMSD -1
REMARK  0 active torsions:
REMARK  status: ('A' for Active; 'I' for Inactive)
ROOT
ATOM      1  C   UNL d   1       1.942  -2.039  -1.874  0.00  0.00    -0.002 A 
ATOM      2  C1  UNL d   1       2.331  -0.817  -2.404  0.00  0.00     0.010 A 
ATOM      3  C2  UNL d   1       1.879   0.378  -1.840  0.00  0.00     0.041 A 
ATOM      4  C3  UNL d   1       1.023   0.324  -0.722  0.00  0.00    -0.075 A 
ATOM      5  S   UNL d   1       0.346   1.658   0.134  0.00  0.00     0.015 SA
ATOM      6  C4  UNL d   1      -0.475   0.637   1.225  0.00  0.00     0.022 A 
ATOM      7  C5  UNL d   1      -0.249  -0.692   0.956  0.00  0.00     0.026 A 
ATOM      8  C6  UNL d   1       0.618  -0.895  -0.170  0.00  0.00    -0.082 A 
ATOM      9  C7  UNL d   1       1.092  -2.089  -0.765  0.00  0.00     0.045 A 
ENDROOT
TORSDOF 0
ENDMDL
