MODEL 1
REMARK minimizedAffinity 2.51509023
REMARK minimizedRMSD -1
REMARK  0 active torsions:
REMARK  status: ('A' for Active; 'I' for Inactive)
ROOT
ATOM      1  C   UNL d   1       2.637   1.461  -1.372  0.00  0.00    -0.002 A 
ATOM      2  C1  UNL d   1       1.682   2.380  -0.959  0.00  0.00     0.010 A 
ATOM      3  C2  UNL d   1       0.561   1.964  -0.238  0.00  0.00     0.041 A 
ATOM      4  C3  UNL d   1       0.414   0.597   0.065  0.00  0.00    -0.075 A 
ATOM      5  S   UNL d   1      -0.877  -0.142   0.937  0.00  0.00     0.015 SA
ATOM      6  C4  UNL d   1      -0.192  -1.695   0.783  0.00  0.00     0.022 A 
ATOM      7  C5  UNL d   1       0.993  -1.669   0.086  0.00  0.00     0.026 A 
ATOM      8  C6  UNL d   1       1.362  -0.348  -0.339  0.00  0.00    -0.082 A 
ATOM      9  C7  UNL d   1       2.487   0.104  -1.069  0.00  0.00     0.045 A 
ENDROOT
TORSDOF 0
ENDMDL
