MODEL 1
REMARK minimizedAffinity -5.65460825
REMARK minimizedRMSD -1
REMARK  0 active torsions:
REMARK  status: ('A' for Active; 'I' for Inactive)
ROOT
ATOM      1  C   UNL d   1       1.323   1.993  -0.984  0.00  0.00    -0.002 A 
ATOM      2  C1  UNL d   1       0.983   1.808   0.348  0.00  0.00     0.010 A 
ATOM      3  C2  UNL d   1       0.667   0.536   0.831  0.00  0.00     0.041 A 
ATOM      4  C3  UNL d   1       0.702  -0.557  -0.057  0.00  0.00    -0.075 A 
ATOM      5  S   UNL d   1       0.355  -2.206   0.311  0.00  0.00     0.015 SA
ATOM      6  C4  UNL d   1       0.651  -2.703  -1.292  0.00  0.00     0.022 A 
ATOM      7  C5  UNL d   1       1.007  -1.650  -2.101  0.00  0.00     0.026 A 
ATOM      8  C6  UNL d   1       1.043  -0.396  -1.403  0.00  0.00    -0.082 A 
ATOM      9  C7  UNL d   1       1.356   0.906  -1.862  0.00  0.00     0.045 A 
ENDROOT
TORSDOF 0
ENDMDL
