MODEL 1
REMARK minimizedAffinity 2.43621874
REMARK minimizedRMSD -1
REMARK  0 active torsions:
REMARK  status: ('A' for Active; 'I' for Inactive)
ROOT
ATOM      1  C   UNL d   1      -4.641   6.000   5.974  0.00  0.00     0.172 C 
ATOM      2  N   UNL d   1      -5.012   5.214   4.820  0.00  0.00    -0.070 N 
ATOM      3  C1  UNL d   1      -4.534   5.388   3.549  0.00  0.00    -0.004 A 
ATOM      4  C2  UNL d   1      -5.129   4.442   2.741  0.00  0.00    -0.047 A 
ATOM      5  C3  UNL d   1      -5.995   3.674   3.556  0.00  0.00    -0.047 A 
ATOM      6  C4  UNL d   1      -5.903   4.173   4.838  0.00  0.00    -0.004 A 
ENDROOT
TORSDOF 0
ENDMDL
