MODEL 1
REMARK minimizedAffinity -1.75069296
REMARK minimizedRMSD -1
REMARK  0 active torsions:
REMARK  status: ('A' for Active; 'I' for Inactive)
ROOT
ATOM      1  C   UNL d   1      -5.934   4.193   2.848  0.00  0.00     0.172 C 
ATOM      2  N   UNL d   1      -5.363   4.896   3.973  0.00  0.00    -0.070 N 
ATOM      3  C1  UNL d   1      -6.000   5.160   5.157  0.00  0.00    -0.004 A 
ATOM      4  C2  UNL d   1      -5.120   5.845   5.966  0.00  0.00    -0.047 A 
ATOM      5  C3  UNL d   1      -3.913   6.000   5.243  0.00  0.00    -0.047 A 
ATOM      6  C4  UNL d   1      -4.091   5.403   4.013  0.00  0.00    -0.004 A 
ENDROOT
TORSDOF 0
ENDMDL
