MODEL 1
REMARK minimizedAffinity 3.07120991
REMARK minimizedRMSD -1
REMARK  0 active torsions:
REMARK  status: ('A' for Active; 'I' for Inactive)
ROOT
ATOM      1  C   UNL d   1       4.525   1.534  -2.217  0.00  0.00     0.172 C 
ATOM      2  N   UNL d   1       3.633   1.044  -1.193  0.00  0.00    -0.070 N 
ATOM      3  C1  UNL d   1       2.269   0.962  -1.295  0.00  0.00    -0.004 A 
ATOM      4  C2  UNL d   1       1.788   0.444  -0.111  0.00  0.00    -0.047 A 
ATOM      5  C3  UNL d   1       2.901   0.208   0.731  0.00  0.00    -0.047 A 
ATOM      6  C4  UNL d   1       4.030   0.588   0.037  0.00  0.00    -0.004 A 
ENDROOT
TORSDOF 0
ENDMDL
