MODEL 1
REMARK minimizedAffinity -1.85947359
REMARK minimizedRMSD -1
REMARK  0 active torsions:
REMARK  status: ('A' for Active; 'I' for Inactive)
ROOT
ATOM      1  C   UNL d   1      -2.890   5.984   4.470  0.00  0.00     0.172 C 
ATOM      2  N   UNL d   1      -4.155   5.330   4.713  0.00  0.00    -0.070 N 
ATOM      3  C1  UNL d   1      -4.849   4.573   3.807  0.00  0.00    -0.004 A 
ATOM      4  C2  UNL d   1      -5.999   4.129   4.422  0.00  0.00    -0.047 A 
ATOM      5  C3  UNL d   1      -5.997   4.637   5.743  0.00  0.00    -0.047 A 
ATOM      6  C4  UNL d   1      -4.844   5.378   5.896  0.00  0.00    -0.004 A 
ENDROOT
TORSDOF 0
ENDMDL
