MODEL 1
REMARK minimizedAffinity 6.71087313
REMARK minimizedRMSD -1
REMARK  0 active torsions:
REMARK  status: ('A' for Active; 'I' for Inactive)
ROOT
ATOM      1  C   UNL d   1      -4.617   4.089   2.672  0.00  0.00     0.172 C 
ATOM      2  N   UNL d   1      -4.893   4.716   3.943  0.00  0.00    -0.070 N 
ATOM      3  C1  UNL d   1      -6.000   4.497   4.719  0.00  0.00    -0.004 A 
ATOM      4  C2  UNL d   1      -5.888   5.281   5.846  0.00  0.00    -0.047 A 
ATOM      5  C3  UNL d   1      -4.671   5.997   5.745  0.00  0.00    -0.047 A 
ATOM      6  C4  UNL d   1      -4.076   5.628   4.557  0.00  0.00    -0.004 A 
ENDROOT
TORSDOF 0
ENDMDL
