MODEL 1
REMARK minimizedAffinity 0.310491115
REMARK minimizedRMSD -1
REMARK  0 active torsions:
REMARK  status: ('A' for Active; 'I' for Inactive)
ROOT
ATOM      1  C   UNL d   1      -4.532   4.386   2.768  0.00  0.00     0.172 C 
ATOM      2  N   UNL d   1      -4.861   4.884   4.082  0.00  0.00    -0.070 N 
ATOM      3  C1  UNL d   1      -4.121   5.783   4.804  0.00  0.00    -0.004 A 
ATOM      4  C2  UNL d   1      -4.771   6.000   6.000  0.00  0.00    -0.047 A 
ATOM      5  C3  UNL d   1      -5.941   5.204   5.997  0.00  0.00    -0.047 A 
ATOM      6  C4  UNL d   1      -5.972   4.524   4.798  0.00  0.00    -0.004 A 
ENDROOT
TORSDOF 0
ENDMDL
