MODEL 1
REMARK minimizedAffinity 2.63820481
REMARK minimizedRMSD -1
REMARK  0 active torsions:
REMARK  status: ('A' for Active; 'I' for Inactive)
ROOT
ATOM      1  C   UNL d   1       4.582   1.371  -1.853  0.00  0.00     0.172 C 
ATOM      2  N   UNL d   1       3.722   0.763  -0.865  0.00  0.00    -0.070 N 
ATOM      3  C1  UNL d   1       3.909   0.807   0.491  0.00  0.00    -0.004 A 
ATOM      4  C2  UNL d   1       2.876   0.111   1.082  0.00  0.00    -0.047 A 
ATOM      5  C3  UNL d   1       2.040  -0.367   0.045  0.00  0.00    -0.047 A 
ATOM      6  C4  UNL d   1       2.587   0.051  -1.149  0.00  0.00    -0.004 A 
ENDROOT
TORSDOF 0
ENDMDL
