MODEL 1
REMARK minimizedAffinity 0.0413626321
REMARK minimizedRMSD -1
REMARK  1 active torsions:
REMARK  status: ('A' for Active; 'I' for Inactive)
REMARK    1  A    between atoms: C3_4  and  O_7 
ROOT
ATOM      1  C   UNL d   1       1.057   0.805   0.046  0.00  0.00    -0.033 A 
ATOM      2  C1  UNL d   1       2.041  -0.177  -0.079  0.00  0.00     0.039 A 
ATOM      3  C2  UNL d   1       3.389   0.184  -0.119  0.00  0.00    -0.080 A 
ATOM      4  C3  UNL d   1       3.739   1.529  -0.032  0.00  0.00     0.150 A 
ATOM      5  C4  UNL d   1       2.763   2.512   0.097  0.00  0.00    -0.007 A 
ATOM      6  C5  UNL d   1       1.418   2.149   0.136  0.00  0.00     0.039 A 
ENDROOT
BRANCH   4   7
ATOM      7  O   UNL d   1       5.041   1.931  -0.071  0.00  0.00    -0.526 OA
ATOM      8  H5  UNL d   1       5.602   1.146  -0.191  0.00  0.00     0.418 HD
ENDBRANCH   4   7
TORSDOF 1
ENDMDL
