MODEL 1
REMARK minimizedAffinity 1.28064597
REMARK minimizedRMSD -1
REMARK  1 active torsions:
REMARK  status: ('A' for Active; 'I' for Inactive)
REMARK    1  A    between atoms: C3_4  and  O_7 
ROOT
ATOM      1  C   UNL d   1       3.994   0.170   0.376  0.00  0.00    -0.033 A 
ATOM      2  C1  UNL d   1       3.116  -0.866   0.052  0.00  0.00     0.039 A 
ATOM      3  C2  UNL d   1       1.786  -0.583  -0.266  0.00  0.00    -0.080 A 
ATOM      4  C3  UNL d   1       1.347   0.738  -0.257  0.00  0.00     0.150 A 
ATOM      5  C4  UNL d   1       2.217   1.776   0.061  0.00  0.00    -0.007 A 
ATOM      6  C5  UNL d   1       3.545   1.491   0.379  0.00  0.00     0.039 A 
ENDROOT
BRANCH   4   7
ATOM      7  O   UNL d   1       0.057   1.062  -0.555  0.00  0.00    -0.526 OA
ATOM      8  H5  UNL d   1      -0.435   0.242  -0.726  0.00  0.00     0.418 HD
ENDBRANCH   4   7
TORSDOF 1
ENDMDL
