MODEL 1
REMARK minimizedAffinity 2.30830479
REMARK minimizedRMSD -1
REMARK  1 active torsions:
REMARK  status: ('A' for Active; 'I' for Inactive)
REMARK    1  A    between atoms: C3_4  and  O_7 
ROOT
ATOM      1  C   UNL d   1       2.205   0.170   0.678  0.00  0.00    -0.033 A 
ATOM      2  C1  UNL d   1       1.271   1.166   0.970  0.00  0.00     0.039 A 
ATOM      3  C2  UNL d   1       1.586   2.508   0.746  0.00  0.00    -0.080 A 
ATOM      4  C3  UNL d   1       2.836   2.840   0.231  0.00  0.00     0.150 A 
ATOM      5  C4  UNL d   1       3.770   1.853  -0.066  0.00  0.00    -0.007 A 
ATOM      6  C5  UNL d   1       3.454   0.514   0.159  0.00  0.00     0.039 A 
ENDROOT
BRANCH   4   7
ATOM      7  O   UNL d   1       3.190   4.136   0.000  0.00  0.00    -0.526 OA
ATOM      8  H5  UNL d   1       2.457   4.710   0.279  0.00  0.00     0.418 HD
ENDBRANCH   4   7
TORSDOF 1
ENDMDL
