MODEL 1
REMARK minimizedAffinity 4.62338591
REMARK minimizedRMSD -1
REMARK  1 active torsions:
REMARK  status: ('A' for Active; 'I' for Inactive)
REMARK    1  A    between atoms: C3_4  and  O_7 
ROOT
ATOM      1  C   UNL d   1       3.966  -0.533   1.143  0.00  0.00    -0.033 A 
ATOM      2  C1  UNL d   1       3.035  -0.893   0.167  0.00  0.00     0.039 A 
ATOM      3  C2  UNL d   1       2.054   0.016  -0.234  0.00  0.00    -0.080 A 
ATOM      4  C3  UNL d   1       2.015   1.280   0.348  0.00  0.00     0.150 A 
ATOM      5  C4  UNL d   1       2.942   1.646   1.319  0.00  0.00    -0.007 A 
ATOM      6  C5  UNL d   1       3.920   0.737   1.718  0.00  0.00     0.039 A 
ENDROOT
BRANCH   4   7
ATOM      7  O   UNL d   1       1.073   2.199  -0.007  0.00  0.00    -0.526 OA
ATOM      8  H5  UNL d   1       0.483   1.797  -0.666  0.00  0.00     0.418 HD
ENDBRANCH   4   7
TORSDOF 1
ENDMDL
