MODEL 1
REMARK minimizedAffinity 4.5247736
REMARK minimizedRMSD -1
REMARK  1 active torsions:
REMARK  status: ('A' for Active; 'I' for Inactive)
REMARK    1  A    between atoms: C3_4  and  O_7 
ROOT
ATOM      1  C   UNL d   1       2.785   1.805   0.119  0.00  0.00    -0.033 A 
ATOM      2  C1  UNL d   1       1.544   1.169   0.047  0.00  0.00     0.039 A 
ATOM      3  C2  UNL d   1       1.468  -0.225   0.073  0.00  0.00    -0.080 A 
ATOM      4  C3  UNL d   1       2.640  -0.971   0.172  0.00  0.00     0.150 A 
ATOM      5  C4  UNL d   1       3.880  -0.344   0.247  0.00  0.00    -0.007 A 
ATOM      6  C5  UNL d   1       3.953   1.048   0.220  0.00  0.00     0.039 A 
ENDROOT
BRANCH   4   7
ATOM      7  O   UNL d   1       2.617  -2.333   0.196  0.00  0.00    -0.526 OA
ATOM      8  H5  UNL d   1       1.695  -2.627   0.107  0.00  0.00     0.418 HD
ENDBRANCH   4   7
TORSDOF 1
ENDMDL
