MODEL 1
REMARK minimizedAffinity -0.503371239
REMARK minimizedRMSD -1
REMARK  1 active torsions:
REMARK  status: ('A' for Active; 'I' for Inactive)
REMARK    1  A    between atoms: C3_4  and  O_7 
ROOT
ATOM      1  C   UNL d   1       3.484   2.315  -0.258  0.00  0.00    -0.033 A 
ATOM      2  C1  UNL d   1       4.187   1.501  -1.148  0.00  0.00     0.039 A 
ATOM      3  C2  UNL d   1       3.940   0.127  -1.185  0.00  0.00    -0.080 A 
ATOM      4  C3  UNL d   1       2.988  -0.419  -0.328  0.00  0.00     0.150 A 
ATOM      5  C4  UNL d   1       2.281   0.386   0.559  0.00  0.00    -0.007 A 
ATOM      6  C5  UNL d   1       2.530   1.758   0.595  0.00  0.00     0.039 A 
ENDROOT
BRANCH   4   7
ATOM      7  O   UNL d   1       2.716  -1.755  -0.324  0.00  0.00    -0.526 OA
ATOM      8  H5  UNL d   1       3.300  -2.190  -0.968  0.00  0.00     0.418 HD
ENDBRANCH   4   7
TORSDOF 1
ENDMDL
