MODEL 1
REMARK minimizedAffinity 3.29716229
REMARK minimizedRMSD -1
REMARK  1 active torsions:
REMARK  status: ('A' for Active; 'I' for Inactive)
REMARK    1  A    between atoms: C3_4  and  O_7 
ROOT
ATOM      1  C   UNL d   1       4.758   5.602   3.741  0.00  0.00    -0.033 A 
ATOM      2  C1  UNL d   1       5.667   4.957   4.583  0.00  0.00     0.039 A 
ATOM      3  C2  UNL d   1       5.257   3.865   5.350  0.00  0.00    -0.080 A 
ATOM      4  C3  UNL d   1       3.938   3.427   5.265  0.00  0.00     0.150 A 
ATOM      5  C4  UNL d   1       3.029   4.061   4.426  0.00  0.00    -0.007 A 
ATOM      6  C5  UNL d   1       3.439   5.153   3.661  0.00  0.00     0.039 A 
ENDROOT
BRANCH   4   7
ATOM      7  O   UNL d   1       3.491   2.368   5.998  0.00  0.00    -0.526 OA
ATOM      8  H5  UNL d   1       4.221   2.047   6.553  0.00  0.00     0.418 HD
ENDBRANCH   4   7
TORSDOF 1
ENDMDL
