MODEL 1
REMARK minimizedAffinity 0.317576468
REMARK minimizedRMSD -1
REMARK  1 active torsions:
REMARK  status: ('A' for Active; 'I' for Inactive)
REMARK    1  A    between atoms: C3_4  and  O_7 
ROOT
ATOM      1  C   UNL d   1       3.088   0.807   0.305  0.00  0.00    -0.033 A 
ATOM      2  C1  UNL d   1       1.828   0.507  -0.218  0.00  0.00     0.039 A 
ATOM      3  C2  UNL d   1       1.432  -0.823  -0.371  0.00  0.00    -0.080 A 
ATOM      4  C3  UNL d   1       2.303  -1.842   0.003  0.00  0.00     0.150 A 
ATOM      5  C4  UNL d   1       3.558  -1.551   0.528  0.00  0.00    -0.007 A 
ATOM      6  C5  UNL d   1       3.952  -0.222   0.679  0.00  0.00     0.039 A 
ENDROOT
BRANCH   4   7
ATOM      7  O   UNL d   1       1.963  -3.156  -0.132  0.00  0.00    -0.526 OA
ATOM      8  H5  UNL d   1       1.080  -3.205  -0.534  0.00  0.00     0.418 HD
ENDBRANCH   4   7
TORSDOF 1
ENDMDL
