MODEL 1
REMARK minimizedAffinity 1.86999846
REMARK minimizedRMSD -1
REMARK  1 active torsions:
REMARK  status: ('A' for Active; 'I' for Inactive)
REMARK    1  A    between atoms: C3_4  and  O_7 
ROOT
ATOM      1  C   UNL d   1       0.024  -2.656  -1.124  0.00  0.00    -0.033 A 
ATOM      2  C1  UNL d   1       1.299  -2.528  -0.568  0.00  0.00     0.039 A 
ATOM      3  C2  UNL d   1       1.820  -1.261  -0.297  0.00  0.00    -0.080 A 
ATOM      4  C3  UNL d   1       1.057  -0.133  -0.584  0.00  0.00     0.150 A 
ATOM      5  C4  UNL d   1      -0.215  -0.253  -1.134  0.00  0.00    -0.007 A 
ATOM      6  C5  UNL d   1      -0.733  -1.519  -1.405  0.00  0.00     0.039 A 
ENDROOT
BRANCH   4   7
ATOM      7  O   UNL d   1       1.525   1.124  -0.342  0.00  0.00    -0.526 OA
ATOM      8  H5  UNL d   1       2.428   1.054   0.011  0.00  0.00     0.418 HD
ENDBRANCH   4   7
TORSDOF 1
ENDMDL
