MODEL 1
REMARK minimizedAffinity 2.75904369
REMARK minimizedRMSD -1
REMARK  1 active torsions:
REMARK  status: ('A' for Active; 'I' for Inactive)
REMARK    1  A    between atoms: C3_4  and  O_7 
ROOT
ATOM      1  C   UNL d   1       0.429  -1.976   0.425  0.00  0.00    -0.033 A 
ATOM      2  C1  UNL d   1       1.653  -2.518   0.823  0.00  0.00     0.039 A 
ATOM      3  C2  UNL d   1       2.631  -2.811  -0.129  0.00  0.00    -0.080 A 
ATOM      4  C3  UNL d   1       2.374  -2.556  -1.473  0.00  0.00     0.150 A 
ATOM      5  C4  UNL d   1       1.159  -2.012  -1.876  0.00  0.00    -0.007 A 
ATOM      6  C5  UNL d   1       0.183  -1.721  -0.924  0.00  0.00     0.039 A 
ENDROOT
BRANCH   4   7
ATOM      7  O   UNL d   1       3.297  -2.830  -2.439  0.00  0.00    -0.526 OA
ATOM      8  H5  UNL d   1       4.076  -3.228  -2.017  0.00  0.00     0.418 HD
ENDBRANCH   4   7
TORSDOF 1
ENDMDL
