MODEL 1
REMARK minimizedAffinity 3.30558944
REMARK minimizedRMSD -1
REMARK  0 active torsions:
REMARK  status: ('A' for Active; 'I' for Inactive)
ROOT
ATOM      1  N1  IND d   1       2.151   2.482   1.167  0.00  0.00    -0.196 N 
ATOM      2  C2  IND d   1       0.947   3.026   1.518  0.00  0.00     0.054 A 
ATOM      3  C3  IND d   1       0.304   2.221   2.393  0.00  0.00    -0.031 A 
ATOM      4  C4  IND d   1       1.085   0.013   3.463  0.00  0.00     0.051 A 
ATOM      5  C5  IND d   1       2.099  -0.902   3.425  0.00  0.00    -0.031 A 
ATOM      6  C6  IND d   1       3.206  -0.732   2.618  0.00  0.00     0.015 A 
ATOM      7  C7  IND d   1       3.345   0.371   1.824  0.00  0.00    -0.016 A 
ATOM      8  C8  IND d   1       2.314   1.299   1.855  0.00  0.00    -0.047 A 
ATOM      9  C9  IND d   1       1.169   1.111   2.639  0.00  0.00    -0.096 A 
ATOM     10  HN1 IND d   1       2.711   2.821   0.610  0.00  0.00     0.298 HD
ENDROOT
TORSDOF 0
ENDMDL
