MODEL 1
REMARK minimizedAffinity 1.58486509
REMARK minimizedRMSD -1
REMARK  0 active torsions:
REMARK  status: ('A' for Active; 'I' for Inactive)
ROOT
ATOM      1  N1  IND d   1      -5.953  -3.774   1.139  0.00  0.00    -0.196 N 
ATOM      2  C2  IND d   1      -5.999  -4.956   1.825  0.00  0.00     0.054 A 
ATOM      3  C3  IND d   1      -5.942  -5.999   0.967  0.00  0.00    -0.031 A 
ATOM      4  C4  IND d   1      -5.668  -6.000  -1.593  0.00  0.00     0.051 A 
ATOM      5  C5  IND d   1      -5.618  -5.161  -2.671  0.00  0.00    -0.031 A 
ATOM      6  C6  IND d   1      -5.675  -3.790  -2.531  0.00  0.00     0.015 A 
ATOM      7  C7  IND d   1      -5.774  -3.203  -1.301  0.00  0.00    -0.016 A 
ATOM      8  C8  IND d   1      -5.832  -4.051  -0.205  0.00  0.00    -0.047 A 
ATOM      9  C9  IND d   1      -5.817  -5.445  -0.344  0.00  0.00    -0.096 A 
ATOM     10  HN1 IND d   1      -5.993  -2.989   1.489  0.00  0.00     0.298 HD
ENDROOT
TORSDOF 0
ENDMDL
