MODEL 1
REMARK minimizedAffinity 6.02679873
REMARK minimizedRMSD -1
REMARK  0 active torsions:
REMARK  status: ('A' for Active; 'I' for Inactive)
ROOT
ATOM      1  N1  IND d   1       0.234  -1.662   4.145  0.00  0.00    -0.196 N 
ATOM      2  C2  IND d   1      -1.095  -1.351   4.073  0.00  0.00     0.054 A 
ATOM      3  C3  IND d   1      -1.280  -0.251   3.308  0.00  0.00    -0.031 A 
ATOM      4  C4  IND d   1       0.446   1.135   1.993  0.00  0.00     0.051 A 
ATOM      5  C5  IND d   1       1.790   1.259   1.779  0.00  0.00    -0.031 A 
ATOM      6  C6  IND d   1       2.702   0.397   2.351  0.00  0.00     0.015 A 
ATOM      7  C7  IND d   1       2.302  -0.634   3.154  0.00  0.00    -0.016 A 
ATOM      8  C8  IND d   1       0.938  -0.758   3.380  0.00  0.00    -0.047 A 
ATOM      9  C9  IND d   1       0.011   0.140   2.836  0.00  0.00    -0.096 A 
ATOM     10  HN1 IND d   1       0.573  -2.314   4.592  0.00  0.00     0.298 HD
ENDROOT
TORSDOF 0
ENDMDL
