MODEL 1
REMARK minimizedAffinity -0.30337438
REMARK minimizedRMSD -1
REMARK  0 active torsions:
REMARK  status: ('A' for Active; 'I' for Inactive)
ROOT
ATOM      1  N1  IND d   1      -5.843  -5.762  -2.063  0.00  0.00    -0.196 N 
ATOM      2  C2  IND d   1      -5.956  -6.000  -0.721  0.00  0.00     0.054 A 
ATOM      3  C3  IND d   1      -5.998  -4.833  -0.039  0.00  0.00    -0.031 A 
ATOM      4  C4  IND d   1      -5.998  -2.417  -0.929  0.00  0.00     0.051 A 
ATOM      5  C5  IND d   1      -5.872  -1.694  -2.082  0.00  0.00    -0.031 A 
ATOM      6  C6  IND d   1      -5.730  -2.302  -3.312  0.00  0.00     0.015 A 
ATOM      7  C7  IND d   1      -5.720  -3.662  -3.438  0.00  0.00    -0.016 A 
ATOM      8  C8  IND d   1      -5.841  -4.400  -2.268  0.00  0.00    -0.047 A 
ATOM      9  C9  IND d   1      -5.942  -3.788  -1.012  0.00  0.00    -0.096 A 
ATOM     10  HN1 IND d   1      -5.784  -6.363  -2.675  0.00  0.00     0.298 HD
ENDROOT
TORSDOF 0
ENDMDL
