MODEL 1
REMARK minimizedAffinity 9.1438818
REMARK minimizedRMSD -1
REMARK  0 active torsions:
REMARK  status: ('A' for Active; 'I' for Inactive)
ROOT
ATOM      1  N1  IND d   1       4.056   5.770  -3.866  0.00  0.00    -0.196 N 
ATOM      2  C2  IND d   1       2.717   5.873  -4.119  0.00  0.00     0.054 A 
ATOM      3  C3  IND d   1       2.316   4.880  -4.944  0.00  0.00    -0.031 A 
ATOM      4  C4  IND d   1       3.668   2.918  -5.919  0.00  0.00     0.051 A 
ATOM      5  C5  IND d   1       4.938   2.420  -6.000  0.00  0.00    -0.031 A 
ATOM      6  C6  IND d   1       6.000   3.024  -5.358  0.00  0.00     0.015 A 
ATOM      7  C7  IND d   1       5.829   4.147  -4.599  0.00  0.00    -0.016 A 
ATOM      8  C8  IND d   1       4.541   4.659  -4.521  0.00  0.00    -0.047 A 
ATOM      9  C9  IND d   1       3.467   4.075  -5.204  0.00  0.00    -0.096 A 
ATOM     10  HN1 IND d   1       4.518   6.308  -3.380  0.00  0.00     0.298 HD
ENDROOT
TORSDOF 0
ENDMDL
