MODEL 1
REMARK minimizedAffinity -4.0346427
REMARK minimizedRMSD -1
REMARK  0 active torsions:
REMARK  status: ('A' for Active; 'I' for Inactive)
ROOT
ATOM      1  N1  IND d   1      -5.240  -4.251   1.987  0.00  0.00    -0.196 N 
ATOM      2  C2  IND d   1      -5.100  -5.607   1.890  0.00  0.00     0.054 A 
ATOM      3  C3  IND d   1      -5.207  -6.000   0.601  0.00  0.00    -0.031 A 
ATOM      4  C4  IND d   1      -5.508  -4.577  -1.523  0.00  0.00     0.051 A 
ATOM      5  C5  IND d   1      -5.722  -3.292  -1.937  0.00  0.00    -0.031 A 
ATOM      6  C6  IND d   1      -5.784  -2.240  -1.047  0.00  0.00     0.015 A 
ATOM      7  C7  IND d   1      -5.623  -2.432   0.296  0.00  0.00    -0.016 A 
ATOM      8  C8  IND d   1      -5.413  -3.736   0.721  0.00  0.00    -0.047 A 
ATOM      9  C9  IND d   1      -5.391  -4.814  -0.173  0.00  0.00    -0.096 A 
ATOM     10  HN1 IND d   1      -5.223  -3.795   2.716  0.00  0.00     0.298 HD
ENDROOT
TORSDOF 0
ENDMDL
