MODEL 1
REMARK minimizedAffinity 9.04706669
REMARK minimizedRMSD -1
REMARK  0 active torsions:
REMARK  status: ('A' for Active; 'I' for Inactive)
ROOT
ATOM      1  N1  IND d   1       3.335   5.995  -4.497  0.00  0.00    -0.196 N 
ATOM      2  C2  IND d   1       1.984   5.999  -4.710  0.00  0.00     0.054 A 
ATOM      3  C3  IND d   1       1.600   4.854  -5.318  0.00  0.00    -0.031 A 
ATOM      4  C4  IND d   1       3.004   2.794  -5.961  0.00  0.00     0.051 A 
ATOM      5  C5  IND d   1       4.291   2.337  -5.999  0.00  0.00    -0.031 A 
ATOM      6  C6  IND d   1       5.347   3.090  -5.526  0.00  0.00     0.015 A 
ATOM      7  C7  IND d   1       5.151   4.329  -4.984  0.00  0.00    -0.016 A 
ATOM      8  C8  IND d   1       3.846   4.799  -4.951  0.00  0.00    -0.047 A 
ATOM      9  C9  IND d   1       2.777   4.057  -5.469  0.00  0.00    -0.096 A 
ATOM     10  HN1 IND d   1       3.788   6.632  -4.139  0.00  0.00     0.298 HD
ENDROOT
TORSDOF 0
ENDMDL
