MODEL 1
REMARK minimizedAffinity 15.0224657
REMARK minimizedRMSD -1
REMARK  0 active torsions:
REMARK  status: ('A' for Active; 'I' for Inactive)
ROOT
ATOM      1  N1  IND d   1       3.194   5.119  -3.407  0.00  0.00    -0.196 N 
ATOM      2  C2  IND d   1       4.192   4.662  -4.222  0.00  0.00     0.054 A 
ATOM      3  C3  IND d   1       4.676   3.487  -3.761  0.00  0.00    -0.031 A 
ATOM      4  C4  IND d   1       3.909   2.081  -1.745  0.00  0.00     0.051 A 
ATOM      5  C5  IND d   1       3.055   2.104  -0.678  0.00  0.00    -0.031 A 
ATOM      6  C6  IND d   1       2.185   3.153  -0.464  0.00  0.00     0.015 A 
ATOM      7  C7  IND d   1       2.127   4.217  -1.318  0.00  0.00    -0.016 A 
ATOM      8  C8  IND d   1       2.998   4.201  -2.399  0.00  0.00    -0.047 A 
ATOM      9  C9  IND d   1       3.913   3.159  -2.598  0.00  0.00    -0.096 A 
ATOM     10  HN1 IND d   1       2.762   5.855  -3.507  0.00  0.00     0.298 HD
ENDROOT
TORSDOF 0
ENDMDL
