MODEL 1
REMARK minimizedAffinity 13.9116344
REMARK minimizedRMSD -1
REMARK  0 active torsions:
REMARK  status: ('A' for Active; 'I' for Inactive)
ROOT
ATOM      1  N1  IND d   1       1.164   3.659  -2.212  0.00  0.00    -0.196 N 
ATOM      2  C2  IND d   1       2.030   2.983  -1.398  0.00  0.00     0.054 A 
ATOM      3  C3  IND d   1       3.252   2.908  -1.971  0.00  0.00    -0.031 A 
ATOM      4  C4  IND d   1       4.083   3.912  -4.191  0.00  0.00     0.051 A 
ATOM      5  C5  IND d   1       3.648   4.583  -5.299  0.00  0.00    -0.031 A 
ATOM      6  C6  IND d   1       2.337   4.992  -5.437  0.00  0.00     0.015 A 
ATOM      7  C7  IND d   1       1.411   4.753  -4.461  0.00  0.00    -0.016 A 
ATOM      8  C8  IND d   1       1.847   4.065  -3.338  0.00  0.00    -0.047 A 
ATOM      9  C9  IND d   1       3.166   3.611  -3.212  0.00  0.00    -0.096 A 
ATOM     10  HN1 IND d   1       0.333   3.806  -2.049  0.00  0.00     0.298 HD
ENDROOT
TORSDOF 0
ENDMDL
