MODEL 1
REMARK minimizedAffinity 7.48609304
REMARK minimizedRMSD -1
REMARK  0 active torsions:
REMARK  status: ('A' for Active; 'I' for Inactive)
ROOT
ATOM      1  N1  IND d   1      -2.374   3.946   2.914  0.00  0.00    -0.196 N 
ATOM      2  C2  IND d   1      -3.708   4.198   2.757  0.00  0.00     0.054 A 
ATOM      3  C3  IND d   1      -4.335   3.113   2.249  0.00  0.00    -0.031 A 
ATOM      4  C4  IND d   1      -3.384   0.785   1.695  0.00  0.00     0.051 A 
ATOM      5  C5  IND d   1      -2.210   0.087   1.637  0.00  0.00    -0.031 A 
ATOM      6  C6  IND d   1      -1.008   0.650   2.012  0.00  0.00     0.015 A 
ATOM      7  C7  IND d   1      -0.935   1.934   2.471  0.00  0.00    -0.016 A 
ATOM      8  C8  IND d   1      -2.123   2.649   2.525  0.00  0.00    -0.047 A 
ATOM      9  C9  IND d   1      -3.341   2.097   2.106  0.00  0.00    -0.096 A 
ATOM     10  HN1 IND d   1      -1.789   4.505   3.207  0.00  0.00     0.298 HD
ENDROOT
TORSDOF 0
ENDMDL
