MODEL 1
REMARK minimizedAffinity 13.1154613
REMARK minimizedRMSD -1
REMARK  0 active torsions:
REMARK  status: ('A' for Active; 'I' for Inactive)
ROOT
ATOM      1  N1  IND d   1       2.269  -0.623  -3.538  0.00  0.00    -0.196 N 
ATOM      2  C2  IND d   1       1.387  -1.659  -3.407  0.00  0.00     0.054 A 
ATOM      3  C3  IND d   1       0.396  -1.326  -2.549  0.00  0.00    -0.031 A 
ATOM      4  C4  IND d   1      -0.030   0.899  -1.326  0.00  0.00     0.051 A 
ATOM      5  C5  IND d   1       0.523   2.129  -1.103  0.00  0.00    -0.031 A 
ATOM      6  C6  IND d   1       1.709   2.513  -1.695  0.00  0.00     0.015 A 
ATOM      7  C7  IND d   1       2.383   1.682  -2.544  0.00  0.00    -0.016 A 
ATOM      8  C8  IND d   1       1.828   0.430  -2.767  0.00  0.00    -0.047 A 
ATOM      9  C9  IND d   1       0.647   0.018  -2.136  0.00  0.00    -0.096 A 
ATOM     10  HN1 IND d   1       2.981  -0.629  -4.021  0.00  0.00     0.298 HD
ENDROOT
TORSDOF 0
ENDMDL
