MODEL 1
REMARK minimizedAffinity 2.12609482
REMARK minimizedRMSD -1
REMARK  0 active torsions:
REMARK  status: ('A' for Active; 'I' for Inactive)
ROOT
ATOM      1  N1  IND d   1       2.409  -0.438  -3.438  0.00  0.00    -0.196 N 
ATOM      2  C2  IND d   1       1.521  -1.474  -3.356  0.00  0.00     0.054 A 
ATOM      3  C3  IND d   1       0.568  -1.205  -2.436  0.00  0.00    -0.031 A 
ATOM      4  C4  IND d   1       0.214   0.917  -1.021  0.00  0.00     0.051 A 
ATOM      5  C5  IND d   1       0.788   2.120  -0.722  0.00  0.00    -0.031 A 
ATOM      6  C6  IND d   1       1.955   2.542  -1.327  0.00  0.00     0.015 A 
ATOM      7  C7  IND d   1       2.586   1.778  -2.267  0.00  0.00    -0.016 A 
ATOM      8  C8  IND d   1       2.010   0.552  -2.568  0.00  0.00    -0.047 A 
ATOM      9  C9  IND d   1       0.849   0.100  -1.926  0.00  0.00    -0.096 A 
ATOM     10  HN1 IND d   1       3.101  -0.410  -3.948  0.00  0.00     0.298 HD
ENDROOT
TORSDOF 0
ENDMDL
