MODEL 1
REMARK minimizedAffinity 10.4619312
REMARK minimizedRMSD -1
REMARK  0 active torsions:
REMARK  status: ('A' for Active; 'I' for Inactive)
ROOT
ATOM      1  N1  IND d   1       1.539   3.919  -1.268  0.00  0.00    -0.196 N 
ATOM      2  C2  IND d   1       1.733   2.610  -0.927  0.00  0.00     0.054 A 
ATOM      3  C3  IND d   1       2.565   2.012  -1.809  0.00  0.00    -0.031 A 
ATOM      4  C4  IND d   1       3.805   3.020  -3.828  0.00  0.00     0.051 A 
ATOM      5  C5  IND d   1       3.917   4.169  -4.560  0.00  0.00    -0.031 A 
ATOM      6  C6  IND d   1       3.230   5.317  -4.223  0.00  0.00     0.015 A 
ATOM      7  C7  IND d   1       2.411   5.363  -3.130  0.00  0.00    -0.016 A 
ATOM      8  C8  IND d   1       2.289   4.196  -2.389  0.00  0.00    -0.047 A 
ATOM      9  C9  IND d   1       2.951   3.016  -2.751  0.00  0.00    -0.096 A 
ATOM     10  HN1 IND d   1       1.033   4.477  -0.851  0.00  0.00     0.298 HD
ENDROOT
TORSDOF 0
ENDMDL
