MODEL 1
REMARK minimizedAffinity 2.19396329
REMARK minimizedRMSD -1
REMARK  0 active torsions:
REMARK  status: ('A' for Active; 'I' for Inactive)
ROOT
ATOM      1  N1  IND d   1      -5.986  -5.128  -1.131  0.00  0.00    -0.196 N 
ATOM      2  C2  IND d   1      -5.982  -5.998  -2.186  0.00  0.00     0.054 A 
ATOM      3  C3  IND d   1      -5.997  -5.318  -3.355  0.00  0.00    -0.031 A 
ATOM      4  C4  IND d   1      -5.925  -2.779  -3.772  0.00  0.00     0.051 A 
ATOM      5  C5  IND d   1      -5.957  -1.579  -3.119  0.00  0.00    -0.031 A 
ATOM      6  C6  IND d   1      -5.998  -1.499  -1.742  0.00  0.00     0.015 A 
ATOM      7  C7  IND d   1      -5.997  -2.621  -0.963  0.00  0.00    -0.016 A 
ATOM      8  C8  IND d   1      -5.972  -3.842  -1.623  0.00  0.00    -0.047 A 
ATOM      9  C9  IND d   1      -5.974  -3.930  -3.021  0.00  0.00    -0.096 A 
ATOM     10  HN1 IND d   1      -5.995  -5.348  -0.299  0.00  0.00     0.298 HD
ENDROOT
TORSDOF 0
ENDMDL
