MODEL 1
REMARK minimizedAffinity 13.2677202
REMARK minimizedRMSD -1
REMARK  0 active torsions:
REMARK  status: ('A' for Active; 'I' for Inactive)
ROOT
ATOM      1  N1  IND d   1       2.737   5.617  -4.640  0.00  0.00    -0.196 N 
ATOM      2  C2  IND d   1       1.569   5.233  -5.237  0.00  0.00     0.054 A 
ATOM      3  C3  IND d   1       1.734   4.056  -5.880  0.00  0.00    -0.031 A 
ATOM      4  C4  IND d   1       3.808   2.534  -5.999  0.00  0.00     0.051 A 
ATOM      5  C5  IND d   1       5.125   2.479  -5.641  0.00  0.00    -0.031 A 
ATOM      6  C6  IND d   1       5.726   3.487  -4.914  0.00  0.00     0.015 A 
ATOM      7  C7  IND d   1       5.025   4.586  -4.506  0.00  0.00    -0.016 A 
ATOM      8  C8  IND d   1       3.688   4.649  -4.874  0.00  0.00    -0.047 A 
ATOM      9  C9  IND d   1       3.084   3.650  -5.649  0.00  0.00    -0.096 A 
ATOM     10  HN1 IND d   1       2.858   6.342  -4.194  0.00  0.00     0.298 HD
ENDROOT
TORSDOF 0
ENDMDL
