MODEL 1
REMARK minimizedAffinity 2.18028235
REMARK minimizedRMSD -1
REMARK  0 active torsions:
REMARK  status: ('A' for Active; 'I' for Inactive)
ROOT
ATOM      1  N1  IND d   1      -5.599  -5.997  -1.932  0.00  0.00    -0.196 N 
ATOM      2  C2  IND d   1      -5.829  -5.019  -2.859  0.00  0.00     0.054 A 
ATOM      3  C3  IND d   1      -5.990  -3.822  -2.250  0.00  0.00    -0.031 A 
ATOM      4  C4  IND d   1      -5.815  -3.221   0.247  0.00  0.00     0.051 A 
ATOM      5  C5  IND d   1      -5.657  -3.784   1.482  0.00  0.00    -0.031 A 
ATOM      6  C6  IND d   1      -5.465  -5.141   1.645  0.00  0.00     0.015 A 
ATOM      7  C7  IND d   1      -5.412  -5.987   0.574  0.00  0.00    -0.016 A 
ATOM      8  C8  IND d   1      -5.579  -5.419  -0.681  0.00  0.00    -0.047 A 
ATOM      9  C9  IND d   1      -5.817  -4.049  -0.851  0.00  0.00    -0.096 A 
ATOM     10  HN1 IND d   1      -5.486  -6.832  -2.101  0.00  0.00     0.298 HD
ENDROOT
TORSDOF 0
ENDMDL
