MODEL 1
REMARK minimizedAffinity 0.943521917
REMARK minimizedRMSD -1
REMARK  0 active torsions:
REMARK  status: ('A' for Active; 'I' for Inactive)
ROOT
ATOM      1  C4' PXY d   1      -1.493  -1.456  -5.606  0.00  0.00     0.077 C 
ATOM      2  C1' PXY d   1       0.170  -5.071  -1.412  0.00  0.00     0.077 C 
ATOM      3  C1  PXY d   1      -0.256  -4.115  -2.509  0.00  0.00    -0.082 A 
ATOM      4  C2  PXY d   1      -1.522  -4.080  -2.891  0.00  0.00     0.003 A 
ATOM      5  C3  PXY d   1      -1.919  -3.245  -3.904  0.00  0.00     0.003 A 
ATOM      6  C4  PXY d   1      -1.020  -2.398  -4.495  0.00  0.00    -0.082 A 
ATOM      7  C5  PXY d   1       0.272  -2.421  -4.104  0.00  0.00     0.003 A 
ATOM      8  C6  PXY d   1       0.662  -3.305  -3.103  0.00  0.00     0.003 A 
ENDROOT
TORSDOF 0
ENDMDL
