MODEL 1
REMARK minimizedAffinity 4.48047829
REMARK minimizedRMSD -1
REMARK  0 active torsions:
REMARK  status: ('A' for Active; 'I' for Inactive)
ROOT
ATOM      1  C4' PXY d   1      -1.322   2.563  -2.394  0.00  0.00     0.077 C 
ATOM      2  C1' PXY d   1       2.663  -0.928  -0.080  0.00  0.00     0.077 C 
ATOM      3  C1  PXY d   1       1.613  -0.010  -0.675  0.00  0.00    -0.082 A 
ATOM      4  C2  PXY d   1       1.231  -0.181  -1.930  0.00  0.00     0.003 A 
ATOM      5  C3  PXY d   1       0.306   0.661  -2.494  0.00  0.00     0.003 A 
ATOM      6  C4  PXY d   1      -0.272   1.654  -1.749  0.00  0.00    -0.082 A 
ATOM      7  C5  PXY d   1       0.106   1.828  -0.465  0.00  0.00     0.003 A 
ATOM      8  C6  PXY d   1       1.076   0.989   0.076  0.00  0.00     0.003 A 
ENDROOT
TORSDOF 0
ENDMDL
