MODEL 1
REMARK minimizedAffinity 10.5713463
REMARK minimizedRMSD -1
REMARK  0 active torsions:
REMARK  status: ('A' for Active; 'I' for Inactive)
ROOT
ATOM      1  C4' PXY d   1      -5.748   5.990  -5.999  0.00  0.00     0.077 C 
ATOM      2  C1' PXY d   1      -3.907   1.492  -2.870  0.00  0.00     0.077 C 
ATOM      3  C1  PXY d   1      -4.382   2.680  -3.684  0.00  0.00    -0.082 A 
ATOM      4  C2  PXY d   1      -5.567   2.639  -4.270  0.00  0.00     0.003 A 
ATOM      5  C3  PXY d   1      -5.999   3.691  -5.036  0.00  0.00     0.003 A 
ATOM      6  C4  PXY d   1      -5.232   4.818  -5.160  0.00  0.00    -0.082 A 
ATOM      7  C5  PXY d   1      -4.026   4.872  -4.556  0.00  0.00     0.003 A 
ATOM      8  C6  PXY d   1      -3.588   3.777  -3.816  0.00  0.00     0.003 A 
ENDROOT
TORSDOF 0
ENDMDL
