MODEL 1
REMARK minimizedAffinity 4.77481413
REMARK minimizedRMSD -1
REMARK  0 active torsions:
REMARK  status: ('A' for Active; 'I' for Inactive)
ROOT
ATOM      1  C4' PXY d   1      -4.389   1.148  -2.933  0.00  0.00     0.077 C 
ATOM      2  C1' PXY d   1      -5.208   5.979  -6.000  0.00  0.00     0.077 C 
ATOM      3  C1  PXY d   1      -5.006   4.711  -5.194  0.00  0.00    -0.082 A 
ATOM      4  C2  PXY d   1      -3.857   4.507  -4.571  0.00  0.00     0.003 A 
ATOM      5  C3  PXY d   1      -3.646   3.352  -3.864  0.00  0.00     0.003 A 
ATOM      6  C4  PXY d   1      -4.641   2.418  -3.750  0.00  0.00    -0.082 A 
ATOM      7  C5  PXY d   1      -5.820   2.623  -4.374  0.00  0.00     0.003 A 
ATOM      8  C6  PXY d   1      -6.000   3.784  -5.120  0.00  0.00     0.003 A 
ENDROOT
TORSDOF 0
ENDMDL
