MODEL 1
REMARK minimizedAffinity 6.9936924
REMARK minimizedRMSD -1
REMARK  0 active torsions:
REMARK  status: ('A' for Active; 'I' for Inactive)
ROOT
ATOM      1  C4' PXY d   1       2.620   6.000  -1.992  0.00  0.00     0.077 C 
ATOM      2  C1' PXY d   1      -1.376   3.090   1.005  0.00  0.00     0.077 C 
ATOM      3  C1  PXY d   1      -0.319   3.849   0.228  0.00  0.00    -0.082 A 
ATOM      4  C2  PXY d   1      -0.671   4.888  -0.512  0.00  0.00     0.003 A 
ATOM      5  C3  PXY d   1       0.267   5.566  -1.247  0.00  0.00     0.003 A 
ATOM      6  C4  PXY d   1       1.588   5.210  -1.182  0.00  0.00    -0.082 A 
ATOM      7  C5  PXY d   1       1.956   4.158  -0.421  0.00  0.00     0.003 A 
ATOM      8  C6  PXY d   1       0.983   3.457   0.285  0.00  0.00     0.003 A 
ENDROOT
TORSDOF 0
ENDMDL
