MODEL 1
REMARK minimizedAffinity 11.7428808
REMARK minimizedRMSD -1
REMARK  0 active torsions:
REMARK  status: ('A' for Active; 'I' for Inactive)
ROOT
ATOM      1  C4' PXY d   1      -4.077   1.194  -2.407  0.00  0.00     0.077 C 
ATOM      2  C1' PXY d   1      -5.462   5.506  -5.999  0.00  0.00     0.077 C 
ATOM      3  C1  PXY d   1      -5.112   4.373  -5.055  0.00  0.00    -0.082 A 
ATOM      4  C2  PXY d   1      -3.936   4.366  -4.449  0.00  0.00     0.003 A 
ATOM      5  C3  PXY d   1      -3.590   3.333  -3.616  0.00  0.00     0.003 A 
ATOM      6  C4  PXY d   1      -4.478   2.323  -3.361  0.00  0.00    -0.082 A 
ATOM      7  C5  PXY d   1      -5.684   2.327  -3.967  0.00  0.00     0.003 A 
ATOM      8  C6  PXY d   1      -5.999   3.364  -4.841  0.00  0.00     0.003 A 
ENDROOT
TORSDOF 0
ENDMDL
