MODEL 1
REMARK minimizedAffinity 1.53077137
REMARK minimizedRMSD -1
REMARK  0 active torsions:
REMARK  status: ('A' for Active; 'I' for Inactive)
ROOT
ATOM      1  C1  BNZ d   1      -0.443  -2.564  -1.894  0.00  0.00     0.000 A 
ATOM      2  C2  BNZ d   1       0.178  -1.511  -1.277  0.00  0.00     0.000 A 
ATOM      3  C3  BNZ d   1      -0.097  -1.204   0.026  0.00  0.00     0.000 A 
ATOM      4  C4  BNZ d   1      -1.020  -1.923   0.697  0.00  0.00     0.000 A 
ATOM      5  C5  BNZ d   1      -1.661  -2.982   0.085  0.00  0.00     0.000 A 
ATOM      6  C6  BNZ d   1      -1.353  -3.313  -1.214  0.00  0.00     0.000 A 
ENDROOT
TORSDOF 0
ENDMDL
