MODEL 1
REMARK minimizedAffinity -0.873852253
REMARK minimizedRMSD -1
REMARK  0 active torsions:
REMARK  status: ('A' for Active; 'I' for Inactive)
ROOT
ATOM      1  C1  BNZ d   1       5.827  -4.060  -5.416  0.00  0.00     0.000 A 
ATOM      2  C2  BNZ d   1       4.610  -3.831  -5.999  0.00  0.00     0.000 A 
ATOM      3  C3  BNZ d   1       3.552  -4.664  -5.762  0.00  0.00     0.000 A 
ATOM      4  C4  BNZ d   1       3.724  -5.746  -4.975  0.00  0.00     0.000 A 
ATOM      5  C5  BNZ d   1       4.948  -5.995  -4.387  0.00  0.00     0.000 A 
ATOM      6  C6  BNZ d   1       6.000  -5.133  -4.597  0.00  0.00     0.000 A 
ENDROOT
TORSDOF 0
ENDMDL
