MODEL 1
REMARK minimizedAffinity 0.789151311
REMARK minimizedRMSD -1
REMARK  0 active torsions:
REMARK  status: ('A' for Active; 'I' for Inactive)
ROOT
ATOM      1  C1  BNZ d   1       4.901   2.433  -5.987  0.00  0.00     0.000 A 
ATOM      2  C2  BNZ d   1       5.995   3.258  -5.999  0.00  0.00     0.000 A 
ATOM      3  C3  BNZ d   1       5.847   4.617  -5.985  0.00  0.00     0.000 A 
ATOM      4  C4  BNZ d   1       4.608   5.149  -6.000  0.00  0.00     0.000 A 
ATOM      5  C5  BNZ d   1       3.495   4.331  -5.997  0.00  0.00     0.000 A 
ATOM      6  C6  BNZ d   1       3.648   2.964  -5.972  0.00  0.00     0.000 A 
ENDROOT
TORSDOF 0
ENDMDL
