MODEL 1
REMARK minimizedAffinity -0.790521204
REMARK minimizedRMSD -1
REMARK  0 active torsions:
REMARK  status: ('A' for Active; 'I' for Inactive)
ROOT
ATOM      1  C1  BNZ d   1       3.637   2.731  -5.965  0.00  0.00     0.000 A 
ATOM      2  C2  BNZ d   1       3.654   1.362  -5.997  0.00  0.00     0.000 A 
ATOM      3  C3  BNZ d   1       4.836   0.676  -5.992  0.00  0.00     0.000 A 
ATOM      4  C4  BNZ d   1       5.999   1.359  -5.997  0.00  0.00     0.000 A 
ATOM      5  C5  BNZ d   1       5.999   2.739  -5.975  0.00  0.00     0.000 A 
ATOM      6  C6  BNZ d   1       4.807   3.426  -5.940  0.00  0.00     0.000 A 
ENDROOT
TORSDOF 0
ENDMDL
