MODEL 1
REMARK minimizedAffinity -2.3269496
REMARK minimizedRMSD -1
REMARK  0 active torsions:
REMARK  status: ('A' for Active; 'I' for Inactive)
ROOT
ATOM      1  C1  BNZ d   1       3.601   3.239  -5.993  0.00  0.00     0.000 A 
ATOM      2  C2  BNZ d   1       3.641   1.870  -6.000  0.00  0.00     0.000 A 
ATOM      3  C3  BNZ d   1       4.835   1.204  -5.982  0.00  0.00     0.000 A 
ATOM      4  C4  BNZ d   1       5.986   1.907  -5.998  0.00  0.00     0.000 A 
ATOM      5  C5  BNZ d   1       5.963   3.287  -6.000  0.00  0.00     0.000 A 
ATOM      6  C6  BNZ d   1       4.759   3.954  -5.979  0.00  0.00     0.000 A 
ENDROOT
TORSDOF 0
ENDMDL
