MODEL 1
REMARK minimizedAffinity 2.87098813
REMARK minimizedRMSD -1
REMARK  0 active torsions:
REMARK  status: ('A' for Active; 'I' for Inactive)
ROOT
ATOM      1  C1  BNZ d   1      -1.014  -3.009  -0.004  0.00  0.00     0.000 A 
ATOM      2  C2  BNZ d   1      -0.850  -2.869  -1.356  0.00  0.00     0.000 A 
ATOM      3  C3  BNZ d   1      -0.112  -1.839  -1.869  0.00  0.00     0.000 A 
ATOM      4  C4  BNZ d   1       0.427  -0.928  -1.032  0.00  0.00     0.000 A 
ATOM      5  C5  BNZ d   1       0.262  -1.051   0.333  0.00  0.00     0.000 A 
ATOM      6  C6  BNZ d   1      -0.448  -2.111   0.848  0.00  0.00     0.000 A 
ENDROOT
TORSDOF 0
ENDMDL
