MODEL 1
REMARK minimizedAffinity 8.49246311
REMARK minimizedRMSD -1
REMARK  0 active torsions:
REMARK  status: ('A' for Active; 'I' for Inactive)
ROOT
ATOM      1  C1  BNZ d   1      -2.120  -4.417  -1.960  0.00  0.00     0.000 A 
ATOM      2  C2  BNZ d   1      -2.415  -4.101  -0.661  0.00  0.00     0.000 A 
ATOM      3  C3  BNZ d   1      -1.701  -3.147   0.008  0.00  0.00     0.000 A 
ATOM      4  C4  BNZ d   1      -0.667  -2.539  -0.610  0.00  0.00     0.000 A 
ATOM      5  C5  BNZ d   1      -0.351  -2.853  -1.916  0.00  0.00     0.000 A 
ATOM      6  C6  BNZ d   1      -1.097  -3.786  -2.599  0.00  0.00     0.000 A 
ENDROOT
TORSDOF 0
ENDMDL
