MODEL 1
REMARK minimizedAffinity 5.8301897
REMARK minimizedRMSD -1
REMARK  0 active torsions:
REMARK  status: ('A' for Active; 'I' for Inactive)
ROOT
ATOM      1  C1  BNZ d   1       1.954   1.412   0.572  0.00  0.00     0.000 A 
ATOM      2  C2  BNZ d   1       0.776   1.798  -0.010  0.00  0.00     0.000 A 
ATOM      3  C3  BNZ d   1      -0.265   2.252   0.751  0.00  0.00     0.000 A 
ATOM      4  C4  BNZ d   1      -0.141   2.283   2.093  0.00  0.00     0.000 A 
ATOM      5  C5  BNZ d   1       1.037   1.888   2.695  0.00  0.00     0.000 A 
ATOM      6  C6  BNZ d   1       2.096   1.468   1.924  0.00  0.00     0.000 A 
ENDROOT
TORSDOF 0
ENDMDL
