MODEL 1
REMARK minimizedAffinity 5.37926817
REMARK minimizedRMSD -1
REMARK  0 active torsions:
REMARK  status: ('A' for Active; 'I' for Inactive)
ROOT
ATOM      1  C1  BNZ d   1       0.568   2.594   1.164  0.00  0.00     0.000 A 
ATOM      2  C2  BNZ d   1       1.139   3.219   0.088  0.00  0.00     0.000 A 
ATOM      3  C3  BNZ d   1       0.376   3.932  -0.793  0.00  0.00     0.000 A 
ATOM      4  C4  BNZ d   1      -0.961   3.986  -0.621  0.00  0.00     0.000 A 
ATOM      5  C5  BNZ d   1      -1.553   3.353   0.454  0.00  0.00     0.000 A 
ATOM      6  C6  BNZ d   1      -0.777   2.668   1.361  0.00  0.00     0.000 A 
ENDROOT
TORSDOF 0
ENDMDL
