MODEL 1
REMARK minimizedAffinity 3.9668901
REMARK minimizedRMSD -1
REMARK  0 active torsions:
REMARK  status: ('A' for Active; 'I' for Inactive)
ROOT
ATOM      1  C1  BNZ d   1      -1.313  -2.522   0.997  0.00  0.00     0.000 A 
ATOM      2  C2  BNZ d   1      -1.051  -2.503   2.341  0.00  0.00     0.000 A 
ATOM      3  C3  BNZ d   1      -0.930  -3.667   3.048  0.00  0.00     0.000 A 
ATOM      4  C4  BNZ d   1      -1.112  -4.846   2.418  0.00  0.00     0.000 A 
ATOM      5  C5  BNZ d   1      -1.386  -4.882   1.066  0.00  0.00     0.000 A 
ATOM      6  C6  BNZ d   1      -1.468  -3.709   0.350  0.00  0.00     0.000 A 
ENDROOT
TORSDOF 0
ENDMDL
