MODEL 1
REMARK minimizedAffinity 5.91392469
REMARK minimizedRMSD -1
REMARK  0 active torsions:
REMARK  status: ('A' for Active; 'I' for Inactive)
ROOT
ATOM      1  C1  BNZ d   1       1.294   0.797   1.877  0.00  0.00     0.000 A 
ATOM      2  C2  BNZ d   1       1.793   1.946   2.430  0.00  0.00     0.000 A 
ATOM      3  C3  BNZ d   1       2.094   3.026   1.647  0.00  0.00     0.000 A 
ATOM      4  C4  BNZ d   1       1.934   2.941   0.311  0.00  0.00     0.000 A 
ATOM      5  C5  BNZ d   1       1.440   1.786  -0.262  0.00  0.00     0.000 A 
ATOM      6  C6  BNZ d   1       1.102   0.715   0.533  0.00  0.00     0.000 A 
ENDROOT
TORSDOF 0
ENDMDL
