MODEL 1
REMARK minimizedAffinity 5.15683699
REMARK minimizedRMSD -1
REMARK  0 active torsions:
REMARK  status: ('A' for Active; 'I' for Inactive)
ROOT
ATOM      1  C1  BNZ d   1      -1.261   3.702   1.904  0.00  0.00     0.000 A 
ATOM      2  C2  BNZ d   1      -1.931   4.069   3.040  0.00  0.00     0.000 A 
ATOM      3  C3  BNZ d   1      -1.586   3.548   4.255  0.00  0.00     0.000 A 
ATOM      4  C4  BNZ d   1      -0.599   2.632   4.328  0.00  0.00     0.000 A 
ATOM      5  C5  BNZ d   1       0.080   2.244   3.190  0.00  0.00     0.000 A 
ATOM      6  C6  BNZ d   1      -0.244   2.800   1.974  0.00  0.00     0.000 A 
ENDROOT
TORSDOF 0
ENDMDL
