MODEL 1
REMARK minimizedAffinity -4.99215794
REMARK minimizedRMSD -1
REMARK  0 active torsions:
REMARK  status: ('A' for Active; 'I' for Inactive)
ROOT
ATOM      1  C1  BNZ d   1      -0.891   2.976   0.565  0.00  0.00     0.000 A 
ATOM      2  C2  BNZ d   1      -2.053   3.302  -0.082  0.00  0.00     0.000 A 
ATOM      3  C3  BNZ d   1      -3.160   2.507   0.024  0.00  0.00     0.000 A 
ATOM      4  C4  BNZ d   1      -3.092   1.368   0.744  0.00  0.00     0.000 A 
ATOM      5  C5  BNZ d   1      -1.925   1.021   1.395  0.00  0.00     0.000 A 
ATOM      6  C6  BNZ d   1      -0.824   1.844   1.317  0.00  0.00     0.000 A 
ENDROOT
TORSDOF 0
ENDMDL
