MODEL 1
REMARK minimizedAffinity 4.98498344
REMARK minimizedRMSD -1
REMARK  0 active torsions:
REMARK  status: ('A' for Active; 'I' for Inactive)
ROOT
ATOM      1  C1  BNZ d   1       5.998  -0.421  -3.602  0.00  0.00     0.000 A 
ATOM      2  C2  BNZ d   1       5.992  -0.938  -4.870  0.00  0.00     0.000 A 
ATOM      3  C3  BNZ d   1       5.999  -0.116  -5.962  0.00  0.00     0.000 A 
ATOM      4  C4  BNZ d   1       5.971   1.221  -5.785  0.00  0.00     0.000 A 
ATOM      5  C5  BNZ d   1       5.967   1.758  -4.513  0.00  0.00     0.000 A 
ATOM      6  C6  BNZ d   1       6.000   0.927  -3.416  0.00  0.00     0.000 A 
ENDROOT
TORSDOF 0
ENDMDL
