MODEL 1
REMARK minimizedAffinity 1.37632477
REMARK minimizedRMSD -1
REMARK  0 active torsions:
REMARK  status: ('A' for Active; 'I' for Inactive)
ROOT
ATOM      1  C1  BNZ d   1      -4.032   3.372  -5.317  0.00  0.00     0.000 A 
ATOM      2  C2  BNZ d   1      -3.028   2.851  -4.545  0.00  0.00     0.000 A 
ATOM      3  C3  BNZ d   1      -1.823   3.489  -4.440  0.00  0.00     0.000 A 
ATOM      4  C4  BNZ d   1      -1.611   4.623  -5.137  0.00  0.00     0.000 A 
ATOM      5  C5  BNZ d   1      -2.610   5.156  -5.927  0.00  0.00     0.000 A 
ATOM      6  C6  BNZ d   1      -3.834   4.533  -6.000  0.00  0.00     0.000 A 
ENDROOT
TORSDOF 0
ENDMDL
