MODEL 1
REMARK minimizedAffinity 1.39761901
REMARK minimizedRMSD -1
REMARK  0 active torsions:
REMARK  status: ('A' for Active; 'I' for Inactive)
ROOT
ATOM      1  C1  BNZ d   1       3.999   1.690  -5.915  0.00  0.00     0.000 A 
ATOM      2  C2  BNZ d   1       3.104   2.725  -5.942  0.00  0.00     0.000 A 
ATOM      3  C3  BNZ d   1       3.534   4.022  -5.975  0.00  0.00     0.000 A 
ATOM      4  C4  BNZ d   1       4.857   4.283  -5.940  0.00  0.00     0.000 A 
ATOM      5  C5  BNZ d   1       5.772   3.250  -5.903  0.00  0.00     0.000 A 
ATOM      6  C6  BNZ d   1       5.336   1.945  -5.909  0.00  0.00     0.000 A 
ENDROOT
TORSDOF 0
ENDMDL
