MODEL 1
REMARK minimizedAffinity -4.17706156
REMARK minimizedRMSD -1
REMARK  0 active torsions:
REMARK  status: ('A' for Active; 'I' for Inactive)
ROOT
ATOM      1  C1  BNZ d   1       3.822   1.745   3.333  0.00  0.00     0.000 A 
ATOM      2  C2  BNZ d   1       3.079   1.421   2.229  0.00  0.00     0.000 A 
ATOM      3  C3  BNZ d   1       3.065   2.234   1.131  0.00  0.00     0.000 A 
ATOM      4  C4  BNZ d   1       3.762   3.389   1.152  0.00  0.00     0.000 A 
ATOM      5  C5  BNZ d   1       4.509   3.734   2.261  0.00  0.00     0.000 A 
ATOM      6  C6  BNZ d   1       4.552   2.894   3.349  0.00  0.00     0.000 A 
ENDROOT
TORSDOF 0
ENDMDL
