MODEL 1
REMARK minimizedAffinity -2.28308082
REMARK minimizedRMSD -1
REMARK  0 active torsions:
REMARK  status: ('A' for Active; 'I' for Inactive)
ROOT
ATOM      1  C1  BNZ d   1       3.584   3.370  -5.764  0.00  0.00     0.000 A 
ATOM      2  C2  BNZ d   1       4.755   4.076  -5.672  0.00  0.00     0.000 A 
ATOM      3  C3  BNZ d   1       5.962   3.443  -5.768  0.00  0.00     0.000 A 
ATOM      4  C4  BNZ d   1       5.999   2.103  -5.914  0.00  0.00     0.000 A 
ATOM      5  C5  BNZ d   1       4.828   1.376  -5.999  0.00  0.00     0.000 A 
ATOM      6  C6  BNZ d   1       3.614   2.021  -5.942  0.00  0.00     0.000 A 
ENDROOT
TORSDOF 0
ENDMDL
