MODEL 1
REMARK minimizedAffinity 0.010098163
REMARK minimizedRMSD -1
REMARK  0 active torsions:
REMARK  status: ('A' for Active; 'I' for Inactive)
ROOT
ATOM      1  C1  BNZ d   1       4.053   1.047  -5.999  0.00  0.00     0.000 A 
ATOM      2  C2  BNZ d   1       5.416   1.179  -5.996  0.00  0.00     0.000 A 
ATOM      3  C3  BNZ d   1       6.000   2.410  -5.888  0.00  0.00     0.000 A 
ATOM      4  C4  BNZ d   1       5.222   3.509  -5.822  0.00  0.00     0.000 A 
ATOM      5  C5  BNZ d   1       3.846   3.394  -5.834  0.00  0.00     0.000 A 
ATOM      6  C6  BNZ d   1       3.262   2.150  -5.904  0.00  0.00     0.000 A 
ENDROOT
TORSDOF 0
ENDMDL
