MODEL 1
REMARK minimizedAffinity 2.27894831
REMARK minimizedRMSD -1
REMARK  1 active torsions:
REMARK  status: ('A' for Active; 'I' for Inactive)
REMARK    1  A    between atoms: C3_4  and  O_7 
ROOT
ATOM      1  C   UNL d   1      -2.055  -0.132  -2.353  0.00  0.00    -0.033 A 
ATOM      2  C1  UNL d   1      -1.249   0.613  -1.490  0.00  0.00     0.039 A 
ATOM      3  C2  UNL d   1      -1.722   0.975  -0.228  0.00  0.00    -0.080 A 
ATOM      4  C3  UNL d   1      -3.001   0.585   0.160  0.00  0.00     0.150 A 
ATOM      5  C4  UNL d   1      -3.808  -0.160  -0.692  0.00  0.00    -0.007 A 
ATOM      6  C5  UNL d   1      -3.334  -0.520  -1.953  0.00  0.00     0.039 A 
ENDROOT
BRANCH   4   7
ATOM      7  O   UNL d   1      -3.508   0.919   1.381  0.00  0.00    -0.526 OA
ATOM      8  H5  UNL d   1      -2.850   1.458   1.851  0.00  0.00     0.418 HD
ENDBRANCH   4   7
TORSDOF 1
ENDMDL
