MODEL 1
REMARK minimizedAffinity 1.02047789
REMARK minimizedRMSD -1
REMARK  1 active torsions:
REMARK  status: ('A' for Active; 'I' for Inactive)
REMARK    1  A    between atoms: C3_4  and  O_7 
ROOT
ATOM      1  C   UNL d   1       3.153   3.986   5.144  0.00  0.00    -0.033 A 
ATOM      2  C1  UNL d   1       2.078   3.735   6.000  0.00  0.00     0.039 A 
ATOM      3  C2  UNL d   1       0.863   4.395   5.810  0.00  0.00    -0.080 A 
ATOM      4  C3  UNL d   1       0.735   5.302   4.761  0.00  0.00     0.150 A 
ATOM      5  C4  UNL d   1       1.800   5.554   3.903  0.00  0.00    -0.007 A 
ATOM      6  C5  UNL d   1       3.013   4.895   4.095  0.00  0.00     0.039 A 
ENDROOT
BRANCH   4   7
ATOM      7  O   UNL d   1      -0.430   5.974   4.538  0.00  0.00    -0.526 OA
ATOM      8  H5  UNL d   1      -1.068   5.721   5.227  0.00  0.00     0.418 HD
ENDBRANCH   4   7
TORSDOF 1
ENDMDL
