MODEL 1
REMARK minimizedAffinity 1.52373695
REMARK minimizedRMSD -1
REMARK  1 active torsions:
REMARK  status: ('A' for Active; 'I' for Inactive)
REMARK    1  A    between atoms: C3_4  and  O_7 
ROOT
ATOM      1  C   UNL d   1       4.865   1.686   5.657  0.00  0.00    -0.033 A 
ATOM      2  C1  UNL d   1       5.236   3.025   5.526  0.00  0.00     0.039 A 
ATOM      3  C2  UNL d   1       4.274   4.032   5.629  0.00  0.00    -0.080 A 
ATOM      4  C3  UNL d   1       2.946   3.686   5.864  0.00  0.00     0.150 A 
ATOM      5  C4  UNL d   1       2.569   2.354   6.000  0.00  0.00    -0.007 A 
ATOM      6  C5  UNL d   1       3.532   1.350   5.896  0.00  0.00     0.039 A 
ENDROOT
BRANCH   4   7
ATOM      7  O   UNL d   1       1.971   4.633   5.968  0.00  0.00    -0.526 OA
ATOM      8  H5  UNL d   1       2.373   5.506   5.824  0.00  0.00     0.418 HD
ENDBRANCH   4   7
TORSDOF 1
ENDMDL
