MODEL 1
REMARK minimizedAffinity 2.89449215
REMARK minimizedRMSD -1
REMARK  1 active torsions:
REMARK  status: ('A' for Active; 'I' for Inactive)
REMARK    1  A    between atoms: C3_4  and  O_7 
ROOT
ATOM      1  C   UNL d   1       5.984   2.466   0.388  0.00  0.00    -0.033 A 
ATOM      2  C1  UNL d   1       4.861   3.148  -0.085  0.00  0.00     0.039 A 
ATOM      3  C2  UNL d   1       3.753   2.437  -0.549  0.00  0.00    -0.080 A 
ATOM      4  C3  UNL d   1       3.780   1.045  -0.535  0.00  0.00     0.150 A 
ATOM      5  C4  UNL d   1       4.894   0.358  -0.062  0.00  0.00    -0.007 A 
ATOM      6  C5  UNL d   1       5.999   1.071   0.401  0.00  0.00     0.039 A 
ENDROOT
BRANCH   4   7
ATOM      7  O   UNL d   1       2.725   0.307  -0.983  0.00  0.00    -0.526 OA
ATOM      8  H5  UNL d   1       2.039   0.915  -1.306  0.00  0.00     0.418 HD
ENDBRANCH   4   7
TORSDOF 1
ENDMDL
