MODEL 1
REMARK minimizedAffinity -2.09720945
REMARK minimizedRMSD -1
REMARK  1 active torsions:
REMARK  status: ('A' for Active; 'I' for Inactive)
REMARK    1  A    between atoms: C3_4  and  O_7 
ROOT
ATOM      1  C   UNL d   1       3.275  -0.270  -0.784  0.00  0.00    -0.033 A 
ATOM      2  C1  UNL d   1       3.457   0.840  -1.611  0.00  0.00     0.039 A 
ATOM      3  C2  UNL d   1       4.271   1.896  -1.197  0.00  0.00    -0.080 A 
ATOM      4  C3  UNL d   1       4.898   1.829   0.044  0.00  0.00     0.150 A 
ATOM      5  C4  UNL d   1       4.725   0.724   0.871  0.00  0.00    -0.007 A 
ATOM      6  C5  UNL d   1       3.910  -0.328   0.457  0.00  0.00     0.039 A 
ENDROOT
BRANCH   4   7
ATOM      7  O   UNL d   1       5.699   2.837   0.493  0.00  0.00    -0.526 OA
ATOM      8  H5  UNL d   1       5.703   3.546  -0.171  0.00  0.00     0.418 HD
ENDBRANCH   4   7
TORSDOF 1
ENDMDL
