MODEL 1
REMARK minimizedAffinity 0.307894975
REMARK minimizedRMSD -1
REMARK  1 active torsions:
REMARK  status: ('A' for Active; 'I' for Inactive)
REMARK    1  A    between atoms: C3_4  and  O_7 
ROOT
ATOM      1  C   UNL d   1       2.958   0.174  -0.814  0.00  0.00    -0.033 A 
ATOM      2  C1  UNL d   1       4.194  -0.474  -0.778  0.00  0.00     0.039 A 
ATOM      3  C2  UNL d   1       5.211   0.004   0.051  0.00  0.00    -0.080 A 
ATOM      4  C3  UNL d   1       4.979   1.129   0.838  0.00  0.00     0.150 A 
ATOM      5  C4  UNL d   1       3.748   1.777   0.810  0.00  0.00    -0.007 A 
ATOM      6  C5  UNL d   1       2.734   1.298  -0.019  0.00  0.00     0.039 A 
ENDROOT
BRANCH   4   7
ATOM      7  O   UNL d   1       5.942   1.635   1.659  0.00  0.00    -0.526 OA
ATOM      8  H5  UNL d   1       6.748   1.102   1.553  0.00  0.00     0.418 HD
ENDBRANCH   4   7
TORSDOF 1
ENDMDL
