MODEL 1
REMARK minimizedAffinity 5.19374371
REMARK minimizedRMSD -1
REMARK  1 active torsions:
REMARK  status: ('A' for Active; 'I' for Inactive)
REMARK    1  A    between atoms: C3_4  and  O_7 
ROOT
ATOM      1  C   UNL d   1       5.783   2.462   1.026  0.00  0.00    -0.033 A 
ATOM      2  C1  UNL d   1       4.499   3.007   1.086  0.00  0.00     0.039 A 
ATOM      3  C2  UNL d   1       3.427   2.339   0.490  0.00  0.00    -0.080 A 
ATOM      4  C3  UNL d   1       3.653   1.129  -0.161  0.00  0.00     0.150 A 
ATOM      5  C4  UNL d   1       4.929   0.579  -0.221  0.00  0.00    -0.007 A 
ATOM      6  C5  UNL d   1       5.998   1.248   0.374  0.00  0.00     0.039 A 
ENDROOT
BRANCH   4   7
ATOM      7  O   UNL d   1       2.639   0.443  -0.761  0.00  0.00    -0.526 OA
ATOM      8  H5  UNL d   1       1.820   0.957  -0.664  0.00  0.00     0.418 HD
ENDBRANCH   4   7
TORSDOF 1
ENDMDL
