MODEL 1
REMARK minimizedAffinity -2.58249354
REMARK minimizedRMSD -1
REMARK  2 active torsions:
REMARK  status: ('A' for Active; 'I' for Inactive)
REMARK    1  A    between atoms: C1_2  and  C2_3 
REMARK    2  A    between atoms: C2_3  and  C3_4 
ROOT
ATOM      1  C3  UNL d   1       0.383  -0.454  -0.979  0.00  0.00    -0.075 A 
ATOM      2  C4  UNL d   1       0.942  -1.725  -0.778  0.00  0.00     0.002 A 
ATOM      3  C5  UNL d   1       1.976  -2.182  -1.596  0.00  0.00     0.002 A 
ATOM      4  C6  UNL d   1       2.455  -1.381  -2.630  0.00  0.00    -0.004 A 
ATOM      5  C7  UNL d   1       1.896  -0.124  -2.850  0.00  0.00     0.002 A 
ATOM      6  C8  UNL d   1       0.865   0.338  -2.030  0.00  0.00     0.002 A 
ENDROOT
BRANCH   1   7
ATOM      7  C2  UNL d   1      -0.716   0.058  -0.079  0.00  0.00     0.056 C 
BRANCH   7   8
ATOM      8  C1  UNL d   1      -0.219   0.593   1.268  0.00  0.00     0.007 C 
ATOM      9  C   UNL d   1       1.268   0.920   1.273  0.00  0.00     0.009 C 
ENDBRANCH   7   8
ENDBRANCH   1   7
TORSDOF 2
ENDMDL
