MODEL 1
REMARK minimizedAffinity -5.9946661
REMARK minimizedRMSD -1
REMARK  2 active torsions:
REMARK  status: ('A' for Active; 'I' for Inactive)
REMARK    1  A    between atoms: C1_2  and  C2_3 
REMARK    2  A    between atoms: C2_3  and  C3_4 
ROOT
ATOM      1  C3  UNL d   1       0.839  -0.624  -0.230  0.00  0.00    -0.075 A 
ATOM      2  C4  UNL d   1       1.240   0.374  -1.130  0.00  0.00     0.002 A 
ATOM      3  C5  UNL d   1       1.891   0.037  -2.317  0.00  0.00     0.002 A 
ATOM      4  C6  UNL d   1       2.158  -1.297  -2.614  0.00  0.00    -0.004 A 
ATOM      5  C7  UNL d   1       1.779  -2.296  -1.719  0.00  0.00     0.002 A 
ATOM      6  C8  UNL d   1       1.124  -1.962  -0.533  0.00  0.00     0.002 A 
ENDROOT
BRANCH   1   7
ATOM      7  C2  UNL d   1       0.107  -0.269   1.043  0.00  0.00     0.056 C 
BRANCH   7   8
ATOM      8  C1  UNL d   1      -1.375   0.063   0.838  0.00  0.00     0.007 C 
ATOM      9  C   UNL d   1      -2.069   0.521   2.114  0.00  0.00     0.009 C 
ENDBRANCH   7   8
ENDBRANCH   1   7
TORSDOF 2
ENDMDL
