MODEL 1
REMARK minimizedAffinity -4.49616671
REMARK minimizedRMSD -1
REMARK  2 active torsions:
REMARK  status: ('A' for Active; 'I' for Inactive)
REMARK    1  A    between atoms: C1_2  and  C2_3 
REMARK    2  A    between atoms: C2_3  and  C3_4 
ROOT
ATOM      1  C3  UNL d   1       0.231  -0.195   0.083  0.00  0.00    -0.075 A 
ATOM      2  C4  UNL d   1       0.071  -1.048  -1.018  0.00  0.00     0.002 A 
ATOM      3  C5  UNL d   1       0.779  -0.821  -2.199  0.00  0.00     0.002 A 
ATOM      4  C6  UNL d   1       1.646   0.264  -2.297  0.00  0.00    -0.004 A 
ATOM      5  C7  UNL d   1       1.801   1.128  -1.215  0.00  0.00     0.002 A 
ATOM      6  C8  UNL d   1       1.097   0.901  -0.031  0.00  0.00     0.002 A 
ENDROOT
BRANCH   1   7
ATOM      7  C2  UNL d   1      -0.509  -0.451   1.374  0.00  0.00     0.056 C 
BRANCH   7   8
ATOM      8  C1  UNL d   1      -1.821   0.329   1.506  0.00  0.00     0.007 C 
ATOM      9  C   UNL d   1      -2.043   0.898   2.901  0.00  0.00     0.009 C 
ENDBRANCH   7   8
ENDBRANCH   1   7
TORSDOF 2
ENDMDL
