MODEL 1
REMARK minimizedAffinity -3.65011382
REMARK minimizedRMSD -1
REMARK  2 active torsions:
REMARK  status: ('A' for Active; 'I' for Inactive)
REMARK    1  A    between atoms: C1_2  and  C2_3 
REMARK    2  A    between atoms: C2_3  and  C3_4 
ROOT
ATOM      1  C3  UNL d   1      -1.619   0.436  -0.183  0.00  0.00    -0.075 A 
ATOM      2  C4  UNL d   1      -0.748   0.310  -1.275  0.00  0.00     0.002 A 
ATOM      3  C5  UNL d   1       0.368  -0.524  -1.199  0.00  0.00     0.002 A 
ATOM      4  C6  UNL d   1       0.633  -1.233  -0.029  0.00  0.00    -0.004 A 
ATOM      5  C7  UNL d   1      -0.216  -1.102   1.068  0.00  0.00     0.002 A 
ATOM      6  C8  UNL d   1      -1.336  -0.271   0.993  0.00  0.00     0.002 A 
ENDROOT
BRANCH   1   7
ATOM      7  C2  UNL d   1      -2.844   1.314  -0.270  0.00  0.00     0.056 C 
BRANCH   7   8
ATOM      8  C1  UNL d   1      -3.746   1.250   0.967  0.00  0.00     0.007 C 
ATOM      9  C   UNL d   1      -4.986   0.388   0.762  0.00  0.00     0.009 C 
ENDBRANCH   7   8
ENDBRANCH   1   7
TORSDOF 2
ENDMDL
