MODEL 1
REMARK minimizedAffinity -3.91680026
REMARK minimizedRMSD -1
REMARK  2 active torsions:
REMARK  status: ('A' for Active; 'I' for Inactive)
REMARK    1  A    between atoms: C1_2  and  C2_3 
REMARK    2  A    between atoms: C2_3  and  C3_4 
ROOT
ATOM      1  C3  UNL d   1       0.190  -0.102   0.260  0.00  0.00    -0.075 A 
ATOM      2  C4  UNL d   1      -0.108  -0.801  -0.918  0.00  0.00     0.002 A 
ATOM      3  C5  UNL d   1       0.569  -0.513  -2.103  0.00  0.00     0.002 A 
ATOM      4  C6  UNL d   1       1.544   0.482  -2.128  0.00  0.00    -0.004 A 
ATOM      5  C7  UNL d   1       1.836   1.195  -0.967  0.00  0.00     0.002 A 
ATOM      6  C8  UNL d   1       1.163   0.906   0.221  0.00  0.00     0.002 A 
ENDROOT
BRANCH   1   7
ATOM      7  C2  UNL d   1      -0.519  -0.429   1.553  0.00  0.00     0.056 C 
BRANCH   7   8
ATOM      8  C1  UNL d   1      -1.994  -0.013   1.578  0.00  0.00     0.007 C 
ATOM      9  C   UNL d   1      -2.353   0.853   2.778  0.00  0.00     0.009 C 
ENDBRANCH   7   8
ENDBRANCH   1   7
TORSDOF 2
ENDMDL
