MODEL 1
REMARK minimizedAffinity -5.16481733
REMARK minimizedRMSD -1
REMARK  2 active torsions:
REMARK  status: ('A' for Active; 'I' for Inactive)
REMARK    1  A    between atoms: C1_2  and  C2_3 
REMARK    2  A    between atoms: C2_3  and  C3_4 
ROOT
ATOM      1  C3  UNL d   1      -3.055   2.608   2.714  0.00  0.00    -0.075 A 
ATOM      2  C4  UNL d   1      -4.258   2.073   2.230  0.00  0.00     0.002 A 
ATOM      3  C5  UNL d   1      -4.302   0.772   1.728  0.00  0.00     0.002 A 
ATOM      4  C6  UNL d   1      -3.146  -0.005   1.695  0.00  0.00    -0.004 A 
ATOM      5  C7  UNL d   1      -1.943   0.523   2.158  0.00  0.00     0.002 A 
ATOM      6  C8  UNL d   1      -1.896   1.823   2.664  0.00  0.00     0.002 A 
ENDROOT
BRANCH   1   7
ATOM      7  C2  UNL d   1      -3.007   4.005   3.285  0.00  0.00     0.056 C 
BRANCH   7   8
ATOM      8  C1  UNL d   1      -1.877   4.227   4.297  0.00  0.00     0.007 C 
ATOM      9  C   UNL d   1      -2.263   3.845   5.720  0.00  0.00     0.009 C 
ENDBRANCH   7   8
ENDBRANCH   1   7
TORSDOF 2
ENDMDL
