MODEL 1
REMARK minimizedAffinity -3.65702653
REMARK minimizedRMSD -1
REMARK  2 active torsions:
REMARK  status: ('A' for Active; 'I' for Inactive)
REMARK    1  A    between atoms: C1_2  and  C2_3 
REMARK    2  A    between atoms: C2_3  and  C3_4 
ROOT
ATOM      1  C3  UNL d   1       0.094  -0.213  -0.119  0.00  0.00    -0.075 A 
ATOM      2  C4  UNL d   1       1.021   0.832  -0.244  0.00  0.00     0.002 A 
ATOM      3  C5  UNL d   1       1.722   1.018  -1.436  0.00  0.00     0.002 A 
ATOM      4  C6  UNL d   1       1.513   0.158  -2.512  0.00  0.00    -0.004 A 
ATOM      5  C7  UNL d   1       0.607  -0.893  -2.393  0.00  0.00     0.002 A 
ATOM      6  C8  UNL d   1      -0.099  -1.079  -1.203  0.00  0.00     0.002 A 
ENDROOT
BRANCH   1   7
ATOM      7  C2  UNL d   1      -0.689  -0.402   1.159  0.00  0.00     0.056 C 
BRANCH   7   8
ATOM      8  C1  UNL d   1      -1.604   0.776   1.509  0.00  0.00     0.007 C 
ATOM      9  C   UNL d   1      -3.070   0.381   1.630  0.00  0.00     0.009 C 
ENDBRANCH   7   8
ENDBRANCH   1   7
TORSDOF 2
ENDMDL
