MODEL 1
REMARK minimizedAffinity -2.24683928
REMARK minimizedRMSD -1
REMARK  2 active torsions:
REMARK  status: ('A' for Active; 'I' for Inactive)
REMARK    1  A    between atoms: C1_2  and  C2_3 
REMARK    2  A    between atoms: C2_3  and  C3_4 
ROOT
ATOM      1  C3  UNL d   1      -0.389   0.344   0.894  0.00  0.00    -0.075 A 
ATOM      2  C4  UNL d   1      -0.269  -0.861   0.187  0.00  0.00     0.002 A 
ATOM      3  C5  UNL d   1       0.602  -0.964  -0.897  0.00  0.00     0.002 A 
ATOM      4  C6  UNL d   1       1.357   0.138  -1.295  0.00  0.00    -0.004 A 
ATOM      5  C7  UNL d   1       1.234   1.345  -0.611  0.00  0.00     0.002 A 
ATOM      6  C8  UNL d   1       0.366   1.449   0.478  0.00  0.00     0.002 A 
ENDROOT
BRANCH   1   7
ATOM      7  C2  UNL d   1      -1.308   0.453   2.087  0.00  0.00     0.056 C 
BRANCH   7   8
ATOM      8  C1  UNL d   1      -2.700   1.000   1.753  0.00  0.00     0.007 C 
ATOM      9  C   UNL d   1      -2.973   2.365   2.371  0.00  0.00     0.009 C 
ENDBRANCH   7   8
ENDBRANCH   1   7
TORSDOF 2
ENDMDL
