MODEL 1
REMARK minimizedAffinity -5.09754658
REMARK minimizedRMSD -1
REMARK  2 active torsions:
REMARK  status: ('A' for Active; 'I' for Inactive)
REMARK    1  A    between atoms: C1_2  and  C2_3 
REMARK    2  A    between atoms: C2_3  and  C3_4 
ROOT
ATOM      1  C3  UNL d   1       0.543  -0.475  -1.321  0.00  0.00    -0.075 A 
ATOM      2  C4  UNL d   1       0.437  -1.840  -1.016  0.00  0.00     0.002 A 
ATOM      3  C5  UNL d   1       0.277  -2.260   0.305  0.00  0.00     0.002 A 
ATOM      4  C6  UNL d   1       0.232  -1.324   1.336  0.00  0.00    -0.004 A 
ATOM      5  C7  UNL d   1       0.354   0.033   1.046  0.00  0.00     0.002 A 
ATOM      6  C8  UNL d   1       0.509   0.456  -0.275  0.00  0.00     0.002 A 
ENDROOT
BRANCH   1   7
ATOM      7  C2  UNL d   1       0.687  -0.012  -2.751  0.00  0.00     0.056 C 
BRANCH   7   8
ATOM      8  C1  UNL d   1       2.135   0.039  -3.248  0.00  0.00     0.007 C 
ATOM      9  C   UNL d   1       3.096   0.651  -2.237  0.00  0.00     0.009 C 
ENDBRANCH   7   8
ENDBRANCH   1   7
TORSDOF 2
ENDMDL
