MODEL 1
REMARK minimizedAffinity -4.34180546
REMARK minimizedRMSD -1
REMARK  2 active torsions:
REMARK  status: ('A' for Active; 'I' for Inactive)
REMARK    1  A    between atoms: C1_2  and  C2_3 
REMARK    2  A    between atoms: C2_3  and  C3_4 
ROOT
ATOM      1  C3  UNL d   1      -0.111   0.569   0.681  0.00  0.00    -0.075 A 
ATOM      2  C4  UNL d   1       0.615   1.576   0.029  0.00  0.00     0.002 A 
ATOM      3  C5  UNL d   1       1.373   1.283  -1.105  0.00  0.00     0.002 A 
ATOM      4  C6  UNL d   1       1.422  -0.021  -1.595  0.00  0.00    -0.004 A 
ATOM      5  C7  UNL d   1       0.718  -1.032  -0.946  0.00  0.00     0.002 A 
ATOM      6  C8  UNL d   1      -0.044  -0.740   0.187  0.00  0.00     0.002 A 
ENDROOT
BRANCH   1   7
ATOM      7  C2  UNL d   1      -0.957   0.886   1.891  0.00  0.00     0.056 C 
BRANCH   7   8
ATOM      8  C1  UNL d   1      -2.464   0.886   1.617  0.00  0.00     0.007 C 
ATOM      9  C   UNL d   1      -3.116   2.244   1.841  0.00  0.00     0.009 C 
ENDBRANCH   7   8
ENDBRANCH   1   7
TORSDOF 2
ENDMDL
