MODEL 1
REMARK minimizedAffinity -5.38373804
REMARK minimizedRMSD -1
REMARK  2 active torsions:
REMARK  status: ('A' for Active; 'I' for Inactive)
REMARK    1  A    between atoms: C1_2  and  C2_3 
REMARK    2  A    between atoms: C2_3  and  C3_4 
ROOT
ATOM      1  C3  UNL d   1      -0.014   0.252   0.161  0.00  0.00    -0.075 A 
ATOM      2  C4  UNL d   1       1.260   0.832   0.069  0.00  0.00     0.002 A 
ATOM      3  C5  UNL d   1       1.902   0.938  -1.165  0.00  0.00     0.002 A 
ATOM      4  C6  UNL d   1       1.286   0.457  -2.319  0.00  0.00    -0.004 A 
ATOM      5  C7  UNL d   1       0.028  -0.136  -2.236  0.00  0.00     0.002 A 
ATOM      6  C8  UNL d   1      -0.619  -0.239  -1.004  0.00  0.00     0.002 A 
ENDROOT
BRANCH   1   7
ATOM      7  C2  UNL d   1      -0.728   0.162   1.488  0.00  0.00     0.056 C 
BRANCH   7   8
ATOM      8  C1  UNL d   1      -2.198   0.588   1.436  0.00  0.00     0.007 C 
ATOM      9  C   UNL d   1      -2.382   2.093   1.293  0.00  0.00     0.009 C 
ENDBRANCH   7   8
ENDBRANCH   1   7
TORSDOF 2
ENDMDL
