MODEL 1
REMARK minimizedAffinity -4.70024061
REMARK minimizedRMSD -1
REMARK  1 active torsions:
REMARK  status: ('A' for Active; 'I' for Inactive)
REMARK    1  A    between atoms: N_2  and  C1_3 
ROOT
ATOM      1  C1  UNL d   1       0.696   0.510   0.265  0.00  0.00     0.143 A 
ATOM      2  C2  UNL d   1       0.847  -0.877   0.375  0.00  0.00    -0.057 A 
ATOM      3  C3  UNL d   1       2.061  -1.446   0.778  0.00  0.00     0.033 A 
ATOM      4  C4  UNL d   1       3.159  -0.636   1.051  0.00  0.00    -0.042 A 
ATOM      5  C5  UNL d   1       3.039   0.744   0.923  0.00  0.00     0.033 A 
ATOM      6  C6  UNL d   1       1.822   1.306   0.527  0.00  0.00    -0.057 A 
ENDROOT
BRANCH   1   7
ATOM      7  N   UNL d   1      -0.455   1.130  -0.226  0.00  0.00    -0.732 N 
ATOM      8  C   UNL d   1      -1.761   0.768   0.281  0.00  0.00     0.284 C 
ATOM      9  H3  UNL d   1      -0.327   2.130  -0.368  0.00  0.00     0.395 HD
ENDBRANCH   1   7
TORSDOF 1
ENDMDL
