MODEL 1
REMARK minimizedAffinity -2.2320025
REMARK minimizedRMSD -1
REMARK  1 active torsions:
REMARK  status: ('A' for Active; 'I' for Inactive)
REMARK    1  A    between atoms: N_2  and  C1_3 
ROOT
ATOM      1  C1  UNL d   1      -1.701   0.496  -0.590  0.00  0.00     0.143 A 
ATOM      2  C2  UNL d   1      -2.720  -0.427  -0.332  0.00  0.00    -0.057 A 
ATOM      3  C3  UNL d   1      -3.830  -0.084   0.450  0.00  0.00     0.033 A 
ATOM      4  C4  UNL d   1      -3.926   1.183   1.014  0.00  0.00    -0.042 A 
ATOM      5  C5  UNL d   1      -2.913   2.109   0.792  0.00  0.00     0.033 A 
ATOM      6  C6  UNL d   1      -1.810   1.763   0.005  0.00  0.00    -0.057 A 
ENDROOT
BRANCH   1   7
ATOM      7  N   UNL d   1      -0.526   0.185  -1.277  0.00  0.00    -0.732 N 
ATOM      8  C   UNL d   1       0.539  -0.546  -0.624  0.00  0.00     0.284 C 
ATOM      9  H3  UNL d   1      -0.702  -0.106  -2.236  0.00  0.00     0.395 HD
ENDBRANCH   1   7
TORSDOF 1
ENDMDL
