MODEL 1
REMARK minimizedAffinity -4.23535681
REMARK minimizedRMSD -1
REMARK  1 active torsions:
REMARK  status: ('A' for Active; 'I' for Inactive)
REMARK    1  A    between atoms: N_2  and  C1_3 
ROOT
ATOM      1  C1  UNL d   1      -2.236   0.808   0.001  0.00  0.00     0.143 A 
ATOM      2  C2  UNL d   1      -3.414   0.169  -0.400  0.00  0.00    -0.057 A 
ATOM      3  C3  UNL d   1      -4.582   0.250   0.368  0.00  0.00     0.033 A 
ATOM      4  C4  UNL d   1      -4.584   0.949   1.571  0.00  0.00    -0.042 A 
ATOM      5  C5  UNL d   1      -3.417   1.571   2.002  0.00  0.00     0.033 A 
ATOM      6  C6  UNL d   1      -2.256   1.492   1.227  0.00  0.00    -0.057 A 
ENDROOT
BRANCH   1   7
ATOM      7  N   UNL d   1      -1.017   0.684  -0.669  0.00  0.00    -0.732 N 
ATOM      8  C   UNL d   1       0.228   0.640   0.067  0.00  0.00     0.284 C 
ATOM      9  H3  UNL d   1      -1.065   0.026  -1.444  0.00  0.00     0.395 HD
ENDBRANCH   1   7
TORSDOF 1
ENDMDL
