MODEL 1
REMARK minimizedAffinity -4.5436368
REMARK minimizedRMSD -1
REMARK  1 active torsions:
REMARK  status: ('A' for Active; 'I' for Inactive)
REMARK    1  A    between atoms: N_2  and  C1_3 
ROOT
ATOM      1  C1  UNL d   1       1.004   0.187   0.373  0.00  0.00     0.143 A 
ATOM      2  C2  UNL d   1       1.090  -1.208   0.306  0.00  0.00    -0.057 A 
ATOM      3  C3  UNL d   1       2.328  -1.861   0.330  0.00  0.00     0.033 A 
ATOM      4  C4  UNL d   1       3.508  -1.127   0.393  0.00  0.00    -0.042 A 
ATOM      5  C5  UNL d   1       3.447   0.262   0.436  0.00  0.00     0.033 A 
ATOM      6  C6  UNL d   1       2.208   0.908   0.418  0.00  0.00    -0.057 A 
ENDROOT
BRANCH   1   7
ATOM      7  N   UNL d   1      -0.192   0.899   0.254  0.00  0.00    -0.732 N 
ATOM      8  C   UNL d   1      -1.436   0.211  -0.016  0.00  0.00     0.284 C 
ATOM      9  H3  UNL d   1      -0.270   1.644   0.943  0.00  0.00     0.395 HD
ENDBRANCH   1   7
TORSDOF 1
ENDMDL
