MODEL 1
REMARK minimizedAffinity -4.59992313
REMARK minimizedRMSD -1
REMARK  1 active torsions:
REMARK  status: ('A' for Active; 'I' for Inactive)
REMARK    1  A    between atoms: N_2  and  C1_3 
ROOT
ATOM      1  C1  UNL d   1       2.604   0.446   0.091  0.00  0.00     0.143 A 
ATOM      2  C2  UNL d   1       1.300   0.750  -0.314  0.00  0.00    -0.057 A 
ATOM      3  C3  UNL d   1       0.268  -0.190  -0.205  0.00  0.00     0.033 A 
ATOM      4  C4  UNL d   1       0.529  -1.465   0.286  0.00  0.00    -0.042 A 
ATOM      5  C5  UNL d   1       1.823  -1.798   0.671  0.00  0.00     0.033 A 
ATOM      6  C6  UNL d   1       2.848  -0.853   0.566  0.00  0.00    -0.057 A 
ENDROOT
BRANCH   1   7
ATOM      7  N   UNL d   1       3.693   1.304  -0.083  0.00  0.00    -0.732 N 
ATOM      8  C   UNL d   1       4.280   1.492  -1.393  0.00  0.00     0.284 C 
ATOM      9  H3  UNL d   1       3.604   2.159   0.460  0.00  0.00     0.395 HD
ENDBRANCH   1   7
TORSDOF 1
ENDMDL
