MODEL 1
REMARK minimizedAffinity -3.83513284
REMARK minimizedRMSD -1
REMARK  1 active torsions:
REMARK  status: ('A' for Active; 'I' for Inactive)
REMARK    1  A    between atoms: N_2  and  C1_3 
ROOT
ATOM      1  C1  UNL d   1       0.451  -0.059  -0.261  0.00  0.00     0.143 A 
ATOM      2  C2  UNL d   1       1.210  -1.050  -0.894  0.00  0.00    -0.057 A 
ATOM      3  C3  UNL d   1       2.258  -1.697  -0.228  0.00  0.00     0.033 A 
ATOM      4  C4  UNL d   1       2.586  -1.343   1.076  0.00  0.00    -0.042 A 
ATOM      5  C5  UNL d   1       1.861  -0.343   1.716  0.00  0.00     0.033 A 
ATOM      6  C6  UNL d   1       0.812   0.295   1.048  0.00  0.00    -0.057 A 
ENDROOT
BRANCH   1   7
ATOM      7  N   UNL d   1      -0.539   0.690  -0.902  0.00  0.00    -0.732 N 
ATOM      8  C   UNL d   1      -1.907   0.660  -0.431  0.00  0.00     0.284 C 
ATOM      9  H3  UNL d   1      -0.212   1.616  -1.172  0.00  0.00     0.395 HD
ENDBRANCH   1   7
TORSDOF 1
ENDMDL
