MODEL 1
REMARK minimizedAffinity -3.88359714
REMARK minimizedRMSD -1
REMARK  1 active torsions:
REMARK  status: ('A' for Active; 'I' for Inactive)
REMARK    1  A    between atoms: N_2  and  C1_3 
ROOT
ATOM      1  C1  UNL d   1       0.133  -0.140  -0.772  0.00  0.00     0.143 A 
ATOM      2  C2  UNL d   1       0.375  -1.476  -1.106  0.00  0.00    -0.057 A 
ATOM      3  C3  UNL d   1       1.472  -2.169  -0.579  0.00  0.00     0.033 A 
ATOM      4  C4  UNL d   1       2.366  -1.526   0.271  0.00  0.00    -0.042 A 
ATOM      5  C5  UNL d   1       2.159  -0.190   0.597  0.00  0.00     0.033 A 
ATOM      6  C6  UNL d   1       1.058   0.494   0.073  0.00  0.00    -0.057 A 
ENDROOT
BRANCH   1   7
ATOM      7  N   UNL d   1      -0.884   0.632  -1.339  0.00  0.00    -0.732 N 
ATOM      8  C   UNL d   1      -2.212   0.640  -0.763  0.00  0.00     0.284 C 
ATOM      9  H3  UNL d   1      -0.556   1.547  -1.640  0.00  0.00     0.395 HD
ENDBRANCH   1   7
TORSDOF 1
ENDMDL
