MODEL 1
REMARK minimizedAffinity 8.01218605
REMARK minimizedRMSD -1
REMARK  2 active torsions:
REMARK  status: ('A' for Active; 'I' for Inactive)
REMARK    1  A    between atoms: C2'_3  and  C1'_4 
REMARK    2  A    between atoms: C1'_4  and  C1_5 
ROOT
ATOM      1  C1  I4B d   1       1.090   2.512   1.321  0.00  0.00    -0.075 A 
ATOM      2  C2  I4B d   1       2.098   1.596   1.494  0.00  0.00     0.003 A 
ATOM      3  C3  I4B d   1       1.796   0.218   1.616  0.00  0.00     0.002 A 
ATOM      4  C4  I4B d   1       0.479  -0.192   1.611  0.00  0.00    -0.004 A 
ATOM      5  C5  I4B d   1      -0.541   0.735   1.412  0.00  0.00     0.002 A 
ATOM      6  C6  I4B d   1      -0.233   2.094   1.254  0.00  0.00     0.003 A 
ENDROOT
BRANCH   1   7
ATOM      7  C1' I4B d   1       1.443   3.963   1.228  0.00  0.00     0.060 C 
BRANCH   7   8
ATOM      8  C2' I4B d   1       1.786   4.268  -0.215  0.00  0.00    -0.013 C 
ATOM      9  C4' I4B d   1       0.567   4.182  -1.096  0.00  0.00     0.013 C 
ATOM     10  C3' I4B d   1       2.394   5.638  -0.267  0.00  0.00     0.013 C 
ENDBRANCH   7   8
ENDBRANCH   1   7
TORSDOF 2
ENDMDL
