MODEL 1
REMARK minimizedAffinity 2.25323319
REMARK minimizedRMSD -1
REMARK  2 active torsions:
REMARK  status: ('A' for Active; 'I' for Inactive)
REMARK    1  A    between atoms: C2'_3  and  C1'_4 
REMARK    2  A    between atoms: C1'_4  and  C1_5 
ROOT
ATOM      1  C1  I4B d   1       2.249  -2.673   3.652  0.00  0.00    -0.075 A 
ATOM      2  C2  I4B d   1       1.400  -3.651   4.108  0.00  0.00     0.003 A 
ATOM      3  C3  I4B d   1       1.865  -4.629   5.021  0.00  0.00     0.002 A 
ATOM      4  C4  I4B d   1       3.189  -4.622   5.409  0.00  0.00    -0.004 A 
ATOM      5  C5  I4B d   1       4.042  -3.616   4.963  0.00  0.00     0.002 A 
ATOM      6  C6  I4B d   1       3.566  -2.628   4.089  0.00  0.00     0.003 A 
ENDROOT
BRANCH   1   7
ATOM      7  C1' I4B d   1       1.733  -1.676   2.663  0.00  0.00     0.060 C 
BRANCH   7   8
ATOM      8  C2' I4B d   1       2.694  -0.505   2.638  0.00  0.00    -0.013 C 
ATOM      9  C4' I4B d   1       2.660   0.200   1.307  0.00  0.00     0.013 C 
ATOM     10  C3' I4B d   1       2.319   0.426   3.753  0.00  0.00     0.013 C 
ENDBRANCH   7   8
ENDBRANCH   1   7
TORSDOF 2
ENDMDL
