MODEL 1
REMARK minimizedAffinity 4.37763786
REMARK minimizedRMSD -1
REMARK  2 active torsions:
REMARK  status: ('A' for Active; 'I' for Inactive)
REMARK    1  A    between atoms: C2'_3  and  C1'_4 
REMARK    2  A    between atoms: C1'_4  and  C1_5 
ROOT
ATOM      1  C1  I4B d   1       3.535   5.480  -1.906  0.00  0.00    -0.075 A 
ATOM      2  C2  I4B d   1       3.431   5.458  -3.275  0.00  0.00     0.003 A 
ATOM      3  C3  I4B d   1       4.572   5.695  -4.080  0.00  0.00     0.002 A 
ATOM      4  C4  I4B d   1       5.777   5.998  -3.480  0.00  0.00    -0.004 A 
ATOM      5  C5  I4B d   1       5.885   5.998  -2.092  0.00  0.00     0.002 A 
ATOM      6  C6  I4B d   1       4.760   5.725  -1.300  0.00  0.00     0.003 A 
ENDROOT
BRANCH   1   7
ATOM      7  C1' I4B d   1       2.304   5.258  -1.086  0.00  0.00     0.060 C 
BRANCH   7   8
ATOM      8  C2' I4B d   1       2.628   4.222  -0.029  0.00  0.00    -0.013 C 
ATOM      9  C4' I4B d   1       1.489   4.061   0.943  0.00  0.00     0.013 C 
ATOM     10  C3' I4B d   1       2.932   2.929  -0.725  0.00  0.00     0.013 C 
ENDBRANCH   7   8
ENDBRANCH   1   7
TORSDOF 2
ENDMDL
