MODEL 1
REMARK minimizedAffinity 6.72277212
REMARK minimizedRMSD -1
REMARK  2 active torsions:
REMARK  status: ('A' for Active; 'I' for Inactive)
REMARK    1  A    between atoms: C2'_3  and  C1'_4 
REMARK    2  A    between atoms: C1'_4  and  C1_5 
ROOT
ATOM      1  C1  I4B d   1       2.850  -1.172   4.048  0.00  0.00    -0.075 A 
ATOM      2  C2  I4B d   1       3.184  -0.267   5.024  0.00  0.00     0.003 A 
ATOM      3  C3  I4B d   1       4.156  -0.596   6.000  0.00  0.00     0.002 A 
ATOM      4  C4  I4B d   1       4.728  -1.852   5.991  0.00  0.00    -0.004 A 
ATOM      5  C5  I4B d   1       4.405  -2.760   4.987  0.00  0.00     0.002 A 
ATOM      6  C6  I4B d   1       3.469  -2.414   4.002  0.00  0.00     0.003 A 
ENDROOT
BRANCH   1   7
ATOM      7  C1' I4B d   1       1.795  -0.803   3.054  0.00  0.00     0.060 C 
BRANCH   7   8
ATOM      8  C2' I4B d   1       2.441  -0.754   1.684  0.00  0.00    -0.013 C 
ATOM      9  C4' I4B d   1       1.443  -1.060   0.599  0.00  0.00     0.013 C 
ATOM     10  C3' I4B d   1       3.038   0.610   1.502  0.00  0.00     0.013 C 
ENDBRANCH   7   8
ENDBRANCH   1   7
TORSDOF 2
ENDMDL
