MODEL 1
REMARK minimizedAffinity 10.97227
REMARK minimizedRMSD -1
REMARK  2 active torsions:
REMARK  status: ('A' for Active; 'I' for Inactive)
REMARK    1  A    between atoms: C2'_3  and  C1'_4 
REMARK    2  A    between atoms: C1'_4  and  C1_5 
ROOT
ATOM      1  C1  I4B d   1       2.506  -0.255   3.474  0.00  0.00    -0.075 A 
ATOM      2  C2  I4B d   1       2.992  -1.514   3.723  0.00  0.00     0.003 A 
ATOM      3  C3  I4B d   1       3.474  -1.850   5.011  0.00  0.00     0.002 A 
ATOM      4  C4  I4B d   1       3.499  -0.888   6.000  0.00  0.00    -0.004 A 
ATOM      5  C5  I4B d   1       2.984   0.381   5.752  0.00  0.00     0.002 A 
ATOM      6  C6  I4B d   1       2.473   0.697   4.485  0.00  0.00     0.003 A 
ENDROOT
BRANCH   1   7
ATOM      7  C1' I4B d   1       2.034   0.076   2.093  0.00  0.00     0.060 C 
BRANCH   7   8
ATOM      8  C2' I4B d   1       3.071   0.974   1.449  0.00  0.00    -0.013 C 
ATOM      9  C4' I4B d   1       3.674   0.324   0.231  0.00  0.00     0.013 C 
ATOM     10  C3' I4B d   1       2.405   2.271   1.098  0.00  0.00     0.013 C 
ENDBRANCH   7   8
ENDBRANCH   1   7
TORSDOF 2
ENDMDL
