MODEL 1
REMARK minimizedAffinity 12.0815849
REMARK minimizedRMSD -1
REMARK  2 active torsions:
REMARK  status: ('A' for Active; 'I' for Inactive)
REMARK    1  A    between atoms: C2'_3  and  C1'_4 
REMARK    2  A    between atoms: C1'_4  and  C1_5 
ROOT
ATOM      1  C1  I4B d   1       2.275   0.035   4.447  0.00  0.00    -0.075 A 
ATOM      2  C2  I4B d   1       2.226   0.069   3.075  0.00  0.00     0.003 A 
ATOM      3  C3  I4B d   1       2.576  -1.077   2.321  0.00  0.00     0.002 A 
ATOM      4  C4  I4B d   1       3.016  -2.212   2.973  0.00  0.00    -0.004 A 
ATOM      5  C5  I4B d   1       3.043  -2.251   4.364  0.00  0.00     0.002 A 
ATOM      6  C6  I4B d   1       2.659  -1.125   5.106  0.00  0.00     0.003 A 
ENDROOT
BRANCH   1   7
ATOM      7  C1' I4B d   1       1.930   1.274   5.211  0.00  0.00     0.060 C 
BRANCH   7   8
ATOM      8  C2' I4B d   1       2.909   2.358   4.808  0.00  0.00    -0.013 C 
ATOM      9  C4' I4B d   1       2.189   3.584   4.311  0.00  0.00     0.013 C 
ATOM     10  C3' I4B d   1       3.762   2.677   5.999  0.00  0.00     0.013 C 
ENDBRANCH   7   8
ENDBRANCH   1   7
TORSDOF 2
ENDMDL
