MODEL 1
REMARK minimizedAffinity 9.51797104
REMARK minimizedRMSD -1
REMARK  0 active torsions:
REMARK  status: ('A' for Active; 'I' for Inactive)
ROOT
ATOM      1  C1  DEN d   1       4.724  -0.777  -3.763  0.00  0.00     0.130 A 
ATOM      2  C2  DEN d   1       3.675  -1.769  -3.985  0.00  0.00    -0.031 A 
ATOM      3  C3  DEN d   1       2.882  -1.880  -2.745  0.00  0.00     0.027 A 
ATOM      4  C4  DEN d   1       3.171  -0.616  -0.515  0.00  0.00     0.027 A 
ATOM      5  C5  DEN d   1       3.929   0.318   0.156  0.00  0.00    -0.003 A 
ATOM      6  C6  DEN d   1       5.017   0.922  -0.416  0.00  0.00     0.001 A 
ATOM      7  C7  DEN d   1       5.350   0.633  -1.713  0.00  0.00     0.017 A 
ATOM      8  C8  DEN d   1       4.595  -0.313  -2.394  0.00  0.00    -0.094 A 
ATOM      9  C9  DEN d   1       3.492  -0.904  -1.802  0.00  0.00    -0.072 A 
ENDROOT
TORSDOF 0
ENDMDL
