MODEL 1
REMARK minimizedAffinity 16.6092758
REMARK minimizedRMSD -1
REMARK  0 active torsions:
REMARK  status: ('A' for Active; 'I' for Inactive)
ROOT
ATOM      1  C1  DEN d   1       1.869   0.825   1.929  0.00  0.00     0.130 A 
ATOM      2  C2  DEN d   1       0.521   0.664   1.392  0.00  0.00    -0.031 A 
ATOM      3  C3  DEN d   1       0.636   0.124   0.023  0.00  0.00     0.027 A 
ATOM      4  C4  DEN d   1       2.760  -0.481  -1.309  0.00  0.00     0.027 A 
ATOM      5  C5  DEN d   1       4.137  -0.507  -1.275  0.00  0.00    -0.003 A 
ATOM      6  C6  DEN d   1       4.849  -0.063  -0.193  0.00  0.00     0.001 A 
ATOM      7  C7  DEN d   1       4.186   0.385   0.919  0.00  0.00     0.017 A 
ATOM      8  C8  DEN d   1       2.798   0.421   0.889  0.00  0.00    -0.094 A 
ATOM      9  C9  DEN d   1       2.096  -0.044  -0.210  0.00  0.00    -0.072 A 
ENDROOT
TORSDOF 0
ENDMDL
