MODEL 1
REMARK minimizedAffinity 15.3723593
REMARK minimizedRMSD -1
REMARK  0 active torsions:
REMARK  status: ('A' for Active; 'I' for Inactive)
ROOT
ATOM      1  C1  DEN d   1      -2.683  -2.954  -2.349  0.00  0.00     0.130 A 
ATOM      2  C2  DEN d   1      -2.517  -1.564  -2.763  0.00  0.00    -0.031 A 
ATOM      3  C3  DEN d   1      -1.077  -1.240  -2.708  0.00  0.00     0.027 A 
ATOM      4  C4  DEN d   1       0.900  -2.751  -2.030  0.00  0.00     0.027 A 
ATOM      5  C5  DEN d   1       1.254  -4.007  -1.591  0.00  0.00    -0.003 A 
ATOM      6  C6  DEN d   1       0.325  -4.982  -1.342  0.00  0.00     0.001 A 
ATOM      7  C7  DEN d   1      -1.002  -4.731  -1.575  0.00  0.00     0.017 A 
ATOM      8  C8  DEN d   1      -1.367  -3.464  -2.012  0.00  0.00    -0.094 A 
ATOM      9  C9  DEN d   1      -0.411  -2.496  -2.269  0.00  0.00    -0.072 A 
ENDROOT
TORSDOF 0
ENDMDL
