MODEL 1
REMARK minimizedAffinity 20.7971401
REMARK minimizedRMSD -1
REMARK  0 active torsions:
REMARK  status: ('A' for Active; 'I' for Inactive)
ROOT
ATOM      1  C1  DEN d   1      -1.733  -1.379  -2.845  0.00  0.00     0.130 A 
ATOM      2  C2  DEN d   1      -0.636  -0.435  -2.651  0.00  0.00    -0.031 A 
ATOM      3  C3  DEN d   1       0.580  -1.209  -2.330  0.00  0.00     0.027 A 
ATOM      4  C4  DEN d   1       0.870  -3.763  -2.119  0.00  0.00     0.027 A 
ATOM      5  C5  DEN d   1       0.220  -4.976  -2.185  0.00  0.00    -0.003 A 
ATOM      6  C6  DEN d   1      -1.122  -5.072  -2.439  0.00  0.00     0.001 A 
ATOM      7  C7  DEN d   1      -1.850  -3.937  -2.682  0.00  0.00     0.017 A 
ATOM      8  C8  DEN d   1      -1.203  -2.710  -2.611  0.00  0.00    -0.094 A 
ATOM      9  C9  DEN d   1       0.157  -2.635  -2.364  0.00  0.00    -0.072 A 
ENDROOT
TORSDOF 0
ENDMDL
