MODEL 1
REMARK minimizedAffinity 14.4410868
REMARK minimizedRMSD -1
REMARK  0 active torsions:
REMARK  status: ('A' for Active; 'I' for Inactive)
ROOT
ATOM      1  C1  DEN d   1       5.694   4.546  -1.956  0.00  0.00     0.130 A 
ATOM      2  C2  DEN d   1       6.000   5.663  -1.066  0.00  0.00    -0.031 A 
ATOM      3  C3  DEN d   1       5.997   5.155   0.321  0.00  0.00     0.027 A 
ATOM      4  C4  DEN d   1       5.556   2.761   1.172  0.00  0.00     0.027 A 
ATOM      5  C5  DEN d   1       5.242   1.475   0.792  0.00  0.00    -0.003 A 
ATOM      6  C6  DEN d   1       5.024   1.132  -0.516  0.00  0.00     0.001 A 
ATOM      7  C7  DEN d   1       5.163   2.078  -1.497  0.00  0.00     0.017 A 
ATOM      8  C8  DEN d   1       5.473   3.378  -1.122  0.00  0.00    -0.094 A 
ATOM      9  C9  DEN d   1       5.701   3.702   0.205  0.00  0.00    -0.072 A 
ENDROOT
TORSDOF 0
ENDMDL
