MODEL 1
REMARK minimizedAffinity 11.1084957
REMARK minimizedRMSD -1
REMARK  0 active torsions:
REMARK  status: ('A' for Active; 'I' for Inactive)
ROOT
ATOM      1  C1  DEN d   1      -4.466   3.982  -4.425  0.00  0.00     0.130 A 
ATOM      2  C2  DEN d   1      -5.629   3.877  -3.549  0.00  0.00    -0.031 A 
ATOM      3  C3  DEN d   1      -6.000   2.451  -3.451  0.00  0.00     0.027 A 
ATOM      4  C4  DEN d   1      -4.888   0.405  -4.561  0.00  0.00     0.027 A 
ATOM      5  C5  DEN d   1      -3.877  -0.004  -5.401  0.00  0.00    -0.003 A 
ATOM      6  C6  DEN d   1      -3.019   0.882  -5.998  0.00  0.00     0.001 A 
ATOM      7  C7  DEN d   1      -3.129   2.220  -5.726  0.00  0.00     0.017 A 
ATOM      8  C8  DEN d   1      -4.150   2.641  -4.885  0.00  0.00    -0.094 A 
ATOM      9  C9  DEN d   1      -5.000   1.729  -4.282  0.00  0.00    -0.072 A 
ENDROOT
TORSDOF 0
ENDMDL
