MODEL 1
REMARK minimizedAffinity 14.4744177
REMARK minimizedRMSD -1
REMARK  0 active torsions:
REMARK  status: ('A' for Active; 'I' for Inactive)
ROOT
ATOM      1  C1  DEN d   1       1.732   1.142   2.019  0.00  0.00     0.130 A 
ATOM      2  C2  DEN d   1       0.704   0.112   2.145  0.00  0.00    -0.031 A 
ATOM      3  C3  DEN d   1       0.391  -0.047   3.580  0.00  0.00     0.027 A 
ATOM      4  C4  DEN d   1       1.388   1.199   5.606  0.00  0.00     0.027 A 
ATOM      5  C5  DEN d   1       2.301   2.153   5.999  0.00  0.00    -0.003 A 
ATOM      6  C6  DEN d   1       3.105   2.807   5.104  0.00  0.00     0.001 A 
ATOM      7  C7  DEN d   1       2.980   2.548   3.765  0.00  0.00     0.017 A 
ATOM      8  C8  DEN d   1       2.068   1.582   3.361  0.00  0.00    -0.094 A 
ATOM      9  C9  DEN d   1       1.256   0.940   4.280  0.00  0.00    -0.072 A 
ENDROOT
TORSDOF 0
ENDMDL
