MODEL 1
REMARK minimizedAffinity 12.655406
REMARK minimizedRMSD -1
REMARK  0 active torsions:
REMARK  status: ('A' for Active; 'I' for Inactive)
ROOT
ATOM      1  C1  DEN d   1       0.518  -4.131  -1.037  0.00  0.00     0.130 A 
ATOM      2  C2  DEN d   1      -0.267  -5.213  -1.624  0.00  0.00    -0.031 A 
ATOM      3  C3  DEN d   1       0.200  -5.417  -3.009  0.00  0.00     0.027 A 
ATOM      4  C4  DEN d   1       2.058  -4.173  -4.295  0.00  0.00     0.027 A 
ATOM      5  C5  DEN d   1       2.998  -3.169  -4.217  0.00  0.00    -0.003 A 
ATOM      6  C6  DEN d   1       3.152  -2.398  -3.095  0.00  0.00     0.001 A 
ATOM      7  C7  DEN d   1       2.385  -2.650  -1.989  0.00  0.00     0.017 A 
ATOM      8  C8  DEN d   1       1.431  -3.656  -2.062  0.00  0.00    -0.094 A 
ATOM      9  C9  DEN d   1       1.299  -4.432  -3.201  0.00  0.00    -0.072 A 
ENDROOT
TORSDOF 0
ENDMDL
