MODEL 1
REMARK minimizedAffinity 14.5740814
REMARK minimizedRMSD -1
REMARK  0 active torsions:
REMARK  status: ('A' for Active; 'I' for Inactive)
ROOT
ATOM      1  C1  DEN d   1       1.641  -2.848  -2.888  0.00  0.00     0.130 A 
ATOM      2  C2  DEN d   1       0.952  -4.015  -2.344  0.00  0.00    -0.031 A 
ATOM      3  C3  DEN d   1       1.114  -3.998  -0.876  0.00  0.00     0.027 A 
ATOM      4  C4  DEN d   1       2.354  -2.284   0.600  0.00  0.00     0.027 A 
ATOM      5  C5  DEN d   1       3.103  -1.129   0.590  0.00  0.00    -0.003 A 
ATOM      6  C6  DEN d   1       3.444  -0.489  -0.573  0.00  0.00     0.001 A 
ATOM      7  C7  DEN d   1       2.996  -0.977  -1.772  0.00  0.00     0.017 A 
ATOM      8  C8  DEN d   1       2.246  -2.145  -1.771  0.00  0.00    -0.094 A 
ATOM      9  C9  DEN d   1       1.902  -2.770  -0.584  0.00  0.00    -0.072 A 
ENDROOT
TORSDOF 0
ENDMDL
