MODEL 1
REMARK minimizedAffinity 18.0056477
REMARK minimizedRMSD -1
REMARK  0 active torsions:
REMARK  status: ('A' for Active; 'I' for Inactive)
ROOT
ATOM      1  C1  DEN d   1       5.279   1.421  -1.888  0.00  0.00     0.130 A 
ATOM      2  C2  DEN d   1       6.000   2.073  -0.798  0.00  0.00    -0.031 A 
ATOM      3  C3  DEN d   1       5.283   1.784   0.461  0.00  0.00     0.027 A 
ATOM      4  C4  DEN d   1       3.141   0.394   0.826  0.00  0.00     0.027 A 
ATOM      5  C5  DEN d   1       2.163  -0.346   0.199  0.00  0.00    -0.003 A 
ATOM      6  C6  DEN d   1       2.136  -0.520  -1.159  0.00  0.00     0.001 A 
ATOM      7  C7  DEN d   1       3.132   0.017  -1.932  0.00  0.00     0.017 A 
ATOM      8  C8  DEN d   1       4.117   0.771  -1.308  0.00  0.00    -0.094 A 
ATOM      9  C9  DEN d   1       4.134   0.925   0.067  0.00  0.00    -0.072 A 
ENDROOT
TORSDOF 0
ENDMDL
