MODEL 1
REMARK minimizedAffinity 10.8240738
REMARK minimizedRMSD -1
REMARK  2 active torsions:
REMARK  status: ('A' for Active; 'I' for Inactive)
REMARK    1  A    between atoms: C2'_3  and  C1'_4 
REMARK    2  A    between atoms: C1'_4  and  C1_5 
ROOT
ATOM      1  C1  I4B d   1       2.754  -3.729   3.944  0.00  0.00    -0.075 A 
ATOM      2  C2  I4B d   1       3.531  -3.972   5.048  0.00  0.00     0.003 A 
ATOM      3  C3  I4B d   1       3.135  -4.943   6.000  0.00  0.00     0.002 A 
ATOM      4  C4  I4B d   1       1.937  -5.607   5.834  0.00  0.00    -0.004 A 
ATOM      5  C5  I4B d   1       1.161  -5.376   4.701  0.00  0.00     0.002 A 
ATOM      6  C6  I4B d   1       1.578  -4.440   3.744  0.00  0.00     0.003 A 
ENDROOT
BRANCH   1   7
ATOM      7  C1' I4B d   1       3.186  -2.673   2.976  0.00  0.00     0.060 C 
BRANCH   7   8
ATOM      8  C2' I4B d   1       1.956  -1.893   2.557  0.00  0.00    -0.013 C 
ATOM      9  C4' I4B d   1       1.308  -1.221   3.738  0.00  0.00     0.013 C 
ATOM     10  C3' I4B d   1       2.375  -0.889   1.525  0.00  0.00     0.013 C 
ENDBRANCH   7   8
ENDBRANCH   1   7
TORSDOF 2
ENDMDL
