MODEL 1
REMARK minimizedAffinity 9.63742733
REMARK minimizedRMSD -1
REMARK  2 active torsions:
REMARK  status: ('A' for Active; 'I' for Inactive)
REMARK    1  A    between atoms: C2'_3  and  C1'_4 
REMARK    2  A    between atoms: C1'_4  and  C1_5 
ROOT
ATOM      1  C1  I4B d   1       2.023   0.049   1.494  0.00  0.00    -0.075 A 
ATOM      2  C2  I4B d   1       2.962   0.249   0.513  0.00  0.00     0.003 A 
ATOM      3  C3  I4B d   1       3.516   1.537   0.309  0.00  0.00     0.002 A 
ATOM      4  C4  I4B d   1       3.067   2.598   1.069  0.00  0.00    -0.004 A 
ATOM      5  C5  I4B d   1       2.131   2.388   2.078  0.00  0.00     0.002 A 
ATOM      6  C6  I4B d   1       1.615   1.103   2.300  0.00  0.00     0.003 A 
ENDROOT
BRANCH   1   7
ATOM      7  C1' I4B d   1       1.435  -1.317   1.660  0.00  0.00     0.060 C 
BRANCH   7   8
ATOM      8  C2' I4B d   1       1.843  -1.838   3.023  0.00  0.00    -0.013 C 
ATOM      9  C4' I4B d   1       0.641  -2.254   3.830  0.00  0.00     0.013 C 
ATOM     10  C3' I4B d   1       2.781  -2.989   2.817  0.00  0.00     0.013 C 
ENDBRANCH   7   8
ENDBRANCH   1   7
TORSDOF 2
ENDMDL
