MODEL 1
REMARK minimizedAffinity 9.11334419
REMARK minimizedRMSD -1
REMARK  2 active torsions:
REMARK  status: ('A' for Active; 'I' for Inactive)
REMARK    1  A    between atoms: C2'_3  and  C1'_4 
REMARK    2  A    between atoms: C1'_4  and  C1_5 
ROOT
ATOM      1  C1  I4B d   1       1.806  -3.844   3.814  0.00  0.00    -0.075 A 
ATOM      2  C2  I4B d   1       2.098  -5.185   3.811  0.00  0.00     0.003 A 
ATOM      3  C3  I4B d   1       1.720  -5.999   4.906  0.00  0.00     0.002 A 
ATOM      4  C4  I4B d   1       1.101  -5.426   5.998  0.00  0.00    -0.004 A 
ATOM      5  C5  I4B d   1       0.784  -4.070   5.989  0.00  0.00     0.002 A 
ATOM      6  C6  I4B d   1       1.128  -3.276   4.885  0.00  0.00     0.003 A 
ENDROOT
BRANCH   1   7
ATOM      7  C1' I4B d   1       2.249  -3.007   2.656  0.00  0.00     0.060 C 
BRANCH   7   8
ATOM      8  C2' I4B d   1       1.287  -1.844   2.525  0.00  0.00    -0.013 C 
ATOM      9  C4' I4B d   1       2.026  -0.540   2.372  0.00  0.00     0.013 C 
ATOM     10  C3' I4B d   1       0.400  -2.106   1.345  0.00  0.00     0.013 C 
ENDBRANCH   7   8
ENDBRANCH   1   7
TORSDOF 2
ENDMDL
