MODEL 1
REMARK minimizedAffinity 4.2606945
REMARK minimizedRMSD -1
REMARK  2 active torsions:
REMARK  status: ('A' for Active; 'I' for Inactive)
REMARK    1  A    between atoms: C2'_3  and  C1'_4 
REMARK    2  A    between atoms: C1'_4  and  C1_5 
ROOT
ATOM      1  C1  I4B d   1       1.933  -1.916   3.858  0.00  0.00    -0.075 A 
ATOM      2  C2  I4B d   1       1.292  -0.702   3.822  0.00  0.00     0.003 A 
ATOM      3  C3  I4B d   1       1.438   0.149   2.700  0.00  0.00     0.002 A 
ATOM      4  C4  I4B d   1       2.269  -0.229   1.665  0.00  0.00    -0.004 A 
ATOM      5  C5  I4B d   1       2.899  -1.469   1.692  0.00  0.00     0.002 A 
ATOM      6  C6  I4B d   1       2.721  -2.324   2.790  0.00  0.00     0.003 A 
ENDROOT
BRANCH   1   7
ATOM      7  C1' I4B d   1       1.782  -2.775   5.073  0.00  0.00     0.060 C 
BRANCH   7   8
ATOM      8  C2' I4B d   1       1.407  -4.169   4.615  0.00  0.00    -0.013 C 
ATOM      9  C4' I4B d   1       0.800  -4.967   5.739  0.00  0.00     0.013 C 
ATOM     10  C3' I4B d   1       0.451  -4.038   3.467  0.00  0.00     0.013 C 
ENDBRANCH   7   8
ENDBRANCH   1   7
TORSDOF 2
ENDMDL
