MODEL 1
REMARK minimizedAffinity 14.5858383
REMARK minimizedRMSD -1
REMARK  2 active torsions:
REMARK  status: ('A' for Active; 'I' for Inactive)
REMARK    1  A    between atoms: C2'_3  and  C1'_4 
REMARK    2  A    between atoms: C1'_4  and  C1_5 
ROOT
ATOM      1  C1  I4B d   1       2.148  -2.047   3.090  0.00  0.00    -0.075 A 
ATOM      2  C2  I4B d   1       1.399  -3.189   2.953  0.00  0.00     0.003 A 
ATOM      3  C3  I4B d   1       1.884  -4.424   3.450  0.00  0.00     0.002 A 
ATOM      4  C4  I4B d   1       3.136  -4.479   4.026  0.00  0.00    -0.004 A 
ATOM      5  C5  I4B d   1       3.885  -3.316   4.185  0.00  0.00     0.002 A 
ATOM      6  C6  I4B d   1       3.382  -2.090   3.725  0.00  0.00     0.003 A 
ENDROOT
BRANCH   1   7
ATOM      7  C1' I4B d   1       1.619  -0.767   2.525  0.00  0.00     0.060 C 
BRANCH   7   8
ATOM      8  C2' I4B d   1       2.654  -0.219   1.564  0.00  0.00    -0.013 C 
ATOM      9  C4' I4B d   1       2.506  -0.831   0.196  0.00  0.00     0.013 C 
ATOM     10  C3' I4B d   1       2.494   1.271   1.511  0.00  0.00     0.013 C 
ENDBRANCH   7   8
ENDBRANCH   1   7
TORSDOF 2
ENDMDL
