MODEL 1
REMARK minimizedAffinity 7.70107269
REMARK minimizedRMSD -1
REMARK  2 active torsions:
REMARK  status: ('A' for Active; 'I' for Inactive)
REMARK    1  A    between atoms: C2'_3  and  C1'_4 
REMARK    2  A    between atoms: C1'_4  and  C1_5 
ROOT
ATOM      1  C1  I4B d   1      -3.189   2.361  -1.257  0.00  0.00    -0.075 A 
ATOM      2  C2  I4B d   1      -2.367   1.560  -0.504  0.00  0.00     0.003 A 
ATOM      3  C3  I4B d   1      -1.816   0.380  -1.061  0.00  0.00     0.002 A 
ATOM      4  C4  I4B d   1      -2.152   0.015  -2.349  0.00  0.00    -0.004 A 
ATOM      5  C5  I4B d   1      -2.967   0.840  -3.118  0.00  0.00     0.002 A 
ATOM      6  C6  I4B d   1      -3.479   2.027  -2.574  0.00  0.00     0.003 A 
ENDROOT
BRANCH   1   7
ATOM      7  C1' I4B d   1      -3.780   3.582  -0.628  0.00  0.00     0.060 C 
BRANCH   7   8
ATOM      8  C2' I4B d   1      -5.266   3.344  -0.451  0.00  0.00    -0.013 C 
ATOM      9  C4' I4B d   1      -5.646   3.334   1.007  0.00  0.00     0.013 C 
ATOM     10  C3' I4B d   1      -5.999   4.420  -1.195  0.00  0.00     0.013 C 
ENDBRANCH   7   8
ENDBRANCH   1   7
TORSDOF 2
ENDMDL
