MODEL 1
REMARK minimizedAffinity 6.20724297
REMARK minimizedRMSD -1
REMARK  2 active torsions:
REMARK  status: ('A' for Active; 'I' for Inactive)
REMARK    1  A    between atoms: C2'_3  and  C1'_4 
REMARK    2  A    between atoms: C1'_4  and  C1_5 
ROOT
ATOM      1  C1  I4B d   1       1.826  -3.479   3.506  0.00  0.00    -0.075 A 
ATOM      2  C2  I4B d   1       2.077  -2.514   4.450  0.00  0.00     0.003 A 
ATOM      3  C3  I4B d   1       2.255  -1.165   4.059  0.00  0.00     0.002 A 
ATOM      4  C4  I4B d   1       2.224  -0.835   2.720  0.00  0.00    -0.004 A 
ATOM      5  C5  I4B d   1       1.947  -1.811   1.767  0.00  0.00     0.002 A 
ATOM      6  C6  I4B d   1       1.734  -3.139   2.163  0.00  0.00     0.003 A 
ENDROOT
BRANCH   1   7
ATOM      7  C1' I4B d   1       1.675  -4.900   3.951  0.00  0.00     0.060 C 
BRANCH   7   8
ATOM      8  C2' I4B d   1       1.580  -4.908   5.463  0.00  0.00    -0.013 C 
ATOM      9  C4' I4B d   1       0.281  -5.515   5.924  0.00  0.00     0.013 C 
ATOM     10  C3' I4B d   1       2.755  -5.673   5.996  0.00  0.00     0.013 C 
ENDBRANCH   7   8
ENDBRANCH   1   7
TORSDOF 2
ENDMDL
