MODEL 1
REMARK minimizedAffinity 21.286562
REMARK minimizedRMSD -1
REMARK  2 active torsions:
REMARK  status: ('A' for Active; 'I' for Inactive)
REMARK    1  A    between atoms: C2'_3  and  C1'_4 
REMARK    2  A    between atoms: C1'_4  and  C1_5 
ROOT
ATOM      1  C1  I4B d   1       2.119  -0.225   2.441  0.00  0.00    -0.075 A 
ATOM      2  C2  I4B d   1       1.490  -0.957   1.465  0.00  0.00     0.003 A 
ATOM      3  C3  I4B d   1       1.127  -2.304   1.707  0.00  0.00     0.002 A 
ATOM      4  C4  I4B d   1       1.454  -2.890   2.912  0.00  0.00    -0.004 A 
ATOM      5  C5  I4B d   1       2.071  -2.140   3.909  0.00  0.00     0.002 A 
ATOM      6  C6  I4B d   1       2.395  -0.795   3.677  0.00  0.00     0.003 A 
ENDROOT
BRANCH   1   7
ATOM      7  C1' I4B d   1       2.518   1.185   2.140  0.00  0.00     0.060 C 
BRANCH   7   8
ATOM      8  C2' I4B d   1       2.924   1.254   0.682  0.00  0.00    -0.013 C 
ATOM      9  C4' I4B d   1       2.954   2.678   0.191  0.00  0.00     0.013 C 
ATOM     10  C3' I4B d   1       4.269   0.605   0.544  0.00  0.00     0.013 C 
ENDBRANCH   7   8
ENDBRANCH   1   7
TORSDOF 2
ENDMDL
