MODEL 1
REMARK minimizedAffinity 16.6759186
REMARK minimizedRMSD -1
REMARK  2 active torsions:
REMARK  status: ('A' for Active; 'I' for Inactive)
REMARK    1  A    between atoms: C2'_3  and  C1'_4 
REMARK    2  A    between atoms: C1'_4  and  C1_5 
ROOT
ATOM      1  C1  I4B d   1      -3.154   0.392  -2.805  0.00  0.00    -0.075 A 
ATOM      2  C2  I4B d   1      -4.144   0.895  -3.612  0.00  0.00     0.003 A 
ATOM      3  C3  I4B d   1      -4.476   2.271  -3.559  0.00  0.00     0.002 A 
ATOM      4  C4  I4B d   1      -3.833   3.091  -2.654  0.00  0.00    -0.004 A 
ATOM      5  C5  I4B d   1      -2.815   2.583  -1.852  0.00  0.00     0.002 A 
ATOM      6  C6  I4B d   1      -2.464   1.228  -1.937  0.00  0.00     0.003 A 
ENDROOT
BRANCH   1   7
ATOM      7  C1' I4B d   1      -2.852  -1.072  -2.864  0.00  0.00     0.060 C 
BRANCH   7   8
ATOM      8  C2' I4B d   1      -4.123  -1.796  -3.256  0.00  0.00    -0.013 C 
ATOM      9  C4' I4B d   1      -3.984  -2.448  -4.607  0.00  0.00     0.013 C 
ATOM     10  C3' I4B d   1      -4.425  -2.811  -2.194  0.00  0.00     0.013 C 
ENDBRANCH   7   8
ENDBRANCH   1   7
TORSDOF 2
ENDMDL
