MODEL 1
REMARK minimizedAffinity 10.3817692
REMARK minimizedRMSD -1
REMARK  2 active torsions:
REMARK  status: ('A' for Active; 'I' for Inactive)
REMARK    1  A    between atoms: C2'_3  and  C1'_4 
REMARK    2  A    between atoms: C1'_4  and  C1_5 
ROOT
ATOM      1  C1  I4B d   1       2.385   0.151   2.683  0.00  0.00    -0.075 A 
ATOM      2  C2  I4B d   1       3.071   0.081   1.496  0.00  0.00     0.003 A 
ATOM      3  C3  I4B d   1       3.475   1.267   0.836  0.00  0.00     0.002 A 
ATOM      4  C4  I4B d   1       3.132   2.492   1.368  0.00  0.00    -0.004 A 
ATOM      5  C5  I4B d   1       2.457   2.561   2.584  0.00  0.00     0.002 A 
ATOM      6  C6  I4B d   1       2.092   1.383   3.252  0.00  0.00     0.003 A 
ENDROOT
BRANCH   1   7
ATOM      7  C1' I4B d   1       1.944  -1.120   3.336  0.00  0.00     0.060 C 
BRANCH   7   8
ATOM      8  C2' I4B d   1       1.784  -2.170   2.255  0.00  0.00    -0.013 C 
ATOM      9  C4' I4B d   1       1.200  -3.441   2.812  0.00  0.00     0.013 C 
ATOM     10  C3' I4B d   1       0.910  -1.597   1.180  0.00  0.00     0.013 C 
ENDBRANCH   7   8
ENDBRANCH   1   7
TORSDOF 2
ENDMDL
