MODEL 1
REMARK minimizedAffinity -6.54783535
REMARK minimizedRMSD -1
REMARK  1 active torsions:
REMARK  status: ('A' for Active; 'I' for Inactive)
REMARK    1  A    between atoms: C1_2  and  C2_3 
ROOT
ATOM      1  C2  UNL d   1       0.309  -0.906  -0.274  0.00  0.00    -0.076 A 
ATOM      2  C3  UNL d   1      -0.124  -1.490   0.929  0.00  0.00     0.004 A 
ATOM      3  C4  UNL d   1      -0.568  -2.811   0.966  0.00  0.00    -0.003 A 
ATOM      4  C5  UNL d   1      -0.585  -3.569  -0.199  0.00  0.00     0.000 A 
ATOM      5  C6  UNL d   1      -0.143  -3.011  -1.398  0.00  0.00     0.000 A 
ATOM      6  C7  UNL d   1       0.323  -1.686  -1.450  0.00  0.00    -0.073 A 
ATOM      7  C8  UNL d   1       0.782  -1.133  -2.771  0.00  0.00     0.078 C 
ENDROOT
BRANCH   1   8
ATOM      8  C1  UNL d   1       0.753   0.539  -0.258  0.00  0.00     0.053 C 
ATOM      9  C   UNL d   1      -0.399   1.506  -0.480  0.00  0.00     0.018 C 
ENDBRANCH   1   8
TORSDOF 1
ENDMDL
