MODEL 1
REMARK minimizedAffinity -6.00545788
REMARK minimizedRMSD -1
REMARK  1 active torsions:
REMARK  status: ('A' for Active; 'I' for Inactive)
REMARK    1  A    between atoms: C1_2  and  C2_3 
ROOT
ATOM      1  C2  UNL d   1       0.024  -0.468  -0.441  0.00  0.00    -0.076 A 
ATOM      2  C3  UNL d   1      -0.163  -0.519   0.951  0.00  0.00     0.004 A 
ATOM      3  C4  UNL d   1      -0.111  -1.731   1.637  0.00  0.00    -0.003 A 
ATOM      4  C5  UNL d   1       0.129  -2.912   0.943  0.00  0.00     0.000 A 
ATOM      5  C6  UNL d   1       0.334  -2.877  -0.436  0.00  0.00     0.000 A 
ATOM      6  C7  UNL d   1       0.301  -1.662  -1.141  0.00  0.00    -0.073 A 
ATOM      7  C8  UNL d   1       0.523  -1.684  -2.629  0.00  0.00     0.078 C 
ENDROOT
BRANCH   1   8
ATOM      8  C1  UNL d   1      -0.070   0.872  -1.136  0.00  0.00     0.053 C 
ATOM      9  C   UNL d   1       0.290   2.030  -0.218  0.00  0.00     0.018 C 
ENDBRANCH   1   8
TORSDOF 1
ENDMDL
