MODEL 1
REMARK minimizedAffinity -5.27188969
REMARK minimizedRMSD -1
REMARK  1 active torsions:
REMARK  status: ('A' for Active; 'I' for Inactive)
REMARK    1  A    between atoms: C1_2  and  C2_3 
ROOT
ATOM      1  C2  UNL d   1       0.135  -1.414  -0.698  0.00  0.00    -0.076 A 
ATOM      2  C3  UNL d   1       0.084  -1.747   0.667  0.00  0.00     0.004 A 
ATOM      3  C4  UNL d   1      -0.084  -3.068   1.077  0.00  0.00    -0.003 A 
ATOM      4  C5  UNL d   1      -0.202  -4.079   0.129  0.00  0.00     0.000 A 
ATOM      5  C6  UNL d   1      -0.136  -3.769  -1.229  0.00  0.00     0.000 A 
ATOM      6  C7  UNL d   1       0.049  -2.444  -1.659  0.00  0.00    -0.073 A 
ATOM      7  C8  UNL d   1       0.107  -2.166  -3.137  0.00  0.00     0.078 C 
ENDROOT
BRANCH   1   8
ATOM      8  C1  UNL d   1       0.291   0.040  -1.084  0.00  0.00     0.053 C 
ATOM      9  C   UNL d   1       0.020   0.983   0.078  0.00  0.00     0.018 C 
ENDBRANCH   1   8
TORSDOF 1
ENDMDL
