MODEL 1
REMARK minimizedAffinity -3.54892707
REMARK minimizedRMSD -1
REMARK  1 active torsions:
REMARK  status: ('A' for Active; 'I' for Inactive)
REMARK    1  A    between atoms: C1_2  and  C2_3 
ROOT
ATOM      1  C2  UNL d   1      -0.160   0.119  -0.236  0.00  0.00    -0.076 A 
ATOM      2  C3  UNL d   1      -0.884   0.168   0.968  0.00  0.00     0.004 A 
ATOM      3  C4  UNL d   1      -1.180  -0.997   1.674  0.00  0.00    -0.003 A 
ATOM      4  C5  UNL d   1      -0.756  -2.229   1.188  0.00  0.00     0.000 A 
ATOM      5  C6  UNL d   1      -0.021  -2.294   0.005  0.00  0.00     0.000 A 
ATOM      6  C7  UNL d   1       0.299  -1.128  -0.711  0.00  0.00    -0.073 A 
ATOM      7  C8  UNL d   1       1.089  -1.257  -1.985  0.00  0.00     0.078 C 
ENDROOT
BRANCH   1   8
ATOM      8  C1  UNL d   1       0.107   1.413  -0.973  0.00  0.00     0.053 C 
ATOM      9  C   UNL d   1       0.764   2.461  -0.089  0.00  0.00     0.018 C 
ENDBRANCH   1   8
TORSDOF 1
ENDMDL
