MODEL 1
REMARK minimizedAffinity -3.51067615
REMARK minimizedRMSD -1
REMARK  1 active torsions:
REMARK  status: ('A' for Active; 'I' for Inactive)
REMARK    1  A    between atoms: C1_2  and  C2_3 
ROOT
ATOM      1  C2  UNL d   1      -0.399  -1.420  -0.418  0.00  0.00    -0.076 A 
ATOM      2  C3  UNL d   1      -0.740  -0.698   0.739  0.00  0.00     0.004 A 
ATOM      3  C4  UNL d   1      -0.564   0.683   0.801  0.00  0.00    -0.003 A 
ATOM      4  C5  UNL d   1      -0.046   1.366  -0.295  0.00  0.00     0.000 A 
ATOM      5  C6  UNL d   1       0.280   0.668  -1.457  0.00  0.00     0.000 A 
ATOM      6  C7  UNL d   1       0.094  -0.722  -1.541  0.00  0.00    -0.073 A 
ATOM      7  C8  UNL d   1       0.469  -1.425  -2.818  0.00  0.00     0.078 C 
ENDROOT
BRANCH   1   8
ATOM      8  C1  UNL d   1      -0.586  -2.920  -0.417  0.00  0.00     0.053 C 
ATOM      9  C   UNL d   1      -1.673  -3.371   0.546  0.00  0.00     0.018 C 
ENDBRANCH   1   8
TORSDOF 1
ENDMDL
