MODEL 1
REMARK minimizedAffinity -4.11042786
REMARK minimizedRMSD -1
REMARK  1 active torsions:
REMARK  status: ('A' for Active; 'I' for Inactive)
REMARK    1  A    between atoms: C1_2  and  C2_3 
ROOT
ATOM      1  C2  UNL d   1      -0.764  -1.470  -0.343  0.00  0.00    -0.076 A 
ATOM      2  C3  UNL d   1      -0.141  -1.510  -1.603  0.00  0.00     0.004 A 
ATOM      3  C4  UNL d   1       0.317  -0.344  -2.214  0.00  0.00    -0.003 A 
ATOM      4  C5  UNL d   1       0.159   0.881  -1.575  0.00  0.00     0.000 A 
ATOM      5  C6  UNL d   1      -0.441   0.937  -0.318  0.00  0.00     0.000 A 
ATOM      6  C7  UNL d   1      -0.894  -0.231   0.319  0.00  0.00    -0.073 A 
ATOM      7  C8  UNL d   1      -1.539  -0.111   1.673  0.00  0.00     0.078 C 
ENDROOT
BRANCH   1   8
ATOM      8  C1  UNL d   1      -1.265  -2.764   0.258  0.00  0.00     0.053 C 
ATOM      9  C   UNL d   1      -0.394  -3.955  -0.113  0.00  0.00     0.018 C 
ENDBRANCH   1   8
TORSDOF 1
ENDMDL
