MODEL 1
REMARK minimizedAffinity -2.45146227
REMARK minimizedRMSD -1
REMARK  1 active torsions:
REMARK  status: ('A' for Active; 'I' for Inactive)
REMARK    1  A    between atoms: C1_2  and  C2_3 
ROOT
ATOM      1  C2  UNL d   1      -0.133  -0.879  -0.477  0.00  0.00    -0.076 A 
ATOM      2  C3  UNL d   1       0.398  -0.796  -1.777  0.00  0.00     0.004 A 
ATOM      3  C4  UNL d   1       0.570  -1.939  -2.556  0.00  0.00    -0.003 A 
ATOM      4  C5  UNL d   1       0.214  -3.183  -2.048  0.00  0.00     0.000 A 
ATOM      5  C6  UNL d   1      -0.330  -3.282  -0.768  0.00  0.00     0.000 A 
ATOM      6  C7  UNL d   1      -0.526  -2.138   0.024  0.00  0.00    -0.073 A 
ATOM      7  C8  UNL d   1      -1.111  -2.304   1.400  0.00  0.00     0.078 C 
ENDROOT
BRANCH   1   8
ATOM      8  C1  UNL d   1      -0.271   0.392   0.331  0.00  0.00     0.053 C 
ATOM      9  C   UNL d   1       0.115   1.631  -0.461  0.00  0.00     0.018 C 
ENDBRANCH   1   8
TORSDOF 1
ENDMDL
