MODEL 1
REMARK minimizedAffinity -5.56690216
REMARK minimizedRMSD -1
REMARK  1 active torsions:
REMARK  status: ('A' for Active; 'I' for Inactive)
REMARK    1  A    between atoms: C1_2  and  C2_3 
ROOT
ATOM      1  C2  UNL d   1       0.090  -1.515  -0.838  0.00  0.00    -0.076 A 
ATOM      2  C3  UNL d   1      -0.168  -2.535   0.095  0.00  0.00     0.004 A 
ATOM      3  C4  UNL d   1      -0.649  -2.238   1.369  0.00  0.00    -0.003 A 
ATOM      4  C5  UNL d   1      -0.879  -0.915   1.731  0.00  0.00     0.000 A 
ATOM      5  C6  UNL d   1      -0.646   0.108   0.813  0.00  0.00     0.000 A 
ATOM      6  C7  UNL d   1      -0.177  -0.176  -0.481  0.00  0.00    -0.073 A 
ATOM      7  C8  UNL d   1       0.064   0.967  -1.428  0.00  0.00     0.078 C 
ENDROOT
BRANCH   1   8
ATOM      8  C1  UNL d   1       0.636  -1.896  -2.195  0.00  0.00     0.053 C 
ATOM      9  C   UNL d   1      -0.078  -3.098  -2.794  0.00  0.00     0.018 C 
ENDBRANCH   1   8
TORSDOF 1
ENDMDL
