MODEL 1
REMARK minimizedAffinity -6.29249239
REMARK minimizedRMSD -1
REMARK  1 active torsions:
REMARK  status: ('A' for Active; 'I' for Inactive)
REMARK    1  A    between atoms: C1_2  and  C2_3 
ROOT
ATOM      1  C2  UNL d   1      -0.404  -0.412  -0.568  0.00  0.00    -0.076 A 
ATOM      2  C3  UNL d   1      -0.690  -0.573   0.799  0.00  0.00     0.004 A 
ATOM      3  C4  UNL d   1      -0.629  -1.828   1.402  0.00  0.00    -0.003 A 
ATOM      4  C5  UNL d   1      -0.280  -2.943   0.648  0.00  0.00     0.000 A 
ATOM      5  C6  UNL d   1       0.024  -2.799  -0.706  0.00  0.00     0.000 A 
ATOM      6  C7  UNL d   1      -0.017  -1.539  -1.325  0.00  0.00    -0.073 A 
ATOM      7  C8  UNL d   1       0.314  -1.442  -2.789  0.00  0.00     0.078 C 
ENDROOT
BRANCH   1   8
ATOM      8  C1  UNL d   1      -0.514   0.969  -1.173  0.00  0.00     0.053 C 
ATOM      9  C   UNL d   1       0.047   2.050  -0.263  0.00  0.00     0.018 C 
ENDBRANCH   1   8
TORSDOF 1
ENDMDL
