MODEL 1
REMARK minimizedAffinity -3.98200107
REMARK minimizedRMSD -1
REMARK  1 active torsions:
REMARK  status: ('A' for Active; 'I' for Inactive)
REMARK    1  A    between atoms: C1_2  and  C2_3 
ROOT
ATOM      1  C2  UNL d   1      -0.082  -1.312  -0.468  0.00  0.00    -0.076 A 
ATOM      2  C3  UNL d   1       0.778  -1.195  -1.573  0.00  0.00     0.004 A 
ATOM      3  C4  UNL d   1       1.047  -2.291  -2.392  0.00  0.00    -0.003 A 
ATOM      4  C5  UNL d   1       0.459  -3.521  -2.119  0.00  0.00     0.000 A 
ATOM      5  C6  UNL d   1      -0.411  -3.651  -1.037  0.00  0.00     0.000 A 
ATOM      6  C7  UNL d   1      -0.705  -2.552  -0.211  0.00  0.00    -0.073 A 
ATOM      7  C8  UNL d   1      -1.645  -2.751   0.946  0.00  0.00     0.078 C 
ENDROOT
BRANCH   1   8
ATOM      8  C1  UNL d   1      -0.314  -0.097   0.401  0.00  0.00     0.053 C 
ATOM      9  C   UNL d   1      -0.163   1.207  -0.369  0.00  0.00     0.018 C 
ENDBRANCH   1   8
TORSDOF 1
ENDMDL
