MODEL 1
REMARK minimizedAffinity -6.02712393
REMARK minimizedRMSD -1
REMARK  1 active torsions:
REMARK  status: ('A' for Active; 'I' for Inactive)
REMARK    1  A    between atoms: C1_2  and  C2_3 
ROOT
ATOM      1  C2  UNL d   1      -0.361  -1.209  -0.217  0.00  0.00    -0.076 A 
ATOM      2  C3  UNL d   1      -0.353  -2.266   0.710  0.00  0.00     0.004 A 
ATOM      3  C4  UNL d   1       0.020  -3.553   0.327  0.00  0.00    -0.003 A 
ATOM      4  C5  UNL d   1       0.392  -3.805  -0.989  0.00  0.00     0.000 A 
ATOM      5  C6  UNL d   1       0.406  -2.765  -1.918  0.00  0.00     0.000 A 
ATOM      6  C7  UNL d   1       0.048  -1.458  -1.545  0.00  0.00    -0.073 A 
ATOM      7  C8  UNL d   1       0.076  -0.376  -2.589  0.00  0.00     0.078 C 
ENDROOT
BRANCH   1   8
ATOM      8  C1  UNL d   1      -0.801   0.160   0.249  0.00  0.00     0.053 C 
ATOM      9  C   UNL d   1      -1.576   0.109   1.557  0.00  0.00     0.018 C 
ENDBRANCH   1   8
TORSDOF 1
ENDMDL
