MODEL 1
REMARK minimizedAffinity 11.1633663
REMARK minimizedRMSD -1
REMARK  0 active torsions:
REMARK  status: ('A' for Active; 'I' for Inactive)
ROOT
ATOM      1  C   UNL d   1      -2.743   2.188   1.636  0.00  0.00     0.023 A 
ATOM      2  C1  UNL d   1      -1.978   1.026   1.736  0.00  0.00     0.003 A 
ATOM      3  C2  UNL d   1      -2.488  -0.189   1.271  0.00  0.00     0.048 A 
ATOM      4  C3  UNL d   1      -3.762  -0.234   0.707  0.00  0.00     0.023 A 
ATOM      5  C4  UNL d   1      -4.530   0.927   0.604  0.00  0.00     0.048 A 
ATOM      6  C5  UNL d   1      -4.018   2.139   1.071  0.00  0.00     0.003 A 
ATOM      7  I   UNL d   1      -4.522  -2.040   0.015  0.00  0.00    -0.146 I 
ENDROOT
TORSDOF 0
ENDMDL
