MODEL 1
REMARK minimizedAffinity 9.31204319
REMARK minimizedRMSD -1
REMARK  0 active torsions:
REMARK  status: ('A' for Active; 'I' for Inactive)
ROOT
ATOM      1  C   UNL d   1      -4.338   0.412   2.026  0.00  0.00     0.023 A 
ATOM      2  C1  UNL d   1      -3.892   0.274   3.341  0.00  0.00     0.003 A 
ATOM      3  C2  UNL d   1      -2.525   0.176   3.610  0.00  0.00     0.048 A 
ATOM      4  C3  UNL d   1      -1.609   0.217   2.559  0.00  0.00     0.023 A 
ATOM      5  C4  UNL d   1      -2.050   0.356   1.242  0.00  0.00     0.048 A 
ATOM      6  C5  UNL d   1      -3.418   0.453   0.978  0.00  0.00     0.003 A 
ATOM      7  I   UNL d   1       0.425   0.071   2.956  0.00  0.00    -0.146 I 
ENDROOT
TORSDOF 0
ENDMDL
