MODEL 1
REMARK minimizedAffinity 7.30994225
REMARK minimizedRMSD -1
REMARK  0 active torsions:
REMARK  status: ('A' for Active; 'I' for Inactive)
ROOT
ATOM      1  C   UNL d   1      -1.413   2.539   2.043  0.00  0.00     0.023 A 
ATOM      2  C1  UNL d   1      -0.914   1.249   1.862  0.00  0.00     0.003 A 
ATOM      3  C2  UNL d   1      -1.744   0.241   1.366  0.00  0.00     0.048 A 
ATOM      4  C3  UNL d   1      -3.071   0.531   1.051  0.00  0.00     0.023 A 
ATOM      5  C4  UNL d   1      -3.574   1.821   1.229  0.00  0.00     0.048 A 
ATOM      6  C5  UNL d   1      -2.741   2.825   1.726  0.00  0.00     0.003 A 
ATOM      7  I   UNL d   1      -4.308  -0.967   0.311  0.00  0.00    -0.146 I 
ENDROOT
TORSDOF 0
ENDMDL
