MODEL 1
REMARK minimizedAffinity 6.49194384
REMARK minimizedRMSD -1
REMARK  0 active torsions:
REMARK  status: ('A' for Active; 'I' for Inactive)
ROOT
ATOM      1  C   UNL d   1      -4.284  -1.192  -5.859  0.00  0.00     0.023 A 
ATOM      2  C1  UNL d   1      -3.250  -2.128  -5.898  0.00  0.00     0.003 A 
ATOM      3  C2  UNL d   1      -3.543  -3.493  -5.938  0.00  0.00     0.048 A 
ATOM      4  C3  UNL d   1      -4.872  -3.915  -5.940  0.00  0.00     0.023 A 
ATOM      5  C4  UNL d   1      -5.910  -2.982  -5.901  0.00  0.00     0.048 A 
ATOM      6  C5  UNL d   1      -5.612  -1.619  -5.860  0.00  0.00     0.003 A 
ATOM      7  I   UNL d   1      -5.311  -5.945  -6.000  0.00  0.00    -0.146 I 
ENDROOT
TORSDOF 0
ENDMDL
