MODEL 1
REMARK minimizedAffinity 4.38668728
REMARK minimizedRMSD -1
REMARK  0 active torsions:
REMARK  status: ('A' for Active; 'I' for Inactive)
ROOT
ATOM      1  C   UNL d   1      -4.104   0.446   1.567  0.00  0.00     0.023 A 
ATOM      2  C1  UNL d   1      -3.826   0.621   2.923  0.00  0.00     0.003 A 
ATOM      3  C2  UNL d   1      -2.513   0.515   3.387  0.00  0.00     0.048 A 
ATOM      4  C3  UNL d   1      -1.483   0.234   2.490  0.00  0.00     0.023 A 
ATOM      5  C4  UNL d   1      -1.756   0.059   1.133  0.00  0.00     0.048 A 
ATOM      6  C5  UNL d   1      -3.070   0.165   0.673  0.00  0.00     0.003 A 
ATOM      7  I   UNL d   1       0.471   0.076   3.179  0.00  0.00    -0.146 I 
ENDROOT
TORSDOF 0
ENDMDL
