MODEL 1
REMARK minimizedAffinity 7.66837645
REMARK minimizedRMSD -1
REMARK  0 active torsions:
REMARK  status: ('A' for Active; 'I' for Inactive)
ROOT
ATOM      1  C   UNL d   1      -4.141  -3.673  -5.987  0.00  0.00     0.023 A 
ATOM      2  C1  UNL d   1      -4.638  -2.369  -5.993  0.00  0.00     0.003 A 
ATOM      3  C2  UNL d   1      -3.759  -1.285  -5.995  0.00  0.00     0.048 A 
ATOM      4  C3  UNL d   1      -2.383  -1.511  -5.991  0.00  0.00     0.023 A 
ATOM      5  C4  UNL d   1      -1.880  -2.813  -5.986  0.00  0.00     0.048 A 
ATOM      6  C5  UNL d   1      -2.763  -3.894  -5.983  0.00  0.00     0.003 A 
ATOM      7  I   UNL d   1      -1.072   0.102  -5.994  0.00  0.00    -0.146 I 
ENDROOT
TORSDOF 0
ENDMDL
