MODEL 1
REMARK minimizedAffinity 3.51288581
REMARK minimizedRMSD -1
REMARK  0 active torsions:
REMARK  status: ('A' for Active; 'I' for Inactive)
ROOT
ATOM      1  C   UNL d   1       0.424  -4.990   2.629  0.00  0.00     0.023 A 
ATOM      2  C1  UNL d   1       1.130  -4.562   1.505  0.00  0.00     0.003 A 
ATOM      3  C2  UNL d   1       2.490  -4.851   1.381  0.00  0.00     0.048 A 
ATOM      4  C3  UNL d   1       3.139  -5.569   2.386  0.00  0.00     0.023 A 
ATOM      5  C4  UNL d   1       2.436  -6.000   3.512  0.00  0.00     0.048 A 
ATOM      6  C5  UNL d   1       1.076  -5.708   3.632  0.00  0.00     0.003 A 
ATOM      7  I   UNL d   1       5.164  -6.000   2.204  0.00  0.00    -0.146 I 
ENDROOT
TORSDOF 0
ENDMDL
