MODEL 1
REMARK minimizedAffinity -0.582631707
REMARK minimizedRMSD -1
REMARK  0 active torsions:
REMARK  status: ('A' for Active; 'I' for Inactive)
ROOT
ATOM      1  C   UNL d   1      -1.447  -1.588  -5.996  0.00  0.00     0.023 A 
ATOM      2  C1  UNL d   1      -1.636  -2.970  -5.999  0.00  0.00     0.003 A 
ATOM      3  C2  UNL d   1      -2.929  -3.498  -6.000  0.00  0.00     0.048 A 
ATOM      4  C3  UNL d   1      -4.027  -2.639  -5.998  0.00  0.00     0.023 A 
ATOM      5  C4  UNL d   1      -3.842  -1.256  -5.996  0.00  0.00     0.048 A 
ATOM      6  C5  UNL d   1      -2.548  -0.732  -5.994  0.00  0.00     0.003 A 
ATOM      7  I   UNL d   1      -5.952  -3.423  -5.999  0.00  0.00    -0.146 I 
ENDROOT
TORSDOF 0
ENDMDL
