MODEL 1
REMARK minimizedAffinity 7.99940586
REMARK minimizedRMSD -1
REMARK  0 active torsions:
REMARK  status: ('A' for Active; 'I' for Inactive)
ROOT
ATOM      1  C   UNL d   1       0.804  -0.249  -3.000  0.00  0.00     0.023 A 
ATOM      2  C1  UNL d   1       1.914   0.454  -2.528  0.00  0.00     0.003 A 
ATOM      3  C2  UNL d   1       2.975   0.743  -3.388  0.00  0.00     0.048 A 
ATOM      4  C3  UNL d   1       2.921   0.328  -4.718  0.00  0.00     0.023 A 
ATOM      5  C4  UNL d   1       1.813  -0.374  -5.195  0.00  0.00     0.048 A 
ATOM      6  C5  UNL d   1       0.754  -0.662  -4.331  0.00  0.00     0.003 A 
ATOM      7  I   UNL d   1       4.500   0.758  -5.999  0.00  0.00    -0.146 I 
ENDROOT
TORSDOF 0
ENDMDL
