MODEL 1
REMARK minimizedAffinity 9.28938103
REMARK minimizedRMSD -1
REMARK  0 active torsions:
REMARK  status: ('A' for Active; 'I' for Inactive)
ROOT
ATOM      1  C   UNL d   1      -5.511  -2.263  -5.815  0.00  0.00     0.023 A 
ATOM      2  C1  UNL d   1      -5.176  -3.614  -5.903  0.00  0.00     0.003 A 
ATOM      3  C2  UNL d   1      -3.835  -4.000  -5.956  0.00  0.00     0.048 A 
ATOM      4  C3  UNL d   1      -2.835  -3.030  -5.921  0.00  0.00     0.023 A 
ATOM      5  C4  UNL d   1      -3.165  -1.677  -5.832  0.00  0.00     0.048 A 
ATOM      6  C5  UNL d   1      -4.507  -1.295  -5.779  0.00  0.00     0.003 A 
ATOM      7  I   UNL d   1      -0.838  -3.602  -6.000  0.00  0.00    -0.146 I 
ENDROOT
TORSDOF 0
ENDMDL
