MODEL 1
REMARK minimizedAffinity 8.45322895
REMARK minimizedRMSD -1
REMARK  0 active torsions:
REMARK  status: ('A' for Active; 'I' for Inactive)
ROOT
ATOM      1  C   UNL d   1      -0.681  -1.863  -5.897  0.00  0.00     0.023 A 
ATOM      2  C1  UNL d   1      -1.296  -3.113  -5.837  0.00  0.00     0.003 A 
ATOM      3  C2  UNL d   1      -2.689  -3.208  -5.857  0.00  0.00     0.048 A 
ATOM      4  C3  UNL d   1      -3.461  -2.050  -5.938  0.00  0.00     0.023 A 
ATOM      5  C4  UNL d   1      -2.849  -0.796  -6.000  0.00  0.00     0.048 A 
ATOM      6  C5  UNL d   1      -1.456  -0.706  -5.979  0.00  0.00     0.003 A 
ATOM      7  I   UNL d   1      -5.534  -2.189  -5.968  0.00  0.00    -0.146 I 
ENDROOT
TORSDOF 0
ENDMDL
