MODEL 1
REMARK minimizedAffinity 1.11648905
REMARK minimizedRMSD -1
REMARK  0 active torsions:
REMARK  status: ('A' for Active; 'I' for Inactive)
ROOT
ATOM      1  C   UNL d   1      -1.358  -1.361  -5.962  0.00  0.00     0.023 A 
ATOM      2  C1  UNL d   1      -1.661  -2.723  -5.994  0.00  0.00     0.003 A 
ATOM      3  C2  UNL d   1      -2.992  -3.143  -6.000  0.00  0.00     0.048 A 
ATOM      4  C3  UNL d   1      -4.016  -2.197  -5.975  0.00  0.00     0.023 A 
ATOM      5  C4  UNL d   1      -3.718  -0.833  -5.944  0.00  0.00     0.048 A 
ATOM      6  C5  UNL d   1      -2.385  -0.418  -5.937  0.00  0.00     0.003 A 
ATOM      7  I   UNL d   1      -5.999  -2.820  -5.984  0.00  0.00    -0.146 I 
ENDROOT
TORSDOF 0
ENDMDL
