MODEL 1
REMARK minimizedAffinity 0.0336575918
REMARK minimizedRMSD -1
REMARK  0 active torsions:
REMARK  status: ('A' for Active; 'I' for Inactive)
ROOT
ATOM      1  C   UNL d   1      -4.750   0.987   2.128  0.00  0.00     0.023 A 
ATOM      2  C1  UNL d   1      -4.328   1.022   3.458  0.00  0.00     0.003 A 
ATOM      3  C2  UNL d   1      -2.969   0.931   3.764  0.00  0.00     0.048 A 
ATOM      4  C3  UNL d   1      -2.036   0.806   2.735  0.00  0.00     0.023 A 
ATOM      5  C4  UNL d   1      -2.453   0.771   1.403  0.00  0.00     0.048 A 
ATOM      6  C5  UNL d   1      -3.813   0.862   1.102  0.00  0.00     0.003 A 
ATOM      7  I   UNL d   1      -0.012   0.670   3.188  0.00  0.00    -0.146 I 
ENDROOT
TORSDOF 0
ENDMDL
