MODEL 1
REMARK minimizedAffinity -0.0426486619
REMARK minimizedRMSD -1
REMARK  0 active torsions:
REMARK  status: ('A' for Active; 'I' for Inactive)
ROOT
ATOM      1  C   UNL d   1      -4.123   0.276   2.128  0.00  0.00     0.023 A 
ATOM      2  C1  UNL d   1      -4.719  -0.008   3.357  0.00  0.00     0.003 A 
ATOM      3  C2  UNL d   1      -5.258   1.024   4.128  0.00  0.00     0.048 A 
ATOM      4  C3  UNL d   1      -5.198   2.338   3.664  0.00  0.00     0.023 A 
ATOM      5  C4  UNL d   1      -4.603   2.626   2.434  0.00  0.00     0.048 A 
ATOM      6  C5  UNL d   1      -4.065   1.591   1.667  0.00  0.00     0.003 A 
ATOM      7  I   UNL d   1      -6.000   3.876   4.809  0.00  0.00    -0.146 I 
ENDROOT
TORSDOF 0
ENDMDL
