MODEL 1
REMARK minimizedAffinity 12.4077768
REMARK minimizedRMSD -1
REMARK  0 active torsions:
REMARK  status: ('A' for Active; 'I' for Inactive)
ROOT
ATOM      1  C   UNL d   1      -0.622  -0.059   2.763  0.00  0.00     0.023 A 
ATOM      2  C1  UNL d   1       0.481   0.793   2.833  0.00  0.00     0.003 A 
ATOM      3  C2  UNL d   1       1.214   1.083   1.681  0.00  0.00     0.048 A 
ATOM      4  C3  UNL d   1       0.839   0.520   0.462  0.00  0.00     0.023 A 
ATOM      5  C4  UNL d   1      -0.265  -0.332   0.387  0.00  0.00     0.048 A 
ATOM      6  C5  UNL d   1      -0.994  -0.620   1.542  0.00  0.00     0.003 A 
ATOM      7  I   UNL d   1       1.928   0.951  -1.255  0.00  0.00    -0.146 I 
ENDROOT
TORSDOF 0
ENDMDL
