MODEL 1
REMARK minimizedAffinity -0.14256613
REMARK minimizedRMSD -1
REMARK  0 active torsions:
REMARK  status: ('A' for Active; 'I' for Inactive)
ROOT
ATOM      1  C1  BNZ d   1      -4.456  -1.413   3.313  0.00  0.00     0.000 A 
ATOM      2  C2  BNZ d   1      -4.745  -1.061   4.605  0.00  0.00     0.000 A 
ATOM      3  C3  BNZ d   1      -4.028  -0.086   5.241  0.00  0.00     0.000 A 
ATOM      4  C4  BNZ d   1      -3.000   0.506   4.600  0.00  0.00     0.000 A 
ATOM      5  C5  BNZ d   1      -2.690   0.155   3.301  0.00  0.00     0.000 A 
ATOM      6  C6  BNZ d   1      -3.439  -0.799   2.651  0.00  0.00     0.000 A 
ENDROOT
TORSDOF 0
ENDMDL
