MODEL 1
REMARK minimizedAffinity -1.15030181
REMARK minimizedRMSD -1
REMARK  0 active torsions:
REMARK  status: ('A' for Active; 'I' for Inactive)
ROOT
ATOM      1  C1  BNZ d   1      -5.944  -3.521   2.916  0.00  0.00     0.000 A 
ATOM      2  C2  BNZ d   1      -5.931  -4.654   2.145  0.00  0.00     0.000 A 
ATOM      3  C3  BNZ d   1      -5.978  -5.892   2.721  0.00  0.00     0.000 A 
ATOM      4  C4  BNZ d   1      -5.996  -5.998   4.066  0.00  0.00     0.000 A 
ATOM      5  C5  BNZ d   1      -6.000  -4.866   4.856  0.00  0.00     0.000 A 
ATOM      6  C6  BNZ d   1      -5.992  -3.620   4.272  0.00  0.00     0.000 A 
ENDROOT
TORSDOF 0
ENDMDL
