MODEL 1
REMARK minimizedAffinity 0.754388988
REMARK minimizedRMSD -1
REMARK  0 active torsions:
REMARK  status: ('A' for Active; 'I' for Inactive)
ROOT
ATOM      1  C1  BNZ d   1      -5.975  -3.467   4.640  0.00  0.00     0.000 A 
ATOM      2  C2  BNZ d   1      -5.995  -4.562   5.462  0.00  0.00     0.000 A 
ATOM      3  C3  BNZ d   1      -5.983  -5.826   4.943  0.00  0.00     0.000 A 
ATOM      4  C4  BNZ d   1      -5.992  -5.994   3.605  0.00  0.00     0.000 A 
ATOM      5  C5  BNZ d   1      -5.981  -4.900   2.763  0.00  0.00     0.000 A 
ATOM      6  C6  BNZ d   1      -5.954  -3.629   3.289  0.00  0.00     0.000 A 
ENDROOT
TORSDOF 0
ENDMDL
