MODEL 1
REMARK minimizedAffinity -1.45398927
REMARK minimizedRMSD -1
REMARK  0 active torsions:
REMARK  status: ('A' for Active; 'I' for Inactive)
ROOT
ATOM      1  C1  BNZ d   1      -5.907  -3.612   3.394  0.00  0.00     0.000 A 
ATOM      2  C2  BNZ d   1      -5.981  -3.651   4.761  0.00  0.00     0.000 A 
ATOM      3  C3  BNZ d   1      -5.991  -4.844   5.428  0.00  0.00     0.000 A 
ATOM      4  C4  BNZ d   1      -5.967  -5.996   4.726  0.00  0.00     0.000 A 
ATOM      5  C5  BNZ d   1      -5.902  -5.973   3.347  0.00  0.00     0.000 A 
ATOM      6  C6  BNZ d   1      -5.853  -4.770   2.681  0.00  0.00     0.000 A 
ENDROOT
TORSDOF 0
ENDMDL
