MODEL 1
REMARK minimizedAffinity -1.24422956
REMARK minimizedRMSD -1
REMARK  0 active torsions:
REMARK  status: ('A' for Active; 'I' for Inactive)
ROOT
ATOM      1  C1  BNZ d   1      -4.555  -1.843   4.533  0.00  0.00     0.000 A 
ATOM      2  C2  BNZ d   1      -4.129  -0.687   5.132  0.00  0.00     0.000 A 
ATOM      3  C3  BNZ d   1      -3.225   0.130   4.513  0.00  0.00     0.000 A 
ATOM      4  C4  BNZ d   1      -2.718  -0.228   3.316  0.00  0.00     0.000 A 
ATOM      5  C5  BNZ d   1      -3.130  -1.395   2.703  0.00  0.00     0.000 A 
ATOM      6  C6  BNZ d   1      -4.070  -2.196   3.311  0.00  0.00     0.000 A 
ENDROOT
TORSDOF 0
ENDMDL
