MODEL 1
REMARK minimizedAffinity 4.99706364
REMARK minimizedRMSD -1
REMARK  0 active torsions:
REMARK  status: ('A' for Active; 'I' for Inactive)
ROOT
ATOM      1  C1  BNZ d   1      -1.673  -0.951   1.638  0.00  0.00     0.000 A 
ATOM      2  C2  BNZ d   1      -2.708  -0.869   0.746  0.00  0.00     0.000 A 
ATOM      3  C3  BNZ d   1      -3.657   0.108   0.862  0.00  0.00     0.000 A 
ATOM      4  C4  BNZ d   1      -3.592   0.976   1.892  0.00  0.00     0.000 A 
ATOM      5  C5  BNZ d   1      -2.560   0.901   2.806  0.00  0.00     0.000 A 
ATOM      6  C6  BNZ d   1      -1.585  -0.060   2.663  0.00  0.00     0.000 A 
ENDROOT
TORSDOF 0
ENDMDL
