MODEL 1
REMARK minimizedAffinity 3.6436069
REMARK minimizedRMSD -1
REMARK  0 active torsions:
REMARK  status: ('A' for Active; 'I' for Inactive)
ROOT
ATOM      1  C1  BNZ d   1      -0.742  -3.360   1.143  0.00  0.00     0.000 A 
ATOM      2  C2  BNZ d   1      -1.975  -2.840   0.849  0.00  0.00     0.000 A 
ATOM      3  C3  BNZ d   1      -2.302  -1.565   1.218  0.00  0.00     0.000 A 
ATOM      4  C4  BNZ d   1      -1.414  -0.827   1.914  0.00  0.00     0.000 A 
ATOM      5  C5  BNZ d   1      -0.171  -1.341   2.226  0.00  0.00     0.000 A 
ATOM      6  C6  BNZ d   1       0.170  -2.611   1.819  0.00  0.00     0.000 A 
ENDROOT
TORSDOF 0
ENDMDL
