MODEL 1
REMARK minimizedAffinity 2.46551871
REMARK minimizedRMSD -1
REMARK  0 active torsions:
REMARK  status: ('A' for Active; 'I' for Inactive)
ROOT
ATOM      1  C1  BNZ d   1      -5.642  -4.859   1.726  0.00  0.00     0.000 A 
ATOM      2  C2  BNZ d   1      -5.954  -5.999   2.418  0.00  0.00     0.000 A 
ATOM      3  C3  BNZ d   1      -5.998  -6.000   3.784  0.00  0.00     0.000 A 
ATOM      4  C4  BNZ d   1      -5.691  -4.872   4.457  0.00  0.00     0.000 A 
ATOM      5  C5  BNZ d   1      -5.365  -3.717   3.775  0.00  0.00     0.000 A 
ATOM      6  C6  BNZ d   1      -5.360  -3.710   2.399  0.00  0.00     0.000 A 
ENDROOT
TORSDOF 0
ENDMDL
