MODEL 1
REMARK minimizedAffinity 2.30708957
REMARK minimizedRMSD -1
REMARK  0 active torsions:
REMARK  status: ('A' for Active; 'I' for Inactive)
ROOT
ATOM      1  C1  BNZ d   1      -5.202  -3.777   5.076  0.00  0.00     0.000 A 
ATOM      2  C2  BNZ d   1      -5.097  -3.796   3.710  0.00  0.00     0.000 A 
ATOM      3  C3  BNZ d   1      -5.464  -4.902   2.996  0.00  0.00     0.000 A 
ATOM      4  C4  BNZ d   1      -5.897  -6.000   3.649  0.00  0.00     0.000 A 
ATOM      5  C5  BNZ d   1      -6.000  -5.999   5.026  0.00  0.00     0.000 A 
ATOM      6  C6  BNZ d   1      -5.666  -4.870   5.739  0.00  0.00     0.000 A 
ENDROOT
TORSDOF 0
ENDMDL
