MODEL 1
REMARK minimizedAffinity -1.05799651
REMARK minimizedRMSD -1
REMARK  0 active torsions:
REMARK  status: ('A' for Active; 'I' for Inactive)
ROOT
ATOM      1  C1  BNZ d   1      -2.250   0.378   3.019  0.00  0.00     0.000 A 
ATOM      2  C2  BNZ d   1      -3.032  -0.174   2.039  0.00  0.00     0.000 A 
ATOM      3  C3  BNZ d   1      -2.727  -1.395   1.505  0.00  0.00     0.000 A 
ATOM      4  C4  BNZ d   1      -1.621  -2.044   1.923  0.00  0.00     0.000 A 
ATOM      5  C5  BNZ d   1      -0.818  -1.497   2.903  0.00  0.00     0.000 A 
ATOM      6  C6  BNZ d   1      -1.149  -0.285   3.466  0.00  0.00     0.000 A 
ENDROOT
TORSDOF 0
ENDMDL
