MODEL 1
REMARK minimizedAffinity 6.88055897
REMARK minimizedRMSD -1
REMARK  0 active torsions:
REMARK  status: ('A' for Active; 'I' for Inactive)
ROOT
ATOM      1  C1  BNZ d   1       4.993   2.707  -4.333  0.00  0.00     0.000 A 
ATOM      2  C2  BNZ d   1       5.541   3.605  -5.209  0.00  0.00     0.000 A 
ATOM      3  C3  BNZ d   1       4.907   4.782  -5.494  0.00  0.00     0.000 A 
ATOM      4  C4  BNZ d   1       3.707   5.041  -4.934  0.00  0.00     0.000 A 
ATOM      5  C5  BNZ d   1       3.137   4.141  -4.057  0.00  0.00     0.000 A 
ATOM      6  C6  BNZ d   1       3.796   2.975  -3.742  0.00  0.00     0.000 A 
ENDROOT
TORSDOF 0
ENDMDL
