MODEL 1
REMARK minimizedAffinity 6.2571497
REMARK minimizedRMSD -1
REMARK  0 active torsions:
REMARK  status: ('A' for Active; 'I' for Inactive)
ROOT
ATOM      1  C1  BNZ d   1      -2.037  -1.439   3.266  0.00  0.00     0.000 A 
ATOM      2  C2  BNZ d   1      -1.971  -1.653   1.915  0.00  0.00     0.000 A 
ATOM      3  C3  BNZ d   1      -2.091  -0.614   1.036  0.00  0.00     0.000 A 
ATOM      4  C4  BNZ d   1      -2.316   0.630   1.506  0.00  0.00     0.000 A 
ATOM      5  C5  BNZ d   1      -2.394   0.860   2.865  0.00  0.00     0.000 A 
ATOM      6  C6  BNZ d   1      -2.235  -0.182   3.749  0.00  0.00     0.000 A 
ENDROOT
TORSDOF 0
ENDMDL
