MODEL 1
REMARK minimizedAffinity 5.07799149
REMARK minimizedRMSD -1
REMARK  0 active torsions:
REMARK  status: ('A' for Active; 'I' for Inactive)
ROOT
ATOM      1  C1  BNZ d   1      -4.583  -4.077   3.280  0.00  0.00     0.000 A 
ATOM      2  C2  BNZ d   1      -4.643  -4.066   4.648  0.00  0.00     0.000 A 
ATOM      3  C3  BNZ d   1      -5.334  -5.031   5.326  0.00  0.00     0.000 A 
ATOM      4  C4  BNZ d   1      -5.997  -5.981   4.635  0.00  0.00     0.000 A 
ATOM      5  C5  BNZ d   1      -5.954  -6.000   3.256  0.00  0.00     0.000 A 
ATOM      6  C6  BNZ d   1      -5.225  -5.050   2.578  0.00  0.00     0.000 A 
ENDROOT
TORSDOF 0
ENDMDL
