MODEL 1
REMARK minimizedAffinity 4.57195425
REMARK minimizedRMSD -1
REMARK  0 active torsions:
REMARK  status: ('A' for Active; 'I' for Inactive)
ROOT
ATOM      1  C1  BNZ d   1      -4.868  -5.037   3.294  0.00  0.00     0.000 A 
ATOM      2  C2  BNZ d   1      -4.322  -4.098   4.128  0.00  0.00     0.000 A 
ATOM      3  C3  BNZ d   1      -4.583  -4.119   5.470  0.00  0.00     0.000 A 
ATOM      4  C4  BNZ d   1      -5.419  -5.052   5.969  0.00  0.00     0.000 A 
ATOM      5  C5  BNZ d   1      -5.984  -5.999   5.139  0.00  0.00     0.000 A 
ATOM      6  C6  BNZ d   1      -5.689  -5.999   3.795  0.00  0.00     0.000 A 
ENDROOT
TORSDOF 0
ENDMDL
