MODEL 1
REMARK minimizedAffinity 5.40507126
REMARK minimizedRMSD -1
REMARK  0 active torsions:
REMARK  status: ('A' for Active; 'I' for Inactive)
ROOT
ATOM      1  C1  BNZ d   1      -4.275  -3.756   4.851  0.00  0.00     0.000 A 
ATOM      2  C2  BNZ d   1      -4.396  -4.531   3.728  0.00  0.00     0.000 A 
ATOM      3  C3  BNZ d   1      -5.196  -5.640   3.725  0.00  0.00     0.000 A 
ATOM      4  C4  BNZ d   1      -5.840  -5.995   4.856  0.00  0.00     0.000 A 
ATOM      5  C5  BNZ d   1      -5.720  -5.229   5.999  0.00  0.00     0.000 A 
ATOM      6  C6  BNZ d   1      -4.946  -4.092   5.986  0.00  0.00     0.000 A 
ENDROOT
TORSDOF 0
ENDMDL
