MODEL 1
REMARK minimizedAffinity -0.992100298
REMARK minimizedRMSD -1
REMARK  0 active torsions:
REMARK  status: ('A' for Active; 'I' for Inactive)
ROOT
ATOM      1  N1  IND d   1      -4.337   1.241  -5.990  0.00  0.00    -0.196 N 
ATOM      2  C2  IND d   1      -3.352   0.293  -5.990  0.00  0.00     0.054 A 
ATOM      3  C3  IND d   1      -2.134   0.879  -6.000  0.00  0.00    -0.031 A 
ATOM      4  C4  IND d   1      -1.522   3.378  -5.915  0.00  0.00     0.051 A 
ATOM      5  C5  IND d   1      -2.080   4.625  -5.941  0.00  0.00    -0.031 A 
ATOM      6  C6  IND d   1      -3.446   4.812  -5.983  0.00  0.00     0.015 A 
ATOM      7  C7  IND d   1      -4.310   3.754  -5.989  0.00  0.00    -0.016 A 
ATOM      8  C8  IND d   1      -3.747   2.486  -5.970  0.00  0.00    -0.047 A 
ATOM      9  C9  IND d   1      -2.360   2.290  -5.970  0.00  0.00    -0.096 A 
ATOM     10  HN1 IND d   1      -5.183   1.086  -6.001  0.00  0.00     0.298 HD
ENDROOT
TORSDOF 0
ENDMDL
