MODEL 1
REMARK minimizedAffinity 2.27178693
REMARK minimizedRMSD -1
REMARK  0 active torsions:
REMARK  status: ('A' for Active; 'I' for Inactive)
ROOT
ATOM      1  N1  IND d   1       1.971   1.641  -1.526  0.00  0.00    -0.196 N 
ATOM      2  C2  IND d   1       2.199   2.360  -0.386  0.00  0.00     0.054 A 
ATOM      3  C3  IND d   1       1.430   1.897   0.625  0.00  0.00    -0.031 A 
ATOM      4  C4  IND d   1      -0.198  -0.097   0.659  0.00  0.00     0.051 A 
ATOM      5  C5  IND d   1      -0.768  -1.036  -0.154  0.00  0.00    -0.031 A 
ATOM      6  C6  IND d   1      -0.445  -1.135  -1.492  0.00  0.00     0.015 A 
ATOM      7  C7  IND d   1       0.472  -0.301  -2.067  0.00  0.00    -0.016 A 
ATOM      8  C8  IND d   1       1.047   0.658  -1.246  0.00  0.00    -0.047 A 
ATOM      9  C9  IND d   1       0.692   0.791   0.103  0.00  0.00    -0.096 A 
ATOM     10  HN1 IND d   1       2.342   1.780  -2.289  0.00  0.00     0.298 HD
ENDROOT
TORSDOF 0
ENDMDL
