MODEL 1
REMARK minimizedAffinity -2.21316099
REMARK minimizedRMSD -1
REMARK  0 active torsions:
REMARK  status: ('A' for Active; 'I' for Inactive)
ROOT
ATOM      1  N1  IND d   1      -3.846   3.466  -5.930  0.00  0.00    -0.196 N 
ATOM      2  C2  IND d   1      -5.173   3.794  -5.941  0.00  0.00     0.054 A 
ATOM      3  C3  IND d   1      -5.933   2.676  -5.991  0.00  0.00    -0.031 A 
ATOM      4  C4  IND d   1      -5.212   0.205  -5.959  0.00  0.00     0.051 A 
ATOM      5  C5  IND d   1      -4.104  -0.594  -5.989  0.00  0.00    -0.031 A 
ATOM      6  C6  IND d   1      -2.827  -0.070  -5.998  0.00  0.00     0.015 A 
ATOM      7  C7  IND d   1      -2.610   1.278  -5.966  0.00  0.00    -0.016 A 
ATOM      8  C8  IND d   1      -3.733   2.093  -5.943  0.00  0.00    -0.047 A 
ATOM      9  C9  IND d   1      -5.032   1.568  -5.976  0.00  0.00    -0.096 A 
ATOM     10  HN1 IND d   1      -3.192   4.024  -5.917  0.00  0.00     0.298 HD
ENDROOT
TORSDOF 0
ENDMDL
