MODEL 1
REMARK minimizedAffinity 5.47335196
REMARK minimizedRMSD -1
REMARK  0 active torsions:
REMARK  status: ('A' for Active; 'I' for Inactive)
ROOT
ATOM      1  N1  IND d   1      -4.379  -4.723  -5.996  0.00  0.00    -0.196 N 
ATOM      2  C2  IND d   1      -3.017  -4.817  -5.921  0.00  0.00     0.054 A 
ATOM      3  C3  IND d   1      -2.464  -3.586  -5.843  0.00  0.00    -0.031 A 
ATOM      4  C4  IND d   1      -3.608  -1.284  -5.719  0.00  0.00     0.051 A 
ATOM      5  C5  IND d   1      -4.835  -0.685  -5.790  0.00  0.00    -0.031 A 
ATOM      6  C6  IND d   1      -5.996  -1.417  -5.933  0.00  0.00     0.015 A 
ATOM      7  C7  IND d   1      -5.975  -2.781  -6.000  0.00  0.00    -0.016 A 
ATOM      8  C8  IND d   1      -4.730  -3.392  -5.935  0.00  0.00    -0.047 A 
ATOM      9  C9  IND d   1      -3.545  -2.652  -5.833  0.00  0.00    -0.096 A 
ATOM     10  HN1 IND d   1      -4.925  -5.383  -6.069  0.00  0.00     0.298 HD
ENDROOT
TORSDOF 0
ENDMDL
