MODEL 1
REMARK minimizedAffinity -2.68443727
REMARK minimizedRMSD -1
REMARK  0 active torsions:
REMARK  status: ('A' for Active; 'I' for Inactive)
ROOT
ATOM      1  N1  IND d   1      -3.726   5.379  -5.953  0.00  0.00    -0.196 N 
ATOM      2  C2  IND d   1      -4.946   5.996  -5.954  0.00  0.00     0.054 A 
ATOM      3  C3  IND d   1      -5.937   5.077  -5.987  0.00  0.00    -0.031 A 
ATOM      4  C4  IND d   1      -5.788   2.507  -5.940  0.00  0.00     0.051 A 
ATOM      5  C5  IND d   1      -4.887   1.480  -5.974  0.00  0.00    -0.031 A 
ATOM      6  C6  IND d   1      -3.526   1.704  -6.000  0.00  0.00     0.015 A 
ATOM      7  C7  IND d   1      -3.012   2.970  -5.982  0.00  0.00    -0.016 A 
ATOM      8  C8  IND d   1      -3.923   4.016  -5.955  0.00  0.00    -0.047 A 
ATOM      9  C9  IND d   1      -5.307   3.795  -5.971  0.00  0.00    -0.096 A 
ATOM     10  HN1 IND d   1      -2.963   5.776  -5.951  0.00  0.00     0.298 HD
ENDROOT
TORSDOF 0
ENDMDL
