MODEL 1
REMARK minimizedAffinity -2.23551917
REMARK minimizedRMSD -1
REMARK  0 active torsions:
REMARK  status: ('A' for Active; 'I' for Inactive)
ROOT
ATOM      1  N1  IND d   1      -2.967   0.596  -5.997  0.00  0.00    -0.196 N 
ATOM      2  C2  IND d   1      -3.896  -0.407  -5.996  0.00  0.00     0.054 A 
ATOM      3  C3  IND d   1      -5.145   0.108  -5.960  0.00  0.00    -0.031 A 
ATOM      4  C4  IND d   1      -5.901   2.569  -5.999  0.00  0.00     0.051 A 
ATOM      5  C5  IND d   1      -5.415   3.846  -5.963  0.00  0.00    -0.031 A 
ATOM      6  C6  IND d   1      -4.061   4.110  -5.938  0.00  0.00     0.015 A 
ATOM      7  C7  IND d   1      -3.138   3.103  -5.961  0.00  0.00    -0.016 A 
ATOM      8  C8  IND d   1      -3.628   1.805  -5.991  0.00  0.00    -0.047 A 
ATOM      9  C9  IND d   1      -5.001   1.529  -5.972  0.00  0.00    -0.096 A 
ATOM     10  HN1 IND d   1      -2.114   0.490  -6.001  0.00  0.00     0.298 HD
ENDROOT
TORSDOF 0
ENDMDL
