MODEL 1
REMARK minimizedAffinity -2.97310305
REMARK minimizedRMSD -1
REMARK  0 active torsions:
REMARK  status: ('A' for Active; 'I' for Inactive)
ROOT
ATOM      1  N1  IND d   1      -2.609  -0.072  -5.995  0.00  0.00    -0.196 N 
ATOM      2  C2  IND d   1      -3.702  -0.892  -6.000  0.00  0.00     0.054 A 
ATOM      3  C3  IND d   1      -4.839  -0.161  -5.964  0.00  0.00    -0.031 A 
ATOM      4  C4  IND d   1      -5.140   2.396  -5.995  0.00  0.00     0.051 A 
ATOM      5  C5  IND d   1      -4.433   3.564  -5.953  0.00  0.00    -0.031 A 
ATOM      6  C6  IND d   1      -3.053   3.581  -5.925  0.00  0.00     0.015 A 
ATOM      7  C7  IND d   1      -2.326   2.424  -5.949  0.00  0.00    -0.016 A 
ATOM      8  C8  IND d   1      -3.041   1.236  -5.985  0.00  0.00    -0.047 A 
ATOM      9  C9  IND d   1      -4.442   1.211  -5.971  0.00  0.00    -0.096 A 
ATOM     10  HN1 IND d   1      -1.788  -0.330  -5.997  0.00  0.00     0.298 HD
ENDROOT
TORSDOF 0
ENDMDL
