MODEL 1
REMARK minimizedAffinity 0.305709571
REMARK minimizedRMSD -1
REMARK  0 active torsions:
REMARK  status: ('A' for Active; 'I' for Inactive)
ROOT
ATOM      1  N1  IND d   1      -3.656  -1.293  -6.000  0.00  0.00    -0.196 N 
ATOM      2  C2  IND d   1      -4.885  -1.891  -5.996  0.00  0.00     0.054 A 
ATOM      3  C3  IND d   1      -5.862  -0.958  -5.958  0.00  0.00    -0.031 A 
ATOM      4  C4  IND d   1      -5.675   1.609  -6.000  0.00  0.00     0.051 A 
ATOM      5  C5  IND d   1      -4.759   2.623  -5.967  0.00  0.00    -0.031 A 
ATOM      6  C6  IND d   1      -3.401   2.378  -5.946  0.00  0.00     0.015 A 
ATOM      7  C7  IND d   1      -2.906   1.105  -5.968  0.00  0.00    -0.016 A 
ATOM      8  C8  IND d   1      -3.833   0.073  -5.994  0.00  0.00    -0.047 A 
ATOM      9  C9  IND d   1      -5.213   0.314  -5.973  0.00  0.00    -0.096 A 
ATOM     10  HN1 IND d   1      -2.899  -1.701  -6.005  0.00  0.00     0.298 HD
ENDROOT
TORSDOF 0
ENDMDL
