MODEL 1
REMARK minimizedAffinity -1.07031703
REMARK minimizedRMSD -1
REMARK  0 active torsions:
REMARK  status: ('A' for Active; 'I' for Inactive)
ROOT
ATOM      1  N1  IND d   1      -3.293   5.245  -5.928  0.00  0.00    -0.196 N 
ATOM      2  C2  IND d   1      -4.656   5.357  -5.944  0.00  0.00     0.054 A 
ATOM      3  C3  IND d   1      -5.228   4.134  -6.000  0.00  0.00    -0.031 A 
ATOM      4  C4  IND d   1      -4.124   1.809  -5.970  0.00  0.00     0.051 A 
ATOM      5  C5  IND d   1      -2.903   1.196  -5.997  0.00  0.00    -0.031 A 
ATOM      6  C6  IND d   1      -1.726   1.916  -6.000  0.00  0.00     0.015 A 
ATOM      7  C7  IND d   1      -1.726   3.281  -5.964  0.00  0.00    -0.016 A 
ATOM      8  C8  IND d   1      -2.964   3.907  -5.943  0.00  0.00    -0.047 A 
ATOM      9  C9  IND d   1      -4.162   3.183  -5.983  0.00  0.00    -0.096 A 
ATOM     10  HN1 IND d   1      -2.736   5.899  -5.911  0.00  0.00     0.298 HD
ENDROOT
TORSDOF 0
ENDMDL
