MODEL 1
REMARK minimizedAffinity -4.06059551
REMARK minimizedRMSD -1
REMARK  0 active torsions:
REMARK  status: ('A' for Active; 'I' for Inactive)
ROOT
ATOM      1  N1  IND d   1      -3.756   4.125  -5.909  0.00  0.00    -0.196 N 
ATOM      2  C2  IND d   1      -5.068   4.505  -5.926  0.00  0.00     0.054 A 
ATOM      3  C3  IND d   1      -5.872   3.420  -5.990  0.00  0.00    -0.031 A 
ATOM      4  C4  IND d   1      -5.251   0.922  -5.971  0.00  0.00     0.051 A 
ATOM      5  C5  IND d   1      -4.176   0.079  -6.000  0.00  0.00    -0.031 A 
ATOM      6  C6  IND d   1      -2.879   0.551  -5.997  0.00  0.00     0.015 A 
ATOM      7  C7  IND d   1      -2.608   1.889  -5.954  0.00  0.00    -0.016 A 
ATOM      8  C8  IND d   1      -3.698   2.748  -5.931  0.00  0.00    -0.047 A 
ATOM      9  C9  IND d   1      -5.016   2.276  -5.977  0.00  0.00    -0.096 A 
ATOM     10  HN1 IND d   1      -3.080   4.656  -5.888  0.00  0.00     0.298 HD
ENDROOT
TORSDOF 0
ENDMDL
