MODEL 1
REMARK minimizedAffinity -2.41507387
REMARK minimizedRMSD -1
REMARK  0 active torsions:
REMARK  status: ('A' for Active; 'I' for Inactive)
ROOT
ATOM      1  N1  IND d   1      -4.338   5.986  -5.565  0.00  0.00    -0.196 N 
ATOM      2  C2  IND d   1      -5.517   5.323  -5.763  0.00  0.00     0.054 A 
ATOM      3  C3  IND d   1      -5.285   4.012  -5.997  0.00  0.00    -0.031 A 
ATOM      4  C4  IND d   1      -3.059   2.719  -6.000  0.00  0.00     0.051 A 
ATOM      5  C5  IND d   1      -1.708   2.901  -5.905  0.00  0.00    -0.031 A 
ATOM      6  C6  IND d   1      -1.153   4.145  -5.685  0.00  0.00     0.015 A 
ATOM      7  C7  IND d   1      -1.933   5.257  -5.539  0.00  0.00    -0.016 A 
ATOM      8  C8  IND d   1      -3.305   5.077  -5.642  0.00  0.00    -0.047 A 
ATOM      9  C9  IND d   1      -3.872   3.824  -5.908  0.00  0.00    -0.096 A 
ATOM     10  HN1 IND d   1      -4.255   6.829  -5.418  0.00  0.00     0.298 HD
ENDROOT
TORSDOF 0
ENDMDL
