MODEL 1
REMARK minimizedAffinity 4.28710842
REMARK minimizedRMSD -1
REMARK  0 active torsions:
REMARK  status: ('A' for Active; 'I' for Inactive)
ROOT
ATOM      1  N1  IND d   1       1.467   1.848   0.276  0.00  0.00    -0.196 N 
ATOM      2  C2  IND d   1       0.573   2.109   1.277  0.00  0.00     0.054 A 
ATOM      3  C3  IND d   1      -0.332   1.110   1.372  0.00  0.00    -0.031 A 
ATOM      4  C4  IND d   1      -0.477  -1.096   0.054  0.00  0.00     0.051 A 
ATOM      5  C5  IND d   1       0.097  -1.768  -0.989  0.00  0.00    -0.031 A 
ATOM      6  C6  IND d   1       1.180  -1.259  -1.676  0.00  0.00     0.015 A 
ATOM      7  C7  IND d   1       1.740  -0.059  -1.336  0.00  0.00    -0.016 A 
ATOM      8  C8  IND d   1       1.155   0.628  -0.282  0.00  0.00    -0.047 A 
ATOM      9  C9  IND d   1       0.029   0.137   0.391  0.00  0.00    -0.096 A 
ATOM     10  HN1 IND d   1       2.114   2.360   0.036  0.00  0.00     0.298 HD
ENDROOT
TORSDOF 0
ENDMDL
