MODEL 1
REMARK minimizedAffinity 0.463084161
REMARK minimizedRMSD -1
REMARK  0 active torsions:
REMARK  status: ('A' for Active; 'I' for Inactive)
ROOT
ATOM      1  N1  IND d   1      -4.704   1.297  -5.991  0.00  0.00    -0.196 N 
ATOM      2  C2  IND d   1      -3.781   0.288  -5.990  0.00  0.00     0.054 A 
ATOM      3  C3  IND d   1      -2.528   0.796  -5.999  0.00  0.00    -0.031 A 
ATOM      4  C4  IND d   1      -1.759   3.251  -5.913  0.00  0.00     0.051 A 
ATOM      5  C5  IND d   1      -2.236   4.531  -5.939  0.00  0.00    -0.031 A 
ATOM      6  C6  IND d   1      -3.588   4.804  -5.983  0.00  0.00     0.015 A 
ATOM      7  C7  IND d   1      -4.517   3.802  -5.990  0.00  0.00    -0.016 A 
ATOM      8  C8  IND d   1      -4.036   2.501  -5.970  0.00  0.00    -0.047 A 
ATOM      9  C9  IND d   1      -2.664   2.218  -5.969  0.00  0.00    -0.096 A 
ATOM     10  HN1 IND d   1      -5.558   1.196  -6.003  0.00  0.00     0.298 HD
ENDROOT
TORSDOF 0
ENDMDL
