MODEL 1
REMARK minimizedAffinity 14.8880835
REMARK minimizedRMSD -1
REMARK  0 active torsions:
REMARK  status: ('A' for Active; 'I' for Inactive)
ROOT
ATOM      1  N1  IND d   1       3.216  -3.171  -5.421  0.00  0.00    -0.196 N 
ATOM      2  C2  IND d   1       4.053  -2.245  -4.863  0.00  0.00     0.054 A 
ATOM      3  C3  IND d   1       3.380  -1.103  -4.596  0.00  0.00    -0.031 A 
ATOM      4  C4  IND d   1       0.879  -0.571  -4.896  0.00  0.00     0.051 A 
ATOM      5  C5  IND d   1      -0.280  -1.090  -5.402  0.00  0.00    -0.031 A 
ATOM      6  C6  IND d   1      -0.334  -2.356  -5.949  0.00  0.00     0.015 A 
ATOM      7  C7  IND d   1       0.771  -3.158  -5.999  0.00  0.00    -0.016 A 
ATOM      8  C8  IND d   1       1.951  -2.631  -5.493  0.00  0.00    -0.047 A 
ATOM      9  C9  IND d   1       2.021  -1.331  -4.976  0.00  0.00    -0.096 A 
ATOM     10  HN1 IND d   1       3.442  -3.958  -5.682  0.00  0.00     0.298 HD
ENDROOT
TORSDOF 0
ENDMDL
