MODEL 1
REMARK minimizedAffinity 18.0253696
REMARK minimizedRMSD -1
REMARK  0 active torsions:
REMARK  status: ('A' for Active; 'I' for Inactive)
ROOT
ATOM      1  N1  IND d   1      -0.726   3.012   4.792  0.00  0.00    -0.196 N 
ATOM      2  C2  IND d   1      -0.101   2.862   5.998  0.00  0.00     0.054 A 
ATOM      3  C3  IND d   1       0.661   1.745   5.997  0.00  0.00    -0.031 A 
ATOM      4  C4  IND d   1       1.107   0.071   4.093  0.00  0.00     0.051 A 
ATOM      5  C5  IND d   1       0.731  -0.232   2.815  0.00  0.00    -0.031 A 
ATOM      6  C6  IND d   1      -0.167   0.548   2.115  0.00  0.00     0.015 A 
ATOM      7  C7  IND d   1      -0.715   1.672   2.666  0.00  0.00    -0.016 A 
ATOM      8  C8  IND d   1      -0.340   1.979   3.966  0.00  0.00    -0.047 A 
ATOM      9  C9  IND d   1       0.537   1.167   4.697  0.00  0.00    -0.096 A 
ATOM     10  HN1 IND d   1      -1.270   3.645   4.584  0.00  0.00     0.298 HD
ENDROOT
TORSDOF 0
ENDMDL
