MODEL 1
REMARK minimizedAffinity 24.4067383
REMARK minimizedRMSD -1
REMARK  0 active torsions:
REMARK  status: ('A' for Active; 'I' for Inactive)
ROOT
ATOM      1  N1  IND d   1       1.572  -1.028  -4.050  0.00  0.00    -0.196 N 
ATOM      2  C2  IND d   1       0.387  -0.351  -4.131  0.00  0.00     0.054 A 
ATOM      3  C3  IND d   1      -0.525  -1.080  -4.813  0.00  0.00    -0.031 A 
ATOM      4  C4  IND d   1      -0.321  -3.451  -5.793  0.00  0.00     0.051 A 
ATOM      5  C5  IND d   1       0.580  -4.458  -6.000  0.00  0.00    -0.031 A 
ATOM      6  C6  IND d   1       1.884  -4.372  -5.556  0.00  0.00     0.015 A 
ATOM      7  C7  IND d   1       2.333  -3.276  -4.875  0.00  0.00    -0.016 A 
ATOM      8  C8  IND d   1       1.423  -2.249  -4.670  0.00  0.00    -0.047 A 
ATOM      9  C9  IND d   1       0.111  -2.312  -5.155  0.00  0.00    -0.096 A 
ATOM     10  HN1 IND d   1       2.290  -0.739  -3.674  0.00  0.00     0.298 HD
ENDROOT
TORSDOF 0
ENDMDL
