MODEL 1
REMARK minimizedAffinity 10.3314238
REMARK minimizedRMSD -1
REMARK  0 active torsions:
REMARK  status: ('A' for Active; 'I' for Inactive)
ROOT
ATOM      1  N1  IND d   1      -0.322   2.602   4.375  0.00  0.00    -0.196 N 
ATOM      2  C2  IND d   1       0.243   2.394   5.602  0.00  0.00     0.054 A 
ATOM      3  C3  IND d   1       0.783   1.157   5.668  0.00  0.00    -0.031 A 
ATOM      4  C4  IND d   1       0.945  -0.656   3.847  0.00  0.00     0.051 A 
ATOM      5  C5  IND d   1       0.541  -0.942   2.573  0.00  0.00    -0.031 A 
ATOM      6  C6  IND d   1      -0.183  -0.042   1.818  0.00  0.00     0.015 A 
ATOM      7  C7  IND d   1      -0.523   1.187   2.307  0.00  0.00    -0.016 A 
ATOM      8  C8  IND d   1      -0.121   1.478   3.603  0.00  0.00    -0.047 A 
ATOM      9  C9  IND d   1       0.578   0.553   4.389  0.00  0.00    -0.096 A 
ATOM     10  HN1 IND d   1      -0.735   3.314   4.126  0.00  0.00     0.298 HD
ENDROOT
TORSDOF 0
ENDMDL
