MODEL 1
REMARK minimizedAffinity 6.66108465
REMARK minimizedRMSD -1
REMARK  0 active torsions:
REMARK  status: ('A' for Active; 'I' for Inactive)
ROOT
ATOM      1  N1  IND d   1      -0.366   2.345   4.528  0.00  0.00    -0.196 N 
ATOM      2  C2  IND d   1       0.084   2.262   5.816  0.00  0.00     0.054 A 
ATOM      3  C3  IND d   1       0.779   1.117   5.998  0.00  0.00    -0.031 A 
ATOM      4  C4  IND d   1       1.386  -0.716   4.296  0.00  0.00     0.051 A 
ATOM      5  C5  IND d   1       1.167  -1.101   3.003  0.00  0.00    -0.031 A 
ATOM      6  C6  IND d   1       0.413  -0.339   2.133  0.00  0.00     0.015 A 
ATOM      7  C7  IND d   1      -0.143   0.846   2.524  0.00  0.00    -0.016 A 
ATOM      8  C8  IND d   1       0.071   1.236   3.838  0.00  0.00    -0.047 A 
ATOM      9  C9  IND d   1       0.800   0.446   4.737  0.00  0.00    -0.096 A 
ATOM     10  HN1 IND d   1      -0.843   2.983   4.203  0.00  0.00     0.298 HD
ENDROOT
TORSDOF 0
ENDMDL
