MODEL 1
REMARK minimizedAffinity 23.0089397
REMARK minimizedRMSD -1
REMARK  0 active torsions:
REMARK  status: ('A' for Active; 'I' for Inactive)
ROOT
ATOM      1  N1  IND d   1       1.233  -1.807   1.918  0.00  0.00    -0.196 N 
ATOM      2  C2  IND d   1       0.322  -1.969   0.911  0.00  0.00     0.054 A 
ATOM      3  C3  IND d   1      -0.542  -0.930   0.887  0.00  0.00    -0.031 A 
ATOM      4  C4  IND d   1      -0.585   1.196   2.339  0.00  0.00     0.051 A 
ATOM      5  C5  IND d   1       0.023   1.777   3.415  0.00  0.00    -0.031 A 
ATOM      6  C6  IND d   1       1.089   1.183   4.059  0.00  0.00     0.015 A 
ATOM      7  C7  IND d   1       1.596  -0.015   3.641  0.00  0.00    -0.016 A 
ATOM      8  C8  IND d   1       0.976  -0.612   2.553  0.00  0.00    -0.047 A 
ATOM      9  C9  IND d   1      -0.133  -0.034   1.922  0.00  0.00    -0.096 A 
ATOM     10  HN1 IND d   1       1.860  -2.359   2.120  0.00  0.00     0.298 HD
ENDROOT
TORSDOF 0
ENDMDL
