MODEL 1
REMARK minimizedAffinity 16.8300629
REMARK minimizedRMSD -1
REMARK  0 active torsions:
REMARK  status: ('A' for Active; 'I' for Inactive)
ROOT
ATOM      1  N1  IND d   1       0.549  -0.614  -3.624  0.00  0.00    -0.196 N 
ATOM      2  C2  IND d   1       0.872  -0.832  -4.934  0.00  0.00     0.054 A 
ATOM      3  C3  IND d   1       0.157  -1.867  -5.429  0.00  0.00    -0.031 A 
ATOM      4  C4  IND d   1      -1.673  -3.280  -4.297  0.00  0.00     0.051 A 
ATOM      5  C5  IND d   1      -2.291  -3.479  -3.094  0.00  0.00    -0.031 A 
ATOM      6  C6  IND d   1      -1.989  -2.716  -1.985  0.00  0.00     0.015 A 
ATOM      7  C7  IND d   1      -1.062  -1.714  -2.040  0.00  0.00    -0.016 A 
ATOM      8  C8  IND d   1      -0.429  -1.513  -3.258  0.00  0.00    -0.047 A 
ATOM      9  C9  IND d   1      -0.700  -2.312  -4.376  0.00  0.00    -0.096 A 
ATOM     10  HN1 IND d   1       0.897  -0.016  -3.114  0.00  0.00     0.298 HD
ENDROOT
TORSDOF 0
ENDMDL
