MODEL 1
REMARK minimizedAffinity 21.2538853
REMARK minimizedRMSD -1
REMARK  0 active torsions:
REMARK  status: ('A' for Active; 'I' for Inactive)
ROOT
ATOM      1  N1  IND d   1       3.851   5.480   2.356  0.00  0.00    -0.196 N 
ATOM      2  C2  IND d   1       3.513   5.019   1.114  0.00  0.00     0.054 A 
ATOM      3  C3  IND d   1       3.521   3.667   1.096  0.00  0.00    -0.031 A 
ATOM      4  C4  IND d   1       3.959   2.008   3.015  0.00  0.00     0.051 A 
ATOM      5  C5  IND d   1       4.344   1.954   4.326  0.00  0.00    -0.031 A 
ATOM      6  C6  IND d   1       4.586   3.096   5.062  0.00  0.00     0.015 A 
ATOM      7  C7  IND d   1       4.441   4.340   4.516  0.00  0.00    -0.016 A 
ATOM      8  C8  IND d   1       4.057   4.398   3.184  0.00  0.00    -0.047 A 
ATOM      9  C9  IND d   1       3.852   3.243   2.419  0.00  0.00    -0.096 A 
ATOM     10  HN1 IND d   1       3.922   6.306   2.582  0.00  0.00     0.298 HD
ENDROOT
TORSDOF 0
ENDMDL
