MODEL 1
REMARK minimizedAffinity 1.62429941
REMARK minimizedRMSD -1
REMARK  0 active torsions:
REMARK  status: ('A' for Active; 'I' for Inactive)
ROOT
ATOM      1  N1  IND d   1       0.497  -1.243   3.287  0.00  0.00    -0.196 N 
ATOM      2  C2  IND d   1       0.524  -0.051   2.617  0.00  0.00     0.054 A 
ATOM      3  C3  IND d   1       1.495   0.747   3.115  0.00  0.00    -0.031 A 
ATOM      4  C4  IND d   1       3.223   0.263   4.960  0.00  0.00     0.051 A 
ATOM      5  C5  IND d   1       3.572  -0.676   5.890  0.00  0.00    -0.031 A 
ATOM      6  C6  IND d   1       2.902  -1.877   6.000  0.00  0.00     0.015 A 
ATOM      7  C7  IND d   1       1.861  -2.190   5.173  0.00  0.00    -0.016 A 
ATOM      8  C8  IND d   1       1.499  -1.236   4.232  0.00  0.00    -0.047 A 
ATOM      9  C9  IND d   1       2.148   0.002   4.144  0.00  0.00    -0.096 A 
ATOM     10  HN1 IND d   1      -0.053  -1.887   3.143  0.00  0.00     0.298 HD
ENDROOT
TORSDOF 0
ENDMDL
