MODEL 1
REMARK minimizedAffinity 16.1530304
REMARK minimizedRMSD -1
REMARK  0 active torsions:
REMARK  status: ('A' for Active; 'I' for Inactive)
ROOT
ATOM      1  N1  IND d   1      -1.933  -2.841  -4.286  0.00  0.00    -0.196 N 
ATOM      2  C2  IND d   1      -2.382  -2.322  -3.104  0.00  0.00     0.054 A 
ATOM      3  C3  IND d   1      -1.533  -1.371  -2.655  0.00  0.00    -0.031 A 
ATOM      4  C4  IND d   1       0.599  -0.432  -3.751  0.00  0.00     0.051 A 
ATOM      5  C5  IND d   1       1.432  -0.616  -4.819  0.00  0.00    -0.031 A 
ATOM      6  C6  IND d   1       1.179  -1.568  -5.785  0.00  0.00     0.015 A 
ATOM      7  C7  IND d   1       0.073  -2.368  -5.725  0.00  0.00    -0.016 A 
ATOM      8  C8  IND d   1      -0.771  -2.189  -4.638  0.00  0.00    -0.047 A 
ATOM      9  C9  IND d   1      -0.497  -1.253  -3.632  0.00  0.00    -0.096 A 
ATOM     10  HN1 IND d   1      -2.312  -3.469  -4.735  0.00  0.00     0.298 HD
ENDROOT
TORSDOF 0
ENDMDL
