MODEL 1
REMARK minimizedAffinity 16.5481739
REMARK minimizedRMSD -1
REMARK  0 active torsions:
REMARK  status: ('A' for Active; 'I' for Inactive)
ROOT
ATOM      1  C   UNL d   1       1.126   3.288  -0.502  0.00  0.00    -0.002 A 
ATOM      2  C1  UNL d   1      -0.029   2.944   0.185  0.00  0.00     0.010 A 
ATOM      3  C2  UNL d   1      -1.283   3.325  -0.297  0.00  0.00     0.041 A 
ATOM      4  C3  UNL d   1      -1.357   4.063  -1.494  0.00  0.00    -0.075 A 
ATOM      5  S   UNL d   1      -2.782   4.638  -2.275  0.00  0.00     0.015 SA
ATOM      6  C4  UNL d   1      -1.891   5.353  -3.540  0.00  0.00     0.022 A 
ATOM      7  C5  UNL d   1      -0.538   5.168  -3.386  0.00  0.00     0.026 A 
ATOM      8  C6  UNL d   1      -0.207   4.421  -2.205  0.00  0.00    -0.082 A 
ATOM      9  C7  UNL d   1       1.049   4.020  -1.690  0.00  0.00     0.045 A 
ENDROOT
TORSDOF 0
ENDMDL
