MODEL 1
REMARK minimizedAffinity 11.6918364
REMARK minimizedRMSD -1
REMARK  0 active torsions:
REMARK  status: ('A' for Active; 'I' for Inactive)
ROOT
ATOM      1  C   UNL d   1       5.216  -5.953  -0.904  0.00  0.00    -0.002 A 
ATOM      2  C1  UNL d   1       5.830  -4.840  -0.347  0.00  0.00     0.010 A 
ATOM      3  C2  UNL d   1       5.121  -3.650  -0.173  0.00  0.00     0.041 A 
ATOM      4  C3  UNL d   1       3.771  -3.597  -0.570  0.00  0.00    -0.075 A 
ATOM      5  S   UNL d   1       2.705  -2.247  -0.452  0.00  0.00     0.015 SA
ATOM      6  C4  UNL d   1       1.408  -3.116  -1.137  0.00  0.00     0.022 A 
ATOM      7  C5  UNL d   1       1.762  -4.406  -1.454  0.00  0.00     0.026 A 
ATOM      8  C6  UNL d   1       3.130  -4.705  -1.132  0.00  0.00    -0.082 A 
ATOM      9  C7  UNL d   1       3.876  -5.897  -1.297  0.00  0.00     0.045 A 
ENDROOT
TORSDOF 0
ENDMDL
