MODEL 1
REMARK minimizedAffinity 9.78805923
REMARK minimizedRMSD -1
REMARK  0 active torsions:
REMARK  status: ('A' for Active; 'I' for Inactive)
ROOT
ATOM      1  C   UNL d   1       1.270   4.078  -1.632  0.00  0.00    -0.002 A 
ATOM      2  C1  UNL d   1       2.335   4.298  -0.770  0.00  0.00     0.010 A 
ATOM      3  C2  UNL d   1       2.302   3.812   0.539  0.00  0.00     0.041 A 
ATOM      4  C3  UNL d   1       1.170   3.093   0.970  0.00  0.00    -0.075 A 
ATOM      5  S   UNL d   1       0.909   2.402   2.528  0.00  0.00     0.015 SA
ATOM      6  C4  UNL d   1      -0.622   1.798   2.086  0.00  0.00     0.022 A 
ATOM      7  C5  UNL d   1      -0.942   2.107   0.785  0.00  0.00     0.026 A 
ATOM      8  C6  UNL d   1       0.086   2.857   0.120  0.00  0.00    -0.082 A 
ATOM      9  C7  UNL d   1       0.149   3.364  -1.200  0.00  0.00     0.045 A 
ENDROOT
TORSDOF 0
ENDMDL
