MODEL 1
REMARK minimizedAffinity 13.0642023
REMARK minimizedRMSD -1
REMARK  0 active torsions:
REMARK  status: ('A' for Active; 'I' for Inactive)
ROOT
ATOM      1  C   UNL d   1      -0.192   3.748  -1.654  0.00  0.00    -0.002 A 
ATOM      2  C1  UNL d   1       1.113   4.109  -1.349  0.00  0.00     0.010 A 
ATOM      3  C2  UNL d   1       1.694   3.718  -0.141  0.00  0.00     0.041 A 
ATOM      4  C3  UNL d   1       0.935   2.949   0.763  0.00  0.00    -0.075 A 
ATOM      5  S   UNL d   1       1.439   2.356   2.301  0.00  0.00     0.015 SA
ATOM      6  C4  UNL d   1      -0.065   1.608   2.589  0.00  0.00     0.022 A 
ATOM      7  C5  UNL d   1      -0.943   1.797   1.548  0.00  0.00     0.026 A 
ATOM      8  C6  UNL d   1      -0.380   2.572   0.478  0.00  0.00    -0.082 A 
ATOM      9  C7  UNL d   1      -0.941   2.985  -0.754  0.00  0.00     0.045 A 
ENDROOT
TORSDOF 0
ENDMDL
