MODEL 1
REMARK minimizedAffinity 11.7888603
REMARK minimizedRMSD -1
REMARK  0 active torsions:
REMARK  status: ('A' for Active; 'I' for Inactive)
ROOT
ATOM      1  C   UNL d   1       4.467  -5.353  -3.976  0.00  0.00    -0.002 A 
ATOM      2  C1  UNL d   1       4.850  -5.785  -2.714  0.00  0.00     0.010 A 
ATOM      3  C2  UNL d   1       3.969  -5.695  -1.634  0.00  0.00     0.041 A 
ATOM      4  C3  UNL d   1       2.684  -5.160  -1.847  0.00  0.00    -0.075 A 
ATOM      5  S   UNL d   1       1.437  -4.953  -0.674  0.00  0.00     0.015 SA
ATOM      6  C4  UNL d   1       0.366  -4.288  -1.821  0.00  0.00     0.022 A 
ATOM      7  C5  UNL d   1       0.930  -4.217  -3.073  0.00  0.00     0.026 A 
ATOM      8  C6  UNL d   1       2.274  -4.719  -3.109  0.00  0.00    -0.082 A 
ATOM      9  C7  UNL d   1       3.191  -4.823  -4.183  0.00  0.00     0.045 A 
ENDROOT
TORSDOF 0
ENDMDL
