MODEL 1
REMARK minimizedAffinity 15.6543884
REMARK minimizedRMSD -1
REMARK  0 active torsions:
REMARK  status: ('A' for Active; 'I' for Inactive)
ROOT
ATOM      1  C   UNL d   1       5.940  -4.801  -2.458  0.00  0.00    -0.002 A 
ATOM      2  C1  UNL d   1       5.135  -5.684  -3.163  0.00  0.00     0.010 A 
ATOM      3  C2  UNL d   1       3.839  -5.967  -2.726  0.00  0.00     0.041 A 
ATOM      4  C3  UNL d   1       3.361  -5.340  -1.559  0.00  0.00    -0.075 A 
ATOM      5  S   UNL d   1       1.808  -5.534  -0.836  0.00  0.00     0.015 SA
ATOM      6  C4  UNL d   1       2.176  -4.448   0.425  0.00  0.00     0.022 A 
ATOM      7  C5  UNL d   1       3.449  -3.941   0.313  0.00  0.00     0.026 A 
ATOM      8  C6  UNL d   1       4.153  -4.446  -0.832  0.00  0.00    -0.082 A 
ATOM      9  C7  UNL d   1       5.462  -4.181  -1.300  0.00  0.00     0.045 A 
ENDROOT
TORSDOF 0
ENDMDL
