MODEL 1
REMARK minimizedAffinity 11.023653
REMARK minimizedRMSD -1
REMARK  0 active torsions:
REMARK  status: ('A' for Active; 'I' for Inactive)
ROOT
ATOM      1  C   UNL d   1       2.379   0.549   1.043  0.00  0.00    -0.002 A 
ATOM      2  C1  UNL d   1       2.201   0.153  -0.275  0.00  0.00     0.010 A 
ATOM      3  C2  UNL d   1       1.254   0.784  -1.084  0.00  0.00     0.041 A 
ATOM      4  C3  UNL d   1       0.483   1.831  -0.542  0.00  0.00    -0.075 A 
ATOM      5  S   UNL d   1      -0.735   2.749  -1.346  0.00  0.00     0.015 SA
ATOM      6  C4  UNL d   1      -1.047   3.689   0.041  0.00  0.00     0.022 A 
ATOM      7  C5  UNL d   1      -0.250   3.325   1.100  0.00  0.00     0.026 A 
ATOM      8  C6  UNL d   1       0.645   2.248   0.782  0.00  0.00    -0.082 A 
ATOM      9  C7  UNL d   1       1.613   1.589   1.577  0.00  0.00     0.045 A 
ENDROOT
TORSDOF 0
ENDMDL
