MODEL 1
REMARK minimizedAffinity 15.4992752
REMARK minimizedRMSD -1
REMARK  0 active torsions:
REMARK  status: ('A' for Active; 'I' for Inactive)
ROOT
ATOM      1  C   UNL d   1       0.048   1.452   1.236  0.00  0.00    -0.002 A 
ATOM      2  C1  UNL d   1      -1.292   1.793   1.125  0.00  0.00     0.010 A 
ATOM      3  C2  UNL d   1      -1.688   2.874   0.336  0.00  0.00     0.041 A 
ATOM      4  C3  UNL d   1      -0.703   3.614  -0.349  0.00  0.00    -0.075 A 
ATOM      5  S   UNL d   1      -0.953   4.977  -1.374  0.00  0.00     0.015 SA
ATOM      6  C4  UNL d   1       0.714   5.139  -1.690  0.00  0.00     0.022 A 
ATOM      7  C5  UNL d   1       1.457   4.185  -1.037  0.00  0.00     0.026 A 
ATOM      8  C6  UNL d   1       0.653   3.289  -0.254  0.00  0.00    -0.082 A 
ATOM      9  C7  UNL d   1       1.022   2.188   0.555  0.00  0.00     0.045 A 
ENDROOT
TORSDOF 0
ENDMDL
