MODEL 1
REMARK minimizedAffinity -3.79046154
REMARK minimizedRMSD -1
REMARK  1 active torsions:
REMARK  status: ('A' for Active; 'I' for Inactive)
REMARK    1  A    between atoms: C1_2  and  C2_3 
ROOT
ATOM      1  C2  UNL d   1       0.442   1.066  -0.334  0.00  0.00    -0.081 A 
ATOM      2  C3  UNL d   1       0.142  -0.299  -0.246  0.00  0.00     0.006 A 
ATOM      3  C4  UNL d   1      -0.739  -0.769   0.731  0.00  0.00     0.002 A 
ATOM      4  C5  UNL d   1      -1.340   0.118   1.631  0.00  0.00    -0.080 A 
ATOM      5  C6  UNL d   1      -2.310  -0.370   2.665  0.00  0.00     0.076 C 
ATOM      6  C7  UNL d   1      -1.026   1.479   1.554  0.00  0.00     0.002 A 
ATOM      7  C8  UNL d   1      -0.145   1.950   0.578  0.00  0.00     0.006 A 
ENDROOT
BRANCH   1   8
ATOM      8  C1  UNL d   1       1.341   1.584  -1.427  0.00  0.00     0.054 C 
ATOM      9  C   UNL d   1       0.612   1.644  -2.762  0.00  0.00     0.018 C 
ENDBRANCH   1   8
TORSDOF 1
ENDMDL
