MODEL 1
REMARK minimizedAffinity -3.45812058
REMARK minimizedRMSD -1
REMARK  1 active torsions:
REMARK  status: ('A' for Active; 'I' for Inactive)
REMARK    1  A    between atoms: C1_2  and  C2_3 
ROOT
ATOM      1  C2  UNL d   1      -0.443  -1.056   0.032  0.00  0.00    -0.081 A 
ATOM      2  C3  UNL d   1      -1.230  -0.199   0.812  0.00  0.00     0.006 A 
ATOM      3  C4  UNL d   1      -1.007   1.180   0.793  0.00  0.00     0.002 A 
ATOM      4  C5  UNL d   1      -0.000   1.726  -0.011  0.00  0.00    -0.080 A 
ATOM      5  C6  UNL d   1       0.229   3.207  -0.063  0.00  0.00     0.076 C 
ATOM      6  C7  UNL d   1       0.797   0.868  -0.777  0.00  0.00     0.002 A 
ATOM      7  C8  UNL d   1       0.575  -0.511  -0.758  0.00  0.00     0.006 A 
ENDROOT
BRANCH   1   8
ATOM      8  C1  UNL d   1      -0.723  -2.536   0.001  0.00  0.00     0.054 C 
ATOM      9  C   UNL d   1      -0.860  -3.044  -1.428  0.00  0.00     0.018 C 
ENDBRANCH   1   8
TORSDOF 1
ENDMDL
