MODEL 1
REMARK minimizedAffinity -4.59916401
REMARK minimizedRMSD -1
REMARK  1 active torsions:
REMARK  status: ('A' for Active; 'I' for Inactive)
REMARK    1  A    between atoms: C1_2  and  C2_3 
ROOT
ATOM      1  C2  UNL d   1       0.468  -0.667  -0.213  0.00  0.00    -0.081 A 
ATOM      2  C3  UNL d   1       1.661   0.066  -0.167  0.00  0.00     0.006 A 
ATOM      3  C4  UNL d   1       1.633   1.456  -0.033  0.00  0.00     0.002 A 
ATOM      4  C5  UNL d   1       0.415   2.135   0.067  0.00  0.00    -0.080 A 
ATOM      5  C6  UNL d   1       0.372   3.624   0.242  0.00  0.00     0.076 C 
ATOM      6  C7  UNL d   1      -0.777   1.406   0.004  0.00  0.00     0.002 A 
ATOM      7  C8  UNL d   1      -0.751   0.016  -0.132  0.00  0.00     0.006 A 
ENDROOT
BRANCH   1   8
ATOM      8  C1  UNL d   1       0.495  -2.172  -0.293  0.00  0.00     0.054 C 
ATOM      9  C   UNL d   1      -0.584  -2.696  -1.229  0.00  0.00     0.018 C 
ENDBRANCH   1   8
TORSDOF 1
ENDMDL
