MODEL 1
REMARK minimizedAffinity -2.71065927
REMARK minimizedRMSD -1
REMARK  1 active torsions:
REMARK  status: ('A' for Active; 'I' for Inactive)
REMARK    1  A    between atoms: C1_2  and  C2_3 
ROOT
ATOM      1  C2  UNL d   1      -0.020   1.562   0.604  0.00  0.00    -0.081 A 
ATOM      2  C3  UNL d   1      -1.272   0.955   0.766  0.00  0.00     0.006 A 
ATOM      3  C4  UNL d   1      -1.462  -0.382   0.411  0.00  0.00     0.002 A 
ATOM      4  C5  UNL d   1      -0.403  -1.138  -0.103  0.00  0.00    -0.080 A 
ATOM      5  C6  UNL d   1      -0.585  -2.583  -0.459  0.00  0.00     0.076 C 
ATOM      6  C7  UNL d   1       0.844  -0.527  -0.280  0.00  0.00     0.002 A 
ATOM      7  C8  UNL d   1       1.034   0.811   0.073  0.00  0.00     0.006 A 
ENDROOT
BRANCH   1   8
ATOM      8  C1  UNL d   1       0.204   2.985   1.046  0.00  0.00     0.054 C 
ATOM      9  C   UNL d   1       0.592   3.874  -0.127  0.00  0.00     0.018 C 
ENDBRANCH   1   8
TORSDOF 1
ENDMDL
