MODEL 1
REMARK minimizedAffinity -3.45821428
REMARK minimizedRMSD -1
REMARK  1 active torsions:
REMARK  status: ('A' for Active; 'I' for Inactive)
REMARK    1  A    between atoms: C1_2  and  C2_3 
ROOT
ATOM      1  C2  UNL d   1      -0.254   1.961   1.069  0.00  0.00    -0.081 A 
ATOM      2  C3  UNL d   1       0.679   1.806   0.037  0.00  0.00     0.006 A 
ATOM      3  C4  UNL d   1       0.756   0.605  -0.673  0.00  0.00     0.002 A 
ATOM      4  C5  UNL d   1      -0.103  -0.456  -0.368  0.00  0.00    -0.080 A 
ATOM      5  C6  UNL d   1      -0.051  -1.740  -1.143  0.00  0.00     0.076 C 
ATOM      6  C7  UNL d   1      -1.024  -0.307   0.674  0.00  0.00     0.002 A 
ATOM      7  C8  UNL d   1      -1.101   0.893   1.385  0.00  0.00     0.006 A 
ENDROOT
BRANCH   1   8
ATOM      8  C1  UNL d   1      -0.384   3.277   1.793  0.00  0.00     0.054 C 
ATOM      9  C   UNL d   1      -0.814   3.073   3.239  0.00  0.00     0.018 C 
ENDBRANCH   1   8
TORSDOF 1
ENDMDL
