MODEL 1
REMARK minimizedAffinity 1.3116926
REMARK minimizedRMSD -1
REMARK  1 active torsions:
REMARK  status: ('A' for Active; 'I' for Inactive)
REMARK    1  A    between atoms: C1_2  and  C2_3 
ROOT
ATOM      1  C2  UNL d   1      -0.393  -1.065  -1.126  0.00  0.00    -0.081 A 
ATOM      2  C3  UNL d   1      -0.016  -1.019   0.222  0.00  0.00     0.006 A 
ATOM      3  C4  UNL d   1      -0.053   0.186   0.927  0.00  0.00     0.002 A 
ATOM      4  C5  UNL d   1      -0.474   1.363   0.300  0.00  0.00    -0.080 A 
ATOM      5  C6  UNL d   1      -0.547   2.657   1.054  0.00  0.00     0.076 C 
ATOM      6  C7  UNL d   1      -0.834   1.321  -1.051  0.00  0.00     0.002 A 
ATOM      7  C8  UNL d   1      -0.797   0.117  -1.757  0.00  0.00     0.006 A 
ENDROOT
BRANCH   1   8
ATOM      8  C1  UNL d   1      -0.417  -2.374  -1.872  0.00  0.00     0.054 C 
ATOM      9  C   UNL d   1      -1.800  -3.009  -1.833  0.00  0.00     0.018 C 
ENDBRANCH   1   8
TORSDOF 1
ENDMDL
