MODEL 1
REMARK minimizedAffinity -4.08240557
REMARK minimizedRMSD -1
REMARK  1 active torsions:
REMARK  status: ('A' for Active; 'I' for Inactive)
REMARK    1  A    between atoms: C1_2  and  C2_3 
ROOT
ATOM      1  C2  UNL d   1       0.147  -0.661   0.244  0.00  0.00    -0.081 A 
ATOM      2  C3  UNL d   1       1.377   0.007   0.204  0.00  0.00     0.006 A 
ATOM      3  C4  UNL d   1       1.424   1.403   0.190  0.00  0.00     0.002 A 
ATOM      4  C5  UNL d   1       0.243   2.154   0.223  0.00  0.00    -0.080 A 
ATOM      5  C6  UNL d   1       0.281   3.653   0.239  0.00  0.00     0.076 C 
ATOM      6  C7  UNL d   1      -0.986   1.486   0.245  0.00  0.00     0.002 A 
ATOM      7  C8  UNL d   1      -1.033   0.090   0.259  0.00  0.00     0.006 A 
ENDROOT
BRANCH   1   8
ATOM      8  C1  UNL d   1       0.095  -2.165   0.325  0.00  0.00     0.054 C 
ATOM      9  C   UNL d   1      -0.109  -2.787  -1.050  0.00  0.00     0.018 C 
ENDBRANCH   1   8
TORSDOF 1
ENDMDL
