MODEL 1
REMARK minimizedAffinity -0.792394042
REMARK minimizedRMSD -1
REMARK  1 active torsions:
REMARK  status: ('A' for Active; 'I' for Inactive)
REMARK    1  A    between atoms: C1_2  and  C2_3 
ROOT
ATOM      1  C2  UNL d   1       0.268   0.907   0.012  0.00  0.00    -0.081 A 
ATOM      2  C3  UNL d   1       1.617   0.531  -0.027  0.00  0.00     0.006 A 
ATOM      3  C4  UNL d   1       2.072  -0.375  -0.987  0.00  0.00     0.002 A 
ATOM      4  C5  UNL d   1       1.190  -0.914  -1.929  0.00  0.00    -0.080 A 
ATOM      5  C6  UNL d   1       1.672  -1.865  -2.984  0.00  0.00     0.076 C 
ATOM      6  C7  UNL d   1      -0.161  -0.552  -1.880  0.00  0.00     0.002 A 
ATOM      7  C8  UNL d   1      -0.617   0.354  -0.920  0.00  0.00     0.006 A 
ENDROOT
BRANCH   1   8
ATOM      8  C1  UNL d   1      -0.213   1.934   1.005  0.00  0.00     0.054 C 
ATOM      9  C   UNL d   1      -0.108   3.343   0.439  0.00  0.00     0.018 C 
ENDBRANCH   1   8
TORSDOF 1
ENDMDL
