MODEL 1
REMARK minimizedAffinity -4.76445293
REMARK minimizedRMSD -1
REMARK  1 active torsions:
REMARK  status: ('A' for Active; 'I' for Inactive)
REMARK    1  A    between atoms: C1_2  and  C2_3 
ROOT
ATOM      1  C2  UNL d   1       0.499  -1.339  -0.233  0.00  0.00    -0.081 A 
ATOM      2  C3  UNL d   1      -0.702  -0.695  -0.554  0.00  0.00     0.006 A 
ATOM      3  C4  UNL d   1      -0.816   0.692  -0.434  0.00  0.00     0.002 A 
ATOM      4  C5  UNL d   1       0.270   1.459   0.001  0.00  0.00    -0.080 A 
ATOM      5  C6  UNL d   1       0.170   2.952   0.105  0.00  0.00     0.076 C 
ATOM      6  C7  UNL d   1       1.465   0.814   0.338  0.00  0.00     0.002 A 
ATOM      7  C8  UNL d   1       1.580  -0.573   0.219  0.00  0.00     0.006 A 
ENDROOT
BRANCH   1   8
ATOM      8  C1  UNL d   1       0.646  -2.827  -0.423  0.00  0.00     0.054 C 
ATOM      9  C   UNL d   1      -0.333  -3.351  -1.463  0.00  0.00     0.018 C 
ENDBRANCH   1   8
TORSDOF 1
ENDMDL
