MODEL 1
REMARK minimizedAffinity -3.93471265
REMARK minimizedRMSD -1
REMARK  1 active torsions:
REMARK  status: ('A' for Active; 'I' for Inactive)
REMARK    1  A    between atoms: C1_2  and  C2_3 
ROOT
ATOM      1  C2  UNL d   1      -0.109  -0.130   0.314  0.00  0.00    -0.081 A 
ATOM      2  C3  UNL d   1      -1.132   0.820   0.428  0.00  0.00     0.006 A 
ATOM      3  C4  UNL d   1      -0.863   2.176   0.228  0.00  0.00     0.002 A 
ATOM      4  C5  UNL d   1       0.429   2.604  -0.095  0.00  0.00    -0.080 A 
ATOM      5  C6  UNL d   1       0.725   4.054  -0.341  0.00  0.00     0.076 C 
ATOM      6  C7  UNL d   1       1.454   1.657  -0.191  0.00  0.00     0.002 A 
ATOM      7  C8  UNL d   1       1.186   0.301   0.009  0.00  0.00     0.006 A 
ENDROOT
BRANCH   1   8
ATOM      8  C1  UNL d   1      -0.409  -1.600   0.465  0.00  0.00     0.054 C 
ATOM      9  C   UNL d   1      -0.551  -2.277  -0.891  0.00  0.00     0.018 C 
ENDBRANCH   1   8
TORSDOF 1
ENDMDL
