MODEL 1
REMARK minimizedAffinity 4.9137826
REMARK minimizedRMSD -1
REMARK  1 active torsions:
REMARK  status: ('A' for Active; 'I' for Inactive)
REMARK    1  A    between atoms: C1_2  and  C2_3 
ROOT
ATOM      1  C2  UNL d   1       0.376  -0.065  -0.594  0.00  0.00    -0.081 A 
ATOM      2  C3  UNL d   1       1.391  -0.739   0.096  0.00  0.00     0.006 A 
ATOM      3  C4  UNL d   1       2.685  -0.213   0.144  0.00  0.00     0.002 A 
ATOM      4  C5  UNL d   1       2.983   0.997  -0.491  0.00  0.00    -0.080 A 
ATOM      5  C6  UNL d   1       4.360   1.588  -0.422  0.00  0.00     0.076 C 
ATOM      6  C7  UNL d   1       1.973   1.661  -1.196  0.00  0.00     0.002 A 
ATOM      7  C8  UNL d   1       0.680   1.136  -1.244  0.00  0.00     0.006 A 
ENDROOT
BRANCH   1   8
ATOM      8  C1  UNL d   1      -1.034  -0.596  -0.593  0.00  0.00     0.054 C 
ATOM      9  C   UNL d   1      -1.258  -1.571   0.555  0.00  0.00     0.018 C 
ENDBRANCH   1   8
TORSDOF 1
ENDMDL
