MODEL 1
REMARK minimizedAffinity -3.05116796
REMARK minimizedRMSD -1
REMARK  1 active torsions:
REMARK  status: ('A' for Active; 'I' for Inactive)
REMARK    1  A    between atoms: C1_2  and  C2_3 
ROOT
ATOM      1  C2  UNL d   1      -0.209  -0.648   0.307  0.00  0.00    -0.081 A 
ATOM      2  C3  UNL d   1       0.950  -0.144  -0.296  0.00  0.00     0.006 A 
ATOM      3  C4  UNL d   1       1.110   1.231  -0.484  0.00  0.00     0.002 A 
ATOM      4  C5  UNL d   1       0.118   2.124  -0.065  0.00  0.00    -0.080 A 
ATOM      5  C6  UNL d   1       0.291   3.605  -0.233  0.00  0.00     0.076 C 
ATOM      6  C7  UNL d   1      -1.047   1.620   0.522  0.00  0.00     0.002 A 
ATOM      7  C8  UNL d   1      -1.208   0.245   0.709  0.00  0.00     0.006 A 
ENDROOT
BRANCH   1   8
ATOM      8  C1  UNL d   1      -0.356  -2.125   0.570  0.00  0.00     0.054 C 
ATOM      9  C   UNL d   1      -1.133  -2.811  -0.545  0.00  0.00     0.018 C 
ENDBRANCH   1   8
TORSDOF 1
ENDMDL
