MODEL 1
REMARK minimizedAffinity 7.8170433
REMARK minimizedRMSD -1
REMARK  0 active torsions:
REMARK  status: ('A' for Active; 'I' for Inactive)
ROOT
ATOM      1  C   UNL d   1       5.247   2.547  -4.760  0.00  0.00     0.077 C 
ATOM      2  C1  UNL d   1       4.960   3.749  -3.909  0.00  0.00    -0.074 A 
ATOM      3  C2  UNL d   1       6.000   4.512  -3.369  0.00  0.00    -0.005 A 
ATOM      4  C3  UNL d   1       5.718   5.632  -2.588  0.00  0.00     0.006 A 
ATOM      5  C4  UNL d   1       4.395   6.000  -2.338  0.00  0.00    -0.005 A 
ATOM      6  C5  UNL d   1       3.342   5.249  -2.871  0.00  0.00    -0.074 A 
ATOM      7  C6  UNL d   1       1.914   5.636  -2.620  0.00  0.00     0.077 C 
ATOM      8  C7  UNL d   1       3.634   4.129  -3.661  0.00  0.00    -0.001 A 
ENDROOT
TORSDOF 0
ENDMDL
