MODEL 1
REMARK minimizedAffinity 0.562664151
REMARK minimizedRMSD -1
REMARK  0 active torsions:
REMARK  status: ('A' for Active; 'I' for Inactive)
ROOT
ATOM      1  C   UNL d   1       4.019  -3.064   1.645  0.00  0.00     0.077 C 
ATOM      2  C1  UNL d   1       4.120  -2.932   3.136  0.00  0.00    -0.074 A 
ATOM      3  C2  UNL d   1       3.361  -1.982   3.826  0.00  0.00    -0.005 A 
ATOM      4  C3  UNL d   1       3.458  -1.877   5.214  0.00  0.00     0.006 A 
ATOM      5  C4  UNL d   1       4.314  -2.719   5.924  0.00  0.00    -0.005 A 
ATOM      6  C5  UNL d   1       5.081  -3.676   5.251  0.00  0.00    -0.074 A 
ATOM      7  C6  UNL d   1       5.998  -4.596   5.999  0.00  0.00     0.077 C 
ATOM      8  C7  UNL d   1       4.972  -3.780   3.857  0.00  0.00    -0.001 A 
ENDROOT
TORSDOF 0
ENDMDL
