MODEL 1
REMARK minimizedAffinity 5.8875308
REMARK minimizedRMSD -1
REMARK  0 active torsions:
REMARK  status: ('A' for Active; 'I' for Inactive)
ROOT
ATOM      1  C   UNL d   1       3.055  -1.864   1.829  0.00  0.00     0.077 C 
ATOM      2  C1  UNL d   1       3.420  -1.828   3.284  0.00  0.00    -0.074 A 
ATOM      3  C2  UNL d   1       2.693  -1.046   4.187  0.00  0.00    -0.005 A 
ATOM      4  C3  UNL d   1       3.038  -1.029   5.539  0.00  0.00     0.006 A 
ATOM      5  C4  UNL d   1       4.111  -1.793   6.000  0.00  0.00    -0.005 A 
ATOM      6  C5  UNL d   1       4.848  -2.582   5.111  0.00  0.00    -0.074 A 
ATOM      7  C6  UNL d   1       5.998  -3.417   5.592  0.00  0.00     0.077 C 
ATOM      8  C7  UNL d   1       4.491  -2.599   3.756  0.00  0.00    -0.001 A 
ENDROOT
TORSDOF 0
ENDMDL
