MODEL 1
REMARK minimizedAffinity 18.9489765
REMARK minimizedRMSD -1
REMARK  0 active torsions:
REMARK  status: ('A' for Active; 'I' for Inactive)
ROOT
ATOM      1  C   UNL d   1       5.992  -5.210   5.997  0.00  0.00     0.077 C 
ATOM      2  C1  UNL d   1       5.216  -4.176   5.237  0.00  0.00    -0.074 A 
ATOM      3  C2  UNL d   1       5.123  -4.229   3.842  0.00  0.00    -0.005 A 
ATOM      4  C3  UNL d   1       4.390  -3.265   3.149  0.00  0.00     0.006 A 
ATOM      5  C4  UNL d   1       3.744  -2.242   3.843  0.00  0.00    -0.005 A 
ATOM      6  C5  UNL d   1       3.824  -2.173   5.237  0.00  0.00    -0.074 A 
ATOM      7  C6  UNL d   1       3.127  -1.085   5.999  0.00  0.00     0.077 C 
ATOM      8  C7  UNL d   1       4.557  -3.149   5.927  0.00  0.00    -0.001 A 
ENDROOT
TORSDOF 0
ENDMDL
