MODEL 1
REMARK minimizedAffinity 4.27533054
REMARK minimizedRMSD -1
REMARK  0 active torsions:
REMARK  status: ('A' for Active; 'I' for Inactive)
ROOT
ATOM      1  C   UNL d   1       1.912   5.856  -2.859  0.00  0.00     0.077 C 
ATOM      2  C1  UNL d   1       3.340   5.413  -2.969  0.00  0.00    -0.074 A 
ATOM      3  C2  UNL d   1       4.220   5.547  -1.889  0.00  0.00    -0.005 A 
ATOM      4  C3  UNL d   1       5.543   5.121  -2.003  0.00  0.00     0.006 A 
ATOM      5  C4  UNL d   1       5.999   4.558  -3.195  0.00  0.00    -0.005 A 
ATOM      6  C5  UNL d   1       5.134   4.414  -4.285  0.00  0.00    -0.074 A 
ATOM      7  C6  UNL d   1       5.607   3.801  -5.569  0.00  0.00     0.077 C 
ATOM      8  C7  UNL d   1       3.804   4.838  -4.160  0.00  0.00    -0.001 A 
ENDROOT
TORSDOF 0
ENDMDL
