MODEL 1
REMARK minimizedAffinity 4.66172075
REMARK minimizedRMSD -1
REMARK  0 active torsions:
REMARK  status: ('A' for Active; 'I' for Inactive)
ROOT
ATOM      1  C   UNL d   1       3.011  -2.404   2.324  0.00  0.00     0.077 C 
ATOM      2  C1  UNL d   1       3.782  -2.264   3.603  0.00  0.00    -0.074 A 
ATOM      3  C2  UNL d   1       3.777  -1.062   4.318  0.00  0.00    -0.005 A 
ATOM      4  C3  UNL d   1       4.491  -0.950   5.511  0.00  0.00     0.006 A 
ATOM      5  C4  UNL d   1       5.217  -2.037   6.000  0.00  0.00    -0.005 A 
ATOM      6  C5  UNL d   1       5.233  -3.247   5.299  0.00  0.00    -0.074 A 
ATOM      7  C6  UNL d   1       6.000  -4.429   5.816  0.00  0.00     0.077 C 
ATOM      8  C7  UNL d   1       4.507  -3.354   4.105  0.00  0.00    -0.001 A 
ENDROOT
TORSDOF 0
ENDMDL
