MODEL 1
REMARK minimizedAffinity 1.91045558
REMARK minimizedRMSD -1
REMARK  0 active torsions:
REMARK  status: ('A' for Active; 'I' for Inactive)
ROOT
ATOM      1  C   UNL d   1      -1.500  -1.856   1.911  0.00  0.00     0.077 C 
ATOM      2  C1  UNL d   1      -1.501  -2.316   0.483  0.00  0.00    -0.074 A 
ATOM      3  C2  UNL d   1      -2.492  -3.180   0.008  0.00  0.00    -0.005 A 
ATOM      4  C3  UNL d   1      -2.487  -3.592  -1.325  0.00  0.00     0.006 A 
ATOM      5  C4  UNL d   1      -1.491  -3.143  -2.194  0.00  0.00    -0.005 A 
ATOM      6  C5  UNL d   1      -0.492  -2.278  -1.737  0.00  0.00    -0.074 A 
ATOM      7  C6  UNL d   1       0.579  -1.779  -2.660  0.00  0.00     0.077 C 
ATOM      8  C7  UNL d   1      -0.509  -1.864  -0.398  0.00  0.00    -0.001 A 
ENDROOT
TORSDOF 0
ENDMDL
