MODEL 1
REMARK minimizedAffinity 4.81147766
REMARK minimizedRMSD -1
REMARK  0 active torsions:
REMARK  status: ('A' for Active; 'I' for Inactive)
ROOT
ATOM      1  C   UNL d   1       0.483   3.535   1.128  0.00  0.00     0.077 C 
ATOM      2  C1  UNL d   1      -0.662   2.568   1.166  0.00  0.00    -0.074 A 
ATOM      3  C2  UNL d   1      -1.893   2.933   1.721  0.00  0.00    -0.005 A 
ATOM      4  C3  UNL d   1      -2.952   2.026   1.741  0.00  0.00     0.006 A 
ATOM      5  C4  UNL d   1      -2.792   0.747   1.206  0.00  0.00    -0.005 A 
ATOM      6  C5  UNL d   1      -1.569   0.365   0.646  0.00  0.00    -0.074 A 
ATOM      7  C6  UNL d   1      -1.383  -1.002   0.058  0.00  0.00     0.077 C 
ATOM      8  C7  UNL d   1      -0.512   1.284   0.624  0.00  0.00    -0.001 A 
ENDROOT
TORSDOF 0
ENDMDL
