MODEL 1
REMARK minimizedAffinity 4.18926239
REMARK minimizedRMSD -1
REMARK  0 active torsions:
REMARK  status: ('A' for Active; 'I' for Inactive)
ROOT
ATOM      1  C   UNL d   1       2.158   5.520  -4.167  0.00  0.00     0.077 C 
ATOM      2  C1  UNL d   1       3.489   5.045  -3.667  0.00  0.00    -0.074 A 
ATOM      3  C2  UNL d   1       4.136   3.959  -4.266  0.00  0.00    -0.005 A 
ATOM      4  C3  UNL d   1       5.379   3.534  -3.797  0.00  0.00     0.006 A 
ATOM      5  C4  UNL d   1       5.987   4.190  -2.725  0.00  0.00    -0.005 A 
ATOM      6  C5  UNL d   1       5.356   5.278  -2.114  0.00  0.00    -0.074 A 
ATOM      7  C6  UNL d   1       6.000   5.999  -0.968  0.00  0.00     0.077 C 
ATOM      8  C7  UNL d   1       4.110   5.703  -2.596  0.00  0.00    -0.001 A 
ENDROOT
TORSDOF 0
ENDMDL
