MODEL 1
REMARK minimizedAffinity 3.82225084
REMARK minimizedRMSD -1
REMARK  0 active torsions:
REMARK  status: ('A' for Active; 'I' for Inactive)
ROOT
ATOM      1  C   UNL d   1      -0.493  -5.625  -3.750  0.00  0.00     0.077 C 
ATOM      2  C1  UNL d   1      -0.242  -4.284  -3.126  0.00  0.00    -0.074 A 
ATOM      3  C2  UNL d   1       0.671  -3.388  -3.692  0.00  0.00    -0.005 A 
ATOM      4  C3  UNL d   1       0.888  -2.141  -3.106  0.00  0.00     0.006 A 
ATOM      5  C4  UNL d   1       0.195  -1.778  -1.951  0.00  0.00    -0.005 A 
ATOM      6  C5  UNL d   1      -0.723  -2.660  -1.372  0.00  0.00    -0.074 A 
ATOM      7  C6  UNL d   1      -1.483  -2.281  -0.136  0.00  0.00     0.077 C 
ATOM      8  C7  UNL d   1      -0.940  -3.909  -1.970  0.00  0.00    -0.001 A 
ENDROOT
TORSDOF 0
ENDMDL
