MODEL 1
REMARK minimizedAffinity 2.05043769
REMARK minimizedRMSD -1
REMARK  0 active torsions:
REMARK  status: ('A' for Active; 'I' for Inactive)
ROOT
ATOM      1  C   UNL d   1      -1.430  -2.690  -0.654  0.00  0.00     0.077 C 
ATOM      2  C1  UNL d   1      -1.567  -1.684   0.449  0.00  0.00    -0.074 A 
ATOM      3  C2  UNL d   1      -2.072  -2.053   1.700  0.00  0.00    -0.005 A 
ATOM      4  C3  UNL d   1      -2.184  -1.108   2.720  0.00  0.00     0.006 A 
ATOM      5  C4  UNL d   1      -1.794   0.213   2.500  0.00  0.00    -0.005 A 
ATOM      6  C5  UNL d   1      -1.286   0.601   1.256  0.00  0.00    -0.074 A 
ATOM      7  C6  UNL d   1      -0.853   2.015   1.005  0.00  0.00     0.077 C 
ATOM      8  C7  UNL d   1      -1.170  -0.356   0.238  0.00  0.00    -0.001 A 
ENDROOT
TORSDOF 0
ENDMDL
