MODEL 1
REMARK minimizedAffinity 3.68071651
REMARK minimizedRMSD -1
REMARK  0 active torsions:
REMARK  status: ('A' for Active; 'I' for Inactive)
ROOT
ATOM      1  C   UNL d   1       4.191  -2.082  -0.628  0.00  0.00     0.077 C 
ATOM      2  C1  UNL d   1       3.040  -2.027  -1.588  0.00  0.00    -0.074 A 
ATOM      3  C2  UNL d   1       3.258  -1.929  -2.966  0.00  0.00    -0.005 A 
ATOM      4  C3  UNL d   1       2.178  -1.888  -3.847  0.00  0.00     0.006 A 
ATOM      5  C4  UNL d   1       0.871  -1.944  -3.361  0.00  0.00    -0.005 A 
ATOM      6  C5  UNL d   1       0.634  -2.043  -1.986  0.00  0.00    -0.074 A 
ATOM      7  C6  UNL d   1      -0.764  -2.115  -1.447  0.00  0.00     0.077 C 
ATOM      8  C7  UNL d   1       1.725  -2.091  -1.107  0.00  0.00    -0.001 A 
ENDROOT
TORSDOF 0
ENDMDL
