MODEL 1
REMARK minimizedAffinity -0.461898893
REMARK minimizedRMSD -1
REMARK  0 active torsions:
REMARK  status: ('A' for Active; 'I' for Inactive)
ROOT
ATOM      1  C   UNL d   1       2.133   5.997  -3.376  0.00  0.00     0.077 C 
ATOM      2  C1  UNL d   1       3.483   5.345  -3.332  0.00  0.00    -0.074 A 
ATOM      3  C2  UNL d   1       4.186   5.228  -2.129  0.00  0.00    -0.005 A 
ATOM      4  C3  UNL d   1       5.437   4.611  -2.102  0.00  0.00     0.006 A 
ATOM      5  C4  UNL d   1       5.996   4.106  -3.276  0.00  0.00    -0.005 A 
ATOM      6  C5  UNL d   1       5.308   4.213  -4.489  0.00  0.00    -0.074 A 
ATOM      7  C6  UNL d   1       5.891   3.667  -5.758  0.00  0.00     0.077 C 
ATOM      8  C7  UNL d   1       4.049   4.828  -4.506  0.00  0.00    -0.001 A 
ENDROOT
TORSDOF 0
ENDMDL
