MODEL 1
REMARK minimizedAffinity 5.5127039
REMARK minimizedRMSD -1
REMARK  0 active torsions:
REMARK  status: ('A' for Active; 'I' for Inactive)
ROOT
ATOM      1  C   UNL d   1      -4.251  -2.510   0.530  0.00  0.00     0.077 C 
ATOM      2  C1  UNL d   1      -2.765  -2.634   0.371  0.00  0.00    -0.074 A 
ATOM      3  C2  UNL d   1      -1.963  -3.074   1.429  0.00  0.00    -0.005 A 
ATOM      4  C3  UNL d   1      -0.583  -3.193   1.264  0.00  0.00     0.006 A 
ATOM      5  C4  UNL d   1       0.008  -2.873   0.041  0.00  0.00    -0.005 A 
ATOM      6  C5  UNL d   1      -0.778  -2.433  -1.029  0.00  0.00    -0.074 A 
ATOM      7  C6  UNL d   1      -0.160  -2.095  -2.353  0.00  0.00     0.077 C 
ATOM      8  C7  UNL d   1      -2.164  -2.322  -0.857  0.00  0.00    -0.001 A 
ENDROOT
TORSDOF 0
ENDMDL
