MODEL 1
REMARK minimizedAffinity 6.69851112
REMARK minimizedRMSD -1
REMARK  0 active torsions:
REMARK  status: ('A' for Active; 'I' for Inactive)
ROOT
ATOM      1  C   UNL d   1      -1.296  -2.637   0.081  0.00  0.00     0.077 C 
ATOM      2  C1  UNL d   1      -0.606  -2.694  -1.250  0.00  0.00    -0.074 A 
ATOM      3  C2  UNL d   1       0.096  -1.589  -1.743  0.00  0.00    -0.005 A 
ATOM      4  C3  UNL d   1       0.741  -1.659  -2.978  0.00  0.00     0.006 A 
ATOM      5  C4  UNL d   1       0.689  -2.833  -3.731  0.00  0.00    -0.005 A 
ATOM      6  C5  UNL d   1      -0.007  -3.948  -3.254  0.00  0.00    -0.074 A 
ATOM      7  C6  UNL d   1      -0.064  -5.220  -4.047  0.00  0.00     0.077 C 
ATOM      8  C7  UNL d   1      -0.646  -3.871  -2.009  0.00  0.00    -0.001 A 
ENDROOT
TORSDOF 0
ENDMDL
