MODEL 1
REMARK minimizedAffinity 3.51724863
REMARK minimizedRMSD -1
REMARK  0 active torsions:
REMARK  status: ('A' for Active; 'I' for Inactive)
ROOT
ATOM      1  C   UNL d   1      -1.587  -3.006   0.044  0.00  0.00     0.077 C 
ATOM      2  C1  UNL d   1      -0.897  -2.877  -1.281  0.00  0.00    -0.074 A 
ATOM      3  C2  UNL d   1       0.021  -1.849  -1.516  0.00  0.00    -0.005 A 
ATOM      4  C3  UNL d   1       0.662  -1.747  -2.751  0.00  0.00     0.006 A 
ATOM      5  C4  UNL d   1       0.392  -2.671  -3.761  0.00  0.00    -0.005 A 
ATOM      6  C5  UNL d   1      -0.522  -3.707  -3.544  0.00  0.00    -0.074 A 
ATOM      7  C6  UNL d   1      -0.817  -4.714  -4.615  0.00  0.00     0.077 C 
ATOM      8  C7  UNL d   1      -1.157  -3.807  -2.298  0.00  0.00    -0.001 A 
ENDROOT
TORSDOF 0
ENDMDL
