MODEL 1
REMARK minimizedAffinity -4.93763638
REMARK minimizedRMSD -1
REMARK  0 active torsions:
REMARK  status: ('A' for Active; 'I' for Inactive)
ROOT
ATOM      1  N1  IND d   1      -1.003   0.227  -0.502  0.00  0.00    -0.196 N 
ATOM      2  C2  IND d   1      -0.690   1.371   0.178  0.00  0.00     0.054 A 
ATOM      3  C3  IND d   1       0.541   1.269   0.728  0.00  0.00    -0.031 A 
ATOM      4  C4  IND d   1       2.256  -0.643   0.555  0.00  0.00     0.051 A 
ATOM      5  C5  IND d   1       2.410  -1.911   0.071  0.00  0.00    -0.031 A 
ATOM      6  C6  IND d   1       1.415  -2.544  -0.646  0.00  0.00     0.015 A 
ATOM      7  C7  IND d   1       0.228  -1.924  -0.916  0.00  0.00    -0.016 A 
ATOM      8  C8  IND d   1       0.066  -0.638  -0.420  0.00  0.00    -0.047 A 
ATOM      9  C9  IND d   1       1.055  -0.007   0.345  0.00  0.00    -0.096 A 
ATOM     10  HN1 IND d   1      -1.743   0.074  -0.912  0.00  0.00     0.298 HD
ENDROOT
TORSDOF 0
ENDMDL
