MODEL 1
REMARK minimizedAffinity -1.77940607
REMARK minimizedRMSD -1
REMARK  0 active torsions:
REMARK  status: ('A' for Active; 'I' for Inactive)
ROOT
ATOM      1  N1  IND d   1      -0.771   1.094  -0.237  0.00  0.00    -0.196 N 
ATOM      2  C2  IND d   1      -1.716   0.105  -0.222  0.00  0.00     0.054 A 
ATOM      3  C3  IND d   1      -1.130  -1.106  -0.353  0.00  0.00    -0.031 A 
ATOM      4  C4  IND d   1       1.368  -1.708  -0.504  0.00  0.00     0.051 A 
ATOM      5  C5  IND d   1       2.609  -1.142  -0.595  0.00  0.00    -0.031 A 
ATOM      6  C6  IND d   1       2.790   0.226  -0.568  0.00  0.00     0.015 A 
ATOM      7  C7  IND d   1       1.734   1.082  -0.437  0.00  0.00    -0.016 A 
ATOM      8  C8  IND d   1       0.472   0.511  -0.351  0.00  0.00    -0.047 A 
ATOM      9  C9  IND d   1       0.278  -0.875  -0.421  0.00  0.00    -0.096 A 
ATOM     10  HN1 IND d   1      -0.928   1.938  -0.184  0.00  0.00     0.298 HD
ENDROOT
TORSDOF 0
ENDMDL
