MODEL 1
REMARK minimizedAffinity -2.23774076
REMARK minimizedRMSD -1
REMARK  0 active torsions:
REMARK  status: ('A' for Active; 'I' for Inactive)
ROOT
ATOM      1  N1  IND d   1      -0.292   0.248   0.849  0.00  0.00    -0.196 N 
ATOM      2  C2  IND d   1       0.025   0.383  -0.474  0.00  0.00     0.054 A 
ATOM      3  C3  IND d   1      -1.082   0.666  -1.196  0.00  0.00    -0.031 A 
ATOM      4  C4  IND d   1      -3.499   1.054  -0.400  0.00  0.00     0.051 A 
ATOM      5  C5  IND d   1      -4.287   1.004   0.716  0.00  0.00    -0.031 A 
ATOM      6  C6  IND d   1      -3.773   0.695   1.959  0.00  0.00     0.015 A 
ATOM      7  C7  IND d   1      -2.443   0.435   2.134  0.00  0.00    -0.016 A 
ATOM      8  C8  IND d   1      -1.641   0.479   1.003  0.00  0.00    -0.047 A 
ATOM      9  C9  IND d   1      -2.165   0.750  -0.268  0.00  0.00    -0.096 A 
ATOM     10  HN1 IND d   1       0.259   0.052   1.479  0.00  0.00     0.298 HD
ENDROOT
TORSDOF 0
ENDMDL
