MODEL 1
REMARK minimizedAffinity -5.31331778
REMARK minimizedRMSD -1
REMARK  0 active torsions:
REMARK  status: ('A' for Active; 'I' for Inactive)
ROOT
ATOM      1  N1  IND d   1      -0.657   0.983  -0.173  0.00  0.00    -0.196 N 
ATOM      2  C2  IND d   1      -1.465   0.157  -0.905  0.00  0.00     0.054 A 
ATOM      3  C3  IND d   1      -0.869  -1.043  -1.087  0.00  0.00    -0.031 A 
ATOM      4  C4  IND d   1       1.384  -1.904  -0.187  0.00  0.00     0.051 A 
ATOM      5  C5  IND d   1       2.494  -1.501   0.501  0.00  0.00    -0.031 A 
ATOM      6  C6  IND d   1       2.612  -0.224   1.012  0.00  0.00     0.015 A 
ATOM      7  C7  IND d   1       1.614   0.697   0.863  0.00  0.00    -0.016 A 
ATOM      8  C8  IND d   1       0.489   0.294   0.159  0.00  0.00    -0.047 A 
ATOM      9  C9  IND d   1       0.381  -0.987  -0.398  0.00  0.00    -0.096 A 
ATOM     10  HN1 IND d   1      -0.835   1.796   0.043  0.00  0.00     0.298 HD
ENDROOT
TORSDOF 0
ENDMDL
