MODEL 1
REMARK minimizedAffinity 0.715199172
REMARK minimizedRMSD -1
REMARK  0 active torsions:
REMARK  status: ('A' for Active; 'I' for Inactive)
ROOT
ATOM      1  N1  IND d   1       1.160   1.595   0.238  0.00  0.00    -0.196 N 
ATOM      2  C2  IND d   1      -0.091   1.993  -0.146  0.00  0.00     0.054 A 
ATOM      3  C3  IND d   1      -0.777   0.950  -0.665  0.00  0.00    -0.031 A 
ATOM      4  C4  IND d   1      -0.080  -1.518  -0.888  0.00  0.00     0.051 A 
ATOM      5  C5  IND d   1       0.983  -2.358  -0.709  0.00  0.00    -0.031 A 
ATOM      6  C6  IND d   1       2.183  -1.914  -0.192  0.00  0.00     0.015 A 
ATOM      7  C7  IND d   1       2.361  -0.611   0.178  0.00  0.00    -0.016 A 
ATOM      8  C8  IND d   1       1.286   0.246  -0.010  0.00  0.00    -0.047 A 
ATOM      9  C9  IND d   1       0.080  -0.189  -0.574  0.00  0.00    -0.096 A 
ATOM     10  HN1 IND d   1       1.765   2.103   0.577  0.00  0.00     0.298 HD
ENDROOT
TORSDOF 0
ENDMDL
