MODEL 1
REMARK minimizedAffinity -5.46940231
REMARK minimizedRMSD -1
REMARK  0 active torsions:
REMARK  status: ('A' for Active; 'I' for Inactive)
ROOT
ATOM      1  N1  IND d   1       1.461   1.931   0.035  0.00  0.00    -0.196 N 
ATOM      2  C2  IND d   1       0.206   2.037  -0.495  0.00  0.00     0.054 A 
ATOM      3  C3  IND d   1      -0.358   0.814  -0.617  0.00  0.00    -0.031 A 
ATOM      4  C4  IND d   1       0.559  -1.487   0.084  0.00  0.00     0.051 A 
ATOM      5  C5  IND d   1       1.678  -2.095   0.579  0.00  0.00    -0.031 A 
ATOM      6  C6  IND d   1       2.805  -1.378   0.927  0.00  0.00     0.015 A 
ATOM      7  C7  IND d   1       2.849  -0.018   0.804  0.00  0.00    -0.016 A 
ATOM      8  C8  IND d   1       1.717   0.602   0.295  0.00  0.00    -0.047 A 
ATOM      9  C9  IND d   1       0.587  -0.125  -0.100  0.00  0.00    -0.096 A 
ATOM     10  HN1 IND d   1       2.001   2.584   0.181  0.00  0.00     0.298 HD
ENDROOT
TORSDOF 0
ENDMDL
