MODEL 1
REMARK minimizedAffinity -3.55178475
REMARK minimizedRMSD -1
REMARK  0 active torsions:
REMARK  status: ('A' for Active; 'I' for Inactive)
ROOT
ATOM      1  N1  IND d   1       0.359  -1.830  -0.617  0.00  0.00    -0.196 N 
ATOM      2  C2  IND d   1       1.563  -2.188  -0.077  0.00  0.00     0.054 A 
ATOM      3  C3  IND d   1       2.225  -1.094   0.362  0.00  0.00    -0.031 A 
ATOM      4  C4  IND d   1       1.478   1.370   0.386  0.00  0.00     0.051 A 
ATOM      5  C5  IND d   1       0.472   2.195  -0.032  0.00  0.00    -0.031 A 
ATOM      6  C6  IND d   1      -0.647   1.710  -0.678  0.00  0.00     0.015 A 
ATOM      7  C7  IND d   1      -0.808   0.375  -0.920  0.00  0.00    -0.016 A 
ATOM      8  C8  IND d   1       0.215  -0.465  -0.503  0.00  0.00    -0.047 A 
ATOM      9  C9  IND d   1       1.373   0.026   0.115  0.00  0.00    -0.096 A 
ATOM     10  HN1 IND d   1      -0.212  -2.367  -0.969  0.00  0.00     0.298 HD
ENDROOT
TORSDOF 0
ENDMDL
