MODEL 1
REMARK minimizedAffinity -3.83768129
REMARK minimizedRMSD -1
REMARK  0 active torsions:
REMARK  status: ('A' for Active; 'I' for Inactive)
ROOT
ATOM      1  N1  IND d   1       2.026  -0.565   1.641  0.00  0.00    -0.196 N 
ATOM      2  C2  IND d   1       2.654  -1.508   0.876  0.00  0.00     0.054 A 
ATOM      3  C3  IND d   1       1.956  -1.734  -0.260  0.00  0.00    -0.031 A 
ATOM      4  C4  IND d   1      -0.189  -0.596  -1.114  0.00  0.00     0.051 A 
ATOM      5  C5  IND d   1      -1.152   0.302  -0.747  0.00  0.00    -0.031 A 
ATOM      6  C6  IND d   1      -1.103   0.972   0.458  0.00  0.00     0.015 A 
ATOM      7  C7  IND d   1      -0.077   0.777   1.340  0.00  0.00    -0.016 A 
ATOM      8  C8  IND d   1       0.898  -0.139   0.973  0.00  0.00    -0.047 A 
ATOM      9  C9  IND d   1       0.831  -0.854  -0.230  0.00  0.00    -0.096 A 
ATOM     10  HN1 IND d   1       2.290  -0.285   2.410  0.00  0.00     0.298 HD
ENDROOT
TORSDOF 0
ENDMDL
