MODEL 1
REMARK minimizedAffinity 6.97300148
REMARK minimizedRMSD -1
REMARK  0 active torsions:
REMARK  status: ('A' for Active; 'I' for Inactive)
ROOT
ATOM      1  N1  IND d   1      -1.213  -0.535   0.461  0.00  0.00    -0.196 N 
ATOM      2  C2  IND d   1      -1.762  -1.690   0.943  0.00  0.00     0.054 A 
ATOM      3  C3  IND d   1      -0.884  -2.711   0.829  0.00  0.00    -0.031 A 
ATOM      4  C4  IND d   1       1.545  -2.692  -0.024  0.00  0.00     0.051 A 
ATOM      5  C5  IND d   1       2.477  -1.877  -0.604  0.00  0.00    -0.031 A 
ATOM      6  C6  IND d   1       2.222  -0.545  -0.860  0.00  0.00     0.015 A 
ATOM      7  C7  IND d   1       1.024   0.026  -0.535  0.00  0.00    -0.016 A 
ATOM      8  C8  IND d   1       0.073  -0.800   0.047  0.00  0.00    -0.047 A 
ATOM      9  C9  IND d   1       0.311  -2.162   0.271  0.00  0.00    -0.096 A 
ATOM     10  HN1 IND d   1      -1.606   0.230   0.423  0.00  0.00     0.298 HD
ENDROOT
TORSDOF 0
ENDMDL
