MODEL 1
REMARK minimizedAffinity -4.05280685
REMARK minimizedRMSD -1
REMARK  0 active torsions:
REMARK  status: ('A' for Active; 'I' for Inactive)
ROOT
ATOM      1  C   UNL d   1      -2.374   2.094  -1.734  0.00  0.00     0.023 A 
ATOM      2  C1  UNL d   1      -2.362   0.798  -2.249  0.00  0.00     0.003 A 
ATOM      3  C2  UNL d   1      -1.459  -0.144  -1.752  0.00  0.00     0.048 A 
ATOM      4  C3  UNL d   1      -0.571   0.217  -0.739  0.00  0.00     0.023 A 
ATOM      5  C4  UNL d   1      -0.580   1.513  -0.220  0.00  0.00     0.048 A 
ATOM      6  C5  UNL d   1      -1.484   2.451  -0.721  0.00  0.00     0.003 A 
ATOM      7  I   UNL d   1       0.774  -1.183   0.002  0.00  0.00    -0.146 I 
ENDROOT
TORSDOF 0
ENDMDL
