MODEL 1
REMARK minimizedAffinity -3.19044876
REMARK minimizedRMSD -1
REMARK  0 active torsions:
REMARK  status: ('A' for Active; 'I' for Inactive)
ROOT
ATOM      1  C   UNL d   1       2.193  -0.870   0.460  0.00  0.00     0.023 A 
ATOM      2  C1  UNL d   1       0.881  -1.317   0.610  0.00  0.00     0.003 A 
ATOM      3  C2  UNL d   1      -0.184  -0.509   0.206  0.00  0.00     0.048 A 
ATOM      4  C3  UNL d   1       0.071   0.745  -0.348  0.00  0.00     0.023 A 
ATOM      5  C4  UNL d   1       1.383   1.196  -0.500  0.00  0.00     0.048 A 
ATOM      6  C5  UNL d   1       2.444   0.385  -0.094  0.00  0.00     0.003 A 
ATOM      7  I   UNL d   1      -1.512   1.950  -0.950  0.00  0.00    -0.146 I 
ENDROOT
TORSDOF 0
ENDMDL
