MODEL 1
REMARK minimizedAffinity -2.1558013
REMARK minimizedRMSD -1
REMARK  0 active torsions:
REMARK  status: ('A' for Active; 'I' for Inactive)
ROOT
ATOM      1  C   UNL d   1       1.985  -1.508   0.725  0.00  0.00     0.023 A 
ATOM      2  C1  UNL d   1       0.667  -1.953   0.831  0.00  0.00     0.003 A 
ATOM      3  C2  UNL d   1      -0.372  -1.201   0.279  0.00  0.00     0.048 A 
ATOM      4  C3  UNL d   1      -0.085  -0.004  -0.378  0.00  0.00     0.023 A 
ATOM      5  C4  UNL d   1       1.232   0.445  -0.486  0.00  0.00     0.048 A 
ATOM      6  C5  UNL d   1       2.267  -0.311   0.068  0.00  0.00     0.003 A 
ATOM      7  I   UNL d   1      -1.630   1.117  -1.200  0.00  0.00    -0.146 I 
ENDROOT
TORSDOF 0
ENDMDL
