MODEL 1
REMARK minimizedAffinity -3.27698731
REMARK minimizedRMSD -1
REMARK  0 active torsions:
REMARK  status: ('A' for Active; 'I' for Inactive)
ROOT
ATOM      1  C   UNL d   1       1.769  -2.250   0.913  0.00  0.00     0.023 A 
ATOM      2  C1  UNL d   1       0.440  -2.496   0.568  0.00  0.00     0.003 A 
ATOM      3  C2  UNL d   1      -0.326  -1.492  -0.026  0.00  0.00     0.048 A 
ATOM      4  C3  UNL d   1       0.244  -0.243  -0.275  0.00  0.00     0.023 A 
ATOM      5  C4  UNL d   1       1.573   0.008   0.068  0.00  0.00     0.048 A 
ATOM      6  C5  UNL d   1       2.335  -1.000   0.663  0.00  0.00     0.003 A 
ATOM      7  I   UNL d   1      -0.895   1.254  -1.160  0.00  0.00    -0.146 I 
ENDROOT
TORSDOF 0
ENDMDL
