MODEL 1
REMARK minimizedAffinity -2.28443837
REMARK minimizedRMSD -1
REMARK  0 active torsions:
REMARK  status: ('A' for Active; 'I' for Inactive)
ROOT
ATOM      1  C   UNL d   1       2.041  -2.537   0.777  0.00  0.00     0.023 A 
ATOM      2  C1  UNL d   1       2.107  -1.935  -0.480  0.00  0.00     0.003 A 
ATOM      3  C2  UNL d   1       1.231  -0.898  -0.806  0.00  0.00     0.048 A 
ATOM      4  C3  UNL d   1       0.292  -0.466   0.131  0.00  0.00     0.023 A 
ATOM      5  C4  UNL d   1       0.223  -1.065   1.390  0.00  0.00     0.048 A 
ATOM      6  C5  UNL d   1       1.100  -2.102   1.711  0.00  0.00     0.003 A 
ATOM      7  I   UNL d   1      -1.013   1.078  -0.352  0.00  0.00    -0.146 I 
ENDROOT
TORSDOF 0
ENDMDL
