MODEL 1
REMARK minimizedAffinity -2.26718259
REMARK minimizedRMSD -1
REMARK  0 active torsions:
REMARK  status: ('A' for Active; 'I' for Inactive)
ROOT
ATOM      1  C   UNL d   1       1.954  -2.358   1.172  0.00  0.00     0.023 A 
ATOM      2  C1  UNL d   1       0.574  -2.477   1.013  0.00  0.00     0.003 A 
ATOM      3  C2  UNL d   1      -0.163  -1.419   0.478  0.00  0.00     0.048 A 
ATOM      4  C3  UNL d   1       0.487  -0.243   0.103  0.00  0.00     0.023 A 
ATOM      5  C4  UNL d   1       1.868  -0.119   0.260  0.00  0.00     0.048 A 
ATOM      6  C5  UNL d   1       2.601  -1.180   0.796  0.00  0.00     0.003 A 
ATOM      7  I   UNL d   1      -0.608   1.334  -0.693  0.00  0.00    -0.146 I 
ENDROOT
TORSDOF 0
ENDMDL
