MODEL 1
REMARK minimizedAffinity -2.46525621
REMARK minimizedRMSD -1
REMARK  0 active torsions:
REMARK  status: ('A' for Active; 'I' for Inactive)
ROOT
ATOM      1  C   UNL d   1       1.433  -1.301   0.844  0.00  0.00     0.023 A 
ATOM      2  C1  UNL d   1       0.427  -0.465   1.328  0.00  0.00     0.003 A 
ATOM      3  C2  UNL d   1      -0.418   0.202   0.438  0.00  0.00     0.048 A 
ATOM      4  C3  UNL d   1      -0.251   0.027  -0.935  0.00  0.00     0.023 A 
ATOM      5  C4  UNL d   1       0.754  -0.809  -1.425  0.00  0.00     0.048 A 
ATOM      6  C5  UNL d   1       1.596  -1.473  -0.531  0.00  0.00     0.003 A 
ATOM      7  I   UNL d   1      -1.508   1.017  -2.262  0.00  0.00    -0.146 I 
ENDROOT
TORSDOF 0
ENDMDL
