MODEL 1
REMARK minimizedAffinity -2.28766847
REMARK minimizedRMSD -1
REMARK  0 active torsions:
REMARK  status: ('A' for Active; 'I' for Inactive)
ROOT
ATOM      1  C   UNL d   1       1.765  -2.262   0.435  0.00  0.00     0.023 A 
ATOM      2  C1  UNL d   1       0.924  -1.578   1.313  0.00  0.00     0.003 A 
ATOM      3  C2  UNL d   1       0.003  -0.651   0.821  0.00  0.00     0.048 A 
ATOM      4  C3  UNL d   1      -0.072  -0.413  -0.551  0.00  0.00     0.023 A 
ATOM      5  C4  UNL d   1       0.767  -1.096  -1.434  0.00  0.00     0.048 A 
ATOM      6  C5  UNL d   1       1.686  -2.021  -0.937  0.00  0.00     0.003 A 
ATOM      7  I   UNL d   1      -1.442   0.966  -1.287  0.00  0.00    -0.146 I 
ENDROOT
TORSDOF 0
ENDMDL
