MODEL 1
REMARK minimizedAffinity -2.67667603
REMARK minimizedRMSD -1
REMARK  0 active torsions:
REMARK  status: ('A' for Active; 'I' for Inactive)
ROOT
ATOM      1  C   UNL d   1       0.756  -3.059   2.484  0.00  0.00     0.023 A 
ATOM      2  C1  UNL d   1       1.559  -3.061   1.343  0.00  0.00     0.003 A 
ATOM      3  C2  UNL d   1       1.439  -2.037   0.401  0.00  0.00     0.048 A 
ATOM      4  C3  UNL d   1       0.516  -1.012   0.608  0.00  0.00     0.023 A 
ATOM      5  C4  UNL d   1      -0.289  -1.005   1.749  0.00  0.00     0.048 A 
ATOM      6  C5  UNL d   1      -0.166  -2.032   2.687  0.00  0.00     0.003 A 
ATOM      7  I   UNL d   1       0.336   0.514  -0.791  0.00  0.00    -0.146 I 
ENDROOT
TORSDOF 0
ENDMDL
