MODEL 1
REMARK minimizedAffinity -3.86206937
REMARK minimizedRMSD -1
REMARK  0 active torsions:
REMARK  status: ('A' for Active; 'I' for Inactive)
ROOT
ATOM      1  C   UNL d   1       2.639  -1.258   0.435  0.00  0.00     0.023 A 
ATOM      2  C1  UNL d   1       1.380  -1.808   0.675  0.00  0.00     0.003 A 
ATOM      3  C2  UNL d   1       0.229  -1.099   0.326  0.00  0.00     0.048 A 
ATOM      4  C3  UNL d   1       0.344   0.159  -0.263  0.00  0.00     0.023 A 
ATOM      5  C4  UNL d   1       1.602   0.714  -0.506  0.00  0.00     0.048 A 
ATOM      6  C5  UNL d   1       2.750   0.001  -0.155  0.00  0.00     0.003 A 
ATOM      7  I   UNL d   1      -1.368   1.216  -0.783  0.00  0.00    -0.146 I 
ENDROOT
TORSDOF 0
ENDMDL
