MODEL 1
REMARK minimizedAffinity -2.6670208
REMARK minimizedRMSD -1
REMARK  0 active torsions:
REMARK  status: ('A' for Active; 'I' for Inactive)
ROOT
ATOM      1  C   UNL d   1      -1.198   1.042  -0.244  0.00  0.00     0.023 A 
ATOM      2  C1  UNL d   1      -1.706   0.394   0.882  0.00  0.00     0.003 A 
ATOM      3  C2  UNL d   1      -1.032  -0.703   1.422  0.00  0.00     0.048 A 
ATOM      4  C3  UNL d   1       0.151  -1.147   0.831  0.00  0.00     0.023 A 
ATOM      5  C4  UNL d   1       0.663  -0.502  -0.296  0.00  0.00     0.048 A 
ATOM      6  C5  UNL d   1      -0.015   0.594  -0.832  0.00  0.00     0.003 A 
ATOM      7  I   UNL d   1       1.156  -2.781   1.632  0.00  0.00    -0.146 I 
ENDROOT
TORSDOF 0
ENDMDL
