MODEL 1
REMARK minimizedAffinity -0.777083099
REMARK minimizedRMSD -1
REMARK  0 active torsions:
REMARK  status: ('A' for Active; 'I' for Inactive)
ROOT
ATOM      1  C   UNL d   1      -1.777   1.238   0.594  0.00  0.00     0.023 A 
ATOM      2  C1  UNL d   1      -1.794   0.160   1.480  0.00  0.00     0.003 A 
ATOM      3  C2  UNL d   1      -0.743  -0.758   1.485  0.00  0.00     0.048 A 
ATOM      4  C3  UNL d   1       0.324  -0.593   0.602  0.00  0.00     0.023 A 
ATOM      5  C4  UNL d   1       0.346   0.485  -0.285  0.00  0.00     0.048 A 
ATOM      6  C5  UNL d   1      -0.708   1.400  -0.287  0.00  0.00     0.003 A 
ATOM      7  I   UNL d   1       1.891  -1.958   0.608  0.00  0.00    -0.146 I 
ENDROOT
TORSDOF 0
ENDMDL
