MODEL 1
REMARK minimizedAffinity -4.25487137
REMARK minimizedRMSD -1
REMARK  0 active torsions:
REMARK  status: ('A' for Active; 'I' for Inactive)
ROOT
ATOM      1  C   UNL d   1       1.777  -2.595   0.824  0.00  0.00     0.023 A 
ATOM      2  C1  UNL d   1       0.407  -2.576   1.088  0.00  0.00     0.003 A 
ATOM      3  C2  UNL d   1      -0.374  -1.503   0.653  0.00  0.00     0.048 A 
ATOM      4  C3  UNL d   1       0.221  -0.455  -0.048  0.00  0.00     0.023 A 
ATOM      5  C4  UNL d   1       1.590  -0.470  -0.316  0.00  0.00     0.048 A 
ATOM      6  C5  UNL d   1       2.368  -1.544   0.122  0.00  0.00     0.003 A 
ATOM      7  I   UNL d   1      -0.940   1.142  -0.698  0.00  0.00    -0.146 I 
ENDROOT
TORSDOF 0
ENDMDL
