MODEL 1
REMARK minimizedAffinity 1.77164757
REMARK minimizedRMSD -1
REMARK  0 active torsions:
REMARK  status: ('A' for Active; 'I' for Inactive)
ROOT
ATOM      1  C   UNL d   1      -1.142   1.265   0.162  0.00  0.00     0.023 A 
ATOM      2  C1  UNL d   1      -1.521   0.461   1.237  0.00  0.00     0.003 A 
ATOM      3  C2  UNL d   1      -0.785  -0.685   1.547  0.00  0.00     0.048 A 
ATOM      4  C3  UNL d   1       0.329  -1.020   0.779  0.00  0.00     0.023 A 
ATOM      5  C4  UNL d   1       0.712  -0.218  -0.298  0.00  0.00     0.048 A 
ATOM      6  C5  UNL d   1      -0.027   0.926  -0.605  0.00  0.00     0.003 A 
ATOM      7  I   UNL d   1       1.427  -2.724   1.238  0.00  0.00    -0.146 I 
ENDROOT
TORSDOF 0
ENDMDL
