MODEL 1
REMARK minimizedAffinity -0.326362848
REMARK minimizedRMSD -1
REMARK  0 active torsions:
REMARK  status: ('A' for Active; 'I' for Inactive)
ROOT
ATOM      1  C   UNL d   1      -3.176  -6.000  -5.373  0.00  0.00     0.172 C 
ATOM      2  N   UNL d   1      -4.109  -4.920  -5.590  0.00  0.00    -0.070 N 
ATOM      3  C1  UNL d   1      -5.474  -5.027  -5.568  0.00  0.00    -0.004 A 
ATOM      4  C2  UNL d   1      -5.999  -3.778  -5.819  0.00  0.00    -0.047 A 
ATOM      5  C3  UNL d   1      -4.913  -2.890  -6.000  0.00  0.00    -0.047 A 
ATOM      6  C4  UNL d   1      -3.754  -3.623  -5.853  0.00  0.00    -0.004 A 
ENDROOT
TORSDOF 0
ENDMDL
