MODEL 1
REMARK minimizedAffinity 2.33912206
REMARK minimizedRMSD -1
REMARK  0 active torsions:
REMARK  status: ('A' for Active; 'I' for Inactive)
ROOT
ATOM      1  C   UNL d   1       1.601  -1.373   2.204  0.00  0.00     0.172 C 
ATOM      2  N   UNL d   1       2.011  -2.262   3.265  0.00  0.00    -0.070 N 
ATOM      3  C1  UNL d   1       2.387  -3.570   3.110  0.00  0.00    -0.004 A 
ATOM      4  C2  UNL d   1       2.703  -4.069   4.355  0.00  0.00    -0.047 A 
ATOM      5  C3  UNL d   1       2.509  -3.025   5.291  0.00  0.00    -0.047 A 
ATOM      6  C4  UNL d   1       2.081  -1.918   4.589  0.00  0.00    -0.004 A 
ENDROOT
TORSDOF 0
ENDMDL
