MODEL 1
REMARK minimizedAffinity 0.876150846
REMARK minimizedRMSD -1
REMARK  0 active torsions:
REMARK  status: ('A' for Active; 'I' for Inactive)
ROOT
ATOM      1  C   UNL d   1      -2.496   2.520   0.242  0.00  0.00     0.172 C 
ATOM      2  N   UNL d   1      -3.779   3.059   0.626  0.00  0.00    -0.070 N 
ATOM      3  C1  UNL d   1      -4.647   3.721  -0.200  0.00  0.00    -0.004 A 
ATOM      4  C2  UNL d   1      -5.753   4.071   0.543  0.00  0.00    -0.047 A 
ATOM      5  C3  UNL d   1      -5.542   3.605   1.863  0.00  0.00    -0.047 A 
ATOM      6  C4  UNL d   1      -4.313   2.982   1.886  0.00  0.00    -0.004 A 
ENDROOT
TORSDOF 0
ENDMDL
