MODEL 1
REMARK minimizedAffinity 1.51541293
REMARK minimizedRMSD -1
REMARK  0 active torsions:
REMARK  status: ('A' for Active; 'I' for Inactive)
ROOT
ATOM      1  C   UNL d   1       2.186  -4.714   1.628  0.00  0.00     0.172 C 
ATOM      2  N   UNL d   1       1.845  -3.403   2.127  0.00  0.00    -0.070 N 
ATOM      3  C1  UNL d   1       2.275  -2.212   1.605  0.00  0.00    -0.004 A 
ATOM      4  C2  UNL d   1       1.729  -1.198   2.361  0.00  0.00    -0.047 A 
ATOM      5  C3  UNL d   1       0.945  -1.799   3.374  0.00  0.00    -0.047 A 
ATOM      6  C4  UNL d   1       1.034  -3.165   3.206  0.00  0.00    -0.004 A 
ENDROOT
TORSDOF 0
ENDMDL
