MODEL 1
REMARK minimizedAffinity -0.798800945
REMARK minimizedRMSD -1
REMARK  0 active torsions:
REMARK  status: ('A' for Active; 'I' for Inactive)
ROOT
ATOM      1  C   UNL d   1       5.405  -3.366   2.699  0.00  0.00     0.172 C 
ATOM      2  N   UNL d   1       4.023  -3.577   3.058  0.00  0.00    -0.070 N 
ATOM      3  C1  UNL d   1       3.504  -4.724   3.598  0.00  0.00    -0.004 A 
ATOM      4  C2  UNL d   1       2.155  -4.526   3.795  0.00  0.00    -0.047 A 
ATOM      5  C3  UNL d   1       1.852  -3.214   3.357  0.00  0.00    -0.047 A 
ATOM      6  C4  UNL d   1       3.026  -2.650   2.906  0.00  0.00    -0.004 A 
ENDROOT
TORSDOF 0
ENDMDL
