MODEL 1
REMARK minimizedAffinity -1.70029128
REMARK minimizedRMSD -1
REMARK  0 active torsions:
REMARK  status: ('A' for Active; 'I' for Inactive)
ROOT
ATOM      1  C   UNL d   1       0.918  -1.543   2.600  0.00  0.00     0.172 C 
ATOM      2  N   UNL d   1       1.456  -2.799   3.067  0.00  0.00    -0.070 N 
ATOM      3  C1  UNL d   1       1.390  -3.993   2.400  0.00  0.00    -0.004 A 
ATOM      4  C2  UNL d   1       2.018  -4.944   3.175  0.00  0.00    -0.047 A 
ATOM      5  C3  UNL d   1       2.475  -4.300   4.349  0.00  0.00    -0.047 A 
ATOM      6  C4  UNL d   1       2.114  -2.973   4.256  0.00  0.00    -0.004 A 
ENDROOT
TORSDOF 0
ENDMDL
