MODEL 1
REMARK minimizedAffinity 2.61950278
REMARK minimizedRMSD -1
REMARK  0 active torsions:
REMARK  status: ('A' for Active; 'I' for Inactive)
ROOT
ATOM      1  C   UNL d   1       5.887  -2.850   2.374  0.00  0.00     0.172 C 
ATOM      2  N   UNL d   1       4.625  -2.952   3.068  0.00  0.00    -0.070 N 
ATOM      3  C1  UNL d   1       4.467  -3.077   4.423  0.00  0.00    -0.004 A 
ATOM      4  C2  UNL d   1       3.115  -3.144   4.685  0.00  0.00    -0.047 A 
ATOM      5  C3  UNL d   1       2.438  -3.057   3.446  0.00  0.00    -0.047 A 
ATOM      6  C4  UNL d   1       3.397  -2.939   2.462  0.00  0.00    -0.004 A 
ENDROOT
TORSDOF 0
ENDMDL
