MODEL 1
REMARK minimizedAffinity -2.01579332
REMARK minimizedRMSD -1
REMARK  1 active torsions:
REMARK  status: ('A' for Active; 'I' for Inactive)
REMARK    1  A    between atoms: N_2  and  C1_3 
ROOT
ATOM      1  C1  UNL d   1       0.431   1.200   0.706  0.00  0.00     0.143 A 
ATOM      2  C2  UNL d   1       1.173   1.523  -0.435  0.00  0.00    -0.057 A 
ATOM      3  C3  UNL d   1       2.035   2.626  -0.453  0.00  0.00     0.033 A 
ATOM      4  C4  UNL d   1       2.148   3.446   0.665  0.00  0.00    -0.042 A 
ATOM      5  C5  UNL d   1       1.401   3.159   1.802  0.00  0.00     0.033 A 
ATOM      6  C6  UNL d   1       0.547   2.052   1.816  0.00  0.00    -0.057 A 
ENDROOT
BRANCH   1   7
ATOM      7  N   UNL d   1      -0.516   0.175   0.754  0.00  0.00    -0.732 N 
ATOM      8  C   UNL d   1      -0.556  -0.741   1.874  0.00  0.00     0.284 C 
ATOM      9  H3  UNL d   1      -1.433   0.477   0.431  0.00  0.00     0.395 HD
ENDBRANCH   1   7
TORSDOF 1
ENDMDL
