MODEL 1
REMARK minimizedAffinity -3.78202462
REMARK minimizedRMSD -1
REMARK  1 active torsions:
REMARK  status: ('A' for Active; 'I' for Inactive)
REMARK    1  A    between atoms: N_2  and  C1_3 
ROOT
ATOM      1  C1  UNL d   1       1.240   0.878   0.657  0.00  0.00     0.143 A 
ATOM      2  C2  UNL d   1       1.440  -0.314   1.362  0.00  0.00    -0.057 A 
ATOM      3  C3  UNL d   1       0.465  -1.319   1.382  0.00  0.00     0.033 A 
ATOM      4  C4  UNL d   1      -0.744  -1.136   0.719  0.00  0.00    -0.042 A 
ATOM      5  C5  UNL d   1      -0.975   0.050   0.032  0.00  0.00     0.033 A 
ATOM      6  C6  UNL d   1       0.005   1.047   0.010  0.00  0.00    -0.057 A 
ENDROOT
BRANCH   1   7
ATOM      7  N   UNL d   1       2.130   1.954   0.680  0.00  0.00    -0.732 N 
ATOM      8  C   UNL d   1       1.639   3.315   0.734  0.00  0.00     0.284 C 
ATOM      9  H3  UNL d   1       2.936   1.779   1.276  0.00  0.00     0.395 HD
ENDBRANCH   1   7
TORSDOF 1
ENDMDL
