MODEL 1
REMARK minimizedAffinity -2.03458166
REMARK minimizedRMSD -1
REMARK  1 active torsions:
REMARK  status: ('A' for Active; 'I' for Inactive)
REMARK    1  A    between atoms: N_2  and  C1_3 
ROOT
ATOM      1  C1  UNL d   1       0.092   0.533   0.336  0.00  0.00     0.143 A 
ATOM      2  C2  UNL d   1       0.599   0.298   1.618  0.00  0.00    -0.057 A 
ATOM      3  C3  UNL d   1       0.095  -0.734   2.420  0.00  0.00     0.033 A 
ATOM      4  C4  UNL d   1      -0.948  -1.533   1.963  0.00  0.00    -0.042 A 
ATOM      5  C5  UNL d   1      -1.484  -1.301   0.701  0.00  0.00     0.033 A 
ATOM      6  C6  UNL d   1      -0.972  -0.273  -0.098  0.00  0.00    -0.057 A 
ENDROOT
BRANCH   1   7
ATOM      7  N   UNL d   1       0.483   1.605  -0.471  0.00  0.00    -0.732 N 
ATOM      8  C   UNL d   1       1.001   2.820   0.119  0.00  0.00     0.284 C 
ATOM      9  H3  UNL d   1       0.981   1.302  -1.305  0.00  0.00     0.395 HD
ENDBRANCH   1   7
TORSDOF 1
ENDMDL
