MODEL 1
REMARK minimizedAffinity -3.43101072
REMARK minimizedRMSD -1
REMARK  1 active torsions:
REMARK  status: ('A' for Active; 'I' for Inactive)
REMARK    1  A    between atoms: N_2  and  C1_3 
ROOT
ATOM      1  C1  UNL d   1       0.008   0.479   0.353  0.00  0.00     0.143 A 
ATOM      2  C2  UNL d   1       0.912   0.545   1.418  0.00  0.00    -0.057 A 
ATOM      3  C3  UNL d   1       1.451   1.767   1.838  0.00  0.00     0.033 A 
ATOM      4  C4  UNL d   1       1.116   2.945   1.179  0.00  0.00    -0.042 A 
ATOM      5  C5  UNL d   1       0.239   2.900   0.101  0.00  0.00     0.033 A 
ATOM      6  C6  UNL d   1      -0.301   1.677  -0.309  0.00  0.00    -0.057 A 
ENDROOT
BRANCH   1   7
ATOM      7  N   UNL d   1      -0.486  -0.717  -0.175  0.00  0.00    -0.732 N 
ATOM      8  C   UNL d   1      -0.843  -1.815   0.697  0.00  0.00     0.284 C 
ATOM      9  H3  UNL d   1      -1.140  -0.563  -0.939  0.00  0.00     0.395 HD
ENDBRANCH   1   7
TORSDOF 1
ENDMDL
