MODEL 1
REMARK minimizedAffinity -2.13848948
REMARK minimizedRMSD -1
REMARK  1 active torsions:
REMARK  status: ('A' for Active; 'I' for Inactive)
REMARK    1  A    between atoms: N_2  and  C1_3 
ROOT
ATOM      1  C1  UNL d   1      -0.158   0.423  -0.067  0.00  0.00     0.143 A 
ATOM      2  C2  UNL d   1      -0.719   0.052   1.159  0.00  0.00    -0.057 A 
ATOM      3  C3  UNL d   1      -1.065  -1.278   1.427  0.00  0.00     0.033 A 
ATOM      4  C4  UNL d   1      -0.883  -2.259   0.457  0.00  0.00    -0.042 A 
ATOM      5  C5  UNL d   1      -0.351  -1.908  -0.779  0.00  0.00     0.033 A 
ATOM      6  C6  UNL d   1      -0.001  -0.580  -1.037  0.00  0.00    -0.057 A 
ENDROOT
BRANCH   1   7
ATOM      7  N   UNL d   1       0.115   1.745  -0.429  0.00  0.00    -0.732 N 
ATOM      8  C   UNL d   1       0.161   2.789   0.572  0.00  0.00     0.284 C 
ATOM      9  H3  UNL d   1       0.847   1.811  -1.133  0.00  0.00     0.395 HD
ENDBRANCH   1   7
TORSDOF 1
ENDMDL
