MODEL 1
REMARK minimizedAffinity -2.47662187
REMARK minimizedRMSD -1
REMARK  1 active torsions:
REMARK  status: ('A' for Active; 'I' for Inactive)
REMARK    1  A    between atoms: N_2  and  C1_3 
ROOT
ATOM      1  C1  UNL d   1       0.214   0.664   0.173  0.00  0.00     0.143 A 
ATOM      2  C2  UNL d   1       0.635  -0.664   0.311  0.00  0.00    -0.057 A 
ATOM      3  C3  UNL d   1      -0.267  -1.679   0.654  0.00  0.00     0.033 A 
ATOM      4  C4  UNL d   1      -1.603  -1.378   0.895  0.00  0.00    -0.042 A 
ATOM      5  C5  UNL d   1      -2.038  -0.062   0.788  0.00  0.00     0.033 A 
ATOM      6  C6  UNL d   1      -1.135   0.946   0.438  0.00  0.00    -0.057 A 
ENDROOT
BRANCH   1   7
ATOM      7  N   UNL d   1       1.080   1.733  -0.069  0.00  0.00    -0.732 N 
ATOM      8  C   UNL d   1       1.034   2.921   0.756  0.00  0.00     0.284 C 
ATOM      9  H3  UNL d   1       2.022   1.425  -0.301  0.00  0.00     0.395 HD
ENDBRANCH   1   7
TORSDOF 1
ENDMDL
