MODEL 1
REMARK minimizedAffinity -3.63520622
REMARK minimizedRMSD -1
REMARK  1 active torsions:
REMARK  status: ('A' for Active; 'I' for Inactive)
REMARK    1  A    between atoms: N_2  and  C1_3 
ROOT
ATOM      1  C1  UNL d   1       0.598   1.249   0.320  0.00  0.00     0.143 A 
ATOM      2  C2  UNL d   1       0.772   0.204   1.233  0.00  0.00    -0.057 A 
ATOM      3  C3  UNL d   1      -0.310  -0.576   1.660  0.00  0.00     0.033 A 
ATOM      4  C4  UNL d   1      -1.594  -0.304   1.201  0.00  0.00    -0.042 A 
ATOM      5  C5  UNL d   1      -1.795   0.746   0.312  0.00  0.00     0.033 A 
ATOM      6  C6  UNL d   1      -0.709   1.516  -0.116  0.00  0.00    -0.057 A 
ENDROOT
BRANCH   1   7
ATOM      7  N   UNL d   1       1.618   2.122  -0.067  0.00  0.00    -0.732 N 
ATOM      8  C   UNL d   1       1.854   3.349   0.663  0.00  0.00     0.284 C 
ATOM      9  H3  UNL d   1       2.466   1.632  -0.342  0.00  0.00     0.395 HD
ENDBRANCH   1   7
TORSDOF 1
ENDMDL
