MODEL 1
REMARK minimizedAffinity -3.64966536
REMARK minimizedRMSD -1
REMARK  1 active torsions:
REMARK  status: ('A' for Active; 'I' for Inactive)
REMARK    1  A    between atoms: N_2  and  C1_3 
ROOT
ATOM      1  C1  UNL d   1       0.136   0.495   0.237  0.00  0.00     0.143 A 
ATOM      2  C2  UNL d   1       0.750   0.113   1.435  0.00  0.00    -0.057 A 
ATOM      3  C3  UNL d   1       0.478  -1.125   2.028  0.00  0.00     0.033 A 
ATOM      4  C4  UNL d   1      -0.439  -1.995   1.447  0.00  0.00    -0.042 A 
ATOM      5  C5  UNL d   1      -1.080  -1.626   0.270  0.00  0.00     0.033 A 
ATOM      6  C6  UNL d   1      -0.799  -0.390  -0.321  0.00  0.00    -0.057 A 
ENDROOT
BRANCH   1   7
ATOM      7  N   UNL d   1       0.291   1.753  -0.349  0.00  0.00    -0.732 N 
ATOM      8  C   UNL d   1       1.283   2.682   0.148  0.00  0.00     0.284 C 
ATOM      9  H3  UNL d   1       0.225   1.719  -1.364  0.00  0.00     0.395 HD
ENDBRANCH   1   7
TORSDOF 1
ENDMDL
