MODEL 1
REMARK minimizedAffinity -2.0369401
REMARK minimizedRMSD -1
REMARK  1 active torsions:
REMARK  status: ('A' for Active; 'I' for Inactive)
REMARK    1  A    between atoms: N_2  and  C1_3 
ROOT
ATOM      1  C1  UNL d   1      -0.460  -1.425  -0.907  0.00  0.00     0.143 A 
ATOM      2  C2  UNL d   1      -0.923  -2.428  -0.049  0.00  0.00    -0.057 A 
ATOM      3  C3  UNL d   1      -1.081  -2.194   1.323  0.00  0.00     0.033 A 
ATOM      4  C4  UNL d   1      -0.749  -0.957   1.866  0.00  0.00    -0.042 A 
ATOM      5  C5  UNL d   1      -0.263   0.046   1.036  0.00  0.00     0.033 A 
ATOM      6  C6  UNL d   1      -0.114  -0.192  -0.334  0.00  0.00    -0.057 A 
ENDROOT
BRANCH   1   7
ATOM      7  N   UNL d   1      -0.188  -1.626  -2.263  0.00  0.00    -0.732 N 
ATOM      8  C   UNL d   1      -0.584  -2.854  -2.920  0.00  0.00     0.284 C 
ATOM      9  H3  UNL d   1      -0.344  -0.788  -2.818  0.00  0.00     0.395 HD
ENDBRANCH   1   7
TORSDOF 1
ENDMDL
