MODEL 1
REMARK minimizedAffinity -3.7235322
REMARK minimizedRMSD -1
REMARK  1 active torsions:
REMARK  status: ('A' for Active; 'I' for Inactive)
REMARK    1  A    between atoms: N_2  and  C1_3 
ROOT
ATOM      1  C1  UNL d   1       0.795   1.929   0.260  0.00  0.00     0.143 A 
ATOM      2  C2  UNL d   1       0.953   0.965   1.262  0.00  0.00    -0.057 A 
ATOM      3  C3  UNL d   1       0.392  -0.311   1.136  0.00  0.00     0.033 A 
ATOM      4  C4  UNL d   1      -0.364  -0.638   0.015  0.00  0.00    -0.042 A 
ATOM      5  C5  UNL d   1      -0.555   0.312  -0.982  0.00  0.00     0.033 A 
ATOM      6  C6  UNL d   1       0.014   1.583  -0.853  0.00  0.00    -0.057 A 
ENDROOT
BRANCH   1   7
ATOM      7  N   UNL d   1       1.245   3.247   0.371  0.00  0.00    -0.732 N 
ATOM      8  C   UNL d   1       2.589   3.603  -0.028  0.00  0.00     0.284 C 
ATOM      9  H3  UNL d   1       0.536   3.924   0.097  0.00  0.00     0.395 HD
ENDBRANCH   1   7
TORSDOF 1
ENDMDL
