MODEL 1
REMARK minimizedAffinity 5.27813292
REMARK minimizedRMSD -1
REMARK  3 active torsions:
REMARK  status: ('A' for Active; 'I' for Inactive)
REMARK    1  A    between atoms: C3'_2  and  C2'_3 
REMARK    2  A    between atoms: C2'_3  and  C1'_4 
REMARK    3  A    between atoms: C1'_4  and  C1_5 
ROOT
ATOM      1  C1  N4B d   1      -2.792  -1.498  -0.440  0.00  0.00    -0.075 A 
ATOM      2  C2  N4B d   1      -1.906  -0.721  -1.219  0.00  0.00     0.002 A 
ATOM      3  C3  N4B d   1      -2.398   0.252  -2.054  0.00  0.00     0.002 A 
ATOM      4  C4  N4B d   1      -3.768   0.452  -2.142  0.00  0.00    -0.004 A 
ATOM      5  C5  N4B d   1      -4.616  -0.285  -1.367  0.00  0.00     0.002 A 
ATOM      6  C6  N4B d   1      -4.135  -1.263  -0.520  0.00  0.00     0.002 A 
ENDROOT
BRANCH   1   7
ATOM      7  C1' N4B d   1      -2.307  -2.630   0.423  0.00  0.00     0.057 C 
BRANCH   7   8
ATOM      8  C2' N4B d   1      -0.996  -3.166  -0.144  0.00  0.00     0.009 C 
BRANCH   8   9
ATOM      9  C3' N4B d   1      -0.071  -3.676   0.948  0.00  0.00     0.004 C 
ATOM     10  C4' N4B d   1       1.214  -4.230   0.408  0.00  0.00     0.003 C 
ENDBRANCH   8   9
ENDBRANCH   7   8
ENDBRANCH   1   7
TORSDOF 3
ENDMDL
