MODEL 1
REMARK minimizedAffinity -0.0950003862
REMARK minimizedRMSD -1
REMARK  3 active torsions:
REMARK  status: ('A' for Active; 'I' for Inactive)
REMARK    1  A    between atoms: C3'_2  and  C2'_3 
REMARK    2  A    between atoms: C2'_3  and  C1'_4 
REMARK    3  A    between atoms: C1'_4  and  C1_5 
ROOT
ATOM      1  C1  N4B d   1      -0.924  -3.769   0.012  0.00  0.00    -0.075 A 
ATOM      2  C2  N4B d   1      -0.676  -2.984   1.159  0.00  0.00     0.002 A 
ATOM      3  C3  N4B d   1      -1.587  -2.034   1.550  0.00  0.00     0.002 A 
ATOM      4  C4  N4B d   1      -2.738  -1.838   0.802  0.00  0.00    -0.004 A 
ATOM      5  C5  N4B d   1      -2.982  -2.617  -0.291  0.00  0.00     0.002 A 
ATOM      6  C6  N4B d   1      -2.077  -3.579  -0.693  0.00  0.00     0.002 A 
ENDROOT
BRANCH   1   7
ATOM      7  C1' N4B d   1       0.083  -4.761  -0.504  0.00  0.00     0.057 C 
BRANCH   7   8
ATOM      8  C2' N4B d   1       1.364  -4.647   0.317  0.00  0.00     0.009 C 
BRANCH   8   9
ATOM      9  C3' N4B d   1       2.076  -5.983   0.447  0.00  0.00     0.004 C 
ATOM     10  C4' N4B d   1       3.554  -5.835   0.655  0.00  0.00     0.003 C 
ENDBRANCH   8   9
ENDBRANCH   7   8
ENDBRANCH   1   7
TORSDOF 3
ENDMDL
