MODEL 1
REMARK minimizedAffinity 7.43447161
REMARK minimizedRMSD -1
REMARK  3 active torsions:
REMARK  status: ('A' for Active; 'I' for Inactive)
REMARK    1  A    between atoms: C3'_2  and  C2'_3 
REMARK    2  A    between atoms: C2'_3  and  C1'_4 
REMARK    3  A    between atoms: C1'_4  and  C1_5 
ROOT
ATOM      1  C1  N4B d   1       2.504  -2.219   4.775  0.00  0.00    -0.075 A 
ATOM      2  C2  N4B d   1       2.078  -1.589   3.585  0.00  0.00     0.002 A 
ATOM      3  C3  N4B d   1       2.934  -1.491   2.515  0.00  0.00     0.002 A 
ATOM      4  C4  N4B d   1       4.221  -1.997   2.619  0.00  0.00    -0.004 A 
ATOM      5  C5  N4B d   1       4.617  -2.626   3.763  0.00  0.00     0.002 A 
ATOM      6  C6  N4B d   1       3.765  -2.735   4.844  0.00  0.00     0.002 A 
ENDROOT
BRANCH   1   7
ATOM      7  C1' N4B d   1       1.633  -2.274   6.000  0.00  0.00     0.057 C 
BRANCH   7   8
ATOM      8  C2' N4B d   1       0.681  -1.081   5.991  0.00  0.00     0.009 C 
BRANCH   8   9
ATOM      9  C3' N4B d   1      -0.775  -1.516   6.000  0.00  0.00     0.004 C 
ATOM     10  C4' N4B d   1      -1.103  -2.470   4.890  0.00  0.00     0.003 C 
ENDBRANCH   8   9
ENDBRANCH   7   8
ENDBRANCH   1   7
TORSDOF 3
ENDMDL
