MODEL 1
REMARK minimizedAffinity 8.27767754
REMARK minimizedRMSD -1
REMARK  3 active torsions:
REMARK  status: ('A' for Active; 'I' for Inactive)
REMARK    1  A    between atoms: C3'_2  and  C2'_3 
REMARK    2  A    between atoms: C2'_3  and  C1'_4 
REMARK    3  A    between atoms: C1'_4  and  C1_5 
ROOT
ATOM      1  C1  N4B d   1      -1.114  -3.544   0.017  0.00  0.00    -0.075 A 
ATOM      2  C2  N4B d   1       0.246  -3.314  -0.288  0.00  0.00     0.002 A 
ATOM      3  C3  N4B d   1       1.187  -4.269   0.009  0.00  0.00     0.002 A 
ATOM      4  C4  N4B d   1       0.797  -5.448   0.626  0.00  0.00    -0.004 A 
ATOM      5  C5  N4B d   1      -0.521  -5.673   0.894  0.00  0.00     0.002 A 
ATOM      6  C6  N4B d   1      -1.479  -4.724   0.597  0.00  0.00     0.002 A 
ENDROOT
BRANCH   1   7
ATOM      7  C1' N4B d   1      -2.167  -2.494  -0.210  0.00  0.00     0.057 C 
BRANCH   7   8
ATOM      8  C2' N4B d   1      -3.496  -2.988   0.354  0.00  0.00     0.009 C 
BRANCH   8   9
ATOM      9  C3' N4B d   1      -4.681  -2.284  -0.284  0.00  0.00     0.004 C 
ATOM     10  C4' N4B d   1      -5.999  -2.776   0.236  0.00  0.00     0.003 C 
ENDBRANCH   8   9
ENDBRANCH   7   8
ENDBRANCH   1   7
TORSDOF 3
ENDMDL
