MODEL 1
REMARK minimizedAffinity 18.040678
REMARK minimizedRMSD -1
REMARK  3 active torsions:
REMARK  status: ('A' for Active; 'I' for Inactive)
REMARK    1  A    between atoms: C3'_2  and  C2'_3 
REMARK    2  A    between atoms: C2'_3  and  C1'_4 
REMARK    3  A    between atoms: C1'_4  and  C1_5 
ROOT
ATOM      1  C1  N4B d   1      -2.319  -1.802  -1.452  0.00  0.00    -0.075 A 
ATOM      2  C2  N4B d   1      -3.530  -1.129  -1.728  0.00  0.00     0.002 A 
ATOM      3  C3  N4B d   1      -3.545  -0.079  -2.613  0.00  0.00     0.002 A 
ATOM      4  C4  N4B d   1      -2.364   0.327  -3.217  0.00  0.00    -0.004 A 
ATOM      5  C5  N4B d   1      -1.204  -0.345  -2.964  0.00  0.00     0.002 A 
ATOM      6  C6  N4B d   1      -1.174  -1.405  -2.080  0.00  0.00     0.002 A 
ENDROOT
BRANCH   1   7
ATOM      7  C1' N4B d   1      -2.237  -2.900  -0.427  0.00  0.00     0.057 C 
BRANCH   7   8
ATOM      8  C2' N4B d   1      -1.043  -3.795  -0.748  0.00  0.00     0.009 C 
BRANCH   8   9
ATOM      9  C3' N4B d   1      -0.021  -3.803   0.376  0.00  0.00     0.004 C 
ATOM     10  C4' N4B d   1       0.964  -4.927   0.257  0.00  0.00     0.003 C 
ENDBRANCH   8   9
ENDBRANCH   7   8
ENDBRANCH   1   7
TORSDOF 3
ENDMDL
