MODEL 1
REMARK minimizedAffinity 7.13672447
REMARK minimizedRMSD -1
REMARK  3 active torsions:
REMARK  status: ('A' for Active; 'I' for Inactive)
REMARK    1  A    between atoms: C3'_2  and  C2'_3 
REMARK    2  A    between atoms: C2'_3  and  C1'_4 
REMARK    3  A    between atoms: C1'_4  and  C1_5 
ROOT
ATOM      1  C1  N4B d   1      -0.505   2.372  -0.707  0.00  0.00    -0.075 A 
ATOM      2  C2  N4B d   1      -1.870   2.061  -0.893  0.00  0.00     0.002 A 
ATOM      3  C3  N4B d   1      -2.717   2.989  -1.447  0.00  0.00     0.002 A 
ATOM      4  C4  N4B d   1      -2.228   4.236  -1.805  0.00  0.00    -0.004 A 
ATOM      5  C5  N4B d   1      -0.903   4.520  -1.645  0.00  0.00     0.002 A 
ATOM      6  C6  N4B d   1      -0.040   3.596  -1.093  0.00  0.00     0.002 A 
ENDROOT
BRANCH   1   7
ATOM      7  C1' N4B d   1       0.441   1.421  -0.026  0.00  0.00     0.057 C 
BRANCH   7   8
ATOM      8  C2' N4B d   1       0.290   1.561   1.486  0.00  0.00     0.009 C 
BRANCH   8   9
ATOM      9  C3' N4B d   1       1.636   1.622   2.188  0.00  0.00     0.004 C 
ATOM     10  C4' N4B d   1       2.270   2.978   2.112  0.00  0.00     0.003 C 
ENDBRANCH   8   9
ENDBRANCH   7   8
ENDBRANCH   1   7
TORSDOF 3
ENDMDL
