MODEL 1
REMARK minimizedAffinity 4.14696836
REMARK minimizedRMSD -1
REMARK  2 active torsions:
REMARK  status: ('A' for Active; 'I' for Inactive)
REMARK    1  A    between atoms: C1_2  and  C2_3 
REMARK    2  A    between atoms: C2_3  and  C3_4 
ROOT
ATOM      1  C3  UNL d   1       4.389   1.865   3.130  0.00  0.00    -0.075 A 
ATOM      2  C4  UNL d   1       5.353   2.120   4.116  0.00  0.00     0.002 A 
ATOM      3  C5  UNL d   1       6.000   1.068   4.764  0.00  0.00     0.002 A 
ATOM      4  C6  UNL d   1       5.684  -0.251   4.443  0.00  0.00    -0.004 A 
ATOM      5  C7  UNL d   1       4.716  -0.517   3.478  0.00  0.00     0.002 A 
ATOM      6  C8  UNL d   1       4.070   0.535   2.824  0.00  0.00     0.002 A 
ENDROOT
BRANCH   1   7
ATOM      7  C2  UNL d   1       3.706   3.000   2.404  0.00  0.00     0.056 C 
BRANCH   7   8
ATOM      8  C1  UNL d   1       3.263   2.652   0.979  0.00  0.00     0.007 C 
ATOM      9  C   UNL d   1       2.062   3.461   0.510  0.00  0.00     0.009 C 
ENDBRANCH   7   8
ENDBRANCH   1   7
TORSDOF 2
ENDMDL
