MODEL 1
REMARK minimizedAffinity 2.19923759
REMARK minimizedRMSD -1
REMARK  2 active torsions:
REMARK  status: ('A' for Active; 'I' for Inactive)
REMARK    1  A    between atoms: C1_2  and  C2_3 
REMARK    2  A    between atoms: C2_3  and  C3_4 
ROOT
ATOM      1  C3  UNL d   1      -1.671   3.028  -0.468  0.00  0.00    -0.075 A 
ATOM      2  C4  UNL d   1      -2.334   4.253  -0.305  0.00  0.00     0.002 A 
ATOM      3  C5  UNL d   1      -3.664   4.288   0.114  0.00  0.00     0.002 A 
ATOM      4  C6  UNL d   1      -4.350   3.101   0.364  0.00  0.00    -0.004 A 
ATOM      5  C7  UNL d   1      -3.706   1.878   0.190  0.00  0.00     0.002 A 
ATOM      6  C8  UNL d   1      -2.374   1.840  -0.225  0.00  0.00     0.002 A 
ENDROOT
BRANCH   1   7
ATOM      7  C2  UNL d   1      -0.222   2.984  -0.892  0.00  0.00     0.056 C 
BRANCH   7   8
ATOM      8  C1  UNL d   1       0.212   1.643  -1.493  0.00  0.00     0.007 C 
ATOM      9  C   UNL d   1       0.629   1.746  -2.954  0.00  0.00     0.009 C 
ENDBRANCH   7   8
ENDBRANCH   1   7
TORSDOF 2
ENDMDL
