MODEL 1
REMARK minimizedAffinity -3.48727107
REMARK minimizedRMSD -1
REMARK  2 active torsions:
REMARK  status: ('A' for Active; 'I' for Inactive)
REMARK    1  A    between atoms: C1_2  and  C2_3 
REMARK    2  A    between atoms: C2_3  and  C3_4 
ROOT
ATOM      1  C3  UNL d   1      -2.813   0.891   0.504  0.00  0.00    -0.075 A 
ATOM      2  C4  UNL d   1      -2.008   1.850   1.135  0.00  0.00     0.002 A 
ATOM      3  C5  UNL d   1      -2.217   3.211   0.908  0.00  0.00     0.002 A 
ATOM      4  C6  UNL d   1      -3.223   3.629   0.040  0.00  0.00    -0.004 A 
ATOM      5  C7  UNL d   1      -4.018   2.684  -0.605  0.00  0.00     0.002 A 
ATOM      6  C8  UNL d   1      -3.815   1.322  -0.376  0.00  0.00     0.002 A 
ENDROOT
BRANCH   1   7
ATOM      7  C2  UNL d   1      -2.611  -0.582   0.768  0.00  0.00     0.056 C 
BRANCH   7   8
ATOM      8  C1  UNL d   1      -3.526  -1.151   1.858  0.00  0.00     0.007 C 
ATOM      9  C   UNL d   1      -3.326  -0.488   3.215  0.00  0.00     0.009 C 
ENDBRANCH   7   8
ENDBRANCH   1   7
TORSDOF 2
ENDMDL
