MODEL 1
REMARK minimizedAffinity 2.15783143
REMARK minimizedRMSD -1
REMARK  2 active torsions:
REMARK  status: ('A' for Active; 'I' for Inactive)
REMARK    1  A    between atoms: C1_2  and  C2_3 
REMARK    2  A    between atoms: C2_3  and  C3_4 
ROOT
ATOM      1  C3  UNL d   1      -1.704   1.515  -0.371  0.00  0.00    -0.075 A 
ATOM      2  C4  UNL d   1      -2.968   1.405  -0.969  0.00  0.00     0.002 A 
ATOM      3  C5  UNL d   1      -3.948   2.371  -0.737  0.00  0.00     0.002 A 
ATOM      4  C6  UNL d   1      -3.681   3.451   0.101  0.00  0.00    -0.004 A 
ATOM      5  C7  UNL d   1      -2.435   3.561   0.714  0.00  0.00     0.002 A 
ATOM      6  C8  UNL d   1      -1.451   2.599   0.481  0.00  0.00     0.002 A 
ENDROOT
BRANCH   1   7
ATOM      7  C2  UNL d   1      -0.630   0.489  -0.641  0.00  0.00     0.056 C 
BRANCH   7   8
ATOM      8  C1  UNL d   1      -1.161  -0.936  -0.830  0.00  0.00     0.007 C 
ATOM      9  C   UNL d   1      -1.551  -1.610   0.479  0.00  0.00     0.009 C 
ENDBRANCH   7   8
ENDBRANCH   1   7
TORSDOF 2
ENDMDL
