MODEL 1
REMARK minimizedAffinity -1.15942073
REMARK minimizedRMSD -1
REMARK  2 active torsions:
REMARK  status: ('A' for Active; 'I' for Inactive)
REMARK    1  A    between atoms: C1_2  and  C2_3 
REMARK    2  A    between atoms: C2_3  and  C3_4 
ROOT
ATOM      1  C3  UNL d   1      -2.968   1.306   1.210  0.00  0.00    -0.075 A 
ATOM      2  C4  UNL d   1      -3.798   1.335   0.080  0.00  0.00     0.002 A 
ATOM      3  C5  UNL d   1      -4.246   2.550  -0.440  0.00  0.00     0.002 A 
ATOM      4  C6  UNL d   1      -3.878   3.748   0.168  0.00  0.00    -0.004 A 
ATOM      5  C7  UNL d   1      -3.067   3.731   1.300  0.00  0.00     0.002 A 
ATOM      6  C8  UNL d   1      -2.615   2.517   1.820  0.00  0.00     0.002 A 
ENDROOT
BRANCH   1   7
ATOM      7  C2  UNL d   1      -2.457  -0.004   1.760  0.00  0.00     0.056 C 
BRANCH   7   8
ATOM      8  C1  UNL d   1      -2.505  -0.100   3.289  0.00  0.00     0.007 C 
ATOM      9  C   UNL d   1      -3.899  -0.393   3.828  0.00  0.00     0.009 C 
ENDBRANCH   7   8
ENDBRANCH   1   7
TORSDOF 2
ENDMDL
