MODEL 1
REMARK minimizedAffinity -1.16472578
REMARK minimizedRMSD -1
REMARK  2 active torsions:
REMARK  status: ('A' for Active; 'I' for Inactive)
REMARK    1  A    between atoms: C1_2  and  C2_3 
REMARK    2  A    between atoms: C2_3  and  C3_4 
ROOT
ATOM      1  C3  UNL d   1       3.867  -0.270   3.024  0.00  0.00    -0.075 A 
ATOM      2  C4  UNL d   1       4.997  -0.585   3.792  0.00  0.00     0.002 A 
ATOM      3  C5  UNL d   1       6.000   0.363   3.998  0.00  0.00     0.002 A 
ATOM      4  C6  UNL d   1       5.891   1.631   3.431  0.00  0.00    -0.004 A 
ATOM      5  C7  UNL d   1       4.780   1.949   2.653  0.00  0.00     0.002 A 
ATOM      6  C8  UNL d   1       3.773   1.004   2.449  0.00  0.00     0.002 A 
ENDROOT
BRANCH   1   7
ATOM      7  C2  UNL d   1       2.764  -1.282   2.823  0.00  0.00     0.056 C 
BRANCH   7   8
ATOM      8  C1  UNL d   1       2.945  -2.162   1.581  0.00  0.00     0.007 C 
ATOM      9  C   UNL d   1       1.921  -3.286   1.488  0.00  0.00     0.009 C 
ENDBRANCH   7   8
ENDBRANCH   1   7
TORSDOF 2
ENDMDL
