MODEL 1
REMARK minimizedAffinity -2.67085505
REMARK minimizedRMSD -1
REMARK  2 active torsions:
REMARK  status: ('A' for Active; 'I' for Inactive)
REMARK    1  A    between atoms: C1_2  and  C2_3 
REMARK    2  A    between atoms: C2_3  and  C3_4 
ROOT
ATOM      1  C3  UNL d   1      -3.034   1.247   0.678  0.00  0.00    -0.075 A 
ATOM      2  C4  UNL d   1      -4.020   2.126   1.149  0.00  0.00     0.002 A 
ATOM      3  C5  UNL d   1      -4.132   3.413   0.622  0.00  0.00     0.002 A 
ATOM      4  C6  UNL d   1      -3.255   3.840  -0.373  0.00  0.00    -0.004 A 
ATOM      5  C7  UNL d   1      -2.261   2.981  -0.837  0.00  0.00     0.002 A 
ATOM      6  C8  UNL d   1      -2.150   1.691  -0.314  0.00  0.00     0.002 A 
ENDROOT
BRANCH   1   7
ATOM      7  C2  UNL d   1      -2.927  -0.157   1.223  0.00  0.00     0.056 C 
BRANCH   7   8
ATOM      8  C1  UNL d   1      -2.171  -0.254   2.553  0.00  0.00     0.007 C 
ATOM      9  C   UNL d   1      -3.088  -0.208   3.768  0.00  0.00     0.009 C 
ENDBRANCH   7   8
ENDBRANCH   1   7
TORSDOF 2
ENDMDL
