MODEL 1
REMARK minimizedAffinity 9.76528072
REMARK minimizedRMSD -1
REMARK  2 active torsions:
REMARK  status: ('A' for Active; 'I' for Inactive)
REMARK    1  A    between atoms: C1_2  and  C2_3 
REMARK    2  A    between atoms: C2_3  and  C3_4 
ROOT
ATOM      1  C3  UNL d   1      -3.839   0.392   1.312  0.00  0.00    -0.075 A 
ATOM      2  C4  UNL d   1      -3.217   0.126   0.083  0.00  0.00     0.002 A 
ATOM      3  C5  UNL d   1      -3.979  -0.109  -1.061  0.00  0.00     0.002 A 
ATOM      4  C6  UNL d   1      -5.370  -0.093  -0.990  0.00  0.00    -0.004 A 
ATOM      5  C7  UNL d   1      -6.000   0.153   0.228  0.00  0.00     0.002 A 
ATOM      6  C8  UNL d   1      -5.239   0.394   1.374  0.00  0.00     0.002 A 
ENDROOT
BRANCH   1   7
ATOM      7  C2  UNL d   1      -3.020   0.677   2.548  0.00  0.00     0.056 C 
BRANCH   7   8
ATOM      8  C1  UNL d   1      -3.077  -0.432   3.604  0.00  0.00     0.007 C 
ATOM      9  C   UNL d   1      -1.727  -1.089   3.858  0.00  0.00     0.009 C 
ENDBRANCH   7   8
ENDBRANCH   1   7
TORSDOF 2
ENDMDL
