MODEL 1
REMARK minimizedAffinity 2.7948668
REMARK minimizedRMSD -1
REMARK  2 active torsions:
REMARK  status: ('A' for Active; 'I' for Inactive)
REMARK    1  A    between atoms: C1_2  and  C2_3 
REMARK    2  A    between atoms: C2_3  and  C3_4 
ROOT
ATOM      1  C3  UNL d   1       4.559   2.200   2.478  0.00  0.00    -0.075 A 
ATOM      2  C4  UNL d   1       4.578   0.798   2.491  0.00  0.00     0.002 A 
ATOM      3  C5  UNL d   1       5.289   0.108   3.474  0.00  0.00     0.002 A 
ATOM      4  C6  UNL d   1       5.997   0.810   4.447  0.00  0.00    -0.004 A 
ATOM      5  C7  UNL d   1       5.999   2.203   4.433  0.00  0.00     0.002 A 
ATOM      6  C8  UNL d   1       5.284   2.896   3.454  0.00  0.00     0.002 A 
ENDROOT
BRANCH   1   7
ATOM      7  C2  UNL d   1       3.767   2.952   1.435  0.00  0.00     0.056 C 
BRANCH   7   8
ATOM      8  C1  UNL d   1       2.677   2.116   0.756  0.00  0.00     0.007 C 
ATOM      9  C   UNL d   1       1.454   2.931   0.360  0.00  0.00     0.009 C 
ENDBRANCH   7   8
ENDBRANCH   1   7
TORSDOF 2
ENDMDL
