MODEL 1
REMARK minimizedAffinity 2.20938897
REMARK minimizedRMSD -1
REMARK  2 active torsions:
REMARK  status: ('A' for Active; 'I' for Inactive)
REMARK    1  A    between atoms: C1_2  and  C2_3 
REMARK    2  A    between atoms: C2_3  and  C3_4 
ROOT
ATOM      1  C3  UNL d   1       4.075  -0.670   3.482  0.00  0.00    -0.075 A 
ATOM      2  C4  UNL d   1       3.805   0.516   2.785  0.00  0.00     0.002 A 
ATOM      3  C5  UNL d   1       4.631   1.631   2.937  0.00  0.00     0.002 A 
ATOM      4  C6  UNL d   1       5.728   1.577   3.793  0.00  0.00    -0.004 A 
ATOM      5  C7  UNL d   1       5.996   0.409   4.503  0.00  0.00     0.002 A 
ATOM      6  C8  UNL d   1       5.174  -0.709   4.350  0.00  0.00     0.002 A 
ENDROOT
BRANCH   1   7
ATOM      7  C2  UNL d   1       3.202  -1.889   3.300  0.00  0.00     0.056 C 
BRANCH   7   8
ATOM      8  C1  UNL d   1       2.317  -2.208   4.509  0.00  0.00     0.007 C 
ATOM      9  C   UNL d   1       0.966  -1.506   4.466  0.00  0.00     0.009 C 
ENDBRANCH   7   8
ENDBRANCH   1   7
TORSDOF 2
ENDMDL
