MODEL 1
REMARK minimizedAffinity -3.26385498
REMARK minimizedRMSD -1
REMARK  2 active torsions:
REMARK  status: ('A' for Active; 'I' for Inactive)
REMARK    1  A    between atoms: C1_2  and  C2_3 
REMARK    2  A    between atoms: C2_3  and  C3_4 
ROOT
ATOM      1  C3  UNL d   1       3.543  -0.694   1.947  0.00  0.00    -0.075 A 
ATOM      2  C4  UNL d   1       3.186   0.659   1.862  0.00  0.00     0.002 A 
ATOM      3  C5  UNL d   1       3.899   1.626   2.573  0.00  0.00     0.002 A 
ATOM      4  C6  UNL d   1       4.968   1.251   3.384  0.00  0.00    -0.004 A 
ATOM      5  C7  UNL d   1       5.320  -0.093   3.489  0.00  0.00     0.002 A 
ATOM      6  C8  UNL d   1       4.612  -1.061   2.776  0.00  0.00     0.002 A 
ENDROOT
BRANCH   1   7
ATOM      7  C2  UNL d   1       2.794  -1.742   1.158  0.00  0.00     0.056 C 
BRANCH   7   8
ATOM      8  C1  UNL d   1       1.484  -1.240   0.542  0.00  0.00     0.007 C 
ATOM      9  C   UNL d   1       0.381  -2.291   0.538  0.00  0.00     0.009 C 
ENDBRANCH   7   8
ENDBRANCH   1   7
TORSDOF 2
ENDMDL
