MODEL 1
REMARK minimizedAffinity -0.402597606
REMARK minimizedRMSD -1
REMARK  2 active torsions:
REMARK  status: ('A' for Active; 'I' for Inactive)
REMARK    1  A    between atoms: C1_2  and  C2_3 
REMARK    2  A    between atoms: C2_3  and  C3_4 
ROOT
ATOM      1  C3  UNL d   1       5.617   3.505   3.902  0.00  0.00    -0.075 A 
ATOM      2  C4  UNL d   1       5.999   2.892   5.103  0.00  0.00     0.002 A 
ATOM      3  C5  UNL d   1       5.669   1.560   5.355  0.00  0.00     0.002 A 
ATOM      4  C6  UNL d   1       4.945   0.829   4.416  0.00  0.00    -0.004 A 
ATOM      5  C7  UNL d   1       4.545   1.433   3.226  0.00  0.00     0.002 A 
ATOM      6  C8  UNL d   1       4.878   2.765   2.969  0.00  0.00     0.002 A 
ENDROOT
BRANCH   1   7
ATOM      7  C2  UNL d   1       5.997   4.938   3.610  0.00  0.00     0.056 C 
BRANCH   7   8
ATOM      8  C1  UNL d   1       5.272   5.965   4.486  0.00  0.00     0.007 C 
ATOM      9  C   UNL d   1       5.720   5.936   5.942  0.00  0.00     0.009 C 
ENDBRANCH   7   8
ENDBRANCH   1   7
TORSDOF 2
ENDMDL
