MODEL 1
REMARK minimizedAffinity -0.990155399
REMARK minimizedRMSD -1
REMARK  3 active torsions:
REMARK  status: ('A' for Active; 'I' for Inactive)
REMARK    1  A    between atoms: C3'_2  and  C2'_3 
REMARK    2  A    between atoms: C2'_3  and  C1'_4 
REMARK    3  A    between atoms: C1'_4  and  C1_5 
ROOT
ATOM      1  C1  N4B d   1      -4.289  -4.533  -4.640  0.00  0.00    -0.075 A 
ATOM      2  C2  N4B d   1      -3.329  -4.589  -3.606  0.00  0.00     0.002 A 
ATOM      3  C3  N4B d   1      -2.159  -5.283  -3.792  0.00  0.00     0.002 A 
ATOM      4  C4  N4B d   1      -1.936  -5.942  -4.991  0.00  0.00    -0.004 A 
ATOM      5  C5  N4B d   1      -2.857  -5.863  -5.994  0.00  0.00     0.002 A 
ATOM      6  C6  N4B d   1      -4.036  -5.165  -5.823  0.00  0.00     0.002 A 
ENDROOT
BRANCH   1   7
ATOM      7  C1' N4B d   1      -5.621  -3.858  -4.452  0.00  0.00     0.057 C 
BRANCH   7   8
ATOM      8  C2' N4B d   1      -5.997  -3.127  -5.737  0.00  0.00     0.009 C 
BRANCH   8   9
ATOM      9  C3' N4B d   1      -6.000  -1.619  -5.553  0.00  0.00     0.004 C 
ATOM     10  C4' N4B d   1      -5.964  -1.210  -4.110  0.00  0.00     0.003 C 
ENDBRANCH   8   9
ENDBRANCH   7   8
ENDBRANCH   1   7
TORSDOF 3
ENDMDL
