MODEL 1
REMARK minimizedAffinity -0.217332885
REMARK minimizedRMSD -1
REMARK  3 active torsions:
REMARK  status: ('A' for Active; 'I' for Inactive)
REMARK    1  A    between atoms: C3'_2  and  C2'_3 
REMARK    2  A    between atoms: C2'_3  and  C1'_4 
REMARK    3  A    between atoms: C1'_4  and  C1_5 
ROOT
ATOM      1  C1  N4B d   1      -3.626  -5.059  -5.856  0.00  0.00    -0.075 A 
ATOM      2  C2  N4B d   1      -3.619  -3.658  -5.679  0.00  0.00     0.002 A 
ATOM      3  C3  N4B d   1      -4.803  -2.962  -5.663  0.00  0.00     0.002 A 
ATOM      4  C4  N4B d   1      -5.999  -3.640  -5.840  0.00  0.00    -0.004 A 
ATOM      5  C5  N4B d   1      -5.999  -4.996  -5.986  0.00  0.00     0.002 A 
ATOM      6  C6  N4B d   1      -4.817  -5.709  -6.000  0.00  0.00     0.002 A 
ENDROOT
BRANCH   1   7
ATOM      7  C1' N4B d   1      -2.352  -5.852  -5.967  0.00  0.00     0.057 C 
BRANCH   7   8
ATOM      8  C2' N4B d   1      -1.200  -5.031  -5.395  0.00  0.00     0.009 C 
BRANCH   8   9
ATOM      9  C3' N4B d   1      -1.332  -4.835  -3.894  0.00  0.00     0.004 C 
ATOM     10  C4' N4B d   1      -2.123  -5.924  -3.234  0.00  0.00     0.003 C 
ENDBRANCH   8   9
ENDBRANCH   7   8
ENDBRANCH   1   7
TORSDOF 3
ENDMDL
