MODEL 1
REMARK minimizedAffinity -0.853121579
REMARK minimizedRMSD -1
REMARK  3 active torsions:
REMARK  status: ('A' for Active; 'I' for Inactive)
REMARK    1  A    between atoms: C3'_2  and  C2'_3 
REMARK    2  A    between atoms: C2'_3  and  C1'_4 
REMARK    3  A    between atoms: C1'_4  and  C1_5 
ROOT
ATOM      1  C1  N4B d   1      -2.883  -0.403  -0.347  0.00  0.00    -0.075 A 
ATOM      2  C2  N4B d   1      -1.689   0.261   0.010  0.00  0.00     0.002 A 
ATOM      3  C3  N4B d   1      -1.061  -0.044   1.192  0.00  0.00     0.002 A 
ATOM      4  C4  N4B d   1      -1.615  -0.991   2.039  0.00  0.00    -0.004 A 
ATOM      5  C5  N4B d   1      -2.756  -1.646   1.676  0.00  0.00     0.002 A 
ATOM      6  C6  N4B d   1      -3.396  -1.353   0.489  0.00  0.00     0.002 A 
ENDROOT
BRANCH   1   7
ATOM      7  C1' N4B d   1      -3.652  -0.042  -1.588  0.00  0.00     0.057 C 
BRANCH   7   8
ATOM      8  C2' N4B d   1      -4.033  -1.320  -2.330  0.00  0.00     0.009 C 
BRANCH   8   9
ATOM      9  C3' N4B d   1      -5.262  -1.126  -3.202  0.00  0.00     0.004 C 
ATOM     10  C4' N4B d   1      -5.009  -1.450  -4.644  0.00  0.00     0.003 C 
ENDBRANCH   8   9
ENDBRANCH   7   8
ENDBRANCH   1   7
TORSDOF 3
ENDMDL
