MODEL 1
REMARK minimizedAffinity -1.09267044
REMARK minimizedRMSD -1
REMARK  3 active torsions:
REMARK  status: ('A' for Active; 'I' for Inactive)
REMARK    1  A    between atoms: C3'_2  and  C2'_3 
REMARK    2  A    between atoms: C2'_3  and  C1'_4 
REMARK    3  A    between atoms: C1'_4  and  C1_5 
ROOT
ATOM      1  C1  N4B d   1      -3.751  -5.295  -4.842  0.00  0.00    -0.075 A 
ATOM      2  C2  N4B d   1      -4.759  -5.999  -5.538  0.00  0.00     0.002 A 
ATOM      3  C3  N4B d   1      -5.868  -5.333  -5.999  0.00  0.00     0.002 A 
ATOM      4  C4  N4B d   1      -6.000  -3.973  -5.761  0.00  0.00    -0.004 A 
ATOM      5  C5  N4B d   1      -5.010  -3.296  -5.110  0.00  0.00     0.002 A 
ATOM      6  C6  N4B d   1      -3.888  -3.951  -4.645  0.00  0.00     0.002 A 
ENDROOT
BRANCH   1   7
ATOM      7  C1' N4B d   1      -2.562  -5.995  -4.244  0.00  0.00     0.057 C 
BRANCH   7   8
ATOM      8  C2' N4B d   1      -2.631  -5.890  -2.723  0.00  0.00     0.009 C 
BRANCH   8   9
ATOM      9  C3' N4B d   1      -1.586  -4.935  -2.172  0.00  0.00     0.004 C 
ATOM     10  C4' N4B d   1      -2.190  -3.753  -1.474  0.00  0.00     0.003 C 
ENDBRANCH   8   9
ENDBRANCH   7   8
ENDBRANCH   1   7
TORSDOF 3
ENDMDL
