MODEL 1
REMARK minimizedAffinity 5.11897039
REMARK minimizedRMSD -1
REMARK  3 active torsions:
REMARK  status: ('A' for Active; 'I' for Inactive)
REMARK    1  A    between atoms: C3'_2  and  C2'_3 
REMARK    2  A    between atoms: C2'_3  and  C1'_4 
REMARK    3  A    between atoms: C1'_4  and  C1_5 
ROOT
ATOM      1  C1  N4B d   1      -1.065  -1.987   1.622  0.00  0.00    -0.075 A 
ATOM      2  C2  N4B d   1      -1.906  -1.320   2.539  0.00  0.00     0.002 A 
ATOM      3  C3  N4B d   1      -2.476  -0.117   2.199  0.00  0.00     0.002 A 
ATOM      4  C4  N4B d   1      -2.205   0.444   0.960  0.00  0.00    -0.004 A 
ATOM      5  C5  N4B d   1      -1.413  -0.220   0.070  0.00  0.00     0.002 A 
ATOM      6  C6  N4B d   1      -0.837  -1.431   0.396  0.00  0.00     0.002 A 
ENDROOT
BRANCH   1   7
ATOM      7  C1' N4B d   1      -0.351  -3.262   1.980  0.00  0.00     0.057 C 
BRANCH   7   8
ATOM      8  C2' N4B d   1       1.001  -2.921   2.599  0.00  0.00     0.009 C 
BRANCH   8   9
ATOM      9  C3' N4B d   1       1.498  -4.022   3.520  0.00  0.00     0.004 C 
ATOM     10  C4' N4B d   1       1.477  -3.623   4.966  0.00  0.00     0.003 C 
ENDBRANCH   8   9
ENDBRANCH   7   8
ENDBRANCH   1   7
TORSDOF 3
ENDMDL
