MODEL 1
REMARK minimizedAffinity 2.62853789
REMARK minimizedRMSD -1
REMARK  3 active torsions:
REMARK  status: ('A' for Active; 'I' for Inactive)
REMARK    1  A    between atoms: C3'_2  and  C2'_3 
REMARK    2  A    between atoms: C2'_3  and  C1'_4 
REMARK    3  A    between atoms: C1'_4  and  C1_5 
ROOT
ATOM      1  C1  N4B d   1      -4.009  -4.987  -4.852  0.00  0.00    -0.075 A 
ATOM      2  C2  N4B d   1      -4.031  -3.783  -4.115  0.00  0.00     0.002 A 
ATOM      3  C3  N4B d   1      -5.028  -2.864  -4.331  0.00  0.00     0.002 A 
ATOM      4  C4  N4B d   1      -5.998  -3.117  -5.289  0.00  0.00    -0.004 A 
ATOM      5  C5  N4B d   1      -5.985  -4.294  -5.978  0.00  0.00     0.002 A 
ATOM      6  C6  N4B d   1      -4.991  -5.229  -5.768  0.00  0.00     0.002 A 
ENDROOT
BRANCH   1   7
ATOM      7  C1' N4B d   1      -2.891  -5.984  -4.711  0.00  0.00     0.057 C 
BRANCH   7   8
ATOM      8  C2' N4B d   1      -2.069  -6.000  -5.996  0.00  0.00     0.009 C 
BRANCH   8   9
ATOM      9  C3' N4B d   1      -0.998  -4.923  -5.998  0.00  0.00     0.004 C 
ATOM     10  C4' N4B d   1      -0.571  -4.525  -4.617  0.00  0.00     0.003 C 
ENDBRANCH   8   9
ENDBRANCH   7   8
ENDBRANCH   1   7
TORSDOF 3
ENDMDL
