MODEL 1
REMARK minimizedAffinity 2.86341
REMARK minimizedRMSD -1
REMARK  3 active torsions:
REMARK  status: ('A' for Active; 'I' for Inactive)
REMARK    1  A    between atoms: C3'_2  and  C2'_3 
REMARK    2  A    between atoms: C2'_3  and  C1'_4 
REMARK    3  A    between atoms: C1'_4  and  C1_5 
ROOT
ATOM      1  C1  N4B d   1      -2.690  -4.892  -3.443  0.00  0.00    -0.075 A 
ATOM      2  C2  N4B d   1      -1.930  -5.599  -4.401  0.00  0.00     0.002 A 
ATOM      3  C3  N4B d   1      -2.423  -5.779  -5.670  0.00  0.00     0.002 A 
ATOM      4  C4  N4B d   1      -3.675  -5.279  -5.997  0.00  0.00    -0.004 A 
ATOM      5  C5  N4B d   1      -4.390  -4.575  -5.073  0.00  0.00     0.002 A 
ATOM      6  C6  N4B d   1      -3.906  -4.384  -3.795  0.00  0.00     0.002 A 
ENDROOT
BRANCH   1   7
ATOM      7  C1' N4B d   1      -2.231  -4.744  -2.018  0.00  0.00     0.057 C 
BRANCH   7   8
ATOM      8  C2' N4B d   1      -2.289  -3.272  -1.623  0.00  0.00     0.009 C 
BRANCH   8   9
ATOM      9  C3' N4B d   1      -1.874  -3.054  -0.178  0.00  0.00     0.004 C 
ATOM     10  C4' N4B d   1      -1.871  -1.606   0.214  0.00  0.00     0.003 C 
ENDBRANCH   8   9
ENDBRANCH   7   8
ENDBRANCH   1   7
TORSDOF 3
ENDMDL
