MODEL 1
REMARK minimizedAffinity -1.40105128
REMARK minimizedRMSD -1
REMARK  3 active torsions:
REMARK  status: ('A' for Active; 'I' for Inactive)
REMARK    1  A    between atoms: C3'_2  and  C2'_3 
REMARK    2  A    between atoms: C2'_3  and  C1'_4 
REMARK    3  A    between atoms: C1'_4  and  C1_5 
ROOT
ATOM      1  C1  N4B d   1      -5.931  -3.275  -5.247  0.00  0.00    -0.075 A 
ATOM      2  C2  N4B d   1      -5.974  -2.031  -5.914  0.00  0.00     0.002 A 
ATOM      3  C3  N4B d   1      -5.993  -0.864  -5.189  0.00  0.00     0.002 A 
ATOM      4  C4  N4B d   1      -5.990  -0.917  -3.803  0.00  0.00    -0.004 A 
ATOM      5  C5  N4B d   1      -5.923  -2.122  -3.168  0.00  0.00     0.002 A 
ATOM      6  C6  N4B d   1      -5.899  -3.303  -3.883  0.00  0.00     0.002 A 
ENDROOT
BRANCH   1   7
ATOM      7  C1' N4B d   1      -5.995  -4.579  -5.995  0.00  0.00     0.057 C 
BRANCH   7   8
ATOM      8  C2' N4B d   1      -4.753  -5.403  -5.671  0.00  0.00     0.009 C 
BRANCH   8   9
ATOM      9  C3' N4B d   1      -3.479  -4.584  -5.794  0.00  0.00     0.004 C 
ATOM     10  C4' N4B d   1      -2.663  -4.587  -4.536  0.00  0.00     0.003 C 
ENDBRANCH   8   9
ENDBRANCH   7   8
ENDBRANCH   1   7
TORSDOF 3
ENDMDL
