MODEL 1
REMARK minimizedAffinity 11.1673565
REMARK minimizedRMSD -1
REMARK  3 active torsions:
REMARK  status: ('A' for Active; 'I' for Inactive)
REMARK    1  A    between atoms: C3'_2  and  C2'_3 
REMARK    2  A    between atoms: C2'_3  and  C1'_4 
REMARK    3  A    between atoms: C1'_4  and  C1_5 
ROOT
ATOM      1  C1  N4B d   1       0.968   0.764  -2.123  0.00  0.00    -0.075 A 
ATOM      2  C2  N4B d   1       2.231   1.337  -2.386  0.00  0.00     0.002 A 
ATOM      3  C3  N4B d   1       2.357   2.309  -3.348  0.00  0.00     0.002 A 
ATOM      4  C4  N4B d   1       1.242   2.710  -4.068  0.00  0.00    -0.004 A 
ATOM      5  C5  N4B d   1       0.020   2.170  -3.790  0.00  0.00     0.002 A 
ATOM      6  C6  N4B d   1      -0.122   1.195  -2.824  0.00  0.00     0.002 A 
ENDROOT
BRANCH   1   7
ATOM      7  C1' N4B d   1       0.796  -0.363  -1.142  0.00  0.00     0.057 C 
BRANCH   7   8
ATOM      8  C2' N4B d   1       0.734   0.208   0.272  0.00  0.00     0.009 C 
BRANCH   8   9
ATOM      9  C3' N4B d   1      -0.572  -0.135   0.967  0.00  0.00     0.004 C 
ATOM     10  C4' N4B d   1      -1.321  -1.241   0.284  0.00  0.00     0.003 C 
ENDBRANCH   8   9
ENDBRANCH   7   8
ENDBRANCH   1   7
TORSDOF 3
ENDMDL
