MODEL 1
REMARK minimizedAffinity -0.75570333
REMARK minimizedRMSD -1
REMARK  3 active torsions:
REMARK  status: ('A' for Active; 'I' for Inactive)
REMARK    1  A    between atoms: C3'_2  and  C2'_3 
REMARK    2  A    between atoms: C2'_3  and  C1'_4 
REMARK    3  A    between atoms: C1'_4  and  C1_5 
ROOT
ATOM      1  C1  N4B d   1      -3.892  -5.021  -5.007  0.00  0.00    -0.075 A 
ATOM      2  C2  N4B d   1      -3.827  -3.699  -4.515  0.00  0.00     0.002 A 
ATOM      3  C3  N4B d   1      -4.845  -2.817  -4.781  0.00  0.00     0.002 A 
ATOM      4  C4  N4B d   1      -5.924  -3.227  -5.549  0.00  0.00    -0.004 A 
ATOM      5  C5  N4B d   1      -5.992  -4.513  -5.999  0.00  0.00     0.002 A 
ATOM      6  C6  N4B d   1      -4.977  -5.412  -5.736  0.00  0.00     0.002 A 
ENDROOT
BRANCH   1   7
ATOM      7  C1' N4B d   1      -2.763  -5.997  -4.814  0.00  0.00     0.057 C 
BRANCH   7   8
ATOM      8  C2' N4B d   1      -1.794  -5.880  -5.987  0.00  0.00     0.009 C 
BRANCH   8   9
ATOM      9  C3' N4B d   1      -0.355  -5.731  -5.524  0.00  0.00     0.004 C 
ATOM     10  C4' N4B d   1      -0.191  -5.975  -4.053  0.00  0.00     0.003 C 
ENDBRANCH   8   9
ENDBRANCH   7   8
ENDBRANCH   1   7
TORSDOF 3
ENDMDL
