MODEL 1
REMARK minimizedAffinity -1.53455269
REMARK minimizedRMSD -1
REMARK  3 active torsions:
REMARK  status: ('A' for Active; 'I' for Inactive)
REMARK    1  A    between atoms: C3'_2  and  C2'_3 
REMARK    2  A    between atoms: C2'_3  and  C1'_4 
REMARK    3  A    between atoms: C1'_4  and  C1_5 
ROOT
ATOM      1  C1  N4B d   1      -4.206  -4.762  -4.539  0.00  0.00    -0.075 A 
ATOM      2  C2  N4B d   1      -4.006  -5.624  -5.640  0.00  0.00     0.002 A 
ATOM      3  C3  N4B d   1      -2.734  -5.994  -6.000  0.00  0.00     0.002 A 
ATOM      4  C4  N4B d   1      -1.649  -5.503  -5.289  0.00  0.00    -0.004 A 
ATOM      5  C5  N4B d   1      -1.852  -4.691  -4.211  0.00  0.00     0.002 A 
ATOM      6  C6  N4B d   1      -3.125  -4.314  -3.835  0.00  0.00     0.002 A 
ENDROOT
BRANCH   1   7
ATOM      7  C1' N4B d   1      -5.573  -4.261  -4.160  0.00  0.00     0.057 C 
BRANCH   7   8
ATOM      8  C2' N4B d   1      -5.997  -3.173  -5.142  0.00  0.00     0.009 C 
BRANCH   8   9
ATOM      9  C3' N4B d   1      -5.965  -1.793  -4.510  0.00  0.00     0.004 C 
ATOM     10  C4' N4B d   1      -5.065  -0.840  -5.239  0.00  0.00     0.003 C 
ENDBRANCH   8   9
ENDBRANCH   7   8
ENDBRANCH   1   7
TORSDOF 3
ENDMDL
