MODEL 1
REMARK minimizedAffinity 2.85378218
REMARK minimizedRMSD -1
REMARK  3 active torsions:
REMARK  status: ('A' for Active; 'I' for Inactive)
REMARK    1  A    between atoms: C3'_2  and  C2'_3 
REMARK    2  A    between atoms: C2'_3  and  C1'_4 
REMARK    3  A    between atoms: C1'_4  and  C1_5 
ROOT
ATOM      1  C1  N4B d   1      -4.243  -3.618  -5.988  0.00  0.00    -0.075 A 
ATOM      2  C2  N4B d   1      -2.831  -3.614  -5.968  0.00  0.00     0.002 A 
ATOM      3  C3  N4B d   1      -2.141  -4.801  -5.949  0.00  0.00     0.002 A 
ATOM      4  C4  N4B d   1      -2.839  -6.000  -5.930  0.00  0.00    -0.004 A 
ATOM      5  C5  N4B d   1      -4.202  -5.995  -5.975  0.00  0.00     0.002 A 
ATOM      6  C6  N4B d   1      -4.909  -4.810  -5.998  0.00  0.00     0.002 A 
ENDROOT
BRANCH   1   7
ATOM      7  C1' N4B d   1      -5.042  -2.345  -5.922  0.00  0.00     0.057 C 
BRANCH   7   8
ATOM      8  C2' N4B d   1      -5.624  -2.191  -4.520  0.00  0.00     0.009 C 
BRANCH   8   9
ATOM      9  C3' N4B d   1      -5.301  -3.383  -3.636  0.00  0.00     0.004 C 
ATOM     10  C4' N4B d   1      -3.902  -3.344  -3.097  0.00  0.00     0.003 C 
ENDBRANCH   8   9
ENDBRANCH   7   8
ENDBRANCH   1   7
TORSDOF 3
ENDMDL
