MODEL 1
REMARK minimizedAffinity -0.448993295
REMARK minimizedRMSD -1
REMARK  3 active torsions:
REMARK  status: ('A' for Active; 'I' for Inactive)
REMARK    1  A    between atoms: C3'_2  and  C2'_3 
REMARK    2  A    between atoms: C2'_3  and  C1'_4 
REMARK    3  A    between atoms: C1'_4  and  C1_5 
ROOT
ATOM      1  C1  N4B d   1      -4.386  -3.599  -5.997  0.00  0.00    -0.075 A 
ATOM      2  C2  N4B d   1      -2.976  -3.521  -5.998  0.00  0.00     0.002 A 
ATOM      3  C3  N4B d   1      -2.225  -4.671  -5.969  0.00  0.00     0.002 A 
ATOM      4  C4  N4B d   1      -2.860  -5.903  -5.919  0.00  0.00    -0.004 A 
ATOM      5  C5  N4B d   1      -4.222  -5.970  -5.943  0.00  0.00     0.002 A 
ATOM      6  C6  N4B d   1      -4.989  -4.823  -5.977  0.00  0.00     0.002 A 
ENDROOT
BRANCH   1   7
ATOM      7  C1' N4B d   1      -5.249  -2.368  -5.942  0.00  0.00     0.057 C 
BRANCH   7   8
ATOM      8  C2' N4B d   1      -4.371  -1.152  -5.661  0.00  0.00     0.009 C 
BRANCH   8   9
ATOM      9  C3' N4B d   1      -4.648  -0.554  -4.293  0.00  0.00     0.004 C 
ATOM     10  C4' N4B d   1      -5.999  -0.926  -3.759  0.00  0.00     0.003 C 
ENDBRANCH   8   9
ENDBRANCH   7   8
ENDBRANCH   1   7
TORSDOF 3
ENDMDL
