MODEL 1
REMARK minimizedAffinity 8.10718155
REMARK minimizedRMSD -1
REMARK  0 active torsions:
REMARK  status: ('A' for Active; 'I' for Inactive)
ROOT
ATOM      1  C2' OXE d   1      -4.924  -1.857  -1.972  0.00  0.00     0.078 C 
ATOM      2  C1' OXE d   1      -3.758  -0.465  -4.113  0.00  0.00     0.078 C 
ATOM      3  C1  OXE d   1      -4.552  -1.707  -4.430  0.00  0.00    -0.078 A 
ATOM      4  C2  OXE d   1      -5.080  -2.408  -3.373  0.00  0.00    -0.078 A 
ATOM      5  C3  OXE d   1      -5.867  -3.530  -3.613  0.00  0.00     0.003 A 
ATOM      6  C4  OXE d   1      -5.999  -4.039  -4.911  0.00  0.00    -0.002 A 
ATOM      7  C5  OXE d   1      -5.436  -3.362  -5.999  0.00  0.00    -0.002 A 
ATOM      8  C6  OXE d   1      -4.747  -2.174  -5.781  0.00  0.00     0.003 A 
ENDROOT
TORSDOF 0
ENDMDL
