MODEL 1
REMARK minimizedAffinity 1.89710689
REMARK minimizedRMSD -1
REMARK  0 active torsions:
REMARK  status: ('A' for Active; 'I' for Inactive)
ROOT
ATOM      1  C2' OXE d   1      -3.258  -2.291  -5.384  0.00  0.00     0.078 C 
ATOM      2  C1' OXE d   1      -5.603  -2.401  -3.844  0.00  0.00     0.078 C 
ATOM      3  C1  OXE d   1      -5.173  -3.655  -4.563  0.00  0.00    -0.078 A 
ATOM      4  C2  OXE d   1      -4.051  -3.580  -5.351  0.00  0.00    -0.078 A 
ATOM      5  C3  OXE d   1      -3.580  -4.722  -5.992  0.00  0.00     0.003 A 
ATOM      6  C4  OXE d   1      -4.325  -5.908  -5.965  0.00  0.00    -0.002 A 
ATOM      7  C5  OXE d   1      -5.493  -5.995  -5.200  0.00  0.00    -0.002 A 
ATOM      8  C6  OXE d   1      -5.907  -4.893  -4.460  0.00  0.00     0.003 A 
ENDROOT
TORSDOF 0
ENDMDL
