MODEL 1
REMARK minimizedAffinity 18.7008247
REMARK minimizedRMSD -1
REMARK  0 active torsions:
REMARK  status: ('A' for Active; 'I' for Inactive)
ROOT
ATOM      1  C2' OXE d   1      -2.143   1.346   0.693  0.00  0.00     0.078 C 
ATOM      2  C1' OXE d   1      -1.284  -0.821   2.257  0.00  0.00     0.078 C 
ATOM      3  C1  OXE d   1      -0.593   0.505   2.453  0.00  0.00    -0.078 A 
ATOM      4  C2  OXE d   1      -0.989   1.549   1.650  0.00  0.00    -0.078 A 
ATOM      5  C3  OXE d   1      -0.422   2.808   1.828  0.00  0.00     0.003 A 
ATOM      6  C4  OXE d   1       0.652   2.984   2.708  0.00  0.00    -0.002 A 
ATOM      7  C5  OXE d   1       1.097   1.925   3.506  0.00  0.00    -0.002 A 
ATOM      8  C6  OXE d   1       0.458   0.692   3.422  0.00  0.00     0.003 A 
ENDROOT
TORSDOF 0
ENDMDL
