MODEL 1
REMARK minimizedAffinity 5.45091009
REMARK minimizedRMSD -1
REMARK  0 active torsions:
REMARK  status: ('A' for Active; 'I' for Inactive)
ROOT
ATOM      1  C2' OXE d   1      -1.987  -3.077  -5.994  0.00  0.00     0.078 C 
ATOM      2  C1' OXE d   1      -1.897  -5.883  -5.988  0.00  0.00     0.078 C 
ATOM      3  C1  OXE d   1      -3.250  -5.222  -5.896  0.00  0.00    -0.078 A 
ATOM      4  C2  OXE d   1      -3.281  -3.849  -5.852  0.00  0.00    -0.078 A 
ATOM      5  C3  OXE d   1      -4.506  -3.188  -5.822  0.00  0.00     0.003 A 
ATOM      6  C4  OXE d   1      -5.697  -3.910  -5.681  0.00  0.00    -0.002 A 
ATOM      7  C5  OXE d   1      -5.685  -5.309  -5.683  0.00  0.00    -0.002 A 
ATOM      8  C6  OXE d   1      -4.476  -5.979  -5.832  0.00  0.00     0.003 A 
ENDROOT
TORSDOF 0
ENDMDL
