MODEL 1
REMARK minimizedAffinity 2.35121202
REMARK minimizedRMSD -1
REMARK  0 active torsions:
REMARK  status: ('A' for Active; 'I' for Inactive)
ROOT
ATOM      1  C2' OXE d   1      -3.859  -5.935   1.922  0.00  0.00     0.078 C 
ATOM      2  C1' OXE d   1      -4.008  -5.750  -0.875  0.00  0.00     0.078 C 
ATOM      3  C1  OXE d   1      -4.586  -4.618  -0.063  0.00  0.00    -0.078 A 
ATOM      4  C2  OXE d   1      -4.550  -4.739   1.305  0.00  0.00    -0.078 A 
ATOM      5  C3  OXE d   1      -5.019  -3.698   2.101  0.00  0.00     0.003 A 
ATOM      6  C4  OXE d   1      -5.666  -2.599   1.523  0.00  0.00    -0.002 A 
ATOM      7  C5  OXE d   1      -5.749  -2.475   0.132  0.00  0.00    -0.002 A 
ATOM      8  C6  OXE d   1      -5.177  -3.453  -0.674  0.00  0.00     0.003 A 
ENDROOT
TORSDOF 0
ENDMDL
