MODEL 1
REMARK minimizedAffinity 2.50473428
REMARK minimizedRMSD -1
REMARK  0 active torsions:
REMARK  status: ('A' for Active; 'I' for Inactive)
ROOT
ATOM      1  C2' OXE d   1      -5.976  -4.140   2.951  0.00  0.00     0.078 C 
ATOM      2  C1' OXE d   1      -4.680  -5.944   1.235  0.00  0.00     0.078 C 
ATOM      3  C1  OXE d   1      -5.025  -4.580   0.691  0.00  0.00    -0.078 A 
ATOM      4  C2  OXE d   1      -5.701  -3.720   1.523  0.00  0.00    -0.078 A 
ATOM      5  C3  OXE d   1      -5.995  -2.430   1.090  0.00  0.00     0.003 A 
ATOM      6  C4  OXE d   1      -5.746  -2.054  -0.235  0.00  0.00    -0.002 A 
ATOM      7  C5  OXE d   1      -5.094  -2.928  -1.111  0.00  0.00    -0.002 A 
ATOM      8  C6  OXE d   1      -4.689  -4.177  -0.652  0.00  0.00     0.003 A 
ENDROOT
TORSDOF 0
ENDMDL
