MODEL 1
REMARK minimizedAffinity 16.4000568
REMARK minimizedRMSD -1
REMARK  0 active torsions:
REMARK  status: ('A' for Active; 'I' for Inactive)
ROOT
ATOM      1  C2' OXE d   1       3.796   1.901  -5.999  0.00  0.00     0.078 C 
ATOM      2  C1' OXE d   1       4.746  -0.740  -6.000  0.00  0.00     0.078 C 
ATOM      3  C1  OXE d   1       3.448  -0.459  -5.284  0.00  0.00    -0.078 A 
ATOM      4  C2  OXE d   1       3.015   0.844  -5.249  0.00  0.00    -0.078 A 
ATOM      5  C3  OXE d   1       1.796   1.150  -4.649  0.00  0.00     0.003 A 
ATOM      6  C4  OXE d   1       1.085   0.168  -3.949  0.00  0.00    -0.002 A 
ATOM      7  C5  OXE d   1       1.529  -1.159  -3.939  0.00  0.00    -0.002 A 
ATOM      8  C6  OXE d   1       2.684  -1.496  -4.636  0.00  0.00     0.003 A 
ENDROOT
TORSDOF 0
ENDMDL
