MODEL 1
REMARK minimizedAffinity 13.6644802
REMARK minimizedRMSD -1
REMARK  0 active torsions:
REMARK  status: ('A' for Active; 'I' for Inactive)
ROOT
ATOM      1  C2' OXE d   1       3.473   4.152  -5.363  0.00  0.00     0.078 C 
ATOM      2  C1' OXE d   1       1.986   6.000  -3.862  0.00  0.00     0.078 C 
ATOM      3  C1  OXE d   1       1.990   4.563  -3.405  0.00  0.00    -0.078 A 
ATOM      4  C2  OXE d   1       2.682   3.657  -4.172  0.00  0.00    -0.078 A 
ATOM      5  C3  OXE d   1       2.764   2.328  -3.764  0.00  0.00     0.003 A 
ATOM      6  C4  OXE d   1       2.021   1.877  -2.667  0.00  0.00    -0.002 A 
ATOM      7  C5  OXE d   1       1.277   2.776  -1.895  0.00  0.00    -0.002 A 
ATOM      8  C6  OXE d   1       1.285   4.126  -2.225  0.00  0.00     0.003 A 
ENDROOT
TORSDOF 0
ENDMDL
