MODEL 1
REMARK minimizedAffinity 15.7354584
REMARK minimizedRMSD -1
REMARK  0 active torsions:
REMARK  status: ('A' for Active; 'I' for Inactive)
ROOT
ATOM      1  C2' OXE d   1       2.996  -0.177  -4.790  0.00  0.00     0.078 C 
ATOM      2  C1' OXE d   1       2.896   1.236  -2.366  0.00  0.00     0.078 C 
ATOM      3  C1  OXE d   1       3.172   2.018  -3.626  0.00  0.00    -0.078 A 
ATOM      4  C2  OXE d   1       3.265   1.312  -4.801  0.00  0.00    -0.078 A 
ATOM      5  C3  OXE d   1       3.464   1.992  -6.000  0.00  0.00     0.003 A 
ATOM      6  C4  OXE d   1       3.722   3.368  -6.000  0.00  0.00    -0.002 A 
ATOM      7  C5  OXE d   1       3.670   4.100  -4.809  0.00  0.00    -0.002 A 
ATOM      8  C6  OXE d   1       3.355   3.449  -3.622  0.00  0.00     0.003 A 
ENDROOT
TORSDOF 0
ENDMDL
