MODEL 1
REMARK minimizedAffinity 13.9420252
REMARK minimizedRMSD -1
REMARK  0 active torsions:
REMARK  status: ('A' for Active; 'I' for Inactive)
ROOT
ATOM      1  C2' OXE d   1       3.742   2.791  -4.830  0.00  0.00     0.078 C 
ATOM      2  C1' OXE d   1       4.022   0.743  -2.930  0.00  0.00     0.078 C 
ATOM      3  C1  OXE d   1       2.978   0.569  -4.004  0.00  0.00    -0.078 A 
ATOM      4  C2  OXE d   1       2.816   1.596  -4.902  0.00  0.00    -0.078 A 
ATOM      5  C3  OXE d   1       1.905   1.463  -5.946  0.00  0.00     0.003 A 
ATOM      6  C4  OXE d   1       1.045   0.359  -5.999  0.00  0.00    -0.002 A 
ATOM      7  C5  OXE d   1       1.166  -0.681  -5.072  0.00  0.00    -0.002 A 
ATOM      8  C6  OXE d   1       2.154  -0.611  -4.095  0.00  0.00     0.003 A 
ENDROOT
TORSDOF 0
ENDMDL
