MODEL 1
REMARK minimizedAffinity 6.42919111
REMARK minimizedRMSD -1
REMARK  0 active torsions:
REMARK  status: ('A' for Active; 'I' for Inactive)
ROOT
ATOM      1  C2' OXE d   1      -2.070  -3.546  -5.973  0.00  0.00     0.078 C 
ATOM      2  C1' OXE d   1      -4.051  -1.922  -4.825  0.00  0.00     0.078 C 
ATOM      3  C1  OXE d   1      -4.408  -3.354  -5.136  0.00  0.00    -0.078 A 
ATOM      4  C2  OXE d   1      -3.447  -4.128  -5.740  0.00  0.00    -0.078 A 
ATOM      5  C3  OXE d   1      -3.706  -5.471  -5.999  0.00  0.00     0.003 A 
ATOM      6  C4  OXE d   1      -4.986  -5.999  -5.790  0.00  0.00    -0.002 A 
ATOM      7  C5  OXE d   1      -5.992  -5.217  -5.212  0.00  0.00    -0.002 A 
ATOM      8  C6  OXE d   1      -5.707  -3.907  -4.840  0.00  0.00     0.003 A 
ENDROOT
TORSDOF 0
ENDMDL
