MODEL 1
REMARK minimizedAffinity 7.10011864
REMARK minimizedRMSD -1
REMARK  0 active torsions:
REMARK  status: ('A' for Active; 'I' for Inactive)
ROOT
ATOM      1  C2' OXE d   1       3.241  -6.000   4.859  0.00  0.00     0.078 C 
ATOM      2  C1' OXE d   1       4.521  -5.995   2.361  0.00  0.00     0.078 C 
ATOM      3  C1  OXE d   1       3.068  -5.591   2.408  0.00  0.00    -0.078 A 
ATOM      4  C2  OXE d   1       2.438  -5.641   3.628  0.00  0.00    -0.078 A 
ATOM      5  C3  OXE d   1       1.113  -5.227   3.737  0.00  0.00     0.003 A 
ATOM      6  C4  OXE d   1       0.374  -4.906   2.592  0.00  0.00    -0.002 A 
ATOM      7  C5  OXE d   1       0.987  -4.887   1.334  0.00  0.00    -0.002 A 
ATOM      8  C6  OXE d   1       2.341  -5.185   1.231  0.00  0.00     0.003 A 
ENDROOT
TORSDOF 0
ENDMDL
