MODEL 1
REMARK minimizedAffinity 5.40868616
REMARK minimizedRMSD -1
REMARK  0 active torsions:
REMARK  status: ('A' for Active; 'I' for Inactive)
ROOT
ATOM      1  C2' OXE d   1      -2.948  -2.576   0.454  0.00  0.00     0.078 C 
ATOM      2  C1' OXE d   1      -5.406  -1.233   0.271  0.00  0.00     0.078 C 
ATOM      3  C1  OXE d   1      -4.194  -0.430   0.674  0.00  0.00    -0.078 A 
ATOM      4  C2  OXE d   1      -3.004  -1.105   0.806  0.00  0.00    -0.078 A 
ATOM      5  C3  OXE d   1      -1.845  -0.403   1.122  0.00  0.00     0.003 A 
ATOM      6  C4  OXE d   1      -1.908   0.955   1.456  0.00  0.00    -0.002 A 
ATOM      7  C5  OXE d   1      -3.117   1.653   1.367  0.00  0.00    -0.002 A 
ATOM      8  C6  OXE d   1      -4.258   0.986   0.937  0.00  0.00     0.003 A 
ENDROOT
TORSDOF 0
ENDMDL
