MODEL 1
REMARK minimizedAffinity 10.5118008
REMARK minimizedRMSD -1
REMARK  0 active torsions:
REMARK  status: ('A' for Active; 'I' for Inactive)
ROOT
ATOM      1  C2' OXE d   1      -2.422  -0.641   1.827  0.00  0.00     0.078 C 
ATOM      2  C1' OXE d   1      -3.344   2.010   1.787  0.00  0.00     0.078 C 
ATOM      3  C1  OXE d   1      -1.911   1.770   2.191  0.00  0.00    -0.078 A 
ATOM      4  C2  OXE d   1      -1.481   0.466   2.253  0.00  0.00    -0.078 A 
ATOM      5  C3  OXE d   1      -0.153   0.192   2.567  0.00  0.00     0.003 A 
ATOM      6  C4  OXE d   1       0.707   1.221   2.969  0.00  0.00    -0.002 A 
ATOM      7  C5  OXE d   1       0.278   2.552   2.952  0.00  0.00    -0.002 A 
ATOM      8  C6  OXE d   1      -1.012   2.847   2.525  0.00  0.00     0.003 A 
ENDROOT
TORSDOF 0
ENDMDL
