MODEL 1
REMARK minimizedAffinity 10.5160799
REMARK minimizedRMSD -1
REMARK  0 active torsions:
REMARK  status: ('A' for Active; 'I' for Inactive)
ROOT
ATOM      1  C2' OXE d   1      -4.462   2.112   0.718  0.00  0.00     0.078 C 
ATOM      2  C1' OXE d   1      -4.629  -0.688   0.829  0.00  0.00     0.078 C 
ATOM      3  C1  OXE d   1      -3.278  -0.054   1.048  0.00  0.00    -0.078 A 
ATOM      4  C2  OXE d   1      -3.196   1.314   0.945  0.00  0.00    -0.078 A 
ATOM      5  C3  OXE d   1      -1.985   1.953   1.191  0.00  0.00     0.003 A 
ATOM      6  C4  OXE d   1      -0.817   1.206   1.391  0.00  0.00    -0.002 A 
ATOM      7  C5  OXE d   1      -0.870  -0.190   1.460  0.00  0.00    -0.002 A 
ATOM      8  C6  OXE d   1      -2.097  -0.832   1.333  0.00  0.00     0.003 A 
ENDROOT
TORSDOF 0
ENDMDL
