MODEL 1
REMARK minimizedAffinity 13.3409986
REMARK minimizedRMSD -1
REMARK  0 active torsions:
REMARK  status: ('A' for Active; 'I' for Inactive)
ROOT
ATOM      1  C2' OXE d   1      -0.011   2.108   2.970  0.00  0.00     0.078 C 
ATOM      2  C1' OXE d   1      -2.369   3.581   2.582  0.00  0.00     0.078 C 
ATOM      3  C1  OXE d   1      -2.337   2.160   2.079  0.00  0.00    -0.078 A 
ATOM      4  C2  OXE d   1      -1.163   1.462   2.232  0.00  0.00    -0.078 A 
ATOM      5  C3  OXE d   1      -1.097   0.129   1.835  0.00  0.00     0.003 A 
ATOM      6  C4  OXE d   1      -2.163  -0.459   1.144  0.00  0.00    -0.002 A 
ATOM      7  C5  OXE d   1      -3.354   0.248   0.942  0.00  0.00    -0.002 A 
ATOM      8  C6  OXE d   1      -3.472   1.541   1.440  0.00  0.00     0.003 A 
ENDROOT
TORSDOF 0
ENDMDL
