MODEL 1
REMARK minimizedAffinity 1.60578454
REMARK minimizedRMSD -1
REMARK  0 active torsions:
REMARK  status: ('A' for Active; 'I' for Inactive)
ROOT
ATOM      1  C2' OXE d   1      -2.188  -2.957   0.096  0.00  0.00     0.078 C 
ATOM      2  C1' OXE d   1      -4.921  -2.321   0.019  0.00  0.00     0.078 C 
ATOM      3  C1  OXE d   1      -3.953  -1.225   0.391  0.00  0.00    -0.078 A 
ATOM      4  C2  OXE d   1      -2.622  -1.557   0.472  0.00  0.00    -0.078 A 
ATOM      5  C3  OXE d   1      -1.682  -0.572   0.758  0.00  0.00     0.003 A 
ATOM      6  C4  OXE d   1      -2.094   0.718   1.114  0.00  0.00    -0.002 A 
ATOM      7  C5  OXE d   1      -3.448   1.067   1.077  0.00  0.00    -0.002 A 
ATOM      8  C6  OXE d   1      -4.385   0.121   0.677  0.00  0.00     0.003 A 
ENDROOT
TORSDOF 0
ENDMDL
