MODEL 1
REMARK minimizedAffinity 13.4991035
REMARK minimizedRMSD -1
REMARK  0 active torsions:
REMARK  status: ('A' for Active; 'I' for Inactive)
ROOT
ATOM      1  C2' OXE d   1       4.395   3.917  -4.548  0.00  0.00     0.078 C 
ATOM      2  C1' OXE d   1       2.787   6.000  -3.570  0.00  0.00     0.078 C 
ATOM      3  C1  OXE d   1       2.657   4.646  -2.919  0.00  0.00    -0.078 A 
ATOM      4  C2  OXE d   1       3.414   3.621  -3.434  0.00  0.00    -0.078 A 
ATOM      5  C3  OXE d   1       3.372   2.365  -2.835  0.00  0.00     0.003 A 
ATOM      6  C4  OXE d   1       2.455   2.097  -1.812  0.00  0.00    -0.002 A 
ATOM      7  C5  OXE d   1       1.646   3.117  -1.299  0.00  0.00    -0.002 A 
ATOM      8  C6  OXE d   1       1.765   4.404  -1.811  0.00  0.00     0.003 A 
ENDROOT
TORSDOF 0
ENDMDL
