MODEL 1
REMARK minimizedAffinity 13.0510559
REMARK minimizedRMSD -1
REMARK  0 active torsions:
REMARK  status: ('A' for Active; 'I' for Inactive)
ROOT
ATOM      1  C2' OXE d   1       1.820  -0.373   3.002  0.00  0.00     0.078 C 
ATOM      2  C1' OXE d   1       2.752   1.393   1.029  0.00  0.00     0.078 C 
ATOM      3  C1  OXE d   1       3.743   0.435   1.640  0.00  0.00    -0.078 A 
ATOM      4  C2  OXE d   1       3.289  -0.394   2.638  0.00  0.00    -0.078 A 
ATOM      5  C3  OXE d   1       4.148  -1.334   3.198  0.00  0.00     0.003 A 
ATOM      6  C4  OXE d   1       5.508  -1.340   2.863  0.00  0.00    -0.002 A 
ATOM      7  C5  OXE d   1       6.000  -0.478   1.878  0.00  0.00    -0.002 A 
ATOM      8  C6  OXE d   1       5.124   0.385   1.228  0.00  0.00     0.003 A 
ENDROOT
TORSDOF 0
ENDMDL
