MODEL 1
REMARK minimizedAffinity 4.70920992
REMARK minimizedRMSD -1
REMARK  0 active torsions:
REMARK  status: ('A' for Active; 'I' for Inactive)
ROOT
ATOM      1  C2' OXE d   1       0.890   0.271   2.981  0.00  0.00     0.078 C 
ATOM      2  C1' OXE d   1       0.108   2.967   2.974  0.00  0.00     0.078 C 
ATOM      3  C1  OXE d   1      -0.906   1.939   2.537  0.00  0.00    -0.078 A 
ATOM      4  C2  OXE d   1      -0.499   0.627   2.499  0.00  0.00    -0.078 A 
ATOM      5  C3  OXE d   1      -1.411  -0.368   2.155  0.00  0.00     0.003 A 
ATOM      6  C4  OXE d   1      -2.691  -0.029   1.701  0.00  0.00    -0.002 A 
ATOM      7  C5  OXE d   1      -3.112   1.305   1.694  0.00  0.00    -0.002 A 
ATOM      8  C6  OXE d   1      -2.248   2.295   2.148  0.00  0.00     0.003 A 
ENDROOT
TORSDOF 0
ENDMDL
