MODEL 1
REMARK minimizedAffinity -4.02945614
REMARK minimizedRMSD -1
REMARK  0 active torsions:
REMARK  status: ('A' for Active; 'I' for Inactive)
ROOT
ATOM      1  C   UNL d   1       0.361  -1.018  -0.815  0.00  0.00     0.078 C 
ATOM      2  C1  UNL d   1       0.445   0.297  -0.100  0.00  0.00    -0.077 A 
ATOM      3  C2  UNL d   1      -0.258   0.517   1.091  0.00  0.00    -0.001 A 
ATOM      4  C3  UNL d   1      -0.178   1.750   1.740  0.00  0.00     0.003 A 
ATOM      5  C4  UNL d   1       0.604   2.773   1.206  0.00  0.00    -0.005 A 
ATOM      6  C5  UNL d   1       1.306   2.564   0.021  0.00  0.00     0.003 A 
ATOM      7  C6  UNL d   1       1.226   1.331  -0.630  0.00  0.00    -0.001 A 
ENDROOT
TORSDOF 0
ENDMDL
