MODEL 1
REMARK minimizedAffinity -3.62279725
REMARK minimizedRMSD -1
REMARK  0 active torsions:
REMARK  status: ('A' for Active; 'I' for Inactive)
ROOT
ATOM      1  C   UNL d   1      -0.409  -0.945  -0.698  0.00  0.00     0.078 C 
ATOM      2  C1  UNL d   1       0.022   0.280   0.051  0.00  0.00    -0.077 A 
ATOM      3  C2  UNL d   1       0.796   1.269  -0.568  0.00  0.00    -0.001 A 
ATOM      4  C3  UNL d   1       1.198   2.400   0.145  0.00  0.00     0.003 A 
ATOM      5  C4  UNL d   1       0.832   2.552   1.481  0.00  0.00    -0.005 A 
ATOM      6  C5  UNL d   1       0.064   1.572   2.106  0.00  0.00     0.003 A 
ATOM      7  C6  UNL d   1      -0.339   0.440   1.395  0.00  0.00    -0.001 A 
ENDROOT
TORSDOF 0
ENDMDL
