MODEL 1
REMARK minimizedAffinity -4.92882633
REMARK minimizedRMSD -1
REMARK  0 active torsions:
REMARK  status: ('A' for Active; 'I' for Inactive)
ROOT
ATOM      1  C   UNL d   1      -0.594  -1.025  -0.581  0.00  0.00     0.078 C 
ATOM      2  C1  UNL d   1       0.119   0.105   0.101  0.00  0.00    -0.077 A 
ATOM      3  C2  UNL d   1      -0.528   0.888   1.065  0.00  0.00    -0.001 A 
ATOM      4  C3  UNL d   1       0.145   1.942   1.685  0.00  0.00     0.003 A 
ATOM      5  C4  UNL d   1       1.467   2.224   1.346  0.00  0.00    -0.005 A 
ATOM      6  C5  UNL d   1       2.117   1.452   0.385  0.00  0.00     0.003 A 
ATOM      7  C6  UNL d   1       1.446   0.397  -0.235  0.00  0.00    -0.001 A 
ENDROOT
TORSDOF 0
ENDMDL
