MODEL 1
REMARK minimizedAffinity -4.67665672
REMARK minimizedRMSD -1
REMARK  0 active torsions:
REMARK  status: ('A' for Active; 'I' for Inactive)
ROOT
ATOM      1  C   UNL d   1       0.398   3.315   0.507  0.00  0.00     0.078 C 
ATOM      2  C1  UNL d   1       0.233   1.833   0.664  0.00  0.00    -0.077 A 
ATOM      3  C2  UNL d   1       0.663   0.950  -0.334  0.00  0.00    -0.001 A 
ATOM      4  C3  UNL d   1       0.495  -0.427  -0.178  0.00  0.00     0.003 A 
ATOM      5  C4  UNL d   1      -0.105  -0.933   0.973  0.00  0.00    -0.005 A 
ATOM      6  C5  UNL d   1      -0.538  -0.062   1.971  0.00  0.00     0.003 A 
ATOM      7  C6  UNL d   1      -0.370   1.315   1.817  0.00  0.00    -0.001 A 
ENDROOT
TORSDOF 0
ENDMDL
