MODEL 1
REMARK minimizedAffinity -4.83976078
REMARK minimizedRMSD -1
REMARK  0 active torsions:
REMARK  status: ('A' for Active; 'I' for Inactive)
ROOT
ATOM      1  C   UNL d   1      -0.769  -1.175  -0.716  0.00  0.00     0.078 C 
ATOM      2  C1  UNL d   1      -0.250   0.023   0.022  0.00  0.00    -0.077 A 
ATOM      3  C2  UNL d   1      -0.394   0.132   1.410  0.00  0.00    -0.001 A 
ATOM      4  C3  UNL d   1       0.085   1.257   2.083  0.00  0.00     0.003 A 
ATOM      5  C4  UNL d   1       0.710   2.282   1.376  0.00  0.00    -0.005 A 
ATOM      6  C5  UNL d   1       0.856   2.183  -0.006  0.00  0.00     0.003 A 
ATOM      7  C6  UNL d   1       0.378   1.059  -0.681  0.00  0.00    -0.001 A 
ENDROOT
TORSDOF 0
ENDMDL
