MODEL 1
REMARK minimizedAffinity -4.23467255
REMARK minimizedRMSD -1
REMARK  0 active torsions:
REMARK  status: ('A' for Active; 'I' for Inactive)
ROOT
ATOM      1  C   UNL d   1       1.332   2.172   1.222  0.00  0.00     0.078 C 
ATOM      2  C1  UNL d   1       0.909   0.858   0.635  0.00  0.00    -0.077 A 
ATOM      3  C2  UNL d   1       1.714   0.191  -0.296  0.00  0.00    -0.001 A 
ATOM      4  C3  UNL d   1       1.304  -1.027  -0.840  0.00  0.00     0.003 A 
ATOM      5  C4  UNL d   1       0.086  -1.587  -0.461  0.00  0.00    -0.005 A 
ATOM      6  C5  UNL d   1      -0.724  -0.930   0.463  0.00  0.00     0.003 A 
ATOM      7  C6  UNL d   1      -0.315   0.288   1.009  0.00  0.00    -0.001 A 
ENDROOT
TORSDOF 0
ENDMDL
