MODEL 1
REMARK minimizedAffinity -1.03450143
REMARK minimizedRMSD -1
REMARK  0 active torsions:
REMARK  status: ('A' for Active; 'I' for Inactive)
ROOT
ATOM      1  C   UNL d   1      -1.276   1.114   1.880  0.00  0.00     0.078 C 
ATOM      2  C1  UNL d   1      -0.403   0.345   0.934  0.00  0.00    -0.077 A 
ATOM      3  C2  UNL d   1      -0.885  -0.787   0.266  0.00  0.00    -0.001 A 
ATOM      4  C3  UNL d   1      -0.057  -1.499  -0.604  0.00  0.00     0.003 A 
ATOM      5  C4  UNL d   1       1.257  -1.087  -0.813  0.00  0.00    -0.005 A 
ATOM      6  C5  UNL d   1       1.746   0.037  -0.151  0.00  0.00     0.003 A 
ATOM      7  C6  UNL d   1       0.921   0.750   0.719  0.00  0.00    -0.001 A 
ENDROOT
TORSDOF 0
ENDMDL
