MODEL 1
REMARK minimizedAffinity -3.56658959
REMARK minimizedRMSD -1
REMARK  0 active torsions:
REMARK  status: ('A' for Active; 'I' for Inactive)
ROOT
ATOM      1  C   UNL d   1      -0.629  -1.765  -1.800  0.00  0.00     0.078 C 
ATOM      2  C1  UNL d   1      -0.274  -0.684  -0.823  0.00  0.00    -0.077 A 
ATOM      3  C2  UNL d   1       0.783   0.198  -1.076  0.00  0.00    -0.001 A 
ATOM      4  C3  UNL d   1       1.108   1.194  -0.152  0.00  0.00     0.003 A 
ATOM      5  C4  UNL d   1       0.381   1.315   1.031  0.00  0.00    -0.005 A 
ATOM      6  C5  UNL d   1      -0.671   0.439   1.292  0.00  0.00     0.003 A 
ATOM      7  C6  UNL d   1      -0.997  -0.556   0.370  0.00  0.00    -0.001 A 
ENDROOT
TORSDOF 0
ENDMDL
