MODEL 1
REMARK minimizedAffinity -4.80877542
REMARK minimizedRMSD -1
REMARK  0 active torsions:
REMARK  status: ('A' for Active; 'I' for Inactive)
ROOT
ATOM      1  C   UNL d   1       1.070   3.015   0.732  0.00  0.00     0.078 C 
ATOM      2  C1  UNL d   1       0.560   1.605   0.764  0.00  0.00    -0.077 A 
ATOM      3  C2  UNL d   1       1.041   0.644  -0.134  0.00  0.00    -0.001 A 
ATOM      4  C3  UNL d   1       0.550  -0.662  -0.099  0.00  0.00     0.003 A 
ATOM      5  C4  UNL d   1      -0.424  -1.019   0.832  0.00  0.00    -0.005 A 
ATOM      6  C5  UNL d   1      -0.909  -0.069   1.728  0.00  0.00     0.003 A 
ATOM      7  C6  UNL d   1      -0.420   1.237   1.694  0.00  0.00    -0.001 A 
ENDROOT
TORSDOF 0
ENDMDL
