MODEL 1
REMARK minimizedAffinity -3.3445847
REMARK minimizedRMSD -1
REMARK  0 active torsions:
REMARK  status: ('A' for Active; 'I' for Inactive)
ROOT
ATOM      1  C   UNL d   1      -0.312   0.373   0.530  0.00  0.00     0.078 C 
ATOM      2  C1  UNL d   1      -0.758  -0.417  -0.663  0.00  0.00    -0.077 A 
ATOM      3  C2  UNL d   1      -0.692   0.123  -1.953  0.00  0.00    -0.001 A 
ATOM      4  C3  UNL d   1      -1.120  -0.621  -3.053  0.00  0.00     0.003 A 
ATOM      5  C4  UNL d   1      -1.620  -1.910  -2.875  0.00  0.00    -0.005 A 
ATOM      6  C5  UNL d   1      -1.692  -2.455  -1.595  0.00  0.00     0.003 A 
ATOM      7  C6  UNL d   1      -1.264  -1.712  -0.493  0.00  0.00    -0.001 A 
ENDROOT
TORSDOF 0
ENDMDL
