MODEL 1
REMARK minimizedAffinity -3.25866818
REMARK minimizedRMSD -1
REMARK  0 active torsions:
REMARK  status: ('A' for Active; 'I' for Inactive)
ROOT
ATOM      1  C   UNL d   1       1.226  -0.603  -0.951  0.00  0.00     0.078 C 
ATOM      2  C1  UNL d   1      -0.080  -1.011  -1.563  0.00  0.00    -0.077 A 
ATOM      3  C2  UNL d   1      -0.387  -0.688  -2.890  0.00  0.00    -0.001 A 
ATOM      4  C3  UNL d   1      -1.612  -1.066  -3.444  0.00  0.00     0.003 A 
ATOM      5  C4  UNL d   1      -2.539  -1.768  -2.677  0.00  0.00    -0.005 A 
ATOM      6  C5  UNL d   1      -2.244  -2.092  -1.354  0.00  0.00     0.003 A 
ATOM      7  C6  UNL d   1      -1.020  -1.715  -0.799  0.00  0.00    -0.001 A 
ENDROOT
TORSDOF 0
ENDMDL
