MODEL 1
REMARK minimizedAffinity -4.32824183
REMARK minimizedRMSD -1
REMARK  0 active torsions:
REMARK  status: ('A' for Active; 'I' for Inactive)
ROOT
ATOM      1  C   UNL d   1       2.269  -0.379  -1.111  0.00  0.00     0.078 C 
ATOM      2  C1  UNL d   1       1.438   0.405  -0.139  0.00  0.00    -0.077 A 
ATOM      3  C2  UNL d   1       1.729   1.745   0.141  0.00  0.00    -0.001 A 
ATOM      4  C3  UNL d   1       0.953   2.460   1.056  0.00  0.00     0.003 A 
ATOM      5  C4  UNL d   1      -0.118   1.841   1.698  0.00  0.00    -0.005 A 
ATOM      6  C5  UNL d   1      -0.413   0.507   1.427  0.00  0.00     0.003 A 
ATOM      7  C6  UNL d   1       0.361  -0.209   0.513  0.00  0.00    -0.001 A 
ENDROOT
TORSDOF 0
ENDMDL
