MODEL 1
REMARK minimizedAffinity -2.73887753
REMARK minimizedRMSD -1
REMARK  1 active torsions:
REMARK  status: ('A' for Active; 'I' for Inactive)
REMARK    1  A    between atoms: C3_4  and  O_7 
ROOT
ATOM      1  C   UNL d   1       4.428   2.873   5.984  0.00  0.00    -0.033 A 
ATOM      2  C1  UNL d   1       4.562   4.263   5.990  0.00  0.00     0.039 A 
ATOM      3  C2  UNL d   1       3.426   5.075   5.997  0.00  0.00    -0.080 A 
ATOM      4  C3  UNL d   1       2.165   4.485   5.997  0.00  0.00     0.150 A 
ATOM      5  C4  UNL d   1       2.024   3.101   5.994  0.00  0.00    -0.007 A 
ATOM      6  C5  UNL d   1       3.160   2.292   5.987  0.00  0.00     0.039 A 
ENDROOT
BRANCH   4   7
ATOM      7  O   UNL d   1       1.027   5.237   5.998  0.00  0.00    -0.526 OA
ATOM      8  H5  UNL d   1       1.278   6.175   5.971  0.00  0.00     0.418 HD
ENDBRANCH   4   7
TORSDOF 1
ENDMDL
