MODEL 1
REMARK minimizedAffinity 1.39744592
REMARK minimizedRMSD -1
REMARK  1 active torsions:
REMARK  status: ('A' for Active; 'I' for Inactive)
REMARK    1  A    between atoms: C3_4  and  O_7 
ROOT
ATOM      1  C   UNL d   1       2.124   4.039   5.991  0.00  0.00    -0.033 A 
ATOM      2  C1  UNL d   1       2.292   2.653   5.998  0.00  0.00     0.039 A 
ATOM      3  C2  UNL d   1       3.575   2.103   6.000  0.00  0.00    -0.080 A 
ATOM      4  C3  UNL d   1       4.681   2.949   5.995  0.00  0.00     0.150 A 
ATOM      5  C4  UNL d   1       4.521   4.331   5.992  0.00  0.00    -0.007 A 
ATOM      6  C5  UNL d   1       3.238   4.878   5.989  0.00  0.00     0.039 A 
ENDROOT
BRANCH   4   7
ATOM      7  O   UNL d   1       5.953   2.460   5.992  0.00  0.00    -0.526 OA
ATOM      8  H5  UNL d   1       5.909   1.489   5.966  0.00  0.00     0.418 HD
ENDBRANCH   4   7
TORSDOF 1
ENDMDL
