MODEL 1
REMARK minimizedAffinity 1.7003876
REMARK minimizedRMSD -1
REMARK  1 active torsions:
REMARK  status: ('A' for Active; 'I' for Inactive)
REMARK    1  A    between atoms: C3_4  and  O_7 
ROOT
ATOM      1  C   UNL d   1       1.173   5.852   5.425  0.00  0.00    -0.033 A 
ATOM      2  C1  UNL d   1       2.447   5.963   4.865  0.00  0.00     0.039 A 
ATOM      3  C2  UNL d   1       3.313   4.868   4.874  0.00  0.00    -0.080 A 
ATOM      4  C3  UNL d   1       2.893   3.669   5.443  0.00  0.00     0.150 A 
ATOM      5  C4  UNL d   1       1.624   3.550   5.999  0.00  0.00    -0.007 A 
ATOM      6  C5  UNL d   1       0.761   4.645   5.991  0.00  0.00     0.039 A 
ENDROOT
BRANCH   4   7
ATOM      7  O   UNL d   1       3.705   2.574   5.480  0.00  0.00    -0.526 OA
ATOM      8  H5  UNL d   1       4.561   2.812   5.085  0.00  0.00     0.418 HD
ENDBRANCH   4   7
TORSDOF 1
ENDMDL
