MODEL 1
REMARK minimizedAffinity -1.19680202
REMARK minimizedRMSD -1
REMARK  1 active torsions:
REMARK  status: ('A' for Active; 'I' for Inactive)
REMARK    1  A    between atoms: C3_4  and  O_7 
ROOT
ATOM      1  C   UNL d   1       3.927   2.653   5.983  0.00  0.00    -0.033 A 
ATOM      2  C1  UNL d   1       4.174   4.027   5.980  0.00  0.00     0.039 A 
ATOM      3  C2  UNL d   1       3.108   4.929   5.984  0.00  0.00    -0.080 A 
ATOM      4  C3  UNL d   1       1.803   4.445   5.993  0.00  0.00     0.150 A 
ATOM      5  C4  UNL d   1       1.550   3.077   6.000  0.00  0.00    -0.007 A 
ATOM      6  C5  UNL d   1       2.616   2.178   5.995  0.00  0.00     0.039 A 
ENDROOT
BRANCH   4   7
ATOM      7  O   UNL d   1       0.731   5.287   5.992  0.00  0.00    -0.526 OA
ATOM      8  H5  UNL d   1       1.057   6.201   5.958  0.00  0.00     0.418 HD
ENDBRANCH   4   7
TORSDOF 1
ENDMDL
