MODEL 1
REMARK minimizedAffinity -3.50197482
REMARK minimizedRMSD -1
REMARK  1 active torsions:
REMARK  status: ('A' for Active; 'I' for Inactive)
REMARK    1  A    between atoms: C3_4  and  O_7 
ROOT
ATOM      1  C   UNL d   1       3.701   4.789   5.905  0.00  0.00    -0.033 A 
ATOM      2  C1  UNL d   1       4.900   4.083   5.790  0.00  0.00     0.039 A 
ATOM      3  C2  UNL d   1       4.892   2.687   5.772  0.00  0.00    -0.080 A 
ATOM      4  C3  UNL d   1       3.679   2.010   5.867  0.00  0.00     0.150 A 
ATOM      5  C4  UNL d   1       2.480   2.706   5.977  0.00  0.00    -0.007 A 
ATOM      6  C5  UNL d   1       2.491   4.100   5.997  0.00  0.00     0.039 A 
ENDROOT
BRANCH   4   7
ATOM      7  O   UNL d   1       3.621   0.648   5.858  0.00  0.00    -0.526 OA
ATOM      8  H5  UNL d   1       4.528   0.301   5.806  0.00  0.00     0.418 HD
ENDBRANCH   4   7
TORSDOF 1
ENDMDL
