MODEL 1
REMARK minimizedAffinity 2.69306469
REMARK minimizedRMSD -1
REMARK  1 active torsions:
REMARK  status: ('A' for Active; 'I' for Inactive)
REMARK    1  A    between atoms: C3_4  and  O_7 
ROOT
ATOM      1  C   UNL d   1      -3.771  -0.254  -1.500  0.00  0.00    -0.033 A 
ATOM      2  C1  UNL d   1      -2.724   0.168  -0.678  0.00  0.00     0.039 A 
ATOM      3  C2  UNL d   1      -2.995   0.686   0.590  0.00  0.00    -0.080 A 
ATOM      4  C3  UNL d   1      -4.315   0.775   1.024  0.00  0.00     0.150 A 
ATOM      5  C4  UNL d   1      -5.362   0.353   0.213  0.00  0.00    -0.007 A 
ATOM      6  C5  UNL d   1      -5.090  -0.163  -1.054  0.00  0.00     0.039 A 
ENDROOT
BRANCH   4   7
ATOM      7  O   UNL d   1      -4.628   1.278   2.252  0.00  0.00    -0.526 OA
ATOM      8  H5  UNL d   1      -3.807   1.556   2.690  0.00  0.00     0.418 HD
ENDBRANCH   4   7
TORSDOF 1
ENDMDL
