MODEL 1
REMARK minimizedAffinity 9.01476955
REMARK minimizedRMSD -1
REMARK  0 active torsions:
REMARK  status: ('A' for Active; 'I' for Inactive)
ROOT
ATOM      1  C4' PXY d   1       0.682  -0.069  -3.685  0.00  0.00     0.077 C 
ATOM      2  C1' PXY d   1      -2.124  -4.723  -5.653  0.00  0.00     0.077 C 
ATOM      3  C1  PXY d   1      -1.398  -3.501  -5.128  0.00  0.00    -0.082 A 
ATOM      4  C2  PXY d   1      -0.572  -2.839  -5.923  0.00  0.00     0.003 A 
ATOM      5  C3  PXY d   1       0.117  -1.750  -5.454  0.00  0.00     0.003 A 
ATOM      6  C4  PXY d   1      -0.080  -1.303  -4.175  0.00  0.00    -0.082 A 
ATOM      7  C5  PXY d   1      -0.928  -1.967  -3.362  0.00  0.00     0.003 A 
ATOM      8  C6  PXY d   1      -1.588  -3.094  -3.844  0.00  0.00     0.003 A 
ENDROOT
TORSDOF 0
ENDMDL
