MODEL 1
REMARK minimizedAffinity 12.471859
REMARK minimizedRMSD -1
REMARK  0 active torsions:
REMARK  status: ('A' for Active; 'I' for Inactive)
ROOT
ATOM      1  C4' PXY d   1       4.933   0.824  -5.046  0.00  0.00     0.077 C 
ATOM      2  C1' PXY d   1      -0.245  -1.402  -3.766  0.00  0.00     0.077 C 
ATOM      3  C1  PXY d   1       1.118  -0.827  -4.095  0.00  0.00    -0.082 A 
ATOM      4  C2  PXY d   1       1.227   0.446  -4.435  0.00  0.00     0.003 A 
ATOM      5  C3  PXY d   1       2.448   0.974  -4.767  0.00  0.00     0.003 A 
ATOM      6  C4  PXY d   1       3.578   0.204  -4.697  0.00  0.00    -0.082 A 
ATOM      7  C5  PXY d   1       3.477  -1.094  -4.340  0.00  0.00     0.003 A 
ATOM      8  C6  PXY d   1       2.222  -1.621  -4.047  0.00  0.00     0.003 A 
ENDROOT
TORSDOF 0
ENDMDL
