MODEL 1
REMARK minimizedAffinity 7.15267134
REMARK minimizedRMSD -1
REMARK  0 active torsions:
REMARK  status: ('A' for Active; 'I' for Inactive)
ROOT
ATOM      1  C4' PXY d   1       0.296   1.559   2.011  0.00  0.00     0.077 C 
ATOM      2  C1' PXY d   1       1.836  -3.180   4.941  0.00  0.00     0.077 C 
ATOM      3  C1  PXY d   1       1.429  -1.944   4.162  0.00  0.00    -0.082 A 
ATOM      4  C2  PXY d   1       1.929  -0.766   4.496  0.00  0.00     0.003 A 
ATOM      5  C3  PXY d   1       1.548   0.366   3.823  0.00  0.00     0.003 A 
ATOM      6  C4  PXY d   1       0.685   0.284   2.763  0.00  0.00    -0.082 A 
ATOM      7  C5  PXY d   1       0.178  -0.916   2.409  0.00  0.00     0.003 A 
ATOM      8  C6  PXY d   1       0.547  -2.048   3.131  0.00  0.00     0.003 A 
ENDROOT
TORSDOF 0
ENDMDL
