MODEL 1
REMARK minimizedAffinity 9.08247471
REMARK minimizedRMSD -1
REMARK  0 active torsions:
REMARK  status: ('A' for Active; 'I' for Inactive)
ROOT
ATOM      1  C4' PXY d   1       3.305   1.934   3.792  0.00  0.00     0.077 C 
ATOM      2  C1' PXY d   1      -1.223  -1.189   2.018  0.00  0.00     0.077 C 
ATOM      3  C1  PXY d   1      -0.041  -0.360   2.477  0.00  0.00    -0.082 A 
ATOM      4  C2  PXY d   1       1.103  -0.957   2.771  0.00  0.00     0.003 A 
ATOM      5  C3  PXY d   1       2.173  -0.226   3.218  0.00  0.00     0.003 A 
ATOM      6  C4  PXY d   1       2.088   1.138   3.316  0.00  0.00    -0.082 A 
ATOM      7  C5  PXY d   1       0.928   1.756   3.008  0.00  0.00     0.003 A 
ATOM      8  C6  PXY d   1      -0.159   0.991   2.595  0.00  0.00     0.003 A 
ENDROOT
TORSDOF 0
ENDMDL
