MODEL 1
REMARK minimizedAffinity 9.22732449
REMARK minimizedRMSD -1
REMARK  0 active torsions:
REMARK  status: ('A' for Active; 'I' for Inactive)
ROOT
ATOM      1  C4' PXY d   1       1.032  -3.570   4.847  0.00  0.00     0.077 C 
ATOM      2  C1' PXY d   1       0.302   1.248   1.738  0.00  0.00     0.077 C 
ATOM      3  C1  PXY d   1       0.504  -0.011   2.558  0.00  0.00    -0.082 A 
ATOM      4  C2  PXY d   1      -0.081  -1.136   2.184  0.00  0.00     0.003 A 
ATOM      5  C3  PXY d   1       0.065  -2.276   2.932  0.00  0.00     0.003 A 
ATOM      6  C4  PXY d   1       0.863  -2.277   4.045  0.00  0.00    -0.082 A 
ATOM      7  C5  PXY d   1       1.472  -1.135   4.427  0.00  0.00     0.003 A 
ATOM      8  C6  PXY d   1       1.278   0.022   3.677  0.00  0.00     0.003 A 
ENDROOT
TORSDOF 0
ENDMDL
