MODEL 1
REMARK minimizedAffinity 11.1486902
REMARK minimizedRMSD -1
REMARK  0 active torsions:
REMARK  status: ('A' for Active; 'I' for Inactive)
ROOT
ATOM      1  C4' PXY d   1      -1.789   1.745   2.274  0.00  0.00     0.077 C 
ATOM      2  C1' PXY d   1       2.035  -2.498   3.162  0.00  0.00     0.077 C 
ATOM      3  C1  PXY d   1       1.026  -1.393   2.921  0.00  0.00    -0.082 A 
ATOM      4  C2  PXY d   1       1.362  -0.136   3.162  0.00  0.00     0.003 A 
ATOM      5  C3  PXY d   1       0.451   0.873   2.980  0.00  0.00     0.003 A 
ATOM      6  C4  PXY d   1      -0.799   0.598   2.494  0.00  0.00    -0.082 A 
ATOM      7  C5  PXY d   1      -1.146  -0.681   2.235  0.00  0.00     0.003 A 
ATOM      8  C6  PXY d   1      -0.221  -1.695   2.466  0.00  0.00     0.003 A 
ENDROOT
TORSDOF 0
ENDMDL
