MODEL 1
REMARK minimizedAffinity 14.4559088
REMARK minimizedRMSD -1
REMARK  0 active torsions:
REMARK  status: ('A' for Active; 'I' for Inactive)
ROOT
ATOM      1  C4' PXY d   1      -2.372  -4.793  -5.645  0.00  0.00     0.077 C 
ATOM      2  C1' PXY d   1       0.699  -0.188  -3.981  0.00  0.00     0.077 C 
ATOM      3  C1  PXY d   1      -0.109  -1.398  -4.405  0.00  0.00    -0.082 A 
ATOM      4  C2  PXY d   1       0.139  -1.975  -5.570  0.00  0.00     0.003 A 
ATOM      5  C3  PXY d   1      -0.603  -3.051  -5.983  0.00  0.00     0.003 A 
ATOM      6  C4  PXY d   1      -1.575  -3.575  -5.172  0.00  0.00    -0.082 A 
ATOM      7  C5  PXY d   1      -1.826  -2.998  -3.978  0.00  0.00     0.003 A 
ATOM      8  C6  PXY d   1      -1.089  -1.882  -3.595  0.00  0.00     0.003 A 
ENDROOT
TORSDOF 0
ENDMDL
