MODEL 1
REMARK minimizedAffinity -3.78734279
REMARK minimizedRMSD -1
REMARK  1 active torsions:
REMARK  status: ('A' for Active; 'I' for Inactive)
REMARK    1  A    between atoms: C3_4  and  O_7 
ROOT
ATOM      1  C   UNL d   1      -1.410   2.386   2.274  0.00  0.00    -0.033 A 
ATOM      2  C1  UNL d   1      -0.257   1.705   2.667  0.00  0.00     0.039 A 
ATOM      3  C2  UNL d   1       0.277   0.704   1.853  0.00  0.00    -0.080 A 
ATOM      4  C3  UNL d   1      -0.352   0.394   0.650  0.00  0.00     0.150 A 
ATOM      5  C4  UNL d   1      -1.499   1.071   0.250  0.00  0.00    -0.007 A 
ATOM      6  C5  UNL d   1      -2.031   2.070   1.065  0.00  0.00     0.039 A 
ENDROOT
BRANCH   4   7
ATOM      7  O   UNL d   1       0.129  -0.579  -0.175  0.00  0.00    -0.526 OA
ATOM      8  H5  UNL d   1       0.909  -0.980   0.244  0.00  0.00     0.418 HD
ENDBRANCH   4   7
TORSDOF 1
ENDMDL
