MODEL 1
REMARK minimizedAffinity -1.36768901
REMARK minimizedRMSD -1
REMARK  1 active torsions:
REMARK  status: ('A' for Active; 'I' for Inactive)
REMARK    1  A    between atoms: C3_4  and  O_7 
ROOT
ATOM      1  C   UNL d   1       0.501  -0.231  -0.422  0.00  0.00    -0.033 A 
ATOM      2  C1  UNL d   1       0.049   0.936  -1.042  0.00  0.00     0.039 A 
ATOM      3  C2  UNL d   1      -0.310   2.044  -0.272  0.00  0.00    -0.080 A 
ATOM      4  C3  UNL d   1      -0.211   1.973   1.115  0.00  0.00     0.150 A 
ATOM      5  C4  UNL d   1       0.241   0.815   1.739  0.00  0.00    -0.007 A 
ATOM      6  C5  UNL d   1       0.598  -0.291   0.969  0.00  0.00     0.039 A 
ENDROOT
BRANCH   4   7
ATOM      7  O   UNL d   1      -0.555   3.027   1.908  0.00  0.00    -0.526 OA
ATOM      8  H5  UNL d   1      -0.876   3.747   1.341  0.00  0.00     0.418 HD
ENDBRANCH   4   7
TORSDOF 1
ENDMDL
