MODEL 1
REMARK minimizedAffinity -3.95025921
REMARK minimizedRMSD -1
REMARK  1 active torsions:
REMARK  status: ('A' for Active; 'I' for Inactive)
REMARK    1  A    between atoms: C3_4  and  O_7 
ROOT
ATOM      1  C   UNL d   1       0.725  -0.303   0.183  0.00  0.00    -0.033 A 
ATOM      2  C1  UNL d   1      -0.387   0.217  -0.481  0.00  0.00     0.039 A 
ATOM      3  C2  UNL d   1      -1.129   1.249   0.098  0.00  0.00    -0.080 A 
ATOM      4  C3  UNL d   1      -0.747   1.751   1.339  0.00  0.00     0.150 A 
ATOM      5  C4  UNL d   1       0.362   1.241   2.004  0.00  0.00    -0.007 A 
ATOM      6  C5  UNL d   1       1.101   0.210   1.425  0.00  0.00     0.039 A 
ENDROOT
BRANCH   4   7
ATOM      7  O   UNL d   1      -1.443   2.755   1.945  0.00  0.00    -0.526 OA
ATOM      8  H5  UNL d   1      -2.201   2.988   1.383  0.00  0.00     0.418 HD
ENDBRANCH   4   7
TORSDOF 1
ENDMDL
