MODEL 1
REMARK minimizedAffinity -3.43600869
REMARK minimizedRMSD -1
REMARK  1 active torsions:
REMARK  status: ('A' for Active; 'I' for Inactive)
REMARK    1  A    between atoms: C3_4  and  O_7 
ROOT
ATOM      1  C   UNL d   1       0.427   0.019  -1.277  0.00  0.00    -0.033 A 
ATOM      2  C1  UNL d   1       0.398  -0.354   0.068  0.00  0.00     0.039 A 
ATOM      3  C2  UNL d   1      -0.410   0.341   0.970  0.00  0.00    -0.080 A 
ATOM      4  C3  UNL d   1      -1.184   1.405   0.515  0.00  0.00     0.150 A 
ATOM      5  C4  UNL d   1      -1.163   1.779  -0.825  0.00  0.00    -0.007 A 
ATOM      6  C5  UNL d   1      -0.355   1.085  -1.724  0.00  0.00     0.039 A 
ENDROOT
BRANCH   4   7
ATOM      7  O   UNL d   1      -1.985   2.116   1.358  0.00  0.00    -0.526 OA
ATOM      8  H5  UNL d   1      -1.875   1.763   2.257  0.00  0.00     0.418 HD
ENDBRANCH   4   7
TORSDOF 1
ENDMDL
