MODEL 1
REMARK minimizedAffinity -0.656509399
REMARK minimizedRMSD -1
REMARK  1 active torsions:
REMARK  status: ('A' for Active; 'I' for Inactive)
REMARK    1  A    between atoms: C3_4  and  O_7 
ROOT
ATOM      1  C   UNL d   1      -1.052   1.921  -1.107  0.00  0.00    -0.033 A 
ATOM      2  C1  UNL d   1      -0.352   0.788  -1.525  0.00  0.00     0.039 A 
ATOM      3  C2  UNL d   1       0.251  -0.049  -0.584  0.00  0.00    -0.080 A 
ATOM      4  C3  UNL d   1       0.145   0.256   0.770  0.00  0.00     0.150 A 
ATOM      5  C4  UNL d   1      -0.555   1.381   1.194  0.00  0.00    -0.007 A 
ATOM      6  C5  UNL d   1      -1.155   2.216   0.253  0.00  0.00     0.039 A 
ENDROOT
BRANCH   4   7
ATOM      7  O   UNL d   1       0.721  -0.528   1.725  0.00  0.00    -0.526 OA
ATOM      8  H5  UNL d   1       1.195  -1.253   1.283  0.00  0.00     0.418 HD
ENDBRANCH   4   7
TORSDOF 1
ENDMDL
