MODEL 1
REMARK minimizedAffinity -4.29524469
REMARK minimizedRMSD -1
REMARK  1 active torsions:
REMARK  status: ('A' for Active; 'I' for Inactive)
REMARK    1  A    between atoms: C3_4  and  O_7 
ROOT
ATOM      1  C   UNL d   1       0.157  -3.146  -1.522  0.00  0.00    -0.033 A 
ATOM      2  C1  UNL d   1       0.202  -1.751  -1.560  0.00  0.00     0.039 A 
ATOM      3  C2  UNL d   1       1.398  -1.082  -1.293  0.00  0.00    -0.080 A 
ATOM      4  C3  UNL d   1       2.540  -1.819  -0.991  0.00  0.00     0.150 A 
ATOM      5  C4  UNL d   1       2.503  -3.209  -0.955  0.00  0.00    -0.007 A 
ATOM      6  C5  UNL d   1       1.308  -3.875  -1.221  0.00  0.00     0.039 A 
ENDROOT
BRANCH   4   7
ATOM      7  O   UNL d   1       3.729  -1.210  -0.719  0.00  0.00    -0.526 OA
ATOM      8  H5  UNL d   1       3.597  -0.248  -0.752  0.00  0.00     0.418 HD
ENDBRANCH   4   7
TORSDOF 1
ENDMDL
