MODEL 1
REMARK minimizedAffinity -2.27137542
REMARK minimizedRMSD -1
REMARK  1 active torsions:
REMARK  status: ('A' for Active; 'I' for Inactive)
REMARK    1  A    between atoms: C3_4  and  O_7 
ROOT
ATOM      1  C   UNL d   1      -0.333   0.925   2.349  0.00  0.00    -0.033 A 
ATOM      2  C1  UNL d   1      -0.146  -0.287   1.681  0.00  0.00     0.039 A 
ATOM      3  C2  UNL d   1      -0.119  -0.320   0.286  0.00  0.00    -0.080 A 
ATOM      4  C3  UNL d   1      -0.278   0.864  -0.429  0.00  0.00     0.150 A 
ATOM      5  C4  UNL d   1      -0.461   2.075   0.230  0.00  0.00    -0.007 A 
ATOM      6  C5  UNL d   1      -0.489   2.106   1.624  0.00  0.00     0.039 A 
ENDROOT
BRANCH   4   7
ATOM      7  O   UNL d   1      -0.264   0.881  -1.792  0.00  0.00    -0.526 OA
ATOM      8  H5  UNL d   1      -0.158  -0.031  -2.110  0.00  0.00     0.418 HD
ENDBRANCH   4   7
TORSDOF 1
ENDMDL
