MODEL 1
REMARK minimizedAffinity 18.3758698
REMARK minimizedRMSD -1
REMARK  0 active torsions:
REMARK  status: ('A' for Active; 'I' for Inactive)
ROOT
ATOM      1  C1  DEN d   1      -2.854  -0.420   2.089  0.00  0.00     0.130 A 
ATOM      2  C2  DEN d   1      -1.692  -0.588   2.958  0.00  0.00    -0.031 A 
ATOM      3  C3  DEN d   1      -1.835   0.344   4.095  0.00  0.00     0.027 A 
ATOM      4  C4  DEN d   1      -3.733   2.018   4.593  0.00  0.00     0.027 A 
ATOM      5  C5  DEN d   1      -4.928   2.528   4.137  0.00  0.00    -0.003 A 
ATOM      6  C6  DEN d   1      -5.495   2.119   2.959  0.00  0.00     0.001 A 
ATOM      7  C7  DEN d   1      -4.888   1.139   2.218  0.00  0.00     0.017 A 
ATOM      8  C8  DEN d   1      -3.678   0.625   2.668  0.00  0.00    -0.094 A 
ATOM      9  C9  DEN d   1      -3.128   1.044   3.868  0.00  0.00    -0.072 A 
ENDROOT
TORSDOF 0
ENDMDL
