MODEL 1
REMARK minimizedAffinity 12.05338
REMARK minimizedRMSD -1
REMARK  0 active torsions:
REMARK  status: ('A' for Active; 'I' for Inactive)
ROOT
ATOM      1  C1  DEN d   1       2.512  -3.694   0.644  0.00  0.00     0.130 A 
ATOM      2  C2  DEN d   1       3.047  -2.551   1.379  0.00  0.00    -0.031 A 
ATOM      3  C3  DEN d   1       4.513  -2.542   1.205  0.00  0.00     0.027 A 
ATOM      4  C4  DEN d   1       5.999  -4.176  -0.128  0.00  0.00     0.027 A 
ATOM      5  C5  DEN d   1       6.000  -5.311  -0.908  0.00  0.00    -0.003 A 
ATOM      6  C6  DEN d   1       4.851  -6.000  -1.196  0.00  0.00     0.001 A 
ATOM      7  C7  DEN d   1       3.648  -5.535  -0.736  0.00  0.00     0.017 A 
ATOM      8  C8  DEN d   1       3.640  -4.395   0.058  0.00  0.00    -0.094 A 
ATOM      9  C9  DEN d   1       4.810  -3.706   0.327  0.00  0.00    -0.072 A 
ENDROOT
TORSDOF 0
ENDMDL
