MODEL 1
REMARK minimizedAffinity 13.6964493
REMARK minimizedRMSD -1
REMARK  0 active torsions:
REMARK  status: ('A' for Active; 'I' for Inactive)
ROOT
ATOM      1  C1  DEN d   1       0.377   3.755   2.688  0.00  0.00     0.130 A 
ATOM      2  C2  DEN d   1       1.497   2.921   2.258  0.00  0.00    -0.031 A 
ATOM      3  C3  DEN d   1       2.620   3.150   3.189  0.00  0.00     0.027 A 
ATOM      4  C4  DEN d   1       2.733   4.703   5.245  0.00  0.00     0.027 A 
ATOM      5  C5  DEN d   1       2.034   5.619   6.000  0.00  0.00    -0.003 A 
ATOM      6  C6  DEN d   1       0.756   6.000   5.686  0.00  0.00     0.001 A 
ATOM      7  C7  DEN d   1       0.121   5.429   4.615  0.00  0.00     0.017 A 
ATOM      8  C8  DEN d   1       0.822   4.510   3.845  0.00  0.00    -0.094 A 
ATOM      9  C9  DEN d   1       2.109   4.129   4.186  0.00  0.00    -0.072 A 
ENDROOT
TORSDOF 0
ENDMDL
