MODEL 1
REMARK minimizedAffinity 11.423728
REMARK minimizedRMSD -1
REMARK  0 active torsions:
REMARK  status: ('A' for Active; 'I' for Inactive)
ROOT
ATOM      1  C1  DEN d   1       0.119  -2.114   0.895  0.00  0.00     0.130 A 
ATOM      2  C2  DEN d   1       0.273  -0.954   1.769  0.00  0.00    -0.031 A 
ATOM      3  C3  DEN d   1       1.665  -0.936   2.262  0.00  0.00     0.027 A 
ATOM      4  C4  DEN d   1       3.587  -2.579   1.755  0.00  0.00     0.027 A 
ATOM      5  C5  DEN d   1       3.934  -3.726   1.076  0.00  0.00    -0.003 A 
ATOM      6  C6  DEN d   1       3.031  -4.429   0.322  0.00  0.00     0.001 A 
ATOM      7  C7  DEN d   1       1.748  -3.967   0.193  0.00  0.00     0.017 A 
ATOM      8  C8  DEN d   1       1.390  -2.815   0.881  0.00  0.00    -0.094 A 
ATOM      9  C9  DEN d   1       2.320  -2.112   1.628  0.00  0.00    -0.072 A 
ENDROOT
TORSDOF 0
ENDMDL
