MODEL 1
REMARK minimizedAffinity 11.397027
REMARK minimizedRMSD -1
REMARK  0 active torsions:
REMARK  status: ('A' for Active; 'I' for Inactive)
ROOT
ATOM      1  C1  DEN d   1       4.649  -5.307   1.056  0.00  0.00     0.130 A 
ATOM      2  C2  DEN d   1       6.000  -4.865   0.722  0.00  0.00    -0.031 A 
ATOM      3  C3  DEN d   1       5.943  -3.424   0.404  0.00  0.00     0.027 A 
ATOM      4  C4  DEN d   1       3.905  -1.842   0.403  0.00  0.00     0.027 A 
ATOM      5  C5  DEN d   1       2.546  -1.763   0.608  0.00  0.00    -0.003 A 
ATOM      6  C6  DEN d   1       1.793  -2.857   0.942  0.00  0.00     0.001 A 
ATOM      7  C7  DEN d   1       2.402  -4.070   1.124  0.00  0.00     0.017 A 
ATOM      8  C8  DEN d   1       3.771  -4.160   0.911  0.00  0.00    -0.094 A 
ATOM      9  C9  DEN d   1       4.517  -3.039   0.586  0.00  0.00    -0.072 A 
ENDROOT
TORSDOF 0
ENDMDL
