MODEL 1
REMARK minimizedAffinity -3.65186644
REMARK minimizedRMSD -1
REMARK  0 active torsions:
REMARK  status: ('A' for Active; 'I' for Inactive)
ROOT
ATOM      1  N1  IND d   1      -0.350   1.251   0.479  0.00  0.00    -0.196 N 
ATOM      2  C2  IND d   1      -1.660   1.435   0.823  0.00  0.00     0.054 A 
ATOM      3  C3  IND d   1      -2.289   0.244   0.934  0.00  0.00    -0.031 A 
ATOM      4  C4  IND d   1      -1.338  -2.136   0.694  0.00  0.00     0.051 A 
ATOM      5  C5  IND d   1      -0.202  -2.813   0.350  0.00  0.00    -0.031 A 
ATOM      6  C6  IND d   1       0.968  -2.156   0.028  0.00  0.00     0.015 A 
ATOM      7  C7  IND d   1       1.048  -0.792   0.048  0.00  0.00    -0.016 A 
ATOM      8  C8  IND d   1      -0.106  -0.102   0.390  0.00  0.00    -0.047 A 
ATOM      9  C9  IND d   1      -1.308  -0.762   0.677  0.00  0.00    -0.096 A 
ATOM     10  HN1 IND d   1       0.225   1.875   0.341  0.00  0.00     0.298 HD
ENDROOT
TORSDOF 0
ENDMDL
