MODEL 1
REMARK minimizedAffinity -4.19894218
REMARK minimizedRMSD -1
REMARK  0 active torsions:
REMARK  status: ('A' for Active; 'I' for Inactive)
ROOT
ATOM      1  N1  IND d   1      -4.075  -5.658  -3.747  0.00  0.00    -0.196 N 
ATOM      2  C2  IND d   1      -2.988  -5.988  -4.508  0.00  0.00     0.054 A 
ATOM      3  C3  IND d   1      -2.805  -5.075  -5.488  0.00  0.00    -0.031 A 
ATOM      4  C4  IND d   1      -4.110  -2.908  -5.969  0.00  0.00     0.051 A 
ATOM      5  C5  IND d   1      -5.208  -2.201  -5.568  0.00  0.00    -0.031 A 
ATOM      6  C6  IND d   1      -5.999  -2.616  -4.517  0.00  0.00     0.015 A 
ATOM      7  C7  IND d   1      -5.713  -3.754  -3.817  0.00  0.00    -0.016 A 
ATOM      8  C8  IND d   1      -4.603  -4.479  -4.226  0.00  0.00    -0.047 A 
ATOM      9  C9  IND d   1      -3.821  -4.085  -5.319  0.00  0.00    -0.096 A 
ATOM     10  HN1 IND d   1      -4.378  -6.111  -3.082  0.00  0.00     0.298 HD
ENDROOT
TORSDOF 0
ENDMDL
