MODEL 1
REMARK minimizedAffinity -3.57141113
REMARK minimizedRMSD -1
REMARK  0 active torsions:
REMARK  status: ('A' for Active; 'I' for Inactive)
ROOT
ATOM      1  N1  IND d   1      -5.927  -3.865  -4.164  0.00  0.00    -0.196 N 
ATOM      2  C2  IND d   1      -6.000  -2.591  -4.656  0.00  0.00     0.054 A 
ATOM      3  C3  IND d   1      -4.900  -2.307  -5.389  0.00  0.00    -0.031 A 
ATOM      4  C4  IND d   1      -2.906  -3.816  -5.999  0.00  0.00     0.051 A 
ATOM      5  C5  IND d   1      -2.375  -5.051  -5.753  0.00  0.00    -0.031 A 
ATOM      6  C6  IND d   1      -3.015  -5.974  -4.951  0.00  0.00     0.015 A 
ATOM      7  C7  IND d   1      -4.221  -5.698  -4.371  0.00  0.00    -0.016 A 
ATOM      8  C8  IND d   1      -4.760  -4.442  -4.613  0.00  0.00    -0.047 A 
ATOM      9  C9  IND d   1      -4.094  -3.487  -5.392  0.00  0.00    -0.096 A 
ATOM     10  HN1 IND d   1      -6.513  -4.241  -3.659  0.00  0.00     0.298 HD
ENDROOT
TORSDOF 0
ENDMDL
