MODEL 1
REMARK minimizedAffinity -4.57668829
REMARK minimizedRMSD -1
REMARK  0 active torsions:
REMARK  status: ('A' for Active; 'I' for Inactive)
ROOT
ATOM      1  N1  IND d   1      -2.581  -3.792  -6.000  0.00  0.00    -0.196 N 
ATOM      2  C2  IND d   1      -2.335  -5.086  -5.633  0.00  0.00     0.054 A 
ATOM      3  C3  IND d   1      -3.258  -5.505  -4.738  0.00  0.00    -0.031 A 
ATOM      4  C4  IND d   1      -5.318  -4.269  -3.813  0.00  0.00     0.051 A 
ATOM      5  C5  IND d   1      -5.940  -3.052  -3.826  0.00  0.00    -0.031 A 
ATOM      6  C6  IND d   1      -5.466  -2.000  -4.582  0.00  0.00     0.015 A 
ATOM      7  C7  IND d   1      -4.354  -2.129  -5.365  0.00  0.00    -0.016 A 
ATOM      8  C8  IND d   1      -3.716  -3.361  -5.349  0.00  0.00    -0.047 A 
ATOM      9  C9  IND d   1      -4.168  -4.420  -4.551  0.00  0.00    -0.096 A 
ATOM     10  HN1 IND d   1      -2.107  -3.327  -6.545  0.00  0.00     0.298 HD
ENDROOT
TORSDOF 0
ENDMDL
