MODEL 1
REMARK minimizedAffinity -4.48100662
REMARK minimizedRMSD -1
REMARK  0 active torsions:
REMARK  status: ('A' for Active; 'I' for Inactive)
ROOT
ATOM      1  N1  IND d   1      -2.058  -3.999  -5.857  0.00  0.00    -0.196 N 
ATOM      2  C2  IND d   1      -1.806  -5.333  -5.701  0.00  0.00     0.054 A 
ATOM      3  C3  IND d   1      -2.857  -5.944  -5.108  0.00  0.00    -0.031 A 
ATOM      4  C4  IND d   1      -5.131  -4.966  -4.402  0.00  0.00     0.051 A 
ATOM      5  C5  IND d   1      -5.815  -3.786  -4.309  0.00  0.00    -0.031 A 
ATOM      6  C6  IND d   1      -5.271  -2.593  -4.739  0.00  0.00     0.015 A 
ATOM      7  C7  IND d   1      -4.022  -2.537  -5.290  0.00  0.00    -0.016 A 
ATOM      8  C8  IND d   1      -3.322  -3.732  -5.379  0.00  0.00    -0.047 A 
ATOM      9  C9  IND d   1      -3.853  -4.940  -4.906  0.00  0.00    -0.096 A 
ATOM     10  HN1 IND d   1      -1.517  -3.423  -6.196  0.00  0.00     0.298 HD
ENDROOT
TORSDOF 0
ENDMDL
