MODEL 1
REMARK minimizedAffinity -3.58311272
REMARK minimizedRMSD -1
REMARK  0 active torsions:
REMARK  status: ('A' for Active; 'I' for Inactive)
ROOT
ATOM      1  N1  IND d   1      -2.981  -5.611  -4.462  0.00  0.00    -0.196 N 
ATOM      2  C2  IND d   1      -1.909  -5.303  -5.253  0.00  0.00     0.054 A 
ATOM      3  C3  IND d   1      -2.173  -4.204  -5.996  0.00  0.00    -0.031 A 
ATOM      4  C4  IND d   1      -4.257  -2.694  -5.998  0.00  0.00     0.051 A 
ATOM      5  C5  IND d   1      -5.514  -2.591  -5.471  0.00  0.00    -0.031 A 
ATOM      6  C6  IND d   1      -5.999  -3.507  -4.560  0.00  0.00     0.015 A 
ATOM      7  C7  IND d   1      -5.238  -4.558  -4.132  0.00  0.00    -0.016 A 
ATOM      8  C8  IND d   1      -3.964  -4.669  -4.671  0.00  0.00    -0.047 A 
ATOM      9  C9  IND d   1      -3.482  -3.767  -5.628  0.00  0.00    -0.096 A 
ATOM     10  HN1 IND d   1      -3.032  -6.280  -3.925  0.00  0.00     0.298 HD
ENDROOT
TORSDOF 0
ENDMDL
