MODEL 1
REMARK minimizedAffinity -2.38138652
REMARK minimizedRMSD -1
REMARK  0 active torsions:
REMARK  status: ('A' for Active; 'I' for Inactive)
ROOT
ATOM      1  N1  IND d   1      -5.996  -1.599  -4.781  0.00  0.00    -0.196 N 
ATOM      2  C2  IND d   1      -6.000  -1.237  -3.463  0.00  0.00     0.054 A 
ATOM      3  C3  IND d   1      -5.545  -2.253  -2.695  0.00  0.00    -0.031 A 
ATOM      4  C4  IND d   1      -4.646  -4.560  -3.399  0.00  0.00     0.051 A 
ATOM      5  C5  IND d   1      -4.480  -5.364  -4.492  0.00  0.00    -0.031 A 
ATOM      6  C6  IND d   1      -4.815  -4.944  -5.763  0.00  0.00     0.015 A 
ATOM      7  C7  IND d   1      -5.320  -3.695  -5.991  0.00  0.00    -0.016 A 
ATOM      8  C8  IND d   1      -5.497  -2.879  -4.883  0.00  0.00    -0.047 A 
ATOM      9  C9  IND d   1      -5.199  -3.315  -3.585  0.00  0.00    -0.096 A 
ATOM     10  HN1 IND d   1      -6.262  -1.110  -5.436  0.00  0.00     0.298 HD
ENDROOT
TORSDOF 0
ENDMDL
