MODEL 1
REMARK minimizedAffinity -1.85055065
REMARK minimizedRMSD -1
REMARK  0 active torsions:
REMARK  status: ('A' for Active; 'I' for Inactive)
ROOT
ATOM      1  N1  IND d   1      -5.402  -3.368  -3.754  0.00  0.00    -0.196 N 
ATOM      2  C2  IND d   1      -5.999  -3.000  -4.928  0.00  0.00     0.054 A 
ATOM      3  C3  IND d   1      -5.185  -3.266  -5.973  0.00  0.00    -0.031 A 
ATOM      4  C4  IND d   1      -2.872  -4.395  -6.000  0.00  0.00     0.051 A 
ATOM      5  C5  IND d   1      -1.898  -4.875  -5.169  0.00  0.00    -0.031 A 
ATOM      6  C6  IND d   1      -2.046  -4.879  -3.798  0.00  0.00     0.015 A 
ATOM      7  C7  IND d   1      -3.184  -4.413  -3.203  0.00  0.00    -0.016 A 
ATOM      8  C8  IND d   1      -4.172  -3.918  -4.042  0.00  0.00    -0.047 A 
ATOM      9  C9  IND d   1      -4.010  -3.872  -5.433  0.00  0.00    -0.096 A 
ATOM     10  HN1 IND d   1      -5.738  -3.272  -2.969  0.00  0.00     0.298 HD
ENDROOT
TORSDOF 0
ENDMDL
