MODEL 1
REMARK minimizedAffinity -4.15548229
REMARK minimizedRMSD -1
REMARK  0 active torsions:
REMARK  status: ('A' for Active; 'I' for Inactive)
ROOT
ATOM      1  N1  IND d   1      -2.319  -6.000  -4.507  0.00  0.00    -0.196 N 
ATOM      2  C2  IND d   1      -1.611  -5.260  -5.413  0.00  0.00     0.054 A 
ATOM      3  C3  IND d   1      -2.412  -4.343  -6.000  0.00  0.00    -0.031 A 
ATOM      4  C4  IND d   1      -4.890  -3.811  -5.552  0.00  0.00     0.051 A 
ATOM      5  C5  IND d   1      -5.973  -4.243  -4.839  0.00  0.00    -0.031 A 
ATOM      6  C6  IND d   1      -5.891  -5.303  -3.959  0.00  0.00     0.015 A 
ATOM      7  C7  IND d   1      -4.714  -5.966  -3.750  0.00  0.00    -0.016 A 
ATOM      8  C8  IND d   1      -3.615  -5.534  -4.478  0.00  0.00    -0.047 A 
ATOM      9  C9  IND d   1      -3.702  -4.486  -5.403  0.00  0.00    -0.096 A 
ATOM     10  HN1 IND d   1      -2.007  -6.648  -4.035  0.00  0.00     0.298 HD
ENDROOT
TORSDOF 0
ENDMDL
