MODEL 1
REMARK minimizedAffinity -3.09481859
REMARK minimizedRMSD -1
REMARK  0 active torsions:
REMARK  status: ('A' for Active; 'I' for Inactive)
ROOT
ATOM      1  N1  IND d   1      -5.640  -4.502  -4.365  0.00  0.00    -0.196 N 
ATOM      2  C2  IND d   1      -5.526  -3.317  -3.692  0.00  0.00     0.054 A 
ATOM      3  C3  IND d   1      -4.247  -2.879  -3.724  0.00  0.00    -0.031 A 
ATOM      4  C4  IND d   1      -2.200  -3.894  -4.909  0.00  0.00     0.051 A 
ATOM      5  C5  IND d   1      -1.801  -4.991  -5.621  0.00  0.00    -0.031 A 
ATOM      6  C6  IND d   1      -2.680  -5.999  -5.959  0.00  0.00     0.015 A 
ATOM      7  C7  IND d   1      -3.999  -5.943  -5.607  0.00  0.00    -0.016 A 
ATOM      8  C8  IND d   1      -4.406  -4.835  -4.878  0.00  0.00    -0.047 A 
ATOM      9  C9  IND d   1      -3.509  -3.828  -4.495  0.00  0.00    -0.096 A 
ATOM     10  HN1 IND d   1      -6.361  -4.961  -4.452  0.00  0.00     0.298 HD
ENDROOT
TORSDOF 0
ENDMDL
