MODEL 1
REMARK minimizedAffinity -3.34184265
REMARK minimizedRMSD -1
REMARK  0 active torsions:
REMARK  status: ('A' for Active; 'I' for Inactive)
ROOT
ATOM      1  N1  IND d   1      -5.992  -4.087  -3.754  0.00  0.00    -0.196 N 
ATOM      2  C2  IND d   1      -6.000  -2.720  -3.798  0.00  0.00     0.054 A 
ATOM      3  C3  IND d   1      -4.928  -2.265  -4.485  0.00  0.00    -0.031 A 
ATOM      4  C4  IND d   1      -3.090  -3.587  -5.710  0.00  0.00     0.051 A 
ATOM      5  C5  IND d   1      -2.637  -4.859  -5.922  0.00  0.00    -0.031 A 
ATOM      6  C6  IND d   1      -3.294  -5.961  -5.414  0.00  0.00     0.015 A 
ATOM      7  C7  IND d   1      -4.440  -5.832  -4.682  0.00  0.00    -0.016 A 
ATOM      8  C8  IND d   1      -4.899  -4.541  -4.459  0.00  0.00    -0.047 A 
ATOM      9  C9  IND d   1      -4.213  -3.417  -4.936  0.00  0.00    -0.096 A 
ATOM     10  HN1 IND d   1      -6.572  -4.579  -3.354  0.00  0.00     0.298 HD
ENDROOT
TORSDOF 0
ENDMDL
