MODEL 1
REMARK minimizedAffinity -3.82748246
REMARK minimizedRMSD -1
REMARK  0 active torsions:
REMARK  status: ('A' for Active; 'I' for Inactive)
ROOT
ATOM      1  N1  IND d   1      -2.300  -3.750  -5.984  0.00  0.00    -0.196 N 
ATOM      2  C2  IND d   1      -1.956  -5.073  -6.000  0.00  0.00     0.054 A 
ATOM      3  C3  IND d   1      -2.941  -5.821  -5.453  0.00  0.00    -0.031 A 
ATOM      4  C4  IND d   1      -5.244  -5.094  -4.562  0.00  0.00     0.051 A 
ATOM      5  C5  IND d   1      -5.998  -3.984  -4.304  0.00  0.00    -0.031 A 
ATOM      6  C6  IND d   1      -5.550  -2.713  -4.602  0.00  0.00     0.015 A 
ATOM      7  C7  IND d   1      -4.330  -2.506  -5.182  0.00  0.00    -0.016 A 
ATOM      8  C8  IND d   1      -3.559  -3.630  -5.438  0.00  0.00    -0.047 A 
ATOM      9  C9  IND d   1      -3.990  -4.919  -5.099  0.00  0.00    -0.096 A 
ATOM     10  HN1 IND d   1      -1.811  -3.102  -6.268  0.00  0.00     0.298 HD
ENDROOT
TORSDOF 0
ENDMDL
