MODEL 1
REMARK minimizedAffinity 4.06505299
REMARK minimizedRMSD -1
REMARK  0 active torsions:
REMARK  status: ('A' for Active; 'I' for Inactive)
ROOT
ATOM      1  N1  IND d   1      -2.846  -4.748  -5.260  0.00  0.00    -0.196 N 
ATOM      2  C2  IND d   1      -2.068  -4.579  -4.149  0.00  0.00     0.054 A 
ATOM      3  C3  IND d   1      -2.632  -3.679  -3.312  0.00  0.00    -0.031 A 
ATOM      4  C4  IND d   1      -4.878  -2.437  -3.520  0.00  0.00     0.051 A 
ATOM      5  C5  IND d   1      -5.923  -2.238  -4.377  0.00  0.00    -0.031 A 
ATOM      6  C6  IND d   1      -5.999  -2.880  -5.596  0.00  0.00     0.015 A 
ATOM      7  C7  IND d   1      -5.034  -3.758  -6.000  0.00  0.00    -0.016 A 
ATOM      8  C8  IND d   1      -3.967  -3.957  -5.135  0.00  0.00    -0.047 A 
ATOM      9  C9  IND d   1      -3.863  -3.276  -3.915  0.00  0.00    -0.096 A 
ATOM     10  HN1 IND d   1      -2.665  -5.261  -5.926  0.00  0.00     0.298 HD
ENDROOT
TORSDOF 0
ENDMDL
