MODEL 1
REMARK minimizedAffinity -3.97012448
REMARK minimizedRMSD -1
REMARK  0 active torsions:
REMARK  status: ('A' for Active; 'I' for Inactive)
ROOT
ATOM      1  N1  IND d   1      -1.994  -4.123  -6.000  0.00  0.00    -0.196 N 
ATOM      2  C2  IND d   1      -1.503  -5.366  -5.711  0.00  0.00     0.054 A 
ATOM      3  C3  IND d   1      -2.315  -6.000  -4.835  0.00  0.00    -0.031 A 
ATOM      4  C4  IND d   1      -4.553  -5.227  -3.825  0.00  0.00     0.051 A 
ATOM      5  C5  IND d   1      -5.393  -4.151  -3.763  0.00  0.00    -0.031 A 
ATOM      6  C6  IND d   1      -5.138  -2.987  -4.460  0.00  0.00     0.015 A 
ATOM      7  C7  IND d   1      -4.036  -2.861  -5.257  0.00  0.00    -0.016 A 
ATOM      8  C8  IND d   1      -3.178  -3.949  -5.317  0.00  0.00    -0.047 A 
ATOM      9  C9  IND d   1      -3.409  -5.117  -4.578  0.00  0.00    -0.096 A 
ATOM     10  HN1 IND d   1      -1.626  -3.547  -6.521  0.00  0.00     0.298 HD
ENDROOT
TORSDOF 0
ENDMDL
