MODEL 1
REMARK minimizedAffinity -4.10513258
REMARK minimizedRMSD -1
REMARK  0 active torsions:
REMARK  status: ('A' for Active; 'I' for Inactive)
ROOT
ATOM      1  N1  IND d   1      -5.112  -5.008  -5.999  0.00  0.00    -0.196 N 
ATOM      2  C2  IND d   1      -5.873  -4.329  -5.089  0.00  0.00     0.054 A 
ATOM      3  C3  IND d   1      -5.160  -4.091  -3.965  0.00  0.00    -0.031 A 
ATOM      4  C4  IND d   1      -2.700  -4.638  -3.441  0.00  0.00     0.051 A 
ATOM      5  C5  IND d   1      -1.609  -5.285  -3.949  0.00  0.00    -0.031 A 
ATOM      6  C6  IND d   1      -1.629  -5.883  -5.193  0.00  0.00     0.015 A 
ATOM      7  C7  IND d   1      -2.743  -5.846  -5.983  0.00  0.00    -0.016 A 
ATOM      8  C8  IND d   1      -3.855  -5.195  -5.468  0.00  0.00    -0.047 A 
ATOM      9  C9  IND d   1      -3.854  -4.624  -4.189  0.00  0.00    -0.096 A 
ATOM     10  HN1 IND d   1      -5.375  -5.274  -6.774  0.00  0.00     0.298 HD
ENDROOT
TORSDOF 0
ENDMDL
