MODEL 1
REMARK minimizedAffinity -0.874672413
REMARK minimizedRMSD -1
REMARK  0 active torsions:
REMARK  status: ('A' for Active; 'I' for Inactive)
ROOT
ATOM      1  N1  IND d   1      -4.529  -3.230  -3.429  0.00  0.00    -0.196 N 
ATOM      2  C2  IND d   1      -5.828  -3.204  -3.853  0.00  0.00     0.054 A 
ATOM      3  C3  IND d   1      -6.000  -4.049  -4.895  0.00  0.00    -0.031 A 
ATOM      4  C4  IND d   1      -4.311  -5.647  -6.000  0.00  0.00     0.051 A 
ATOM      5  C5  IND d   1      -2.990  -5.999  -5.982  0.00  0.00    -0.031 A 
ATOM      6  C6  IND d   1      -2.098  -5.437  -5.092  0.00  0.00     0.015 A 
ATOM      7  C7  IND d   1      -2.497  -4.505  -4.176  0.00  0.00    -0.016 A 
ATOM      8  C8  IND d   1      -3.835  -4.140  -4.196  0.00  0.00    -0.047 A 
ATOM      9  C9  IND d   1      -4.737  -4.676  -5.124  0.00  0.00    -0.096 A 
ATOM     10  HN1 IND d   1      -4.200  -2.757  -2.790  0.00  0.00     0.298 HD
ENDROOT
TORSDOF 0
ENDMDL
