MODEL 1
REMARK minimizedAffinity -2.25526881
REMARK minimizedRMSD -1
REMARK  0 active torsions:
REMARK  status: ('A' for Active; 'I' for Inactive)
ROOT
ATOM      1  N1  IND d   1      -2.673  -5.989  -6.000  0.00  0.00    -0.196 N 
ATOM      2  C2  IND d   1      -1.660  -5.883  -5.088  0.00  0.00     0.054 A 
ATOM      3  C3  IND d   1      -2.088  -5.234  -3.982  0.00  0.00    -0.031 A 
ATOM      4  C4  IND d   1      -4.438  -4.350  -3.412  0.00  0.00     0.051 A 
ATOM      5  C5  IND d   1      -5.685  -4.182  -3.946  0.00  0.00    -0.031 A 
ATOM      6  C6  IND d   1      -5.999  -4.620  -5.217  0.00  0.00     0.015 A 
ATOM      7  C7  IND d   1      -5.076  -5.254  -6.000  0.00  0.00    -0.016 A 
ATOM      8  C8  IND d   1      -3.807  -5.420  -5.463  0.00  0.00    -0.047 A 
ATOM      9  C9  IND d   1      -3.471  -4.940  -4.191  0.00  0.00    -0.096 A 
ATOM     10  HN1 IND d   1      -2.612  -6.351  -6.777  0.00  0.00     0.298 HD
ENDROOT
TORSDOF 0
ENDMDL
