MODEL 1
REMARK minimizedAffinity -3.14919424
REMARK minimizedRMSD -1
REMARK  0 active torsions:
REMARK  status: ('A' for Active; 'I' for Inactive)
ROOT
ATOM      1  N1  IND d   1      -2.116  -4.093  -6.000  0.00  0.00    -0.196 N 
ATOM      2  C2  IND d   1      -1.948  -5.439  -5.833  0.00  0.00     0.054 A 
ATOM      3  C3  IND d   1      -3.085  -6.000  -5.362  0.00  0.00    -0.031 A 
ATOM      4  C4  IND d   1      -5.370  -4.913  -4.887  0.00  0.00     0.051 A 
ATOM      5  C5  IND d   1      -5.999  -3.701  -4.853  0.00  0.00    -0.031 A 
ATOM      6  C6  IND d   1      -5.355  -2.534  -5.209  0.00  0.00     0.015 A 
ATOM      7  C7  IND d   1      -4.053  -2.538  -5.626  0.00  0.00    -0.016 A 
ATOM      8  C8  IND d   1      -3.409  -3.766  -5.655  0.00  0.00    -0.047 A 
ATOM      9  C9  IND d   1      -4.045  -4.948  -5.254  0.00  0.00    -0.096 A 
ATOM     10  HN1 IND d   1      -1.514  -3.543  -6.273  0.00  0.00     0.298 HD
ENDROOT
TORSDOF 0
ENDMDL
