MODEL 1
REMARK minimizedAffinity -1.77974916
REMARK minimizedRMSD -1
REMARK  1 active torsions:
REMARK  status: ('A' for Active; 'I' for Inactive)
REMARK    1  A    between atoms: C3_4  and  O_7 
ROOT
ATOM      1  C   UNL d   1      -1.408   2.603   0.277  0.00  0.00    -0.033 A 
ATOM      2  C1  UNL d   1      -2.097   2.481   1.485  0.00  0.00     0.039 A 
ATOM      3  C2  UNL d   1      -1.960   1.324   2.255  0.00  0.00    -0.080 A 
ATOM      4  C3  UNL d   1      -1.130   0.300   1.807  0.00  0.00     0.150 A 
ATOM      5  C4  UNL d   1      -0.437   0.417   0.607  0.00  0.00    -0.007 A 
ATOM      6  C5  UNL d   1      -0.577   1.572  -0.161  0.00  0.00     0.039 A 
ENDROOT
BRANCH   4   7
ATOM      7  O   UNL d   1      -0.968  -0.849   2.522  0.00  0.00    -0.526 OA
ATOM      8  H5  UNL d   1      -1.530  -0.801   3.314  0.00  0.00     0.418 HD
ENDBRANCH   4   7
TORSDOF 1
ENDMDL
