MODEL 1
REMARK minimizedAffinity 6.39488745
REMARK minimizedRMSD -1
REMARK  1 active torsions:
REMARK  status: ('A' for Active; 'I' for Inactive)
REMARK    1  A    between atoms: C3_4  and  O_7 
ROOT
ATOM      1  C   UNL d   1       1.605  -2.149  -1.514  0.00  0.00    -0.033 A 
ATOM      2  C1  UNL d   1       1.876  -1.307  -0.433  0.00  0.00     0.039 A 
ATOM      3  C2  UNL d   1       1.641   0.065  -0.540  0.00  0.00    -0.080 A 
ATOM      4  C3  UNL d   1       1.135   0.582  -1.729  0.00  0.00     0.150 A 
ATOM      5  C4  UNL d   1       0.860  -0.251  -2.808  0.00  0.00    -0.007 A 
ATOM      6  C5  UNL d   1       1.095  -1.621  -2.701  0.00  0.00     0.039 A 
ENDROOT
BRANCH   4   7
ATOM      7  O   UNL d   1       0.894   1.915  -1.882  0.00  0.00    -0.526 OA
ATOM      8  H5  UNL d   1       1.159   2.371  -1.065  0.00  0.00     0.418 HD
ENDBRANCH   4   7
TORSDOF 1
ENDMDL
