MODEL 1
REMARK minimizedAffinity -1.80069172
REMARK minimizedRMSD -1
REMARK  1 active torsions:
REMARK  status: ('A' for Active; 'I' for Inactive)
REMARK    1  A    between atoms: C3_4  and  O_7 
ROOT
ATOM      1  C   UNL d   1       0.253   0.667   0.685  0.00  0.00    -0.033 A 
ATOM      2  C1  UNL d   1      -0.262   1.517  -0.295  0.00  0.00     0.039 A 
ATOM      3  C2  UNL d   1      -1.409   2.269  -0.038  0.00  0.00    -0.080 A 
ATOM      4  C3  UNL d   1      -2.032   2.163   1.203  0.00  0.00     0.150 A 
ATOM      5  C4  UNL d   1      -1.522   1.320   2.186  0.00  0.00    -0.007 A 
ATOM      6  C5  UNL d   1      -0.377   0.570   1.926  0.00  0.00     0.039 A 
ENDROOT
BRANCH   4   7
ATOM      7  O   UNL d   1      -3.157   2.873   1.499  0.00  0.00    -0.526 OA
ATOM      8  H5  UNL d   1      -3.410   3.390   0.716  0.00  0.00     0.418 HD
ENDBRANCH   4   7
TORSDOF 1
ENDMDL
