MODEL 1
REMARK minimizedAffinity 9.99643135
REMARK minimizedRMSD -1
REMARK  1 active torsions:
REMARK  status: ('A' for Active; 'I' for Inactive)
REMARK    1  A    between atoms: C3_4  and  O_7 
ROOT
ATOM      1  C   UNL d   1       1.036   1.122   3.643  0.00  0.00    -0.033 A 
ATOM      2  C1  UNL d   1       0.694   2.449   3.375  0.00  0.00     0.039 A 
ATOM      3  C2  UNL d   1      -0.543   2.750   2.803  0.00  0.00    -0.080 A 
ATOM      4  C3  UNL d   1      -1.429   1.718   2.506  0.00  0.00     0.150 A 
ATOM      5  C4  UNL d   1      -1.096   0.394   2.774  0.00  0.00    -0.007 A 
ATOM      6  C5  UNL d   1       0.140   0.095   3.344  0.00  0.00     0.039 A 
ENDROOT
BRANCH   4   7
ATOM      7  O   UNL d   1      -2.646   1.963   1.942  0.00  0.00    -0.526 OA
ATOM      8  H5  UNL d   1      -2.726   2.919   1.787  0.00  0.00     0.418 HD
ENDBRANCH   4   7
TORSDOF 1
ENDMDL
