MODEL 1
REMARK minimizedAffinity 3.16592979
REMARK minimizedRMSD -1
REMARK  1 active torsions:
REMARK  status: ('A' for Active; 'I' for Inactive)
REMARK    1  A    between atoms: C3_4  and  O_7 
ROOT
ATOM      1  C   UNL d   1      -2.562   2.216   2.047  0.00  0.00    -0.033 A 
ATOM      2  C1  UNL d   1      -2.794   2.409   0.684  0.00  0.00     0.039 A 
ATOM      3  C2  UNL d   1      -1.836   2.014  -0.252  0.00  0.00    -0.080 A 
ATOM      4  C3  UNL d   1      -0.653   1.427   0.188  0.00  0.00     0.150 A 
ATOM      5  C4  UNL d   1      -0.417   1.228   1.544  0.00  0.00    -0.007 A 
ATOM      6  C5  UNL d   1      -1.374   1.624   2.477  0.00  0.00     0.039 A 
ENDROOT
BRANCH   4   7
ATOM      7  O   UNL d   1       0.313   1.029  -0.688  0.00  0.00    -0.526 OA
ATOM      8  H5  UNL d   1       0.025   1.256  -1.588  0.00  0.00     0.418 HD
ENDBRANCH   4   7
TORSDOF 1
ENDMDL
