MODEL 1
REMARK minimizedAffinity 7.76791716
REMARK minimizedRMSD -1
REMARK  1 active torsions:
REMARK  status: ('A' for Active; 'I' for Inactive)
REMARK    1  A    between atoms: C3_4  and  O_7 
ROOT
ATOM      1  C   UNL d   1       5.979  -3.775  -2.994  0.00  0.00    -0.033 A 
ATOM      2  C1  UNL d   1       4.841  -4.582  -2.950  0.00  0.00     0.039 A 
ATOM      3  C2  UNL d   1       3.718  -4.251  -3.712  0.00  0.00    -0.080 A 
ATOM      4  C3  UNL d   1       3.748  -3.114  -4.513  0.00  0.00     0.150 A 
ATOM      5  C4  UNL d   1       4.880  -2.307  -4.566  0.00  0.00    -0.007 A 
ATOM      6  C5  UNL d   1       5.999  -2.638  -3.803  0.00  0.00     0.039 A 
ENDROOT
BRANCH   4   7
ATOM      7  O   UNL d   1       2.675  -2.748  -5.271  0.00  0.00    -0.526 OA
ATOM      8  H5  UNL d   1       1.956  -3.382  -5.112  0.00  0.00     0.418 HD
ENDBRANCH   4   7
TORSDOF 1
ENDMDL
