MODEL 1
REMARK minimizedAffinity -3.12069821
REMARK minimizedRMSD -1
REMARK  1 active torsions:
REMARK  status: ('A' for Active; 'I' for Inactive)
REMARK    1  A    between atoms: C3_4  and  O_7 
ROOT
ATOM      1  C   UNL d   1      -1.851   1.349   1.678  0.00  0.00    -0.033 A 
ATOM      2  C1  UNL d   1      -0.643   0.649   1.713  0.00  0.00     0.039 A 
ATOM      3  C2  UNL d   1       0.280   0.793   0.676  0.00  0.00    -0.080 A 
ATOM      4  C3  UNL d   1      -0.016   1.640  -0.389  0.00  0.00     0.150 A 
ATOM      5  C4  UNL d   1      -1.216   2.343  -0.429  0.00  0.00    -0.007 A 
ATOM      6  C5  UNL d   1      -2.136   2.197   0.608  0.00  0.00     0.039 A 
ENDROOT
BRANCH   4   7
ATOM      7  O   UNL d   1       0.851   1.809  -1.427  0.00  0.00    -0.526 OA
ATOM      8  H5  UNL d   1       1.624   1.239  -1.279  0.00  0.00     0.418 HD
ENDBRANCH   4   7
TORSDOF 1
ENDMDL
