MODEL 1
REMARK minimizedAffinity -0.495138317
REMARK minimizedRMSD -1
REMARK  1 active torsions:
REMARK  status: ('A' for Active; 'I' for Inactive)
REMARK    1  A    between atoms: C3_4  and  O_7 
ROOT
ATOM      1  C   UNL d   1      -2.460   2.155   1.502  0.00  0.00    -0.033 A 
ATOM      2  C1  UNL d   1      -2.204   2.294   0.136  0.00  0.00     0.039 A 
ATOM      3  C2  UNL d   1      -1.047   1.743  -0.419  0.00  0.00    -0.080 A 
ATOM      4  C3  UNL d   1      -0.157   1.055   0.401  0.00  0.00     0.150 A 
ATOM      5  C4  UNL d   1      -0.407   0.909   1.761  0.00  0.00    -0.007 A 
ATOM      6  C5  UNL d   1      -1.562   1.461   2.314  0.00  0.00     0.039 A 
ENDROOT
BRANCH   4   7
ATOM      7  O   UNL d   1       0.988   0.504  -0.095  0.00  0.00    -0.526 OA
ATOM      8  H5  UNL d   1       1.042   0.709  -1.043  0.00  0.00     0.418 HD
ENDBRANCH   4   7
TORSDOF 1
ENDMDL
