MODEL 1
REMARK minimizedAffinity 4.21447992
REMARK minimizedRMSD -1
REMARK  1 active torsions:
REMARK  status: ('A' for Active; 'I' for Inactive)
REMARK    1  A    between atoms: C3_4  and  O_7 
ROOT
ATOM      1  C   UNL d   1       5.996  -3.967   1.200  0.00  0.00    -0.033 A 
ATOM      2  C1  UNL d   1       5.995  -3.247   0.003  0.00  0.00     0.039 A 
ATOM      3  C2  UNL d   1       5.625  -3.873  -1.189  0.00  0.00    -0.080 A 
ATOM      4  C3  UNL d   1       5.258  -5.215  -1.171  0.00  0.00     0.150 A 
ATOM      5  C4  UNL d   1       5.253  -5.937   0.018  0.00  0.00    -0.007 A 
ATOM      6  C5  UNL d   1       5.624  -5.312   1.207  0.00  0.00     0.039 A 
ENDROOT
BRANCH   4   7
ATOM      7  O   UNL d   1       4.894  -5.870  -2.310  0.00  0.00    -0.526 OA
ATOM      8  H5  UNL d   1       4.972  -5.253  -3.058  0.00  0.00     0.418 HD
ENDBRANCH   4   7
TORSDOF 1
ENDMDL
