MODEL 1
REMARK minimizedAffinity 4.07417011
REMARK minimizedRMSD -1
REMARK  1 active torsions:
REMARK  status: ('A' for Active; 'I' for Inactive)
REMARK    1  A    between atoms: C3_4  and  O_7 
ROOT
ATOM      1  C   UNL d   1       0.804   1.352  -1.640  0.00  0.00    -0.033 A 
ATOM      2  C1  UNL d   1      -0.330   2.057  -1.230  0.00  0.00     0.039 A 
ATOM      3  C2  UNL d   1      -1.603   1.563  -1.518  0.00  0.00    -0.080 A 
ATOM      4  C3  UNL d   1      -1.730   0.364  -2.214  0.00  0.00     0.150 A 
ATOM      5  C4  UNL d   1      -0.606  -0.346  -2.622  0.00  0.00    -0.007 A 
ATOM      6  C5  UNL d   1       0.666   0.150  -2.335  0.00  0.00     0.039 A 
ENDROOT
BRANCH   4   7
ATOM      7  O   UNL d   1      -2.952  -0.155  -2.522  0.00  0.00    -0.526 OA
ATOM      8  H5  UNL d   1      -3.636   0.457  -2.203  0.00  0.00     0.418 HD
ENDBRANCH   4   7
TORSDOF 1
ENDMDL
