MODEL 1
REMARK minimizedAffinity 1.05204785
REMARK minimizedRMSD -1
REMARK  1 active torsions:
REMARK  status: ('A' for Active; 'I' for Inactive)
REMARK    1  A    between atoms: C3_4  and  O_7 
ROOT
ATOM      1  C   UNL d   1       4.856  -1.358   0.491  0.00  0.00    -0.033 A 
ATOM      2  C1  UNL d   1       5.858  -2.276   0.812  0.00  0.00     0.039 A 
ATOM      3  C2  UNL d   1       5.521  -3.572   1.205  0.00  0.00    -0.080 A 
ATOM      4  C3  UNL d   1       4.179  -3.938   1.271  0.00  0.00     0.150 A 
ATOM      5  C4  UNL d   1       3.176  -3.031   0.949  0.00  0.00    -0.007 A 
ATOM      6  C5  UNL d   1       3.515  -1.736   0.558  0.00  0.00     0.039 A 
ENDROOT
BRANCH   4   7
ATOM      7  O   UNL d   1       3.801  -5.191   1.654  0.00  0.00    -0.526 OA
ATOM      8  H5  UNL d   1       4.599  -5.700   1.874  0.00  0.00     0.418 HD
ENDBRANCH   4   7
TORSDOF 1
ENDMDL
