MODEL 1
REMARK minimizedAffinity -1.29333293
REMARK minimizedRMSD -1
REMARK  1 active torsions:
REMARK  status: ('A' for Active; 'I' for Inactive)
REMARK    1  A    between atoms: C3_4  and  O_7 
ROOT
ATOM      1  C   UNL d   1       4.926  -4.067   0.522  0.00  0.00    -0.033 A 
ATOM      2  C1  UNL d   1       3.532  -4.041   0.588  0.00  0.00     0.039 A 
ATOM      3  C2  UNL d   1       2.871  -2.872   0.970  0.00  0.00    -0.080 A 
ATOM      4  C3  UNL d   1       3.615  -1.737   1.282  0.00  0.00     0.150 A 
ATOM      5  C4  UNL d   1       5.004  -1.755   1.215  0.00  0.00    -0.007 A 
ATOM      6  C5  UNL d   1       5.662  -2.924   0.834  0.00  0.00     0.039 A 
ENDROOT
BRANCH   4   7
ATOM      7  O   UNL d   1       3.015  -0.575   1.665  0.00  0.00    -0.526 OA
ATOM      8  H5  UNL d   1       2.054  -0.719   1.694  0.00  0.00     0.418 HD
ENDBRANCH   4   7
TORSDOF 1
ENDMDL
