MODEL 1
REMARK minimizedAffinity 5.36761475
REMARK minimizedRMSD -1
REMARK  1 active torsions:
REMARK  status: ('A' for Active; 'I' for Inactive)
REMARK    1  A    between atoms: C3_4  and  O_7 
ROOT
ATOM      1  C   UNL d   1      -2.935   1.994   1.141  0.00  0.00    -0.033 A 
ATOM      2  C1  UNL d   1      -2.112   3.074   0.817  0.00  0.00     0.039 A 
ATOM      3  C2  UNL d   1      -0.939   3.301   1.540  0.00  0.00    -0.080 A 
ATOM      4  C3  UNL d   1      -0.601   2.442   2.582  0.00  0.00     0.150 A 
ATOM      5  C4  UNL d   1      -1.415   1.362   2.908  0.00  0.00    -0.007 A 
ATOM      6  C5  UNL d   1      -2.586   1.137   2.186  0.00  0.00     0.039 A 
ENDROOT
BRANCH   4   7
ATOM      7  O   UNL d   1       0.531   2.627   3.319  0.00  0.00    -0.526 OA
ATOM      8  H5  UNL d   1       0.980   3.427   2.999  0.00  0.00     0.418 HD
ENDBRANCH   4   7
TORSDOF 1
ENDMDL
