MODEL 1
REMARK minimizedAffinity -0.838089049
REMARK minimizedRMSD -1
REMARK  1 active torsions:
REMARK  status: ('A' for Active; 'I' for Inactive)
REMARK    1  A    between atoms: C3_4  and  O_7 
ROOT
ATOM      1  C   UNL d   1      -1.857   2.716   0.582  0.00  0.00    -0.033 A 
ATOM      2  C1  UNL d   1      -0.750   2.318   1.335  0.00  0.00     0.039 A 
ATOM      3  C2  UNL d   1      -0.874   1.290   2.271  0.00  0.00    -0.080 A 
ATOM      4  C3  UNL d   1      -2.108   0.668   2.444  0.00  0.00     0.150 A 
ATOM      5  C4  UNL d   1      -3.213   1.057   1.695  0.00  0.00    -0.007 A 
ATOM      6  C5  UNL d   1      -3.088   2.084   0.761  0.00  0.00     0.039 A 
ENDROOT
BRANCH   4   7
ATOM      7  O   UNL d   1      -2.278  -0.337   3.349  0.00  0.00    -0.526 OA
ATOM      8  H5  UNL d   1      -1.437  -0.479   3.814  0.00  0.00     0.418 HD
ENDBRANCH   4   7
TORSDOF 1
ENDMDL
