MODEL 1
REMARK minimizedAffinity 3.44440055
REMARK minimizedRMSD -1
REMARK  1 active torsions:
REMARK  status: ('A' for Active; 'I' for Inactive)
REMARK    1  A    between atoms: C3_4  and  O_7 
ROOT
ATOM      1  C   UNL d   1      -6.000  -4.367   5.853  0.00  0.00    -0.033 A 
ATOM      2  C1  UNL d   1      -4.857  -5.165   5.777  0.00  0.00     0.039 A 
ATOM      3  C2  UNL d   1      -3.713  -4.691   5.133  0.00  0.00    -0.080 A 
ATOM      4  C3  UNL d   1      -3.724  -3.418   4.569  0.00  0.00     0.150 A 
ATOM      5  C4  UNL d   1      -4.858  -2.616   4.644  0.00  0.00    -0.007 A 
ATOM      6  C5  UNL d   1      -6.000  -3.091   5.287  0.00  0.00     0.039 A 
ENDROOT
BRANCH   4   7
ATOM      7  O   UNL d   1      -2.633  -2.914   3.926  0.00  0.00    -0.526 OA
ATOM      8  H5  UNL d   1      -1.935  -3.590   3.928  0.00  0.00     0.418 HD
ENDBRANCH   4   7
TORSDOF 1
ENDMDL
