MODEL 1
REMARK minimizedAffinity 2.01205444
REMARK minimizedRMSD -1
REMARK  1 active torsions:
REMARK  status: ('A' for Active; 'I' for Inactive)
REMARK    1  A    between atoms: C3_4  and  O_7 
ROOT
ATOM      1  C   UNL d   1       0.039   1.235  -0.729  0.00  0.00    -0.033 A 
ATOM      2  C1  UNL d   1      -0.520   1.805   0.416  0.00  0.00     0.039 A 
ATOM      3  C2  UNL d   1      -0.379   3.173   0.657  0.00  0.00    -0.080 A 
ATOM      4  C3  UNL d   1       0.320   3.959  -0.254  0.00  0.00     0.150 A 
ATOM      5  C4  UNL d   1       0.876   3.399  -1.399  0.00  0.00    -0.007 A 
ATOM      6  C5  UNL d   1       0.736   2.032  -1.638  0.00  0.00     0.039 A 
ENDROOT
BRANCH   4   7
ATOM      7  O   UNL d   1       0.488   5.298  -0.059  0.00  0.00    -0.526 OA
ATOM      8  H5  UNL d   1       0.076   5.540   0.787  0.00  0.00     0.418 HD
ENDBRANCH   4   7
TORSDOF 1
ENDMDL
