MODEL 1
REMARK minimizedAffinity -3.07163048
REMARK minimizedRMSD -1
REMARK  0 active torsions:
REMARK  status: ('A' for Active; 'I' for Inactive)
ROOT
ATOM      1  C   UNL d   1      -1.005   1.131   2.667  0.00  0.00    -0.002 A 
ATOM      2  C1  UNL d   1       0.150   1.817   2.319  0.00  0.00     0.010 A 
ATOM      3  C2  UNL d   1       0.805   1.541   1.117  0.00  0.00     0.041 A 
ATOM      4  C3  UNL d   1       0.274   0.555   0.262  0.00  0.00    -0.075 A 
ATOM      5  S   UNL d   1       0.905   0.049  -1.260  0.00  0.00     0.015 SA
ATOM      6  C4  UNL d   1      -0.344  -1.088  -1.484  0.00  0.00     0.022 A 
ATOM      7  C5  UNL d   1      -1.230  -1.096  -0.433  0.00  0.00     0.026 A 
ATOM      8  C6  UNL d   1      -0.889  -0.148   0.591  0.00  0.00    -0.082 A 
ATOM      9  C7  UNL d   1      -1.529   0.154   1.817  0.00  0.00     0.045 A 
ENDROOT
TORSDOF 0
ENDMDL
