MODEL 1
REMARK minimizedAffinity -1.64514542
REMARK minimizedRMSD -1
REMARK  0 active torsions:
REMARK  status: ('A' for Active; 'I' for Inactive)
ROOT
ATOM      1  C   UNL d   1       0.503  -0.565  -1.485  0.00  0.00    -0.002 A 
ATOM      2  C1  UNL d   1      -0.825  -0.953  -1.601  0.00  0.00     0.010 A 
ATOM      3  C2  UNL d   1      -1.731  -0.702  -0.569  0.00  0.00     0.041 A 
ATOM      4  C3  UNL d   1      -1.276  -0.046   0.592  0.00  0.00    -0.075 A 
ATOM      5  S   UNL d   1      -2.207   0.367   1.984  0.00  0.00     0.015 SA
ATOM      6  C4  UNL d   1      -0.864   1.069   2.765  0.00  0.00     0.022 A 
ATOM      7  C5  UNL d   1       0.274   0.998   1.997  0.00  0.00     0.026 A 
ATOM      8  C6  UNL d   1       0.055   0.355   0.732  0.00  0.00    -0.082 A 
ATOM      9  C7  UNL d   1       0.950   0.085  -0.332  0.00  0.00     0.045 A 
ENDROOT
TORSDOF 0
ENDMDL
