MODEL 1
REMARK minimizedAffinity -1.70851111
REMARK minimizedRMSD -1
REMARK  0 active torsions:
REMARK  status: ('A' for Active; 'I' for Inactive)
ROOT
ATOM      1  C   UNL d   1      -2.246   0.740   1.736  0.00  0.00    -0.002 A 
ATOM      2  C1  UNL d   1      -1.133   1.134   2.465  0.00  0.00     0.010 A 
ATOM      3  C2  UNL d   1       0.154   0.914   1.970  0.00  0.00     0.041 A 
ATOM      4  C3  UNL d   1       0.305   0.288   0.717  0.00  0.00    -0.075 A 
ATOM      5  S   UNL d   1       1.784  -0.083  -0.089  0.00  0.00     0.015 SA
ATOM      6  C4  UNL d   1       0.972  -0.773  -1.419  0.00  0.00     0.022 A 
ATOM      7  C5  UNL d   1      -0.394  -0.730  -1.269  0.00  0.00     0.026 A 
ATOM      8  C6  UNL d   1      -0.801  -0.118  -0.036  0.00  0.00    -0.082 A 
ATOM      9  C7  UNL d   1      -2.092   0.118   0.494  0.00  0.00     0.045 A 
ENDROOT
TORSDOF 0
ENDMDL
