MODEL 1
REMARK minimizedAffinity -0.533845246
REMARK minimizedRMSD -1
REMARK  0 active torsions:
REMARK  status: ('A' for Active; 'I' for Inactive)
ROOT
ATOM      1  C   UNL d   1      -1.572   0.974   2.056  0.00  0.00    -0.002 A 
ATOM      2  C1  UNL d   1      -2.448   0.498   1.090  0.00  0.00     0.010 A 
ATOM      3  C2  UNL d   1      -1.963  -0.099  -0.076  0.00  0.00     0.041 A 
ATOM      4  C3  UNL d   1      -0.570  -0.212  -0.255  0.00  0.00    -0.075 A 
ATOM      5  S   UNL d   1       0.252  -0.907  -1.602  0.00  0.00     0.015 SA
ATOM      6  C4  UNL d   1       1.784  -0.589  -0.926  0.00  0.00     0.022 A 
ATOM      7  C5  UNL d   1       1.689   0.032   0.297  0.00  0.00     0.026 A 
ATOM      8  C6  UNL d   1       0.331   0.259   0.704  0.00  0.00    -0.082 A 
ATOM      9  C7  UNL d   1      -0.192   0.860   1.875  0.00  0.00     0.045 A 
ENDROOT
TORSDOF 0
ENDMDL
