MODEL 1
REMARK minimizedAffinity -1.02144003
REMARK minimizedRMSD -1
REMARK  0 active torsions:
REMARK  status: ('A' for Active; 'I' for Inactive)
ROOT
ATOM      1  C   UNL d   1       0.509  -0.209  -0.920  0.00  0.00    -0.002 A 
ATOM      2  C1  UNL d   1      -0.740  -0.784  -1.110  0.00  0.00     0.010 A 
ATOM      3  C2  UNL d   1      -1.712  -0.717  -0.111  0.00  0.00     0.041 A 
ATOM      4  C3  UNL d   1      -1.407  -0.055   1.095  0.00  0.00    -0.075 A 
ATOM      5  S   UNL d   1      -2.441   0.152   2.459  0.00  0.00     0.015 SA
ATOM      6  C4  UNL d   1      -1.250   1.009   3.326  0.00  0.00     0.022 A 
ATOM      7  C5  UNL d   1      -0.085   1.143   2.607  0.00  0.00     0.026 A 
ATOM      8  C6  UNL d   1      -0.156   0.533   1.310  0.00  0.00    -0.082 A 
ATOM      9  C7  UNL d   1       0.808   0.447   0.277  0.00  0.00     0.045 A 
ENDROOT
TORSDOF 0
ENDMDL
