MODEL 1
REMARK minimizedAffinity -1.18335485
REMARK minimizedRMSD -1
REMARK  0 active torsions:
REMARK  status: ('A' for Active; 'I' for Inactive)
ROOT
ATOM      1  C   UNL d   1      -2.002   0.020   2.580  0.00  0.00    -0.002 A 
ATOM      2  C1  UNL d   1      -0.786   0.396   3.133  0.00  0.00     0.010 A 
ATOM      3  C2  UNL d   1       0.314   0.661   2.315  0.00  0.00     0.041 A 
ATOM      4  C3  UNL d   1       0.170   0.542   0.919  0.00  0.00    -0.075 A 
ATOM      5  S   UNL d   1       1.380   0.817  -0.278  0.00  0.00     0.015 SA
ATOM      6  C4  UNL d   1       0.310   0.443  -1.552  0.00  0.00     0.022 A 
ATOM      7  C5  UNL d   1      -0.943   0.114  -1.093  0.00  0.00     0.026 A 
ATOM      8  C6  UNL d   1      -1.045   0.166   0.339  0.00  0.00    -0.082 A 
ATOM      9  C7  UNL d   1      -2.142  -0.096   1.195  0.00  0.00     0.045 A 
ENDROOT
TORSDOF 0
ENDMDL
