MODEL 1
REMARK minimizedAffinity -3.51997018
REMARK minimizedRMSD -1
REMARK  0 active torsions:
REMARK  status: ('A' for Active; 'I' for Inactive)
ROOT
ATOM      1  C   UNL d   1      -1.087   1.516   2.876  0.00  0.00    -0.002 A 
ATOM      2  C1  UNL d   1      -0.071   2.310   2.363  0.00  0.00     0.010 A 
ATOM      3  C2  UNL d   1       0.616   1.927   1.209  0.00  0.00     0.041 A 
ATOM      4  C3  UNL d   1       0.261   0.721   0.573  0.00  0.00    -0.075 A 
ATOM      5  S   UNL d   1       0.963   0.051  -0.851  0.00  0.00     0.015 SA
ATOM      6  C4  UNL d   1      -0.069  -1.305  -0.812  0.00  0.00     0.022 A 
ATOM      7  C5  UNL d   1      -0.934  -1.264   0.255  0.00  0.00     0.026 A 
ATOM      8  C6  UNL d   1      -0.759  -0.095   1.071  0.00  0.00    -0.082 A 
ATOM      9  C7  UNL d   1      -1.436   0.320   2.243  0.00  0.00     0.045 A 
ENDROOT
TORSDOF 0
ENDMDL
