MODEL 1
REMARK minimizedAffinity -2.37544465
REMARK minimizedRMSD -1
REMARK  0 active torsions:
REMARK  status: ('A' for Active; 'I' for Inactive)
ROOT
ATOM      1  C   UNL d   1      -1.908   1.023   2.335  0.00  0.00    -0.002 A 
ATOM      2  C1  UNL d   1      -0.669   1.502   2.736  0.00  0.00     0.010 A 
ATOM      3  C2  UNL d   1       0.464   1.286   1.950  0.00  0.00     0.041 A 
ATOM      4  C3  UNL d   1       0.329   0.575   0.741  0.00  0.00    -0.075 A 
ATOM      5  S   UNL d   1       1.578   0.192  -0.384  0.00  0.00     0.015 SA
ATOM      6  C4  UNL d   1       0.496  -0.616  -1.424  0.00  0.00     0.022 A 
ATOM      7  C5  UNL d   1      -0.791  -0.603  -0.940  0.00  0.00     0.026 A 
ATOM      8  C6  UNL d   1      -0.908   0.084   0.315  0.00  0.00    -0.082 A 
ATOM      9  C7  UNL d   1      -2.038   0.319   1.135  0.00  0.00     0.045 A 
ENDROOT
TORSDOF 0
ENDMDL
