MODEL 1
REMARK minimizedAffinity -2.35056901
REMARK minimizedRMSD -1
REMARK  1 active torsions:
REMARK  status: ('A' for Active; 'I' for Inactive)
REMARK    1  A    between atoms: C3_4  and  O_7 
ROOT
ATOM      1  C   UNL d   1      -2.760  -1.274  -3.597  0.00  0.00    -0.033 A 
ATOM      2  C1  UNL d   1      -3.036  -2.252  -2.639  0.00  0.00     0.039 A 
ATOM      3  C2  UNL d   1      -2.278  -2.319  -1.468  0.00  0.00    -0.080 A 
ATOM      4  C3  UNL d   1      -1.249  -1.403  -1.267  0.00  0.00     0.150 A 
ATOM      5  C4  UNL d   1      -0.971  -0.424  -2.215  0.00  0.00    -0.007 A 
ATOM      6  C5  UNL d   1      -1.728  -0.359  -3.384  0.00  0.00     0.039 A 
ENDROOT
BRANCH   4   7
ATOM      7  O   UNL d   1      -0.479  -1.432  -0.143  0.00  0.00    -0.526 OA
ATOM      8  H5  UNL d   1      -0.767  -2.179   0.408  0.00  0.00     0.418 HD
ENDBRANCH   4   7
TORSDOF 1
ENDMDL
