MODEL 1
REMARK minimizedAffinity -4.27210665
REMARK minimizedRMSD -1
REMARK  1 active torsions:
REMARK  status: ('A' for Active; 'I' for Inactive)
REMARK    1  A    between atoms: C3_4  and  O_7 
ROOT
ATOM      1  C   UNL d   1       1.005   1.844   1.383  0.00  0.00    -0.033 A 
ATOM      2  C1  UNL d   1      -0.173   1.350   1.948  0.00  0.00     0.039 A 
ATOM      3  C2  UNL d   1      -0.835   0.274   1.355  0.00  0.00    -0.080 A 
ATOM      4  C3  UNL d   1      -0.311  -0.299   0.199  0.00  0.00     0.150 A 
ATOM      5  C4  UNL d   1       0.864   0.186  -0.367  0.00  0.00    -0.007 A 
ATOM      6  C5  UNL d   1       1.523   1.261   0.227  0.00  0.00     0.039 A 
ENDROOT
BRANCH   4   7
ATOM      7  O   UNL d   1      -0.925  -1.348  -0.418  0.00  0.00    -0.526 OA
ATOM      8  H5  UNL d   1      -1.740  -1.557   0.068  0.00  0.00     0.418 HD
ENDBRANCH   4   7
TORSDOF 1
ENDMDL
