MODEL 1
REMARK minimizedAffinity -3.14754415
REMARK minimizedRMSD -1
REMARK  1 active torsions:
REMARK  status: ('A' for Active; 'I' for Inactive)
REMARK    1  A    between atoms: C3_4  and  O_7 
ROOT
ATOM      1  C   UNL d   1      -1.048   0.821   0.439  0.00  0.00    -0.033 A 
ATOM      2  C1  UNL d   1      -0.049   0.295  -0.382  0.00  0.00     0.039 A 
ATOM      3  C2  UNL d   1       1.295   0.453  -0.038  0.00  0.00    -0.080 A 
ATOM      4  C3  UNL d   1       1.626   1.136   1.129  0.00  0.00     0.150 A 
ATOM      5  C4  UNL d   1       0.636   1.659   1.954  0.00  0.00    -0.007 A 
ATOM      6  C5  UNL d   1      -0.706   1.502   1.608  0.00  0.00     0.039 A 
ENDROOT
BRANCH   4   7
ATOM      7  O   UNL d   1       2.924   1.320   1.504  0.00  0.00    -0.526 OA
ATOM      8  H5  UNL d   1       3.499   0.930   0.823  0.00  0.00     0.418 HD
ENDBRANCH   4   7
TORSDOF 1
ENDMDL
