MODEL 1
REMARK minimizedAffinity -4.86552334
REMARK minimizedRMSD -1
REMARK  1 active torsions:
REMARK  status: ('A' for Active; 'I' for Inactive)
REMARK    1  A    between atoms: C3_4  and  O_7 
ROOT
ATOM      1  C   UNL d   1       2.694   2.832   0.987  0.00  0.00    -0.033 A 
ATOM      2  C1  UNL d   1       3.272   1.802   0.241  0.00  0.00     0.039 A 
ATOM      3  C2  UNL d   1       2.478   0.769  -0.258  0.00  0.00    -0.080 A 
ATOM      4  C3  UNL d   1       1.109   0.776  -0.006  0.00  0.00     0.150 A 
ATOM      5  C4  UNL d   1       0.526   1.801   0.733  0.00  0.00    -0.007 A 
ATOM      6  C5  UNL d   1       1.321   2.831   1.232  0.00  0.00     0.039 A 
ENDROOT
BRANCH   4   7
ATOM      7  O   UNL d   1       0.293  -0.213  -0.469  0.00  0.00    -0.526 OA
ATOM      8  H5  UNL d   1       0.839  -0.867  -0.937  0.00  0.00     0.418 HD
ENDBRANCH   4   7
TORSDOF 1
ENDMDL
