MODEL 1
REMARK minimizedAffinity -4.16475391
REMARK minimizedRMSD -1
REMARK  1 active torsions:
REMARK  status: ('A' for Active; 'I' for Inactive)
REMARK    1  A    between atoms: C3_4  and  O_7 
ROOT
ATOM      1  C   UNL d   1       0.654   2.547   1.749  0.00  0.00    -0.033 A 
ATOM      2  C1  UNL d   1       1.982   2.767   2.120  0.00  0.00     0.039 A 
ATOM      3  C2  UNL d   1       3.008   2.034   1.520  0.00  0.00    -0.080 A 
ATOM      4  C3  UNL d   1       2.693   1.086   0.550  0.00  0.00     0.150 A 
ATOM      5  C4  UNL d   1       1.372   0.864   0.173  0.00  0.00    -0.007 A 
ATOM      6  C5  UNL d   1       0.350   1.596   0.774  0.00  0.00     0.039 A 
ENDROOT
BRANCH   4   7
ATOM      7  O   UNL d   1       3.659   0.343  -0.060  0.00  0.00    -0.526 OA
ATOM      8  H5  UNL d   1       4.520   0.584   0.321  0.00  0.00     0.418 HD
ENDBRANCH   4   7
TORSDOF 1
ENDMDL
