MODEL 1
REMARK minimizedAffinity -4.74657917
REMARK minimizedRMSD -1
REMARK  1 active torsions:
REMARK  status: ('A' for Active; 'I' for Inactive)
REMARK    1  A    between atoms: C3_4  and  O_7 
ROOT
ATOM      1  C   UNL d   1       2.662   1.971   1.034  0.00  0.00    -0.033 A 
ATOM      2  C1  UNL d   1       3.026   0.893   0.225  0.00  0.00     0.039 A 
ATOM      3  C2  UNL d   1       2.043   0.065  -0.321  0.00  0.00    -0.080 A 
ATOM      4  C3  UNL d   1       0.702   0.328  -0.053  0.00  0.00     0.150 A 
ATOM      5  C4  UNL d   1       0.333   1.402   0.749  0.00  0.00    -0.007 A 
ATOM      6  C5  UNL d   1       1.316   2.227   1.295  0.00  0.00     0.039 A 
ENDROOT
BRANCH   4   7
ATOM      7  O   UNL d   1      -0.293  -0.455  -0.560  0.00  0.00    -0.526 OA
ATOM      8  H5  UNL d   1       0.113  -1.175  -1.071  0.00  0.00     0.418 HD
ENDBRANCH   4   7
TORSDOF 1
ENDMDL
