MODEL 1
REMARK minimizedAffinity -1.58192778
REMARK minimizedRMSD -1
REMARK  1 active torsions:
REMARK  status: ('A' for Active; 'I' for Inactive)
REMARK    1  A    between atoms: C3_4  and  O_7 
ROOT
ATOM      1  C   UNL d   1      -0.773  -0.859  -1.281  0.00  0.00    -0.033 A 
ATOM      2  C1  UNL d   1      -1.538   0.303  -1.172  0.00  0.00     0.039 A 
ATOM      3  C2  UNL d   1      -1.322   1.187  -0.112  0.00  0.00    -0.080 A 
ATOM      4  C3  UNL d   1      -0.338   0.897   0.829  0.00  0.00     0.150 A 
ATOM      5  C4  UNL d   1       0.431  -0.258   0.724  0.00  0.00    -0.007 A 
ATOM      6  C5  UNL d   1       0.213  -1.139  -0.334  0.00  0.00     0.039 A 
ENDROOT
BRANCH   4   7
ATOM      7  O   UNL d   1      -0.094   1.726   1.883  0.00  0.00    -0.526 OA
ATOM      8  H5  UNL d   1      -0.720   2.468   1.842  0.00  0.00     0.418 HD
ENDBRANCH   4   7
TORSDOF 1
ENDMDL
