MODEL 1
REMARK minimizedAffinity -5.08190966
REMARK minimizedRMSD -1
REMARK  1 active torsions:
REMARK  status: ('A' for Active; 'I' for Inactive)
REMARK    1  A    between atoms: C3_4  and  O_7 
ROOT
ATOM      1  C   UNL d   1       0.769   2.130   1.205  0.00  0.00    -0.033 A 
ATOM      2  C1  UNL d   1      -0.089   1.202   0.611  0.00  0.00     0.039 A 
ATOM      3  C2  UNL d   1       0.434   0.098  -0.065  0.00  0.00    -0.080 A 
ATOM      4  C3  UNL d   1       1.815  -0.067  -0.138  0.00  0.00     0.150 A 
ATOM      5  C4  UNL d   1       2.675   0.851   0.455  0.00  0.00    -0.007 A 
ATOM      6  C5  UNL d   1       2.151   1.954   1.129  0.00  0.00     0.039 A 
ENDROOT
BRANCH   4   7
ATOM      7  O   UNL d   1       2.372  -1.126  -0.791  0.00  0.00    -0.526 OA
ATOM      8  H5  UNL d   1       1.658  -1.661  -1.175  0.00  0.00     0.418 HD
ENDBRANCH   4   7
TORSDOF 1
ENDMDL
