MODEL 1
REMARK minimizedAffinity -3.19847417
REMARK minimizedRMSD -1
REMARK  1 active torsions:
REMARK  status: ('A' for Active; 'I' for Inactive)
REMARK    1  A    between atoms: C3_4  and  O_7 
ROOT
ATOM      1  C   UNL d   1       1.120   2.403   1.210  0.00  0.00    -0.033 A 
ATOM      2  C1  UNL d   1       1.834   1.908   0.117  0.00  0.00     0.039 A 
ATOM      3  C2  UNL d   1       1.411   0.743  -0.526  0.00  0.00    -0.080 A 
ATOM      4  C3  UNL d   1       0.273   0.085  -0.068  0.00  0.00     0.150 A 
ATOM      5  C4  UNL d   1      -0.446   0.575   1.018  0.00  0.00    -0.007 A 
ATOM      6  C5  UNL d   1      -0.021   1.737   1.659  0.00  0.00     0.039 A 
ENDROOT
BRANCH   4   7
ATOM      7  O   UNL d   1      -0.177  -1.058  -0.661  0.00  0.00    -0.526 OA
ATOM      8  H5  UNL d   1       0.435  -1.293  -1.378  0.00  0.00     0.418 HD
ENDBRANCH   4   7
TORSDOF 1
ENDMDL
