MODEL 1
REMARK minimizedAffinity -2.68192315
REMARK minimizedRMSD -1
REMARK  1 active torsions:
REMARK  status: ('A' for Active; 'I' for Inactive)
REMARK    1  A    between atoms: C3_4  and  O_7 
ROOT
ATOM      1  C   UNL d   1      -0.444  -1.601   0.442  0.00  0.00    -0.033 A 
ATOM      2  C1  UNL d   1      -0.863  -1.280   1.734  0.00  0.00     0.039 A 
ATOM      3  C2  UNL d   1      -0.568  -0.026   2.274  0.00  0.00    -0.080 A 
ATOM      4  C3  UNL d   1       0.145   0.895   1.512  0.00  0.00     0.150 A 
ATOM      5  C4  UNL d   1       0.561   0.583   0.222  0.00  0.00    -0.007 A 
ATOM      6  C5  UNL d   1       0.267  -0.669  -0.315  0.00  0.00     0.039 A 
ENDROOT
BRANCH   4   7
ATOM      7  O   UNL d   1       0.460   2.129   1.997  0.00  0.00    -0.526 OA
ATOM      8  H5  UNL d   1       0.133   2.194   2.910  0.00  0.00     0.418 HD
ENDBRANCH   4   7
TORSDOF 1
ENDMDL
