MODEL 1
REMARK minimizedAffinity -2.24561119
REMARK minimizedRMSD -1
REMARK  1 active torsions:
REMARK  status: ('A' for Active; 'I' for Inactive)
REMARK    1  A    between atoms: C3_4  and  O_7 
ROOT
ATOM      1  C   UNL d   1       0.312  -0.059   0.084  0.00  0.00    -0.033 A 
ATOM      2  C1  UNL d   1      -0.836   0.660  -0.255  0.00  0.00     0.039 A 
ATOM      3  C2  UNL d   1      -1.809   0.081  -1.072  0.00  0.00    -0.080 A 
ATOM      4  C3  UNL d   1      -1.623  -1.216  -1.541  0.00  0.00     0.150 A 
ATOM      5  C4  UNL d   1      -0.483  -1.940  -1.204  0.00  0.00    -0.007 A 
ATOM      6  C5  UNL d   1       0.488  -1.359  -0.389  0.00  0.00     0.039 A 
ENDROOT
BRANCH   4   7
ATOM      7  O   UNL d   1      -2.542  -1.822  -2.345  0.00  0.00    -0.526 OA
ATOM      8  H5  UNL d   1      -3.262  -1.192  -2.518  0.00  0.00     0.418 HD
ENDBRANCH   4   7
TORSDOF 1
ENDMDL
