MODEL 1
REMARK minimizedAffinity -2.9996171
REMARK minimizedRMSD -1
REMARK  0 active torsions:
REMARK  status: ('A' for Active; 'I' for Inactive)
ROOT
ATOM      1  N1  IND d   1       1.411  -3.328   3.814  0.00  0.00    -0.196 N 
ATOM      2  C2  IND d   1       2.597  -3.498   4.472  0.00  0.00     0.054 A 
ATOM      3  C3  IND d   1       3.596  -2.874   3.808  0.00  0.00    -0.031 A 
ATOM      4  C4  IND d   1       3.494  -1.430   1.679  0.00  0.00     0.051 A 
ATOM      5  C5  IND d   1       2.637  -1.015   0.699  0.00  0.00    -0.031 A 
ATOM      6  C6  IND d   1       1.299  -1.355   0.709  0.00  0.00     0.015 A 
ATOM      7  C7  IND d   1       0.765  -2.116   1.710  0.00  0.00    -0.016 A 
ATOM      8  C8  IND d   1       1.634  -2.545   2.703  0.00  0.00    -0.047 A 
ATOM      9  C9  IND d   1       3.001  -2.239   2.676  0.00  0.00    -0.096 A 
ATOM     10  HN1 IND d   1       0.653  -3.655   4.054  0.00  0.00     0.298 HD
ENDROOT
TORSDOF 0
ENDMDL
