MODEL 1
REMARK minimizedAffinity 9.86145878
REMARK minimizedRMSD -1
REMARK  0 active torsions:
REMARK  status: ('A' for Active; 'I' for Inactive)
ROOT
ATOM      1  N1  IND d   1       3.038   0.607   0.947  0.00  0.00    -0.196 N 
ATOM      2  C2  IND d   1       1.840   1.261   0.860  0.00  0.00     0.054 A 
ATOM      3  C3  IND d   1       0.822   0.417   1.139  0.00  0.00    -0.031 A 
ATOM      4  C4  IND d   1       0.896  -2.053   1.862  0.00  0.00     0.051 A 
ATOM      5  C5  IND d   1       1.760  -3.096   2.046  0.00  0.00    -0.031 A 
ATOM      6  C6  IND d   1       3.122  -2.954   1.872  0.00  0.00     0.015 A 
ATOM      7  C7  IND d   1       3.674  -1.756   1.517  0.00  0.00    -0.016 A 
ATOM      8  C8  IND d   1       2.799  -0.696   1.323  0.00  0.00    -0.047 A 
ATOM      9  C9  IND d   1       1.412  -0.845   1.457  0.00  0.00    -0.096 A 
ATOM     10  HN1 IND d   1       3.810   0.952   0.793  0.00  0.00     0.298 HD
ENDROOT
TORSDOF 0
ENDMDL
