MODEL 1
REMARK minimizedAffinity 9.97593689
REMARK minimizedRMSD -1
REMARK  0 active torsions:
REMARK  status: ('A' for Active; 'I' for Inactive)
ROOT
ATOM      1  N1  IND d   1      -0.562  -3.513   1.638  0.00  0.00    -0.196 N 
ATOM      2  C2  IND d   1      -0.015  -2.261   1.653  0.00  0.00     0.054 A 
ATOM      3  C3  IND d   1      -0.686  -1.444   0.810  0.00  0.00    -0.031 A 
ATOM      4  C4  IND d   1      -2.774  -1.925  -0.617  0.00  0.00     0.051 A 
ATOM      5  C5  IND d   1      -3.615  -2.937  -0.990  0.00  0.00    -0.031 A 
ATOM      6  C6  IND d   1      -3.479  -4.217  -0.494  0.00  0.00     0.015 A 
ATOM      7  C7  IND d   1      -2.501  -4.533   0.406  0.00  0.00    -0.016 A 
ATOM      8  C8  IND d   1      -1.642  -3.510   0.782  0.00  0.00    -0.047 A 
ATOM      9  C9  IND d   1      -1.748  -2.219   0.249  0.00  0.00    -0.096 A 
ATOM     10  HN1 IND d   1      -0.280  -4.190   2.087  0.00  0.00     0.298 HD
ENDROOT
TORSDOF 0
ENDMDL
