MODEL 1
REMARK minimizedAffinity 4.11640549
REMARK minimizedRMSD -1
REMARK  0 active torsions:
REMARK  status: ('A' for Active; 'I' for Inactive)
ROOT
ATOM      1  N1  IND d   1       1.347   0.618   1.775  0.00  0.00    -0.196 N 
ATOM      2  C2  IND d   1       2.702   0.534   1.935  0.00  0.00     0.054 A 
ATOM      3  C3  IND d   1       3.073  -0.749   2.144  0.00  0.00    -0.031 A 
ATOM      4  C4  IND d   1       1.636  -2.884   2.164  0.00  0.00     0.051 A 
ATOM      5  C5  IND d   1       0.339  -3.310   2.101  0.00  0.00    -0.031 A 
ATOM      6  C6  IND d   1      -0.710  -2.431   1.919  0.00  0.00     0.015 A 
ATOM      7  C7  IND d   1      -0.497  -1.089   1.782  0.00  0.00    -0.016 A 
ATOM      8  C8  IND d   1       0.818  -0.652   1.853  0.00  0.00    -0.047 A 
ATOM      9  C9  IND d   1       1.882  -1.534   2.080  0.00  0.00    -0.096 A 
ATOM     10  HN1 IND d   1       0.901   1.341   1.648  0.00  0.00     0.298 HD
ENDROOT
TORSDOF 0
ENDMDL
