MODEL 1
REMARK minimizedAffinity 5.00401783
REMARK minimizedRMSD -1
REMARK  0 active torsions:
REMARK  status: ('A' for Active; 'I' for Inactive)
ROOT
ATOM      1  N1  IND d   1       3.799  -2.834  -3.763  0.00  0.00    -0.196 N 
ATOM      2  C2  IND d   1       2.623  -2.372  -3.244  0.00  0.00     0.054 A 
ATOM      3  C3  IND d   1       2.386  -1.110  -3.665  0.00  0.00    -0.031 A 
ATOM      4  C4  IND d   1       3.743   0.353  -5.292  0.00  0.00     0.051 A 
ATOM      5  C5  IND d   1       4.913   0.378  -5.999  0.00  0.00    -0.031 A 
ATOM      6  C6  IND d   1       5.788  -0.690  -5.998  0.00  0.00     0.015 A 
ATOM      7  C7  IND d   1       5.518  -1.831  -5.297  0.00  0.00    -0.016 A 
ATOM      8  C8  IND d   1       4.335  -1.857  -4.573  0.00  0.00    -0.047 A 
ATOM      9  C9  IND d   1       3.464  -0.761  -4.535  0.00  0.00    -0.096 A 
ATOM     10  HN1 IND d   1       4.147  -3.606  -3.610  0.00  0.00     0.298 HD
ENDROOT
TORSDOF 0
ENDMDL
