MODEL 1
REMARK minimizedAffinity -2.9541378
REMARK minimizedRMSD -1
REMARK  0 active torsions:
REMARK  status: ('A' for Active; 'I' for Inactive)
ROOT
ATOM      1  N1  IND d   1       1.940   1.073   3.038  0.00  0.00    -0.196 N 
ATOM      2  C2  IND d   1       1.472   0.130   3.910  0.00  0.00     0.054 A 
ATOM      3  C3  IND d   1       1.897  -1.100   3.545  0.00  0.00    -0.031 A 
ATOM      4  C4  IND d   1       3.452  -1.786   1.611  0.00  0.00     0.051 A 
ATOM      5  C5  IND d   1       4.104  -1.280   0.521  0.00  0.00    -0.031 A 
ATOM      6  C6  IND d   1       4.070   0.064   0.210  0.00  0.00     0.015 A 
ATOM      7  C7  IND d   1       3.388   0.958   0.987  0.00  0.00    -0.016 A 
ATOM      8  C8  IND d   1       2.719   0.446   2.090  0.00  0.00    -0.047 A 
ATOM      9  C9  IND d   1       2.715  -0.923   2.387  0.00  0.00    -0.096 A 
ATOM     10  HN1 IND d   1       1.776   1.917   3.075  0.00  0.00     0.298 HD
ENDROOT
TORSDOF 0
ENDMDL
