MODEL 1
REMARK minimizedAffinity 10.7118387
REMARK minimizedRMSD -1
REMARK  0 active torsions:
REMARK  status: ('A' for Active; 'I' for Inactive)
ROOT
ATOM      1  N1  IND d   1       2.588   3.718  -0.889  0.00  0.00    -0.196 N 
ATOM      2  C2  IND d   1       1.443   4.407  -0.600  0.00  0.00     0.054 A 
ATOM      3  C3  IND d   1       0.767   3.798   0.400  0.00  0.00    -0.031 A 
ATOM      4  C4  IND d   1       1.405   1.718   1.776  0.00  0.00     0.051 A 
ATOM      5  C5  IND d   1       2.341   0.725   1.857  0.00  0.00    -0.031 A 
ATOM      6  C6  IND d   1       3.431   0.680   1.012  0.00  0.00     0.015 A 
ATOM      7  C7  IND d   1       3.632   1.637   0.057  0.00  0.00    -0.016 A 
ATOM      8  C8  IND d   1       2.680   2.642  -0.033  0.00  0.00    -0.047 A 
ATOM      9  C9  IND d   1       1.549   2.669   0.794  0.00  0.00    -0.096 A 
ATOM     10  HN1 IND d   1       3.155   3.922  -1.502  0.00  0.00     0.298 HD
ENDROOT
TORSDOF 0
ENDMDL
