MODEL 1
REMARK minimizedAffinity -1.51496315
REMARK minimizedRMSD -1
REMARK  0 active torsions:
REMARK  status: ('A' for Active; 'I' for Inactive)
ROOT
ATOM      1  N1  IND d   1       0.106  -1.835   2.013  0.00  0.00    -0.196 N 
ATOM      2  C2  IND d   1      -0.019  -3.196   1.999  0.00  0.00     0.054 A 
ATOM      3  C3  IND d   1       1.178  -3.776   1.755  0.00  0.00    -0.031 A 
ATOM      4  C4  IND d   1       3.491  -2.687   1.449  0.00  0.00     0.051 A 
ATOM      5  C5  IND d   1       4.103  -1.470   1.344  0.00  0.00    -0.031 A 
ATOM      6  C6  IND d   1       3.400  -0.288   1.462  0.00  0.00     0.015 A 
ATOM      7  C7  IND d   1       2.055  -0.280   1.701  0.00  0.00    -0.016 A 
ATOM      8  C8  IND d   1       1.429  -1.514   1.801  0.00  0.00    -0.047 A 
ATOM      9  C9  IND d   1       2.130  -2.716   1.641  0.00  0.00    -0.096 A 
ATOM     10  HN1 IND d   1      -0.534  -1.274   2.133  0.00  0.00     0.298 HD
ENDROOT
TORSDOF 0
ENDMDL
