MODEL 1
REMARK minimizedAffinity 2.83428884
REMARK minimizedRMSD -1
REMARK  0 active torsions:
REMARK  status: ('A' for Active; 'I' for Inactive)
ROOT
ATOM      1  N1  IND d   1       1.507  -1.980  -1.339  0.00  0.00    -0.196 N 
ATOM      2  C2  IND d   1       0.320  -1.651  -1.932  0.00  0.00     0.054 A 
ATOM      3  C3  IND d   1      -0.606  -1.345  -0.996  0.00  0.00    -0.031 A 
ATOM      4  C4  IND d   1      -0.363  -1.220   1.564  0.00  0.00     0.051 A 
ATOM      5  C5  IND d   1       0.522  -1.469   2.576  0.00  0.00    -0.031 A 
ATOM      6  C6  IND d   1       1.807  -1.907   2.329  0.00  0.00     0.015 A 
ATOM      7  C7  IND d   1       2.261  -2.103   1.055  0.00  0.00    -0.016 A 
ATOM      8  C8  IND d   1       1.363  -1.858   0.026  0.00  0.00    -0.047 A 
ATOM      9  C9  IND d   1       0.044  -1.454   0.272  0.00  0.00    -0.096 A 
ATOM     10  HN1 IND d   1       2.222  -2.223  -1.749  0.00  0.00     0.298 HD
ENDROOT
TORSDOF 0
ENDMDL
