MODEL 1
REMARK minimizedAffinity -5.63606739
REMARK minimizedRMSD -1
REMARK  1 active torsions:
REMARK  status: ('A' for Active; 'I' for Inactive)
REMARK    1  A    between atoms: C1_2  and  C2_3 
ROOT
ATOM      1  C2  UNL d   1      -0.218   0.492   0.123  0.00  0.00    -0.081 A 
ATOM      2  C3  UNL d   1       1.030  -0.093  -0.122  0.00  0.00     0.006 A 
ATOM      3  C4  UNL d   1       1.418  -1.247   0.562  0.00  0.00     0.002 A 
ATOM      4  C5  UNL d   1       0.562  -1.840   1.496  0.00  0.00    -0.080 A 
ATOM      5  C6  UNL d   1       0.954  -3.096   2.216  0.00  0.00     0.076 C 
ATOM      6  C7  UNL d   1      -0.678  -1.246   1.754  0.00  0.00     0.002 A 
ATOM      7  C8  UNL d   1      -1.066  -0.091   1.071  0.00  0.00     0.006 A 
ENDROOT
BRANCH   1   8
ATOM      8  C1  UNL d   1      -0.666   1.700  -0.660  0.00  0.00     0.054 C 
ATOM      9  C   UNL d   1      -1.798   1.351  -1.616  0.00  0.00     0.018 C 
ENDBRANCH   1   8
TORSDOF 1
ENDMDL
