MODEL 1
REMARK minimizedAffinity -4.86513948
REMARK minimizedRMSD -1
REMARK  1 active torsions:
REMARK  status: ('A' for Active; 'I' for Inactive)
REMARK    1  A    between atoms: C1_2  and  C2_3 
ROOT
ATOM      1  C2  UNL d   1       0.866  -1.261   0.414  0.00  0.00    -0.081 A 
ATOM      2  C3  UNL d   1      -0.493  -0.984   0.610  0.00  0.00     0.006 A 
ATOM      3  C4  UNL d   1      -1.078   0.142   0.026  0.00  0.00     0.002 A 
ATOM      4  C5  UNL d   1      -0.316   1.006  -0.769  0.00  0.00    -0.080 A 
ATOM      5  C6  UNL d   1      -0.938   2.202  -1.426  0.00  0.00     0.076 C 
ATOM      6  C7  UNL d   1       1.045   0.739  -0.950  0.00  0.00     0.002 A 
ATOM      7  C8  UNL d   1       1.631  -0.386  -0.366  0.00  0.00     0.006 A 
ENDROOT
BRANCH   1   8
ATOM      8  C1  UNL d   1       1.484  -2.509   0.989  0.00  0.00     0.054 C 
ATOM      9  C   UNL d   1       0.780  -2.937   2.269  0.00  0.00     0.018 C 
ENDBRANCH   1   8
TORSDOF 1
ENDMDL
