MODEL 1
REMARK minimizedAffinity -1.64944637
REMARK minimizedRMSD -1
REMARK  1 active torsions:
REMARK  status: ('A' for Active; 'I' for Inactive)
REMARK    1  A    between atoms: C1_2  and  C2_3 
ROOT
ATOM      1  C2  UNL d   1      -0.966   0.900  -1.478  0.00  0.00    -0.081 A 
ATOM      2  C3  UNL d   1      -1.161   0.946  -0.092  0.00  0.00     0.006 A 
ATOM      3  C4  UNL d   1      -0.431   0.109   0.754  0.00  0.00     0.002 A 
ATOM      4  C5  UNL d   1       0.511  -0.783   0.231  0.00  0.00    -0.080 A 
ATOM      5  C6  UNL d   1       1.324  -1.666   1.131  0.00  0.00     0.076 C 
ATOM      6  C7  UNL d   1       0.694  -0.842  -1.155  0.00  0.00     0.002 A 
ATOM      7  C8  UNL d   1      -0.036  -0.005  -2.002  0.00  0.00     0.006 A 
ENDROOT
BRANCH   1   8
ATOM      8  C1  UNL d   1      -1.705   1.847  -2.388  0.00  0.00     0.054 C 
ATOM      9  C   UNL d   1      -1.512   1.472  -3.851  0.00  0.00     0.018 C 
ENDBRANCH   1   8
TORSDOF 1
ENDMDL
