MODEL 1
REMARK minimizedAffinity -4.87921333
REMARK minimizedRMSD -1
REMARK  1 active torsions:
REMARK  status: ('A' for Active; 'I' for Inactive)
REMARK    1  A    between atoms: C1_2  and  C2_3 
ROOT
ATOM      1  C2  UNL d   1      -0.183   0.899  -0.390  0.00  0.00    -0.081 A 
ATOM      2  C3  UNL d   1       1.132   0.567  -0.738  0.00  0.00     0.006 A 
ATOM      3  C4  UNL d   1       1.720  -0.602  -0.249  0.00  0.00     0.002 A 
ATOM      4  C5  UNL d   1       1.001  -1.462   0.589  0.00  0.00    -0.080 A 
ATOM      5  C6  UNL d   1       1.610  -2.735   1.096  0.00  0.00     0.076 C 
ATOM      6  C7  UNL d   1      -0.307  -1.121   0.950  0.00  0.00     0.002 A 
ATOM      7  C8  UNL d   1      -0.895   0.048   0.462  0.00  0.00     0.006 A 
ENDROOT
BRANCH   1   8
ATOM      8  C1  UNL d   1      -0.842   2.126  -0.967  0.00  0.00     0.054 C 
ATOM      9  C   UNL d   1      -1.878   1.755  -2.018  0.00  0.00     0.018 C 
ENDBRANCH   1   8
TORSDOF 1
ENDMDL
