MODEL 1
REMARK minimizedAffinity -1.68180764
REMARK minimizedRMSD -1
REMARK  1 active torsions:
REMARK  status: ('A' for Active; 'I' for Inactive)
REMARK    1  A    between atoms: C1_2  and  C2_3 
ROOT
ATOM      1  C2  UNL d   1       1.096  -0.892   0.353  0.00  0.00    -0.081 A 
ATOM      2  C3  UNL d   1      -0.159  -0.272   0.319  0.00  0.00     0.006 A 
ATOM      3  C4  UNL d   1      -1.192  -0.717   1.148  0.00  0.00     0.002 A 
ATOM      4  C5  UNL d   1      -0.984  -1.783   2.031  0.00  0.00    -0.080 A 
ATOM      5  C6  UNL d   1      -2.074  -2.251   2.948  0.00  0.00     0.076 C 
ATOM      6  C7  UNL d   1       0.265  -2.414   2.052  0.00  0.00     0.002 A 
ATOM      7  C8  UNL d   1       1.297  -1.970   1.223  0.00  0.00     0.006 A 
ENDROOT
BRANCH   1   8
ATOM      8  C1  UNL d   1       2.230  -0.373  -0.493  0.00  0.00     0.054 C 
ATOM      9  C   UNL d   1       1.908   0.999  -1.069  0.00  0.00     0.018 C 
ENDBRANCH   1   8
TORSDOF 1
ENDMDL
