MODEL 1
REMARK minimizedAffinity -3.96446443
REMARK minimizedRMSD -1
REMARK  1 active torsions:
REMARK  status: ('A' for Active; 'I' for Inactive)
REMARK    1  A    between atoms: C1_2  and  C2_3 
ROOT
ATOM      1  C2  UNL d   1      -0.910   0.377   0.631  0.00  0.00    -0.081 A 
ATOM      2  C3  UNL d   1       0.277  -0.049   0.022  0.00  0.00     0.006 A 
ATOM      3  C4  UNL d   1       0.977  -1.146   0.529  0.00  0.00     0.002 A 
ATOM      4  C5  UNL d   1       0.499  -1.839   1.647  0.00  0.00    -0.080 A 
ATOM      5  C6  UNL d   1       1.226  -3.037   2.182  0.00  0.00     0.076 C 
ATOM      6  C7  UNL d   1      -0.677  -1.403   2.265  0.00  0.00     0.002 A 
ATOM      7  C8  UNL d   1      -1.378  -0.305   1.759  0.00  0.00     0.006 A 
ENDROOT
BRANCH   1   8
ATOM      8  C1  UNL d   1      -1.703   1.520   0.048  0.00  0.00     0.054 C 
ATOM      9  C   UNL d   1      -1.339   1.758  -1.411  0.00  0.00     0.018 C 
ENDBRANCH   1   8
TORSDOF 1
ENDMDL
