MODEL 1
REMARK minimizedAffinity -4.07377911
REMARK minimizedRMSD -1
REMARK  1 active torsions:
REMARK  status: ('A' for Active; 'I' for Inactive)
REMARK    1  A    between atoms: C1_2  and  C2_3 
ROOT
ATOM      1  C2  UNL d   1       0.010   0.552  -0.325  0.00  0.00    -0.081 A 
ATOM      2  C3  UNL d   1       1.343   0.253  -0.631  0.00  0.00     0.006 A 
ATOM      3  C4  UNL d   1       1.958  -0.878  -0.090  0.00  0.00     0.002 A 
ATOM      4  C5  UNL d   1       1.248  -1.734   0.759  0.00  0.00    -0.080 A 
ATOM      5  C6  UNL d   1       1.886  -2.969   1.323  0.00  0.00     0.076 C 
ATOM      6  C7  UNL d   1      -0.079  -1.427   1.079  0.00  0.00     0.002 A 
ATOM      7  C8  UNL d   1      -0.694  -0.295   0.538  0.00  0.00     0.006 A 
ENDROOT
BRANCH   1   8
ATOM      8  C1  UNL d   1      -0.675   1.736  -0.959  0.00  0.00     0.054 C 
ATOM      9  C   UNL d   1      -1.559   1.307  -2.121  0.00  0.00     0.018 C 
ENDBRANCH   1   8
TORSDOF 1
ENDMDL
