MODEL 1
REMARK minimizedAffinity -2.6009984
REMARK minimizedRMSD -1
REMARK  1 active torsions:
REMARK  status: ('A' for Active; 'I' for Inactive)
REMARK    1  A    between atoms: C1_2  and  C2_3 
ROOT
ATOM      1  C2  UNL d   1       1.206  -0.972   0.701  0.00  0.00    -0.081 A 
ATOM      2  C3  UNL d   1      -0.076  -0.715   1.203  0.00  0.00     0.006 A 
ATOM      3  C4  UNL d   1      -0.946   0.138   0.520  0.00  0.00     0.002 A 
ATOM      4  C5  UNL d   1      -0.553   0.742  -0.679  0.00  0.00    -0.080 A 
ATOM      5  C6  UNL d   1      -1.488   1.636  -1.437  0.00  0.00     0.076 C 
ATOM      6  C7  UNL d   1       0.734   0.499  -1.171  0.00  0.00     0.002 A 
ATOM      7  C8  UNL d   1       1.605  -0.353  -0.489  0.00  0.00     0.006 A 
ENDROOT
BRANCH   1   8
ATOM      8  C1  UNL d   1       2.123  -1.942   1.401  0.00  0.00     0.054 C 
ATOM      9  C   UNL d   1       1.449  -2.561   2.617  0.00  0.00     0.018 C 
ENDBRANCH   1   8
TORSDOF 1
ENDMDL
