MODEL 1
REMARK minimizedAffinity -4.7510891
REMARK minimizedRMSD -1
REMARK  1 active torsions:
REMARK  status: ('A' for Active; 'I' for Inactive)
REMARK    1  A    between atoms: C1_2  and  C2_3 
ROOT
ATOM      1  C2  UNL d   1      -0.069   0.054   0.261  0.00  0.00    -0.081 A 
ATOM      2  C3  UNL d   1      -0.758  -0.476   1.359  0.00  0.00     0.006 A 
ATOM      3  C4  UNL d   1      -0.335  -1.667   1.953  0.00  0.00     0.002 A 
ATOM      4  C5  UNL d   1       0.789  -2.343   1.466  0.00  0.00    -0.080 A 
ATOM      5  C6  UNL d   1       1.272  -3.606   2.114  0.00  0.00     0.076 C 
ATOM      6  C7  UNL d   1       1.467  -1.823   0.358  0.00  0.00     0.002 A 
ATOM      7  C8  UNL d   1       1.044  -0.632  -0.237  0.00  0.00     0.006 A 
ENDROOT
BRANCH   1   8
ATOM      8  C1  UNL d   1      -0.485   1.372  -0.341  0.00  0.00     0.054 C 
ATOM      9  C   UNL d   1      -1.543   1.179  -1.418  0.00  0.00     0.018 C 
ENDBRANCH   1   8
TORSDOF 1
ENDMDL
