MODEL 1
REMARK minimizedAffinity -2.30118823
REMARK minimizedRMSD -1
REMARK  1 active torsions:
REMARK  status: ('A' for Active; 'I' for Inactive)
REMARK    1  A    between atoms: C1_2  and  C2_3 
ROOT
ATOM      1  C2  UNL d   1      -0.380   1.146  -0.570  0.00  0.00    -0.081 A 
ATOM      2  C3  UNL d   1       0.991   1.196  -0.851  0.00  0.00     0.006 A 
ATOM      3  C4  UNL d   1       1.862   0.254  -0.299  0.00  0.00     0.002 A 
ATOM      4  C5  UNL d   1       1.376  -0.758   0.536  0.00  0.00    -0.080 A 
ATOM      5  C6  UNL d   1       2.296  -1.794   1.110  0.00  0.00     0.076 C 
ATOM      6  C7  UNL d   1       0.009  -0.798   0.831  0.00  0.00     0.002 A 
ATOM      7  C8  UNL d   1      -0.862   0.145   0.280  0.00  0.00     0.006 A 
ENDROOT
BRANCH   1   8
ATOM      8  C1  UNL d   1      -1.331   2.122  -1.215  0.00  0.00     0.054 C 
ATOM      9  C   UNL d   1      -2.400   1.400  -2.023  0.00  0.00     0.018 C 
ENDBRANCH   1   8
TORSDOF 1
ENDMDL
