MODEL 1
REMARK minimizedAffinity 1.35828722
REMARK minimizedRMSD -1
REMARK  0 active torsions:
REMARK  status: ('A' for Active; 'I' for Inactive)
ROOT
ATOM      1  C   UNL d   1       5.286   5.904   6.000  0.00  0.00     0.172 C 
ATOM      2  N   UNL d   1       4.408   4.954   5.358  0.00  0.00    -0.070 N 
ATOM      3  C1  UNL d   1       3.526   4.124   5.998  0.00  0.00    -0.004 A 
ATOM      4  C2  UNL d   1       2.878   3.377   5.038  0.00  0.00    -0.047 A 
ATOM      5  C3  UNL d   1       3.388   3.771   3.778  0.00  0.00    -0.047 A 
ATOM      6  C4  UNL d   1       4.334   4.748   4.006  0.00  0.00    -0.004 A 
ENDROOT
TORSDOF 0
ENDMDL
