MODEL 1
REMARK minimizedAffinity 1.99569392
REMARK minimizedRMSD -1
REMARK  0 active torsions:
REMARK  status: ('A' for Active; 'I' for Inactive)
ROOT
ATOM      1  C   UNL d   1      -5.159   3.758   2.489  0.00  0.00     0.172 C 
ATOM      2  N   UNL d   1      -5.333   4.449   3.745  0.00  0.00    -0.070 N 
ATOM      3  C1  UNL d   1      -4.866   5.702   4.038  0.00  0.00    -0.004 A 
ATOM      4  C2  UNL d   1      -5.239   6.000   5.331  0.00  0.00    -0.047 A 
ATOM      5  C3  UNL d   1      -5.954   4.887   5.832  0.00  0.00    -0.047 A 
ATOM      6  C4  UNL d   1      -5.998   3.941   4.830  0.00  0.00    -0.004 A 
ENDROOT
TORSDOF 0
ENDMDL
