MODEL 1
REMARK minimizedAffinity -2.25378442
REMARK minimizedRMSD -1
REMARK  0 active torsions:
REMARK  status: ('A' for Active; 'I' for Inactive)
ROOT
ATOM      1  C   UNL d   1      -5.650   2.478   5.999  0.00  0.00     0.172 C 
ATOM      2  N   UNL d   1      -5.522   3.792   5.414  0.00  0.00    -0.070 N 
ATOM      3  C1  UNL d   1      -4.918   4.872   6.000  0.00  0.00    -0.004 A 
ATOM      4  C2  UNL d   1      -5.004   5.932   5.123  0.00  0.00    -0.047 A 
ATOM      5  C3  UNL d   1      -5.685   5.473   3.970  0.00  0.00    -0.047 A 
ATOM      6  C4  UNL d   1      -5.994   4.145   4.177  0.00  0.00    -0.004 A 
ENDROOT
TORSDOF 0
ENDMDL
