MODEL 1
REMARK minimizedAffinity 10.7068186
REMARK minimizedRMSD -1
REMARK  0 active torsions:
REMARK  status: ('A' for Active; 'I' for Inactive)
ROOT
ATOM      1  C   UNL d   1       3.760   0.174  -0.452  0.00  0.00     0.172 C 
ATOM      2  N   UNL d   1       3.059  -1.088  -0.428  0.00  0.00    -0.070 N 
ATOM      3  C1  UNL d   1       2.592  -1.721   0.693  0.00  0.00    -0.004 A 
ATOM      4  C2  UNL d   1       1.984  -2.892   0.294  0.00  0.00    -0.047 A 
ATOM      5  C3  UNL d   1       2.089  -2.965  -1.115  0.00  0.00    -0.047 A 
ATOM      6  C4  UNL d   1       2.759  -1.836  -1.536  0.00  0.00    -0.004 A 
ENDROOT
TORSDOF 0
ENDMDL
