MODEL 1
REMARK minimizedAffinity 5.83189869
REMARK minimizedRMSD -1
REMARK  0 active torsions:
REMARK  status: ('A' for Active; 'I' for Inactive)
ROOT
ATOM      1  C   UNL d   1       3.034  -1.237  -0.353  0.00  0.00     0.172 C 
ATOM      2  N   UNL d   1       3.486   0.104  -0.066  0.00  0.00    -0.070 N 
ATOM      3  C1  UNL d   1       2.739   1.088   0.525  0.00  0.00    -0.004 A 
ATOM      4  C2  UNL d   1       3.527   2.214   0.623  0.00  0.00    -0.047 A 
ATOM      5  C3  UNL d   1       4.791   1.896   0.069  0.00  0.00    -0.047 A 
ATOM      6  C4  UNL d   1       4.737   0.584  -0.349  0.00  0.00    -0.004 A 
ENDROOT
TORSDOF 0
ENDMDL
