MODEL 1
REMARK minimizedAffinity 1.17303467
REMARK minimizedRMSD -1
REMARK  0 active torsions:
REMARK  status: ('A' for Active; 'I' for Inactive)
ROOT
ATOM      1  C   UNL d   1       2.494  -0.834  -0.658  0.00  0.00     0.172 C 
ATOM      2  N   UNL d   1       1.477  -1.857  -0.734  0.00  0.00    -0.070 N 
ATOM      3  C1  UNL d   1       1.467  -3.027  -0.023  0.00  0.00    -0.004 A 
ATOM      4  C2  UNL d   1       0.333  -3.726  -0.377  0.00  0.00    -0.047 A 
ATOM      5  C3  UNL d   1      -0.362  -2.949  -1.333  0.00  0.00    -0.047 A 
ATOM      6  C4  UNL d   1       0.368  -1.797  -1.536  0.00  0.00    -0.004 A 
ENDROOT
TORSDOF 0
ENDMDL
