MODEL 1
REMARK minimizedAffinity 1.26550794
REMARK minimizedRMSD -1
REMARK  0 active torsions:
REMARK  status: ('A' for Active; 'I' for Inactive)
ROOT
ATOM      1  C   UNL d   1      -2.764   5.626   4.080  0.00  0.00     0.172 C 
ATOM      2  N   UNL d   1      -4.080   5.273   4.557  0.00  0.00    -0.070 N 
ATOM      3  C1  UNL d   1      -4.801   4.174   4.172  0.00  0.00    -0.004 A 
ATOM      4  C2  UNL d   1      -5.999   4.195   4.853  0.00  0.00    -0.047 A 
ATOM      5  C3  UNL d   1      -5.999   5.347   5.674  0.00  0.00    -0.047 A 
ATOM      6  C4  UNL d   1      -4.800   5.996   5.472  0.00  0.00    -0.004 A 
ENDROOT
TORSDOF 0
ENDMDL
