MODEL 1
REMARK minimizedAffinity -0.483020097
REMARK minimizedRMSD -1
REMARK  0 active torsions:
REMARK  status: ('A' for Active; 'I' for Inactive)
ROOT
ATOM      1  C   UNL d   1      -5.925   2.435   5.380  0.00  0.00     0.172 C 
ATOM      2  N   UNL d   1      -5.429   3.790   5.343  0.00  0.00    -0.070 N 
ATOM      3  C1  UNL d   1      -4.325   4.218   4.655  0.00  0.00    -0.004 A 
ATOM      4  C2  UNL d   1      -4.189   5.572   4.875  0.00  0.00    -0.047 A 
ATOM      5  C3  UNL d   1      -5.247   5.971   5.725  0.00  0.00    -0.047 A 
ATOM      6  C4  UNL d   1      -5.999   4.849   6.000  0.00  0.00    -0.004 A 
ENDROOT
TORSDOF 0
ENDMDL
