MODEL 1
REMARK minimizedAffinity -1.74988782
REMARK minimizedRMSD -1
REMARK  0 active torsions:
REMARK  status: ('A' for Active; 'I' for Inactive)
ROOT
ATOM      1  C   UNL d   1      -3.683   5.995   1.138  0.00  0.00     0.172 C 
ATOM      2  N   UNL d   1      -4.379   5.996   2.404  0.00  0.00    -0.070 N 
ATOM      3  C1  UNL d   1      -5.738   6.000   2.568  0.00  0.00    -0.004 A 
ATOM      4  C2  UNL d   1      -6.000   5.999   3.921  0.00  0.00    -0.047 A 
ATOM      5  C3  UNL d   1      -4.755   5.995   4.593  0.00  0.00    -0.047 A 
ATOM      6  C4  UNL d   1      -3.768   5.994   3.630  0.00  0.00    -0.004 A 
ENDROOT
TORSDOF 0
ENDMDL
