MODEL 1
REMARK minimizedAffinity -2.73536634
REMARK minimizedRMSD -1
REMARK  0 active torsions:
REMARK  status: ('A' for Active; 'I' for Inactive)
ROOT
ATOM      1  C   UNL d   1       3.379   1.153  -0.204  0.00  0.00     0.077 C 
ATOM      2  C1  UNL d   1       2.043   1.340   0.451  0.00  0.00    -0.074 A 
ATOM      3  C2  UNL d   1       0.906   1.639  -0.308  0.00  0.00    -0.005 A 
ATOM      4  C3  UNL d   1      -0.332   1.801   0.314  0.00  0.00     0.006 A 
ATOM      5  C4  UNL d   1      -0.446   1.666   1.698  0.00  0.00    -0.005 A 
ATOM      6  C5  UNL d   1       0.679   1.367   2.473  0.00  0.00    -0.074 A 
ATOM      7  C6  UNL d   1       0.572   1.209   3.961  0.00  0.00     0.077 C 
ATOM      8  C7  UNL d   1       1.918   1.199   1.840  0.00  0.00    -0.001 A 
ENDROOT
TORSDOF 0
ENDMDL
