MODEL 1
REMARK minimizedAffinity 10.6018543
REMARK minimizedRMSD -1
REMARK  0 active torsions:
REMARK  status: ('A' for Active; 'I' for Inactive)
ROOT
ATOM      1  C   UNL d   1       3.427   0.751   0.566  0.00  0.00     0.077 C 
ATOM      2  C1  UNL d   1       3.034  -0.589   0.019  0.00  0.00    -0.074 A 
ATOM      3  C2  UNL d   1       2.871  -1.691   0.865  0.00  0.00    -0.005 A 
ATOM      4  C3  UNL d   1       2.496  -2.929   0.343  0.00  0.00     0.006 A 
ATOM      5  C4  UNL d   1       2.280  -3.077  -1.027  0.00  0.00    -0.005 A 
ATOM      6  C5  UNL d   1       2.438  -1.987  -1.888  0.00  0.00    -0.074 A 
ATOM      7  C6  UNL d   1       2.201  -2.127  -3.363  0.00  0.00     0.077 C 
ATOM      8  C7  UNL d   1       2.808  -0.745  -1.355  0.00  0.00    -0.001 A 
ENDROOT
TORSDOF 0
ENDMDL
