MODEL 1
REMARK minimizedAffinity 4.89025593
REMARK minimizedRMSD -1
REMARK  0 active torsions:
REMARK  status: ('A' for Active; 'I' for Inactive)
ROOT
ATOM      1  C   UNL d   1      -1.115  -2.785  -1.342  0.00  0.00     0.077 C 
ATOM      2  C1  UNL d   1       0.132  -1.985  -1.109  0.00  0.00    -0.074 A 
ATOM      3  C2  UNL d   1       1.396  -2.573  -1.227  0.00  0.00    -0.005 A 
ATOM      4  C3  UNL d   1       2.547  -1.814  -1.016  0.00  0.00     0.006 A 
ATOM      5  C4  UNL d   1       2.446  -0.462  -0.686  0.00  0.00    -0.005 A 
ATOM      6  C5  UNL d   1       1.191   0.143  -0.565  0.00  0.00    -0.074 A 
ATOM      7  C6  UNL d   1       1.066   1.597  -0.220  0.00  0.00     0.077 C 
ATOM      8  C7  UNL d   1       0.039  -0.625  -0.785  0.00  0.00    -0.001 A 
ENDROOT
TORSDOF 0
ENDMDL
