MODEL 1
REMARK minimizedAffinity 1.71617055
REMARK minimizedRMSD -1
REMARK  0 active torsions:
REMARK  status: ('A' for Active; 'I' for Inactive)
ROOT
ATOM      1  C   UNL d   1       0.178   2.311   2.021  0.00  0.00     0.077 C 
ATOM      2  C1  UNL d   1       1.157   1.688   1.071  0.00  0.00    -0.074 A 
ATOM      3  C2  UNL d   1       2.259   2.409   0.599  0.00  0.00    -0.005 A 
ATOM      4  C3  UNL d   1       3.167   1.813  -0.277  0.00  0.00     0.006 A 
ATOM      5  C4  UNL d   1       2.982   0.493  -0.689  0.00  0.00    -0.005 A 
ATOM      6  C5  UNL d   1       1.886  -0.244  -0.227  0.00  0.00    -0.074 A 
ATOM      7  C6  UNL d   1       1.678  -1.667  -0.653  0.00  0.00     0.077 C 
ATOM      8  C7  UNL d   1       0.983   0.360   0.658  0.00  0.00    -0.001 A 
ENDROOT
TORSDOF 0
ENDMDL
