MODEL 1
REMARK minimizedAffinity 2.36126924
REMARK minimizedRMSD -1
REMARK  0 active torsions:
REMARK  status: ('A' for Active; 'I' for Inactive)
ROOT
ATOM      1  C   UNL d   1       1.564  -2.208  -0.783  0.00  0.00     0.077 C 
ATOM      2  C1  UNL d   1       1.827  -0.750  -0.548  0.00  0.00    -0.074 A 
ATOM      3  C2  UNL d   1       0.865   0.065   0.057  0.00  0.00    -0.005 A 
ATOM      4  C3  UNL d   1       1.128   1.417   0.278  0.00  0.00     0.006 A 
ATOM      5  C4  UNL d   1       2.353   1.967  -0.103  0.00  0.00    -0.005 A 
ATOM      6  C5  UNL d   1       3.327   1.166  -0.709  0.00  0.00    -0.074 A 
ATOM      7  C6  UNL d   1       4.652   1.739  -1.116  0.00  0.00     0.077 C 
ATOM      8  C7  UNL d   1       3.058  -0.193  -0.921  0.00  0.00    -0.001 A 
ENDROOT
TORSDOF 0
ENDMDL
