MODEL 1
REMARK minimizedAffinity 2.33560348
REMARK minimizedRMSD -1
REMARK  0 active torsions:
REMARK  status: ('A' for Active; 'I' for Inactive)
ROOT
ATOM      1  C   UNL d   1       0.272  -2.670  -0.571  0.00  0.00     0.077 C 
ATOM      2  C1  UNL d   1       0.182  -1.173  -0.546  0.00  0.00    -0.074 A 
ATOM      3  C2  UNL d   1      -0.421  -0.472  -1.595  0.00  0.00    -0.005 A 
ATOM      4  C3  UNL d   1      -0.505   0.920  -1.553  0.00  0.00     0.006 A 
ATOM      5  C4  UNL d   1       0.012   1.623  -0.465  0.00  0.00    -0.005 A 
ATOM      6  C5  UNL d   1       0.618   0.939   0.594  0.00  0.00    -0.074 A 
ATOM      7  C6  UNL d   1       1.170   1.678   1.776  0.00  0.00     0.077 C 
ATOM      8  C7  UNL d   1       0.692  -0.460   0.548  0.00  0.00    -0.001 A 
ENDROOT
TORSDOF 0
ENDMDL
