MODEL 1
REMARK minimizedAffinity -5.59410048
REMARK minimizedRMSD -1
REMARK  0 active torsions:
REMARK  status: ('A' for Active; 'I' for Inactive)
ROOT
ATOM      1  C1  DEN d   1       1.092   1.921   1.194  0.00  0.00     0.130 A 
ATOM      2  C2  DEN d   1      -0.132   1.940   1.990  0.00  0.00    -0.031 A 
ATOM      3  C3  DEN d   1      -0.996   0.835   1.526  0.00  0.00     0.027 A 
ATOM      4  C4  DEN d   1      -0.557  -0.895  -0.335  0.00  0.00     0.027 A 
ATOM      5  C5  DEN d   1       0.339  -1.306  -1.298  0.00  0.00    -0.003 A 
ATOM      6  C6  DEN d   1       1.523  -0.654  -1.519  0.00  0.00     0.001 A 
ATOM      7  C7  DEN d   1       1.865   0.417  -0.736  0.00  0.00     0.017 A 
ATOM      8  C8  DEN d   1       0.964   0.841   0.232  0.00  0.00    -0.094 A 
ATOM      9  C9  DEN d   1      -0.223   0.161   0.448  0.00  0.00    -0.072 A 
ENDROOT
TORSDOF 0
ENDMDL
