MODEL 1
REMARK minimizedAffinity -4.00038719
REMARK minimizedRMSD -1
REMARK  0 active torsions:
REMARK  status: ('A' for Active; 'I' for Inactive)
ROOT
ATOM      1  C1  DEN d   1       2.539   0.700  -0.618  0.00  0.00     0.130 A 
ATOM      2  C2  DEN d   1       2.422  -0.730  -0.890  0.00  0.00    -0.031 A 
ATOM      3  C3  DEN d   1       1.111  -1.185  -0.384  0.00  0.00     0.027 A 
ATOM      4  C4  DEN d   1      -0.740   0.181   0.783  0.00  0.00     0.027 A 
ATOM      5  C5  DEN d   1      -1.092   1.430   1.244  0.00  0.00    -0.003 A 
ATOM      6  C6  DEN d   1      -0.252   2.507   1.148  0.00  0.00     0.001 A 
ATOM      7  C7  DEN d   1       0.966   2.366   0.537  0.00  0.00     0.017 A 
ATOM      8  C8  DEN d   1       1.331   1.108   0.076  0.00  0.00    -0.094 A 
ATOM      9  C9  DEN d   1       0.462   0.034   0.171  0.00  0.00    -0.072 A 
ENDROOT
TORSDOF 0
ENDMDL
