MODEL 1
REMARK minimizedAffinity -2.01783538
REMARK minimizedRMSD -1
REMARK  0 active torsions:
REMARK  status: ('A' for Active; 'I' for Inactive)
ROOT
ATOM      1  C1  DEN d   1      -1.459   1.365   0.454  0.00  0.00     0.130 A 
ATOM      2  C2  DEN d   1      -0.383   1.457   1.436  0.00  0.00    -0.031 A 
ATOM      3  C3  DEN d   1       0.601   0.396   1.137  0.00  0.00     0.027 A 
ATOM      4  C4  DEN d   1       0.563  -1.367  -0.745  0.00  0.00     0.027 A 
ATOM      5  C5  DEN d   1      -0.154  -1.848  -1.819  0.00  0.00    -0.003 A 
ATOM      6  C6  DEN d   1      -1.362  -1.318  -2.186  0.00  0.00     0.001 A 
ATOM      7  C7  DEN d   1      -1.869  -0.245  -1.502  0.00  0.00     0.017 A 
ATOM      8  C8  DEN d   1      -1.156   0.240  -0.413  0.00  0.00    -0.094 A 
ATOM      9  C9  DEN d   1       0.069  -0.301  -0.065  0.00  0.00    -0.072 A 
ENDROOT
TORSDOF 0
ENDMDL
