MODEL 1
REMARK minimizedAffinity -5.13112688
REMARK minimizedRMSD -1
REMARK  0 active torsions:
REMARK  status: ('A' for Active; 'I' for Inactive)
ROOT
ATOM      1  C1  DEN d   1      -1.973   0.770   0.507  0.00  0.00     0.130 A 
ATOM      2  C2  DEN d   1      -1.810   0.071  -0.764  0.00  0.00    -0.031 A 
ATOM      3  C3  DEN d   1      -0.388   0.156  -1.153  0.00  0.00     0.027 A 
ATOM      4  C4  DEN d   1       1.568   1.293   0.085  0.00  0.00     0.027 A 
ATOM      5  C5  DEN d   1       1.918   2.025   1.198  0.00  0.00    -0.003 A 
ATOM      6  C6  DEN d   1       0.997   2.417   2.134  0.00  0.00     0.001 A 
ATOM      7  C7  DEN d   1      -0.313   2.039   1.997  0.00  0.00     0.017 A 
ATOM      8  C8  DEN d   1      -0.674   1.306   0.874  0.00  0.00    -0.094 A 
ATOM      9  C9  DEN d   1       0.273   0.910  -0.055  0.00  0.00    -0.072 A 
ENDROOT
TORSDOF 0
ENDMDL
