MODEL 1
REMARK minimizedAffinity -5.44042301
REMARK minimizedRMSD -1
REMARK  0 active torsions:
REMARK  status: ('A' for Active; 'I' for Inactive)
ROOT
ATOM      1  C1  DEN d   1       3.093   1.217   3.895  0.00  0.00     0.130 A 
ATOM      2  C2  DEN d   1       4.339   0.455   3.855  0.00  0.00    -0.031 A 
ATOM      3  C3  DEN d   1       4.765   0.351   2.445  0.00  0.00     0.027 A 
ATOM      4  C4  DEN d   1       3.627   1.293   0.331  0.00  0.00     0.027 A 
ATOM      5  C5  DEN d   1       2.542   2.000  -0.139  0.00  0.00    -0.003 A 
ATOM      6  C6  DEN d   1       1.556   2.462   0.691  0.00  0.00     0.001 A 
ATOM      7  C7  DEN d   1       1.657   2.262   2.043  0.00  0.00     0.017 A 
ATOM      8  C8  DEN d   1       2.744   1.544   2.524  0.00  0.00    -0.094 A 
ATOM      9  C9  DEN d   1       3.737   1.095   1.670  0.00  0.00    -0.072 A 
ENDROOT
TORSDOF 0
ENDMDL
