MODEL 1
REMARK minimizedAffinity -1.69616497
REMARK minimizedRMSD -1
REMARK  0 active torsions:
REMARK  status: ('A' for Active; 'I' for Inactive)
ROOT
ATOM      1  C1  DEN d   1       0.721  -1.326  -2.170  0.00  0.00     0.130 A 
ATOM      2  C2  DEN d   1       0.946  -1.616  -0.757  0.00  0.00    -0.031 A 
ATOM      3  C3  DEN d   1      -0.341  -2.030  -0.165  0.00  0.00     0.027 A 
ATOM      4  C4  DEN d   1      -2.650  -2.253  -1.294  0.00  0.00     0.027 A 
ATOM      5  C5  DEN d   1      -3.340  -2.105  -2.477  0.00  0.00    -0.003 A 
ATOM      6  C6  DEN d   1      -2.737  -1.658  -3.623  0.00  0.00     0.001 A 
ATOM      7  C7  DEN d   1      -1.394  -1.386  -3.622  0.00  0.00     0.017 A 
ATOM      8  C8  DEN d   1      -0.693  -1.526  -2.431  0.00  0.00    -0.094 A 
ATOM      9  C9  DEN d   1      -1.318  -1.991  -1.286  0.00  0.00    -0.072 A 
ENDROOT
TORSDOF 0
ENDMDL
