MODEL 1
REMARK minimizedAffinity -0.920335531
REMARK minimizedRMSD -1
REMARK  0 active torsions:
REMARK  status: ('A' for Active; 'I' for Inactive)
ROOT
ATOM      1  C1  DEN d   1       0.245  -0.080  -1.416  0.00  0.00     0.130 A 
ATOM      2  C2  DEN d   1       0.286  -0.492  -0.015  0.00  0.00    -0.031 A 
ATOM      3  C3  DEN d   1      -0.740  -1.536   0.183  0.00  0.00     0.027 A 
ATOM      4  C4  DEN d   1      -2.375  -2.552  -1.534  0.00  0.00     0.027 A 
ATOM      5  C5  DEN d   1      -2.792  -2.512  -2.846  0.00  0.00    -0.003 A 
ATOM      6  C6  DEN d   1      -2.255  -1.643  -3.757  0.00  0.00     0.001 A 
ATOM      7  C7  DEN d   1      -1.237  -0.807  -3.380  0.00  0.00     0.017 A 
ATOM      8  C8  DEN d   1      -0.815  -0.836  -2.057  0.00  0.00    -0.094 A 
ATOM      9  C9  DEN d   1      -1.363  -1.731  -1.154  0.00  0.00    -0.072 A 
ENDROOT
TORSDOF 0
ENDMDL
