MODEL 1
REMARK minimizedAffinity -4.46005678
REMARK minimizedRMSD -1
REMARK  0 active torsions:
REMARK  status: ('A' for Active; 'I' for Inactive)
ROOT
ATOM      1  C1  DEN d   1       1.376   2.045   0.222  0.00  0.00     0.130 A 
ATOM      2  C2  DEN d   1       1.122   2.564   1.564  0.00  0.00    -0.031 A 
ATOM      3  C3  DEN d   1       0.066   1.737   2.181  0.00  0.00     0.027 A 
ATOM      4  C4  DEN d   1      -1.192  -0.289   1.196  0.00  0.00     0.027 A 
ATOM      5  C5  DEN d   1      -1.330  -1.093   0.087  0.00  0.00    -0.003 A 
ATOM      6  C6  DEN d   1      -0.606  -0.889  -1.058  0.00  0.00     0.001 A 
ATOM      7  C7  DEN d   1       0.323   0.117  -1.103  0.00  0.00     0.017 A 
ATOM      8  C8  DEN d   1       0.462   0.938   0.008  0.00  0.00    -0.094 A 
ATOM      9  C9  DEN d   1      -0.271   0.707   1.161  0.00  0.00    -0.072 A 
ENDROOT
TORSDOF 0
ENDMDL
