MODEL 1
REMARK minimizedAffinity -2.28567743
REMARK minimizedRMSD -1
REMARK  0 active torsions:
REMARK  status: ('A' for Active; 'I' for Inactive)
ROOT
ATOM      1  C1  DEN d   1       1.434   1.747   0.181  0.00  0.00     0.130 A 
ATOM      2  C2  DEN d   1       1.272   2.718   1.260  0.00  0.00    -0.031 A 
ATOM      3  C3  DEN d   1      -0.022   2.454   1.921  0.00  0.00     0.027 A 
ATOM      4  C4  DEN d   1      -1.778   0.642   1.385  0.00  0.00     0.027 A 
ATOM      5  C5  DEN d   1      -2.089  -0.407   0.549  0.00  0.00    -0.003 A 
ATOM      6  C6  DEN d   1      -1.271  -0.787  -0.482  0.00  0.00     0.001 A 
ATOM      7  C7  DEN d   1      -0.078  -0.141  -0.674  0.00  0.00     0.017 A 
ATOM      8  C8  DEN d   1       0.239   0.922   0.160  0.00  0.00    -0.094 A 
ATOM      9  C9  DEN d   1      -0.596   1.283   1.204  0.00  0.00    -0.072 A 
ENDROOT
TORSDOF 0
ENDMDL
