MODEL 1
REMARK minimizedAffinity -1.02917755
REMARK minimizedRMSD -1
REMARK  0 active torsions:
REMARK  status: ('A' for Active; 'I' for Inactive)
ROOT
ATOM      1  C1  DEN d   1       2.102   1.409  -0.577  0.00  0.00     0.130 A 
ATOM      2  C2  DEN d   1       1.833   2.350   0.507  0.00  0.00    -0.031 A 
ATOM      3  C3  DEN d   1       0.677   1.845   1.274  0.00  0.00     0.027 A 
ATOM      4  C4  DEN d   1      -0.714  -0.293   0.894  0.00  0.00     0.027 A 
ATOM      5  C5  DEN d   1      -0.872  -1.401   0.091  0.00  0.00    -0.003 A 
ATOM      6  C6  DEN d   1      -0.079  -1.631  -1.002  0.00  0.00     0.001 A 
ATOM      7  C7  DEN d   1       0.939  -0.763  -1.296  0.00  0.00     0.017 A 
ATOM      8  C8  DEN d   1       1.101   0.361  -0.495  0.00  0.00    -0.094 A 
ATOM      9  C9  DEN d   1       0.296   0.568   0.612  0.00  0.00    -0.072 A 
ENDROOT
TORSDOF 0
ENDMDL
