MODEL 1
REMARK minimizedAffinity 0.468352646
REMARK minimizedRMSD -1
REMARK  0 active torsions:
REMARK  status: ('A' for Active; 'I' for Inactive)
ROOT
ATOM      1  C1  DEN d   1      -0.969   0.535   1.618  0.00  0.00     0.130 A 
ATOM      2  C2  DEN d   1      -0.262   0.369   0.351  0.00  0.00    -0.031 A 
ATOM      3  C3  DEN d   1       1.185   0.507   0.614  0.00  0.00     0.027 A 
ATOM      4  C4  DEN d   1       2.391   0.957   2.849  0.00  0.00     0.027 A 
ATOM      5  C5  DEN d   1       2.212   1.183   4.196  0.00  0.00    -0.003 A 
ATOM      6  C6  DEN d   1       0.968   1.242   4.767  0.00  0.00     0.001 A 
ATOM      7  C7  DEN d   1      -0.144   1.028   3.996  0.00  0.00     0.017 A 
ATOM      8  C8  DEN d   1       0.029   0.807   2.636  0.00  0.00    -0.094 A 
ATOM      9  C9  DEN d   1       1.295   0.739   2.080  0.00  0.00    -0.072 A 
ENDROOT
TORSDOF 0
ENDMDL
