MODEL 1
REMARK minimizedAffinity 6.37575865
REMARK minimizedRMSD -1
REMARK  0 active torsions:
REMARK  status: ('A' for Active; 'I' for Inactive)
ROOT
ATOM      1  C1  DEN d   1      -0.043   1.615   4.113  0.00  0.00     0.130 A 
ATOM      2  C2  DEN d   1       1.403   1.631   4.319  0.00  0.00    -0.031 A 
ATOM      3  C3  DEN d   1       2.046   1.158   3.076  0.00  0.00     0.027 A 
ATOM      4  C4  DEN d   1       0.949   0.412   0.864  0.00  0.00     0.027 A 
ATOM      5  C5  DEN d   1      -0.251   0.215   0.216  0.00  0.00    -0.003 A 
ATOM      6  C6  DEN d   1      -1.456   0.438   0.828  0.00  0.00     0.001 A 
ATOM      7  C7  DEN d   1      -1.488   0.913   2.113  0.00  0.00     0.017 A 
ATOM      8  C8  DEN d   1      -0.282   1.106   2.775  0.00  0.00    -0.094 A 
ATOM      9  C9  DEN d   1       0.926   0.887   2.135  0.00  0.00    -0.072 A 
ENDROOT
TORSDOF 0
ENDMDL
