MODEL 1
REMARK minimizedAffinity 12.0901108
REMARK minimizedRMSD -1
REMARK  1 active torsions:
REMARK  status: ('A' for Active; 'I' for Inactive)
REMARK    1  A    between atoms: C1_2  and  C2_3 
ROOT
ATOM      1  C2  UNL d   1       1.629   4.473   2.991  0.00  0.00    -0.076 A 
ATOM      2  C3  UNL d   1       2.764   4.124   3.743  0.00  0.00     0.004 A 
ATOM      3  C4  UNL d   1       4.006   4.696   3.474  0.00  0.00    -0.003 A 
ATOM      4  C5  UNL d   1       4.133   5.628   2.450  0.00  0.00     0.000 A 
ATOM      5  C6  UNL d   1       3.014   5.999   1.705  0.00  0.00     0.000 A 
ATOM      6  C7  UNL d   1       1.751   5.443   1.974  0.00  0.00    -0.073 A 
ATOM      7  C8  UNL d   1       0.579   5.875   1.136  0.00  0.00     0.078 C 
ENDROOT
BRANCH   1   8
ATOM      8  C1  UNL d   1       0.313   3.799   3.310  0.00  0.00     0.053 C 
ATOM      9  C   UNL d   1       0.236   3.326   4.754  0.00  0.00     0.018 C 
ENDBRANCH   1   8
TORSDOF 1
ENDMDL
