MODEL 1
REMARK minimizedAffinity 3.67444396
REMARK minimizedRMSD -1
REMARK  1 active torsions:
REMARK  status: ('A' for Active; 'I' for Inactive)
REMARK    1  A    between atoms: C1_2  and  C2_3 
ROOT
ATOM      1  C2  UNL d   1       0.502   1.820  -0.001  0.00  0.00    -0.076 A 
ATOM      2  C3  UNL d   1       0.841   2.604   1.115  0.00  0.00     0.004 A 
ATOM      3  C4  UNL d   1      -0.020   3.596   1.582  0.00  0.00    -0.003 A 
ATOM      4  C5  UNL d   1      -1.233   3.820   0.941  0.00  0.00     0.000 A 
ATOM      5  C6  UNL d   1      -1.593   3.039  -0.157  0.00  0.00     0.000 A 
ATOM      6  C7  UNL d   1      -0.744   2.023  -0.630  0.00  0.00    -0.073 A 
ATOM      7  C8  UNL d   1      -1.180   1.216  -1.822  0.00  0.00     0.078 C 
ENDROOT
BRANCH   1   8
ATOM      8  C1  UNL d   1       1.487   0.777  -0.479  0.00  0.00     0.053 C 
ATOM      9  C   UNL d   1       2.896   1.027   0.036  0.00  0.00     0.018 C 
ENDBRANCH   1   8
TORSDOF 1
ENDMDL
