MODEL 1
REMARK minimizedAffinity 8.36815929
REMARK minimizedRMSD -1
REMARK  1 active torsions:
REMARK  status: ('A' for Active; 'I' for Inactive)
REMARK    1  A    between atoms: C1_2  and  C2_3 
ROOT
ATOM      1  C2  UNL d   1       4.463   1.576  -1.510  0.00  0.00    -0.076 A 
ATOM      2  C3  UNL d   1       3.440   0.855  -2.150  0.00  0.00     0.004 A 
ATOM      3  C4  UNL d   1       2.533   0.092  -1.416  0.00  0.00    -0.003 A 
ATOM      4  C5  UNL d   1       2.633   0.039  -0.030  0.00  0.00     0.000 A 
ATOM      5  C6  UNL d   1       3.631   0.762   0.623  0.00  0.00     0.000 A 
ATOM      6  C7  UNL d   1       4.544   1.549  -0.101  0.00  0.00    -0.073 A 
ATOM      7  C8  UNL d   1       5.603   2.304   0.654  0.00  0.00     0.078 C 
ENDROOT
BRANCH   1   8
ATOM      8  C1  UNL d   1       5.434   2.364  -2.360  0.00  0.00     0.053 C 
ATOM      9  C   UNL d   1       6.000   1.544  -3.510  0.00  0.00     0.018 C 
ENDBRANCH   1   8
TORSDOF 1
ENDMDL
