MODEL 1
REMARK minimizedAffinity 6.31742287
REMARK minimizedRMSD -1
REMARK  1 active torsions:
REMARK  status: ('A' for Active; 'I' for Inactive)
REMARK    1  A    between atoms: C1_2  and  C2_3 
ROOT
ATOM      1  C2  UNL d   1       4.186   1.301  -2.187  0.00  0.00    -0.076 A 
ATOM      2  C3  UNL d   1       4.288   1.714  -0.847  0.00  0.00     0.004 A 
ATOM      3  C4  UNL d   1       3.417   1.222   0.124  0.00  0.00    -0.003 A 
ATOM      4  C5  UNL d   1       2.431   0.307  -0.229  0.00  0.00     0.000 A 
ATOM      5  C6  UNL d   1       2.327  -0.127  -1.550  0.00  0.00     0.000 A 
ATOM      6  C7  UNL d   1       3.207   0.347  -2.538  0.00  0.00    -0.073 A 
ATOM      7  C8  UNL d   1       3.045  -0.150  -3.948  0.00  0.00     0.078 C 
ENDROOT
BRANCH   1   8
ATOM      8  C1  UNL d   1       5.140   1.890  -3.201  0.00  0.00     0.053 C 
ATOM      9  C   UNL d   1       6.000   3.000  -2.616  0.00  0.00     0.018 C 
ENDBRANCH   1   8
TORSDOF 1
ENDMDL
