MODEL 1
REMARK minimizedAffinity -5.07346821
REMARK minimizedRMSD -1
REMARK  1 active torsions:
REMARK  status: ('A' for Active; 'I' for Inactive)
REMARK    1  A    between atoms: C1_2  and  C2_3 
ROOT
ATOM      1  C2  UNL d   1       0.403  -0.579  -1.056  0.00  0.00    -0.073 A 
ATOM      2  C3  UNL d   1       1.494   0.277  -0.863  0.00  0.00    -0.002 A 
ATOM      3  C4  UNL d   1       1.812   0.735   0.416  0.00  0.00     0.004 A 
ATOM      4  C5  UNL d   1       1.049   0.337   1.515  0.00  0.00    -0.004 A 
ATOM      5  C6  UNL d   1      -0.037  -0.527   1.343  0.00  0.00    -0.075 A 
ATOM      6  C7  UNL d   1      -0.868  -0.963   2.514  0.00  0.00     0.076 C 
ATOM      7  C8  UNL d   1      -0.352  -0.981   0.055  0.00  0.00     0.001 A 
ENDROOT
BRANCH   1   8
ATOM      8  C1  UNL d   1       0.060  -1.082  -2.434  0.00  0.00     0.053 C 
ATOM      9  C   UNL d   1       1.302  -1.401  -3.251  0.00  0.00     0.018 C 
ENDBRANCH   1   8
TORSDOF 1
ENDMDL
