MODEL 1
REMARK minimizedAffinity -3.16623211
REMARK minimizedRMSD -1
REMARK  1 active torsions:
REMARK  status: ('A' for Active; 'I' for Inactive)
REMARK    1  A    between atoms: C1_2  and  C2_3 
ROOT
ATOM      1  C2  UNL d   1      -0.071  -0.138   0.113  0.00  0.00    -0.073 A 
ATOM      2  C3  UNL d   1      -0.643  -1.382   0.402  0.00  0.00    -0.002 A 
ATOM      3  C4  UNL d   1      -1.178  -1.636   1.665  0.00  0.00     0.004 A 
ATOM      4  C5  UNL d   1      -1.153  -0.648   2.650  0.00  0.00    -0.004 A 
ATOM      5  C6  UNL d   1      -0.595   0.606   2.377  0.00  0.00    -0.075 A 
ATOM      6  C7  UNL d   1      -0.558   1.678   3.426  0.00  0.00     0.076 C 
ATOM      7  C8  UNL d   1      -0.058   0.852   1.106  0.00  0.00     0.001 A 
ENDROOT
BRANCH   1   8
ATOM      8  C1  UNL d   1       0.502   0.143  -1.252  0.00  0.00     0.053 C 
ATOM      9  C   UNL d   1       0.605  -1.117  -2.097  0.00  0.00     0.018 C 
ENDBRANCH   1   8
TORSDOF 1
ENDMDL
