MODEL 1
REMARK minimizedAffinity -4.56238937
REMARK minimizedRMSD -1
REMARK  1 active torsions:
REMARK  status: ('A' for Active; 'I' for Inactive)
REMARK    1  A    between atoms: C1_2  and  C2_3 
ROOT
ATOM      1  C2  UNL d   1       0.227  -0.761   0.733  0.00  0.00    -0.073 A 
ATOM      2  C3  UNL d   1      -0.601   0.210   0.158  0.00  0.00    -0.002 A 
ATOM      3  C4  UNL d   1      -0.619   0.392  -1.225  0.00  0.00     0.004 A 
ATOM      4  C5  UNL d   1       0.185  -0.398  -2.048  0.00  0.00    -0.004 A 
ATOM      5  C6  UNL d   1       1.011  -1.381  -1.493  0.00  0.00    -0.075 A 
ATOM      6  C7  UNL d   1       1.883  -2.236  -2.364  0.00  0.00     0.076 C 
ATOM      7  C8  UNL d   1       1.025  -1.556  -0.103  0.00  0.00     0.001 A 
ENDROOT
BRANCH   1   8
ATOM      8  C1  UNL d   1       0.245  -0.965   2.226  0.00  0.00     0.053 C 
ATOM      9  C   UNL d   1       0.219   0.353   2.982  0.00  0.00     0.018 C 
ENDBRANCH   1   8
TORSDOF 1
ENDMDL
