MODEL 1
REMARK minimizedAffinity -3.14303398
REMARK minimizedRMSD -1
REMARK  1 active torsions:
REMARK  status: ('A' for Active; 'I' for Inactive)
REMARK    1  A    between atoms: C1_2  and  C2_3 
ROOT
ATOM      1  C2  UNL d   1      -0.248  -0.392  -0.097  0.00  0.00    -0.073 A 
ATOM      2  C3  UNL d   1      -1.278  -0.812   0.752  0.00  0.00    -0.002 A 
ATOM      3  C4  UNL d   1      -1.072  -0.877   2.131  0.00  0.00     0.004 A 
ATOM      4  C5  UNL d   1       0.161  -0.518   2.675  0.00  0.00    -0.004 A 
ATOM      5  C6  UNL d   1       1.199  -0.084   1.843  0.00  0.00    -0.075 A 
ATOM      6  C7  UNL d   1       2.532   0.303   2.412  0.00  0.00     0.076 C 
ATOM      7  C8  UNL d   1       0.985  -0.024   0.460  0.00  0.00     0.001 A 
ENDROOT
BRANCH   1   8
ATOM      8  C1  UNL d   1      -0.468  -0.313  -1.586  0.00  0.00     0.053 C 
ATOM      9  C   UNL d   1       0.740  -0.806  -2.367  0.00  0.00     0.018 C 
ENDBRANCH   1   8
TORSDOF 1
ENDMDL
