MODEL 1
REMARK minimizedAffinity -3.51926994
REMARK minimizedRMSD -1
REMARK  1 active torsions:
REMARK  status: ('A' for Active; 'I' for Inactive)
REMARK    1  A    between atoms: C1_2  and  C2_3 
ROOT
ATOM      1  C2  UNL d   1      -0.569   0.716   0.193  0.00  0.00    -0.073 A 
ATOM      2  C3  UNL d   1       0.741   1.198   0.293  0.00  0.00    -0.002 A 
ATOM      3  C4  UNL d   1       1.510   0.921   1.424  0.00  0.00     0.004 A 
ATOM      4  C5  UNL d   1       0.981   0.154   2.462  0.00  0.00    -0.004 A 
ATOM      5  C6  UNL d   1      -0.321  -0.347   2.375  0.00  0.00    -0.075 A 
ATOM      6  C7  UNL d   1      -0.906  -1.172   3.484  0.00  0.00     0.076 C 
ATOM      7  C8  UNL d   1      -1.088  -0.062   1.238  0.00  0.00     0.001 A 
ENDROOT
BRANCH   1   8
ATOM      8  C1  UNL d   1      -1.401   1.008  -1.029  0.00  0.00     0.053 C 
ATOM      9  C   UNL d   1      -2.890   0.953  -0.730  0.00  0.00     0.018 C 
ENDBRANCH   1   8
TORSDOF 1
ENDMDL
