MODEL 1
REMARK minimizedAffinity -4.14236498
REMARK minimizedRMSD -1
REMARK  1 active torsions:
REMARK  status: ('A' for Active; 'I' for Inactive)
REMARK    1  A    between atoms: C1_2  and  C2_3 
ROOT
ATOM      1  C2  UNL d   1       0.001   0.211  -0.609  0.00  0.00    -0.073 A 
ATOM      2  C3  UNL d   1      -1.152   1.003  -0.675  0.00  0.00    -0.002 A 
ATOM      3  C4  UNL d   1      -2.036   1.052   0.403  0.00  0.00     0.004 A 
ATOM      4  C5  UNL d   1      -1.774   0.316   1.559  0.00  0.00    -0.004 A 
ATOM      5  C6  UNL d   1      -0.622  -0.471   1.649  0.00  0.00    -0.075 A 
ATOM      6  C7  UNL d   1      -0.327  -1.270   2.885  0.00  0.00     0.076 C 
ATOM      7  C8  UNL d   1       0.260  -0.517   0.561  0.00  0.00     0.001 A 
ENDROOT
BRANCH   1   8
ATOM      8  C1  UNL d   1       0.962   0.161  -1.769  0.00  0.00     0.053 C 
ATOM      9  C   UNL d   1       0.804  -1.113  -2.584  0.00  0.00     0.018 C 
ENDBRANCH   1   8
TORSDOF 1
ENDMDL
