MODEL 1
REMARK minimizedAffinity -5.41209793
REMARK minimizedRMSD -1
REMARK  1 active torsions:
REMARK  status: ('A' for Active; 'I' for Inactive)
REMARK    1  A    between atoms: C1_2  and  C2_3 
ROOT
ATOM      1  C2  UNL d   1      -0.479  -0.347   1.659  0.00  0.00    -0.073 A 
ATOM      2  C3  UNL d   1       0.704  -0.044   0.977  0.00  0.00    -0.002 A 
ATOM      3  C4  UNL d   1       0.661   0.619  -0.250  0.00  0.00     0.004 A 
ATOM      4  C5  UNL d   1      -0.564   0.992  -0.803  0.00  0.00    -0.004 A 
ATOM      5  C6  UNL d   1      -1.757   0.709  -0.131  0.00  0.00    -0.075 A 
ATOM      6  C7  UNL d   1      -3.083   1.102  -0.713  0.00  0.00     0.076 C 
ATOM      7  C8  UNL d   1      -1.705   0.041   1.100  0.00  0.00     0.001 A 
ENDROOT
BRANCH   1   8
ATOM      8  C1  UNL d   1      -0.437  -1.057   2.988  0.00  0.00     0.053 C 
ATOM      9  C   UNL d   1      -1.549  -0.595   3.917  0.00  0.00     0.018 C 
ENDBRANCH   1   8
TORSDOF 1
ENDMDL
