MODEL 1
REMARK minimizedAffinity 4.80122137
REMARK minimizedRMSD -1
REMARK  1 active torsions:
REMARK  status: ('A' for Active; 'I' for Inactive)
REMARK    1  A    between atoms: C1_2  and  C2_3 
ROOT
ATOM      1  C2  UNL d   1       0.148   0.854   2.481  0.00  0.00    -0.073 A 
ATOM      2  C3  UNL d   1      -0.305  -0.016   1.483  0.00  0.00    -0.002 A 
ATOM      3  C4  UNL d   1       0.400  -0.143   0.285  0.00  0.00     0.004 A 
ATOM      4  C5  UNL d   1       1.566   0.592   0.076  0.00  0.00    -0.004 A 
ATOM      5  C6  UNL d   1       2.042   1.458   1.066  0.00  0.00    -0.075 A 
ATOM      6  C7  UNL d   1       3.294   2.258   0.856  0.00  0.00     0.076 C 
ATOM      7  C8  UNL d   1       1.327   1.582   2.265  0.00  0.00     0.001 A 
ENDROOT
BRANCH   1   8
ATOM      8  C1  UNL d   1      -0.606   0.989   3.779  0.00  0.00     0.053 C 
ATOM      9  C   UNL d   1      -1.402  -0.263   4.109  0.00  0.00     0.018 C 
ENDBRANCH   1   8
TORSDOF 1
ENDMDL
