MODEL 1
REMARK minimizedAffinity -4.03036547
REMARK minimizedRMSD -1
REMARK  1 active torsions:
REMARK  status: ('A' for Active; 'I' for Inactive)
REMARK    1  A    between atoms: C1_2  and  C2_3 
ROOT
ATOM      1  C2  UNL d   1      -0.090   0.218  -0.299  0.00  0.00    -0.073 A 
ATOM      2  C3  UNL d   1      -1.335   0.574  -0.831  0.00  0.00    -0.002 A 
ATOM      3  C4  UNL d   1      -2.483   0.510  -0.040  0.00  0.00     0.004 A 
ATOM      4  C5  UNL d   1      -2.398   0.097   1.289  0.00  0.00    -0.004 A 
ATOM      5  C6  UNL d   1      -1.162  -0.252   1.841  0.00  0.00    -0.075 A 
ATOM      6  C7  UNL d   1      -1.054  -0.701   3.269  0.00  0.00     0.076 C 
ATOM      7  C8  UNL d   1      -0.014  -0.188   1.041  0.00  0.00     0.001 A 
ENDROOT
BRANCH   1   8
ATOM      8  C1  UNL d   1       1.153   0.292  -1.147  0.00  0.00     0.053 C 
ATOM      9  C   UNL d   1       0.953  -0.352  -2.510  0.00  0.00     0.018 C 
ENDBRANCH   1   8
TORSDOF 1
ENDMDL
