MODEL 1
REMARK minimizedAffinity 4.4129715
REMARK minimizedRMSD -1
REMARK  1 active torsions:
REMARK  status: ('A' for Active; 'I' for Inactive)
REMARK    1  A    between atoms: C1_2  and  C2_3 
ROOT
ATOM      1  C2  UNL d   1       0.939  -0.850  -1.830  0.00  0.00    -0.073 A 
ATOM      2  C3  UNL d   1       0.756   0.537  -1.853  0.00  0.00    -0.002 A 
ATOM      3  C4  UNL d   1      -0.069   1.155  -0.912  0.00  0.00     0.004 A 
ATOM      4  C5  UNL d   1      -0.713   0.395   0.063  0.00  0.00    -0.004 A 
ATOM      5  C6  UNL d   1      -0.534  -0.991   0.110  0.00  0.00    -0.075 A 
ATOM      6  C7  UNL d   1      -1.221  -1.824   1.152  0.00  0.00     0.076 C 
ATOM      7  C8  UNL d   1       0.294  -1.605  -0.840  0.00  0.00     0.001 A 
ENDROOT
BRANCH   1   8
ATOM      8  C1  UNL d   1       1.834  -1.521  -2.840  0.00  0.00     0.053 C 
ATOM      9  C   UNL d   1       1.087  -1.876  -4.116  0.00  0.00     0.018 C 
ENDBRANCH   1   8
TORSDOF 1
ENDMDL
