MODEL 1
REMARK minimizedAffinity -0.870277047
REMARK minimizedRMSD -1
REMARK  1 active torsions:
REMARK  status: ('A' for Active; 'I' for Inactive)
REMARK    1  A    between atoms: C1_2  and  C2_3 
ROOT
ATOM      1  C2  UNL d   1      -0.288   0.751   2.119  0.00  0.00    -0.073 A 
ATOM      2  C3  UNL d   1       0.961   0.623   1.502  0.00  0.00    -0.002 A 
ATOM      3  C4  UNL d   1       1.050   0.429   0.123  0.00  0.00     0.004 A 
ATOM      4  C5  UNL d   1      -0.108   0.367  -0.653  0.00  0.00    -0.004 A 
ATOM      5  C6  UNL d   1      -1.365   0.505  -0.056  0.00  0.00    -0.075 A 
ATOM      6  C7  UNL d   1      -2.620   0.439  -0.876  0.00  0.00     0.076 C 
ATOM      7  C8  UNL d   1      -1.446   0.697   1.329  0.00  0.00     0.001 A 
ENDROOT
BRANCH   1   8
ATOM      8  C1  UNL d   1      -0.388   0.968   3.607  0.00  0.00     0.053 C 
ATOM      9  C   UNL d   1      -1.168  -0.142   4.293  0.00  0.00     0.018 C 
ENDBRANCH   1   8
TORSDOF 1
ENDMDL
