MODEL 1
REMARK minimizedAffinity -3.6101222
REMARK minimizedRMSD -1
REMARK  1 active torsions:
REMARK  status: ('A' for Active; 'I' for Inactive)
REMARK    1  A    between atoms: C1_2  and  C2_3 
ROOT
ATOM      1  C2  UNL d   1      -0.071   0.101   0.076  0.00  0.00    -0.073 A 
ATOM      2  C3  UNL d   1       1.139   0.704   0.439  0.00  0.00    -0.002 A 
ATOM      3  C4  UNL d   1       1.549   0.713   1.773  0.00  0.00     0.004 A 
ATOM      4  C5  UNL d   1       0.760   0.115   2.755  0.00  0.00    -0.004 A 
ATOM      5  C6  UNL d   1      -0.447  -0.503   2.410  0.00  0.00    -0.075 A 
ATOM      6  C7  UNL d   1      -1.309  -1.149   3.454  0.00  0.00     0.076 C 
ATOM      7  C8  UNL d   1      -0.853  -0.506   1.069  0.00  0.00     0.001 A 
ENDROOT
BRANCH   1   8
ATOM      8  C1  UNL d   1      -0.515   0.082  -1.364  0.00  0.00     0.053 C 
ATOM      9  C   UNL d   1       0.608  -0.331  -2.302  0.00  0.00     0.018 C 
ENDBRANCH   1   8
TORSDOF 1
ENDMDL
