MODEL 1
REMARK minimizedAffinity -3.24764562
REMARK minimizedRMSD -1
REMARK  1 active torsions:
REMARK  status: ('A' for Active; 'I' for Inactive)
REMARK    1  A    between atoms: C1_2  and  C2_3 
ROOT
ATOM      1  C2  UNL d   1       0.067  -0.648  -0.728  0.00  0.00    -0.073 A 
ATOM      2  C3  UNL d   1       0.596   0.648  -0.751  0.00  0.00    -0.002 A 
ATOM      3  C4  UNL d   1       0.762   1.362   0.436  0.00  0.00     0.004 A 
ATOM      4  C5  UNL d   1       0.409   0.787   1.657  0.00  0.00    -0.004 A 
ATOM      5  C6  UNL d   1      -0.110  -0.511   1.701  0.00  0.00    -0.075 A 
ATOM      6  C7  UNL d   1      -0.497  -1.143   3.006  0.00  0.00     0.076 C 
ATOM      7  C8  UNL d   1      -0.276  -1.221   0.505  0.00  0.00     0.001 A 
ENDROOT
BRANCH   1   8
ATOM      8  C1  UNL d   1      -0.108  -1.425  -2.007  0.00  0.00     0.053 C 
ATOM      9  C   UNL d   1       1.225  -1.819  -2.622  0.00  0.00     0.018 C 
ENDBRANCH   1   8
TORSDOF 1
ENDMDL
