MODEL 1
REMARK minimizedAffinity -0.414493978
REMARK minimizedRMSD -1
REMARK  0 active torsions:
REMARK  status: ('A' for Active; 'I' for Inactive)
ROOT
ATOM      1  C   UNL d   1      -2.434   2.385  -3.150  0.00  0.00     0.023 A 
ATOM      2  C1  UNL d   1      -2.209   2.913  -1.879  0.00  0.00     0.003 A 
ATOM      3  C2  UNL d   1      -1.386   2.237  -0.976  0.00  0.00     0.048 A 
ATOM      4  C3  UNL d   1      -0.790   1.033  -1.352  0.00  0.00     0.023 A 
ATOM      5  C4  UNL d   1      -1.011   0.502  -2.623  0.00  0.00     0.048 A 
ATOM      6  C5  UNL d   1      -1.836   1.181  -3.522  0.00  0.00     0.003 A 
ATOM      7  I   UNL d   1       0.436   0.025  -0.010  0.00  0.00    -0.146 I 
ENDROOT
TORSDOF 0
ENDMDL
