MODEL 1
REMARK minimizedAffinity -2.5643127
REMARK minimizedRMSD -1
REMARK  0 active torsions:
REMARK  status: ('A' for Active; 'I' for Inactive)
ROOT
ATOM      1  C   UNL d   1       1.489  -0.845  -0.842  0.00  0.00     0.023 A 
ATOM      2  C1  UNL d   1       0.418  -0.085  -0.374  0.00  0.00     0.003 A 
ATOM      3  C2  UNL d   1      -0.079  -0.294   0.914  0.00  0.00     0.048 A 
ATOM      4  C3  UNL d   1       0.501  -1.265   1.729  0.00  0.00     0.023 A 
ATOM      5  C4  UNL d   1       1.574  -2.028   1.266  0.00  0.00     0.048 A 
ATOM      6  C5  UNL d   1       2.067  -1.816  -0.023  0.00  0.00     0.003 A 
ATOM      7  I   UNL d   1      -0.237  -1.578   3.647  0.00  0.00    -0.146 I 
ENDROOT
TORSDOF 0
ENDMDL
