MODEL 1
REMARK minimizedAffinity -4.16421652
REMARK minimizedRMSD -1
REMARK  0 active torsions:
REMARK  status: ('A' for Active; 'I' for Inactive)
ROOT
ATOM      1  C   UNL d   1       1.153  -2.104   2.252  0.00  0.00     0.023 A 
ATOM      2  C1  UNL d   1       1.831  -1.801   1.071  0.00  0.00     0.003 A 
ATOM      3  C2  UNL d   1       1.280  -0.895   0.162  0.00  0.00     0.048 A 
ATOM      4  C3  UNL d   1       0.053  -0.296   0.440  0.00  0.00     0.023 A 
ATOM      5  C4  UNL d   1      -0.629  -0.596   1.621  0.00  0.00     0.048 A 
ATOM      6  C5  UNL d   1      -0.075  -1.503   2.527  0.00  0.00     0.003 A 
ATOM      7  I   UNL d   1      -0.768   1.052  -0.911  0.00  0.00    -0.146 I 
ENDROOT
TORSDOF 0
ENDMDL
