MODEL 1
REMARK minimizedAffinity -4.60182762
REMARK minimizedRMSD -1
REMARK  0 active torsions:
REMARK  status: ('A' for Active; 'I' for Inactive)
ROOT
ATOM      1  C   UNL d   1       1.638  -2.167   1.702  0.00  0.00     0.023 A 
ATOM      2  C1  UNL d   1       0.360  -1.839   2.156  0.00  0.00     0.003 A 
ATOM      3  C2  UNL d   1      -0.382  -0.853   1.503  0.00  0.00     0.048 A 
ATOM      4  C3  UNL d   1       0.159  -0.200   0.396  0.00  0.00     0.023 A 
ATOM      5  C4  UNL d   1       1.437  -0.525  -0.062  0.00  0.00     0.048 A 
ATOM      6  C5  UNL d   1       2.176  -1.511   0.595  0.00  0.00     0.003 A 
ATOM      7  I   UNL d   1      -0.943   1.269  -0.578  0.00  0.00    -0.146 I 
ENDROOT
TORSDOF 0
ENDMDL
