MODEL 1
REMARK minimizedAffinity -2.03542757
REMARK minimizedRMSD -1
REMARK  0 active torsions:
REMARK  status: ('A' for Active; 'I' for Inactive)
ROOT
ATOM      1  C   UNL d   1      -2.162   1.207  -4.077  0.00  0.00     0.023 A 
ATOM      2  C1  UNL d   1      -2.011   2.406  -3.381  0.00  0.00     0.003 A 
ATOM      3  C2  UNL d   1      -1.711   2.390  -2.017  0.00  0.00     0.048 A 
ATOM      4  C3  UNL d   1      -1.562   1.171  -1.356  0.00  0.00     0.023 A 
ATOM      5  C4  UNL d   1      -1.712  -0.031  -2.049  0.00  0.00     0.048 A 
ATOM      6  C5  UNL d   1      -2.013  -0.010  -3.412  0.00  0.00     0.003 A 
ATOM      7  I   UNL d   1      -1.115   1.145   0.674  0.00  0.00    -0.146 I 
ENDROOT
TORSDOF 0
ENDMDL
