MODEL 1
REMARK minimizedAffinity -1.43481779
REMARK minimizedRMSD -1
REMARK  0 active torsions:
REMARK  status: ('A' for Active; 'I' for Inactive)
ROOT
ATOM      1  C   UNL d   1      -3.047   2.408  -2.976  0.00  0.00     0.023 A 
ATOM      2  C1  UNL d   1      -1.814   3.037  -2.800  0.00  0.00     0.003 A 
ATOM      3  C2  UNL d   1      -0.837   2.449  -1.996  0.00  0.00     0.048 A 
ATOM      4  C3  UNL d   1      -1.098   1.230  -1.370  0.00  0.00     0.023 A 
ATOM      5  C4  UNL d   1      -2.329   0.596  -1.544  0.00  0.00     0.048 A 
ATOM      6  C5  UNL d   1      -3.304   1.189  -2.348  0.00  0.00     0.003 A 
ATOM      7  I   UNL d   1       0.356   0.352  -0.172  0.00  0.00    -0.146 I 
ENDROOT
TORSDOF 0
ENDMDL
