MODEL 1
REMARK minimizedAffinity -1.73063493
REMARK minimizedRMSD -1
REMARK  0 active torsions:
REMARK  status: ('A' for Active; 'I' for Inactive)
ROOT
ATOM      1  C   UNL d   1       0.674  -1.254   1.567  0.00  0.00     0.023 A 
ATOM      2  C1  UNL d   1       1.446  -1.117   0.414  0.00  0.00     0.003 A 
ATOM      3  C2  UNL d   1       1.001  -0.310  -0.635  0.00  0.00     0.048 A 
ATOM      4  C3  UNL d   1      -0.218   0.357  -0.524  0.00  0.00     0.023 A 
ATOM      5  C4  UNL d   1      -0.995   0.224   0.629  0.00  0.00     0.048 A 
ATOM      6  C5  UNL d   1      -0.545  -0.584   1.674  0.00  0.00     0.003 A 
ATOM      7  I   UNL d   1      -0.884   1.559  -2.084  0.00  0.00    -0.146 I 
ENDROOT
TORSDOF 0
ENDMDL
