MODEL 1
REMARK minimizedAffinity -1.53260911
REMARK minimizedRMSD -1
REMARK  0 active torsions:
REMARK  status: ('A' for Active; 'I' for Inactive)
ROOT
ATOM      1  C   UNL d   1      -2.416   1.960  -1.300  0.00  0.00     0.023 A 
ATOM      2  C1  UNL d   1      -1.566   1.517  -2.313  0.00  0.00     0.003 A 
ATOM      3  C2  UNL d   1      -0.440   0.754  -1.998  0.00  0.00     0.048 A 
ATOM      4  C3  UNL d   1      -0.171   0.435  -0.668  0.00  0.00     0.023 A 
ATOM      5  C4  UNL d   1      -1.020   0.875   0.350  0.00  0.00     0.048 A 
ATOM      6  C5  UNL d   1      -2.143   1.639   0.030  0.00  0.00     0.003 A 
ATOM      7  I   UNL d   1       1.503  -0.702  -0.196  0.00  0.00    -0.146 I 
ENDROOT
TORSDOF 0
ENDMDL
