MODEL 1
REMARK minimizedAffinity -4.13325357
REMARK minimizedRMSD -1
REMARK  0 active torsions:
REMARK  status: ('A' for Active; 'I' for Inactive)
ROOT
ATOM      1  C   UNL d   1      -0.197  -1.981   3.139  0.00  0.00     0.023 A 
ATOM      2  C1  UNL d   1      -1.043  -1.165   2.388  0.00  0.00     0.003 A 
ATOM      3  C2  UNL d   1      -0.584  -0.579   1.207  0.00  0.00     0.048 A 
ATOM      4  C3  UNL d   1       0.723  -0.816   0.781  0.00  0.00     0.023 A 
ATOM      5  C4  UNL d   1       1.573  -1.633   1.528  0.00  0.00     0.048 A 
ATOM      6  C5  UNL d   1       1.109  -2.215   2.710  0.00  0.00     0.003 A 
ATOM      7  I   UNL d   1       1.409   0.054  -0.977  0.00  0.00    -0.146 I 
ENDROOT
TORSDOF 0
ENDMDL
