MODEL 1
REMARK minimizedAffinity 1.54300785
REMARK minimizedRMSD -1
REMARK  0 active torsions:
REMARK  status: ('A' for Active; 'I' for Inactive)
ROOT
ATOM      1  C   UNL d   1       1.257  -0.599   0.608  0.00  0.00     0.023 A 
ATOM      2  C1  UNL d   1       1.756   0.109  -0.486  0.00  0.00     0.003 A 
ATOM      3  C2  UNL d   1       0.899   0.895  -1.260  0.00  0.00     0.048 A 
ATOM      4  C3  UNL d   1      -0.455   0.969  -0.934  0.00  0.00     0.023 A 
ATOM      5  C4  UNL d   1      -0.958   0.263   0.160  0.00  0.00     0.048 A 
ATOM      6  C5  UNL d   1      -0.098  -0.522   0.931  0.00  0.00     0.003 A 
ATOM      7  I   UNL d   1      -1.731   2.138  -2.084  0.00  0.00    -0.146 I 
ENDROOT
TORSDOF 0
ENDMDL
