MODEL 1
REMARK minimizedAffinity -4.09389496
REMARK minimizedRMSD -1
REMARK  0 active torsions:
REMARK  status: ('A' for Active; 'I' for Inactive)
ROOT
ATOM      1  C   UNL d   1      -0.143  -1.844   2.881  0.00  0.00     0.023 A 
ATOM      2  C1  UNL d   1      -0.865  -1.036   2.003  0.00  0.00     0.003 A 
ATOM      3  C2  UNL d   1      -0.238  -0.487   0.882  0.00  0.00     0.048 A 
ATOM      4  C3  UNL d   1       1.111  -0.752   0.645  0.00  0.00     0.023 A 
ATOM      5  C4  UNL d   1       1.836  -1.561   1.521  0.00  0.00     0.048 A 
ATOM      6  C5  UNL d   1       1.206  -2.107   2.641  0.00  0.00     0.003 A 
ATOM      7  I   UNL d   1       2.046   0.063  -1.022  0.00  0.00    -0.146 I 
ENDROOT
TORSDOF 0
ENDMDL
