MODEL 1
REMARK minimizedAffinity -3.60809112
REMARK minimizedRMSD -1
REMARK  0 active torsions:
REMARK  status: ('A' for Active; 'I' for Inactive)
ROOT
ATOM      1  C   UNL d   1      -2.860   1.566  -2.528  0.00  0.00     0.023 A 
ATOM      2  C1  UNL d   1      -1.998   2.478  -1.920  0.00  0.00     0.003 A 
ATOM      3  C2  UNL d   1      -0.912   2.021  -1.170  0.00  0.00     0.048 A 
ATOM      4  C3  UNL d   1      -0.694   0.651  -1.033  0.00  0.00     0.023 A 
ATOM      5  C4  UNL d   1      -1.554  -0.266  -1.641  0.00  0.00     0.048 A 
ATOM      6  C5  UNL d   1      -2.638   0.196  -2.389  0.00  0.00     0.003 A 
ATOM      7  I   UNL d   1       0.921  -0.032   0.082  0.00  0.00    -0.146 I 
ENDROOT
TORSDOF 0
ENDMDL
