MODEL 1
REMARK minimizedAffinity -4.56342173
REMARK minimizedRMSD -1
REMARK  1 active torsions:
REMARK  status: ('A' for Active; 'I' for Inactive)
REMARK    1  A    between atoms: C1_2  and  C2_3 
ROOT
ATOM      1  C2  UNL d   1      -0.432   2.378   0.585  0.00  0.00    -0.073 A 
ATOM      2  C3  UNL d   1      -0.889   2.170   1.891  0.00  0.00    -0.002 A 
ATOM      3  C4  UNL d   1      -0.960   0.879   2.416  0.00  0.00     0.004 A 
ATOM      4  C5  UNL d   1      -0.570  -0.215   1.644  0.00  0.00    -0.004 A 
ATOM      5  C6  UNL d   1      -0.100  -0.027   0.340  0.00  0.00    -0.075 A 
ATOM      6  C7  UNL d   1       0.321  -1.194  -0.504  0.00  0.00     0.076 C 
ATOM      7  C8  UNL d   1      -0.033   1.272  -0.180  0.00  0.00     0.001 A 
ENDROOT
BRANCH   1   8
ATOM      8  C1  UNL d   1      -0.347   3.770   0.016  0.00  0.00     0.053 C 
ATOM      9  C   UNL d   1      -0.349   3.767  -1.504  0.00  0.00     0.018 C 
ENDBRANCH   1   8
TORSDOF 1
ENDMDL
