MODEL 1
REMARK minimizedAffinity -1.83777452
REMARK minimizedRMSD -1
REMARK  1 active torsions:
REMARK  status: ('A' for Active; 'I' for Inactive)
REMARK    1  A    between atoms: C1_2  and  C2_3 
ROOT
ATOM      1  C2  UNL d   1       0.148  -0.475  -0.269  0.00  0.00    -0.073 A 
ATOM      2  C3  UNL d   1       0.244  -0.391   1.125  0.00  0.00    -0.002 A 
ATOM      3  C4  UNL d   1       0.137   0.844   1.765  0.00  0.00     0.004 A 
ATOM      4  C5  UNL d   1      -0.072   2.005   1.021  0.00  0.00    -0.004 A 
ATOM      5  C6  UNL d   1      -0.182   1.940  -0.372  0.00  0.00    -0.075 A 
ATOM      6  C7  UNL d   1      -0.405   3.180  -1.187  0.00  0.00     0.076 C 
ATOM      7  C8  UNL d   1      -0.072   0.696  -1.008  0.00  0.00     0.001 A 
ENDROOT
BRANCH   1   8
ATOM      8  C1  UNL d   1       0.256  -1.808  -0.965  0.00  0.00     0.053 C 
ATOM      9  C   UNL d   1      -1.023  -2.170  -1.703  0.00  0.00     0.018 C 
ENDBRANCH   1   8
TORSDOF 1
ENDMDL
