MODEL 1
REMARK minimizedAffinity -2.72304463
REMARK minimizedRMSD -1
REMARK  1 active torsions:
REMARK  status: ('A' for Active; 'I' for Inactive)
REMARK    1  A    between atoms: C1_2  and  C2_3 
ROOT
ATOM      1  C2  UNL d   1       0.007  -1.401  -0.184  0.00  0.00    -0.073 A 
ATOM      2  C3  UNL d   1       0.587  -1.022  -1.400  0.00  0.00    -0.002 A 
ATOM      3  C4  UNL d   1       0.929   0.311  -1.632  0.00  0.00     0.004 A 
ATOM      4  C5  UNL d   1       0.702   1.275  -0.651  0.00  0.00    -0.004 A 
ATOM      5  C6  UNL d   1       0.133   0.914   0.575  0.00  0.00    -0.075 A 
ATOM      6  C7  UNL d   1      -0.120   1.940   1.640  0.00  0.00     0.076 C 
ATOM      7  C8  UNL d   1      -0.210  -0.426   0.800  0.00  0.00     0.001 A 
ENDROOT
BRANCH   1   8
ATOM      8  C1  UNL d   1      -0.359  -2.840   0.074  0.00  0.00     0.053 C 
ATOM      9  C   UNL d   1      -1.068  -3.470  -1.115  0.00  0.00     0.018 C 
ENDBRANCH   1   8
TORSDOF 1
ENDMDL
