MODEL 1
REMARK minimizedAffinity -3.56611705
REMARK minimizedRMSD -1
REMARK  1 active torsions:
REMARK  status: ('A' for Active; 'I' for Inactive)
REMARK    1  A    between atoms: C1_2  and  C2_3 
ROOT
ATOM      1  C2  UNL d   1      -0.065  -0.468   0.019  0.00  0.00    -0.073 A 
ATOM      2  C3  UNL d   1       0.746  -0.953   1.051  0.00  0.00    -0.002 A 
ATOM      3  C4  UNL d   1       0.877  -0.236   2.241  0.00  0.00     0.004 A 
ATOM      4  C5  UNL d   1       0.194   0.968   2.413  0.00  0.00    -0.004 A 
ATOM      5  C6  UNL d   1      -0.631   1.463   1.398  0.00  0.00    -0.075 A 
ATOM      6  C7  UNL d   1      -1.370   2.758   1.567  0.00  0.00     0.076 C 
ATOM      7  C8  UNL d   1      -0.755   0.739   0.205  0.00  0.00     0.001 A 
ENDROOT
BRANCH   1   8
ATOM      8  C1  UNL d   1      -0.214  -1.243  -1.265  0.00  0.00     0.053 C 
ATOM      9  C   UNL d   1      -0.511  -2.712  -1.013  0.00  0.00     0.018 C 
ENDBRANCH   1   8
TORSDOF 1
ENDMDL
