MODEL 1
REMARK minimizedAffinity 0.864400327
REMARK minimizedRMSD -1
REMARK  1 active torsions:
REMARK  status: ('A' for Active; 'I' for Inactive)
REMARK    1  A    between atoms: C1_2  and  C2_3 
ROOT
ATOM      1  C2  UNL d   1       0.382   2.052   1.096  0.00  0.00    -0.073 A 
ATOM      2  C3  UNL d   1       0.380   3.095   0.163  0.00  0.00    -0.002 A 
ATOM      3  C4  UNL d   1       0.998   4.310   0.463  0.00  0.00     0.004 A 
ATOM      4  C5  UNL d   1       1.629   4.491   1.693  0.00  0.00    -0.004 A 
ATOM      5  C6  UNL d   1       1.651   3.457   2.634  0.00  0.00    -0.075 A 
ATOM      6  C7  UNL d   1       2.324   3.637   3.963  0.00  0.00     0.076 C 
ATOM      7  C8  UNL d   1       1.026   2.241   2.326  0.00  0.00     0.001 A 
ENDROOT
BRANCH   1   8
ATOM      8  C1  UNL d   1      -0.279   0.736   0.774  0.00  0.00     0.053 C 
ATOM      9  C   UNL d   1       0.704  -0.423   0.827  0.00  0.00     0.018 C 
ENDBRANCH   1   8
TORSDOF 1
ENDMDL
