MODEL 1
REMARK minimizedAffinity 8.64987087
REMARK minimizedRMSD -1
REMARK  0 active torsions:
REMARK  status: ('A' for Active; 'I' for Inactive)
ROOT
ATOM      1  C4' PXY d   1      -5.982   1.276   1.390  0.00  0.00     0.077 C 
ATOM      2  C1' PXY d   1      -0.462   0.129   2.666  0.00  0.00     0.077 C 
ATOM      3  C1  PXY d   1      -1.913   0.427   2.344  0.00  0.00    -0.082 A 
ATOM      4  C2  PXY d   1      -2.326   0.383   1.087  0.00  0.00     0.003 A 
ATOM      5  C3  PXY d   1      -3.628   0.681   0.775  0.00  0.00     0.003 A 
ATOM      6  C4  PXY d   1      -4.528   0.974   1.763  0.00  0.00    -0.082 A 
ATOM      7  C5  PXY d   1      -4.117   1.010   3.048  0.00  0.00     0.003 A 
ATOM      8  C6  PXY d   1      -2.782   0.745   3.341  0.00  0.00     0.003 A 
ENDROOT
TORSDOF 0
ENDMDL
