MODEL 1
REMARK minimizedAffinity 3.86673379
REMARK minimizedRMSD -1
REMARK  0 active torsions:
REMARK  status: ('A' for Active; 'I' for Inactive)
ROOT
ATOM      1  C4' PXY d   1      -3.773   0.721   0.792  0.00  0.00     0.077 C 
ATOM      2  C1' PXY d   1       0.990   0.585   4.065  0.00  0.00     0.077 C 
ATOM      3  C1  PXY d   1      -0.267   0.620   3.217  0.00  0.00    -0.082 A 
ATOM      4  C2  PXY d   1      -0.217   0.220   1.957  0.00  0.00     0.003 A 
ATOM      5  C3  PXY d   1      -1.336   0.275   1.167  0.00  0.00     0.003 A 
ATOM      6  C4  PXY d   1      -2.532   0.694   1.688  0.00  0.00    -0.082 A 
ATOM      7  C5  PXY d   1      -2.593   1.093   2.976  0.00  0.00     0.003 A 
ATOM      8  C6  PXY d   1      -1.436   1.069   3.749  0.00  0.00     0.003 A 
ENDROOT
TORSDOF 0
ENDMDL
