MODEL 1
REMARK minimizedAffinity 10.3473063
REMARK minimizedRMSD -1
REMARK  0 active torsions:
REMARK  status: ('A' for Active; 'I' for Inactive)
ROOT
ATOM      1  C4' PXY d   1       5.316  -5.881   2.657  0.00  0.00     0.077 C 
ATOM      2  C1' PXY d   1      -0.456  -5.705   2.388  0.00  0.00     0.077 C 
ATOM      3  C1  PXY d   1       1.058  -5.754   2.446  0.00  0.00    -0.082 A 
ATOM      4  C2  PXY d   1       1.662  -5.970   3.603  0.00  0.00     0.003 A 
ATOM      5  C3  PXY d   1       3.031  -5.985   3.679  0.00  0.00     0.003 A 
ATOM      6  C4  PXY d   1       3.789  -5.832   2.550  0.00  0.00    -0.082 A 
ATOM      7  C5  PXY d   1       3.181  -5.623   1.363  0.00  0.00     0.003 A 
ATOM      8  C6  PXY d   1       1.791  -5.569   1.314  0.00  0.00     0.003 A 
ENDROOT
TORSDOF 0
ENDMDL
