MODEL 1
REMARK minimizedAffinity 0.132935345
REMARK minimizedRMSD -1
REMARK  0 active torsions:
REMARK  status: ('A' for Active; 'I' for Inactive)
ROOT
ATOM      1  C4' PXY d   1       0.010   2.717   3.617  0.00  0.00     0.077 C 
ATOM      2  C1' PXY d   1      -4.083  -0.469   1.064  0.00  0.00     0.077 C 
ATOM      3  C1  PXY d   1      -3.003   0.356   1.736  0.00  0.00    -0.082 A 
ATOM      4  C2  PXY d   1      -3.306   1.536   2.251  0.00  0.00     0.003 A 
ATOM      5  C3  PXY d   1      -2.335   2.309   2.834  0.00  0.00     0.003 A 
ATOM      6  C4  PXY d   1      -1.051   1.846   2.938  0.00  0.00    -0.082 A 
ATOM      7  C5  PXY d   1      -0.735   0.638   2.424  0.00  0.00     0.003 A 
ATOM      8  C6  PXY d   1      -1.727  -0.113   1.800  0.00  0.00     0.003 A 
ENDROOT
TORSDOF 0
ENDMDL
