MODEL 1
REMARK minimizedAffinity 8.89332485
REMARK minimizedRMSD -1
REMARK  0 active torsions:
REMARK  status: ('A' for Active; 'I' for Inactive)
ROOT
ATOM      1  C4' PXY d   1       0.100   0.614   1.630  0.00  0.00     0.077 C 
ATOM      2  C1' PXY d   1      -5.592   0.645   2.639  0.00  0.00     0.077 C 
ATOM      3  C1  PXY d   1      -4.098   0.629   2.385  0.00  0.00    -0.082 A 
ATOM      4  C2  PXY d   1      -3.544   1.602   1.680  0.00  0.00     0.003 A 
ATOM      5  C3  PXY d   1      -2.199   1.587   1.413  0.00  0.00     0.003 A 
ATOM      6  C4  PXY d   1      -1.404   0.594   1.919  0.00  0.00    -0.082 A 
ATOM      7  C5  PXY d   1      -1.959  -0.397   2.648  0.00  0.00     0.003 A 
ATOM      8  C6  PXY d   1      -3.333  -0.385   2.872  0.00  0.00     0.003 A 
ENDROOT
TORSDOF 0
ENDMDL
