MODEL 1
REMARK minimizedAffinity 2.75505781
REMARK minimizedRMSD -1
REMARK  0 active torsions:
REMARK  status: ('A' for Active; 'I' for Inactive)
ROOT
ATOM      1  C4' PXY d   1       0.378   0.246   3.443  0.00  0.00     0.077 C 
ATOM      2  C1' PXY d   1      -4.910   0.205   1.108  0.00  0.00     0.077 C 
ATOM      3  C1  PXY d   1      -3.519   0.210   1.710  0.00  0.00    -0.082 A 
ATOM      4  C2  PXY d   1      -3.374   0.222   3.025  0.00  0.00     0.003 A 
ATOM      5  C3  PXY d   1      -2.123   0.259   3.585  0.00  0.00     0.003 A 
ATOM      6  C4  PXY d   1      -1.008   0.230   2.792  0.00  0.00    -0.082 A 
ATOM      7  C5  PXY d   1      -1.147   0.208   1.449  0.00  0.00     0.003 A 
ATOM      8  C6  PXY d   1      -2.425   0.212   0.899  0.00  0.00     0.003 A 
ENDROOT
TORSDOF 0
ENDMDL
