MODEL 1
REMARK minimizedAffinity 2.70061445
REMARK minimizedRMSD -1
REMARK  0 active torsions:
REMARK  status: ('A' for Active; 'I' for Inactive)
ROOT
ATOM      1  C4' PXY d   1       5.910  -5.256   2.629  0.00  0.00     0.077 C 
ATOM      2  C1' PXY d   1       0.135  -5.246   2.373  0.00  0.00     0.077 C 
ATOM      3  C1  PXY d   1       1.649  -5.252   2.452  0.00  0.00    -0.082 A 
ATOM      4  C2  PXY d   1       2.352  -4.534   1.592  0.00  0.00     0.003 A 
ATOM      5  C3  PXY d   1       3.723  -4.553   1.630  0.00  0.00     0.003 A 
ATOM      6  C4  PXY d   1       4.379  -5.273   2.592  0.00  0.00    -0.082 A 
ATOM      7  C5  PXY d   1       3.668  -6.000   3.480  0.00  0.00     0.003 A 
ATOM      8  C6  PXY d   1       2.279  -6.000   3.399  0.00  0.00     0.003 A 
ENDROOT
TORSDOF 0
ENDMDL
