MODEL 1
REMARK minimizedAffinity 6.82286739
REMARK minimizedRMSD -1
REMARK  0 active torsions:
REMARK  status: ('A' for Active; 'I' for Inactive)
ROOT
ATOM      1  C4' PXY d   1      -0.057  -2.425  -5.961  0.00  0.00     0.077 C 
ATOM      2  C1' PXY d   1      -5.793  -1.711  -5.976  0.00  0.00     0.077 C 
ATOM      3  C1  PXY d   1      -4.291  -1.910  -5.967  0.00  0.00    -0.082 A 
ATOM      4  C2  PXY d   1      -3.491  -0.856  -5.936  0.00  0.00     0.003 A 
ATOM      5  C3  PXY d   1      -2.130  -1.017  -5.960  0.00  0.00     0.003 A 
ATOM      6  C4  PXY d   1      -1.580  -2.271  -5.961  0.00  0.00    -0.082 A 
ATOM      7  C5  PXY d   1      -2.389  -3.352  -5.982  0.00  0.00     0.003 A 
ATOM      8  C6  PXY d   1      -3.769  -3.166  -5.999  0.00  0.00     0.003 A 
ENDROOT
TORSDOF 0
ENDMDL
