MODEL 1
REMARK minimizedAffinity 9.9906435
REMARK minimizedRMSD -1
REMARK  0 active torsions:
REMARK  status: ('A' for Active; 'I' for Inactive)
ROOT
ATOM      1  C4' PXY d   1      -3.778  -0.191   1.088  0.00  0.00     0.077 C 
ATOM      2  C1' PXY d   1       0.920   1.727   3.855  0.00  0.00     0.077 C 
ATOM      3  C1  PXY d   1      -0.305   1.221   3.119  0.00  0.00    -0.082 A 
ATOM      4  C2  PXY d   1      -1.503   1.668   3.458  0.00  0.00     0.003 A 
ATOM      5  C3  PXY d   1      -2.624   1.197   2.825  0.00  0.00     0.003 A 
ATOM      6  C4  PXY d   1      -2.513   0.299   1.798  0.00  0.00    -0.082 A 
ATOM      7  C5  PXY d   1      -1.293  -0.154   1.438  0.00  0.00     0.003 A 
ATOM      8  C6  PXY d   1      -0.171   0.305   2.122  0.00  0.00     0.003 A 
ENDROOT
TORSDOF 0
ENDMDL
