MODEL 1
REMARK minimizedAffinity 3.56881332
REMARK minimizedRMSD -1
REMARK  0 active torsions:
REMARK  status: ('A' for Active; 'I' for Inactive)
ROOT
ATOM      1  C4' PXY d   1      -4.490   0.277   2.620  0.00  0.00     0.077 C 
ATOM      2  C1' PXY d   1       1.186   1.365   2.497  0.00  0.00     0.077 C 
ATOM      3  C1  PXY d   1      -0.305   1.092   2.530  0.00  0.00    -0.082 A 
ATOM      4  C2  PXY d   1      -0.744  -0.094   2.917  0.00  0.00     0.003 A 
ATOM      5  C3  PXY d   1      -2.088  -0.368   2.923  0.00  0.00     0.003 A 
ATOM      6  C4  PXY d   1      -2.994   0.600   2.580  0.00  0.00    -0.082 A 
ATOM      7  C5  PXY d   1      -2.554   1.816   2.194  0.00  0.00     0.003 A 
ATOM      8  C6  PXY d   1      -1.184   2.061   2.156  0.00  0.00     0.003 A 
ENDROOT
TORSDOF 0
ENDMDL
