MODEL 1
REMARK minimizedAffinity 4.62522221
REMARK minimizedRMSD -1
REMARK  0 active torsions:
REMARK  status: ('A' for Active; 'I' for Inactive)
ROOT
ATOM      1  C4' PXY d   1      -0.230   0.304   2.704  0.00  0.00     0.077 C 
ATOM      2  C1' PXY d   1      -6.000   0.203   2.373  0.00  0.00     0.077 C 
ATOM      3  C1  PXY d   1      -4.487   0.230   2.473  0.00  0.00    -0.082 A 
ATOM      4  C2  PXY d   1      -3.773   0.690   1.459  0.00  0.00     0.003 A 
ATOM      5  C3  PXY d   1      -2.403   0.691   1.519  0.00  0.00     0.003 A 
ATOM      6  C4  PXY d   1      -1.759   0.267   2.651  0.00  0.00    -0.082 A 
ATOM      7  C5  PXY d   1      -2.482  -0.194   3.694  0.00  0.00     0.003 A 
ATOM      8  C6  PXY d   1      -3.870  -0.225   3.596  0.00  0.00     0.003 A 
ENDROOT
TORSDOF 0
ENDMDL
