MODEL 1
REMARK minimizedAffinity 6.49773836
REMARK minimizedRMSD -1
REMARK  0 active torsions:
REMARK  status: ('A' for Active; 'I' for Inactive)
ROOT
ATOM      1  C4' PXY d   1      -2.543  -3.268   0.855  0.00  0.00     0.077 C 
ATOM      2  C1' PXY d   1      -2.942   2.395   1.943  0.00  0.00     0.077 C 
ATOM      3  C1  PXY d   1      -2.850   0.908   1.661  0.00  0.00    -0.082 A 
ATOM      4  C2  PXY d   1      -1.667   0.316   1.657  0.00  0.00     0.003 A 
ATOM      5  C3  PXY d   1      -1.562  -1.022   1.373  0.00  0.00     0.003 A 
ATOM      6  C4  PXY d   1      -2.685  -1.771   1.144  0.00  0.00    -0.082 A 
ATOM      7  C5  PXY d   1      -3.897  -1.176   1.157  0.00  0.00     0.003 A 
ATOM      8  C6  PXY d   1      -3.978   0.191   1.407  0.00  0.00     0.003 A 
ENDROOT
TORSDOF 0
ENDMDL
