MODEL 1
REMARK minimizedAffinity 0.257539779
REMARK minimizedRMSD -1
REMARK  0 active torsions:
REMARK  status: ('A' for Active; 'I' for Inactive)
ROOT
ATOM      1  C4' PXY d   1      -3.525   0.302   1.463  0.00  0.00     0.077 C 
ATOM      2  C1' PXY d   1       0.994   2.355   4.426  0.00  0.00     0.077 C 
ATOM      3  C1  PXY d   1      -0.184   1.808   3.644  0.00  0.00    -0.082 A 
ATOM      4  C2  PXY d   1      -1.207   2.598   3.362  0.00  0.00     0.003 A 
ATOM      5  C3  PXY d   1      -2.294   2.111   2.684  0.00  0.00     0.003 A 
ATOM      6  C4  PXY d   1      -2.311   0.815   2.242  0.00  0.00    -0.082 A 
ATOM      7  C5  PXY d   1      -1.266   0.005   2.516  0.00  0.00     0.003 A 
ATOM      8  C6  PXY d   1      -0.190   0.508   3.242  0.00  0.00     0.003 A 
ENDROOT
TORSDOF 0
ENDMDL
