MODEL 1
REMARK minimizedAffinity 4.1707058
REMARK minimizedRMSD -1
REMARK  0 active torsions:
REMARK  status: ('A' for Active; 'I' for Inactive)
ROOT
ATOM      1  C4' PXY d   1      -0.435   0.610   2.690  0.00  0.00     0.077 C 
ATOM      2  C1' PXY d   1      -5.999   1.086   1.195  0.00  0.00     0.077 C 
ATOM      3  C1  PXY d   1      -4.539   0.950   1.580  0.00  0.00    -0.082 A 
ATOM      4  C2  PXY d   1      -4.084   1.581   2.650  0.00  0.00     0.003 A 
ATOM      5  C3  PXY d   1      -2.759   1.495   2.995  0.00  0.00     0.003 A 
ATOM      6  C4  PXY d   1      -1.904   0.711   2.268  0.00  0.00    -0.082 A 
ATOM      7  C5  PXY d   1      -2.363   0.055   1.182  0.00  0.00     0.003 A 
ATOM      8  C6  PXY d   1      -3.702   0.189   0.824  0.00  0.00     0.003 A 
ENDROOT
TORSDOF 0
ENDMDL
