MODEL 1
REMARK minimizedAffinity 0.0403969809
REMARK minimizedRMSD -1
REMARK  0 active torsions:
REMARK  status: ('A' for Active; 'I' for Inactive)
ROOT
ATOM      1  C4' PXY d   1       0.320  -5.667   3.028  0.00  0.00     0.077 C 
ATOM      2  C1' PXY d   1       5.973  -5.883   1.841  0.00  0.00     0.077 C 
ATOM      3  C1  PXY d   1       4.489  -5.819   2.142  0.00  0.00    -0.082 A 
ATOM      4  C2  PXY d   1       4.064  -5.998   3.382  0.00  0.00     0.003 A 
ATOM      5  C3  PXY d   1       2.723  -5.975   3.666  0.00  0.00     0.003 A 
ATOM      6  C4  PXY d   1       1.810  -5.714   2.679  0.00  0.00    -0.082 A 
ATOM      7  C5  PXY d   1       2.236  -5.520   1.413  0.00  0.00     0.003 A 
ATOM      8  C6  PXY d   1       3.599  -5.588   1.139  0.00  0.00     0.003 A 
ENDROOT
TORSDOF 0
ENDMDL
