MODEL 1
REMARK minimizedAffinity -1.27013338
REMARK minimizedRMSD -1
REMARK  0 active torsions:
REMARK  status: ('A' for Active; 'I' for Inactive)
ROOT
ATOM      1  C4' PXY d   1       1.342  -6.000   1.176  0.00  0.00     0.077 C 
ATOM      2  C1' PXY d   1      -3.646  -3.171   0.442  0.00  0.00     0.077 C 
ATOM      3  C1  PXY d   1      -2.344  -3.923   0.639  0.00  0.00    -0.082 A 
ATOM      4  C2  PXY d   1      -1.214  -3.250   0.775  0.00  0.00     0.003 A 
ATOM      5  C3  PXY d   1      -0.024  -3.915   0.923  0.00  0.00     0.003 A 
ATOM      6  C4  PXY d   1       0.003  -5.282   0.984  0.00  0.00    -0.082 A 
ATOM      7  C5  PXY d   1      -1.148  -5.976   0.857  0.00  0.00     0.003 A 
ATOM      8  C6  PXY d   1      -2.340  -5.284   0.667  0.00  0.00     0.003 A 
ENDROOT
TORSDOF 0
ENDMDL
