MODEL 1
REMARK minimizedAffinity 4.31640196
REMARK minimizedRMSD -1
REMARK  0 active torsions:
REMARK  status: ('A' for Active; 'I' for Inactive)
ROOT
ATOM      1  C4' PXY d   1       4.786  -0.371   1.228  0.00  0.00     0.077 C 
ATOM      2  C1' PXY d   1      -0.571   0.752   3.086  0.00  0.00     0.077 C 
ATOM      3  C1  PXY d   1       0.829   0.455   2.587  0.00  0.00    -0.082 A 
ATOM      4  C2  PXY d   1       1.764   0.081   3.445  0.00  0.00     0.003 A 
ATOM      5  C3  PXY d   1       3.043  -0.161   3.016  0.00  0.00     0.003 A 
ATOM      6  C4  PXY d   1       3.356  -0.070   1.686  0.00  0.00    -0.082 A 
ATOM      7  C5  PXY d   1       2.406   0.301   0.802  0.00  0.00     0.003 A 
ATOM      8  C6  PXY d   1       1.123   0.582   1.264  0.00  0.00     0.003 A 
ENDROOT
TORSDOF 0
ENDMDL
