MODEL 1
REMARK minimizedAffinity 5.33819151
REMARK minimizedRMSD -1
REMARK  0 active torsions:
REMARK  status: ('A' for Active; 'I' for Inactive)
ROOT
ATOM      1  C4' PXY d   1      -3.804  -2.808  -0.223  0.00  0.00     0.077 C 
ATOM      2  C1' PXY d   1      -3.435   1.990   2.979  0.00  0.00     0.077 C 
ATOM      3  C1  PXY d   1      -3.542   0.728   2.146  0.00  0.00    -0.082 A 
ATOM      4  C2  PXY d   1      -2.456   0.216   1.591  0.00  0.00     0.003 A 
ATOM      5  C3  PXY d   1      -2.540  -0.906   0.808  0.00  0.00     0.003 A 
ATOM      6  C4  PXY d   1      -3.741  -1.541   0.634  0.00  0.00    -0.082 A 
ATOM      7  C5  PXY d   1      -4.852  -1.031   1.205  0.00  0.00     0.003 A 
ATOM      8  C6  PXY d   1      -4.752   0.133   1.963  0.00  0.00     0.003 A 
ENDROOT
TORSDOF 0
ENDMDL
