MODEL 1
REMARK minimizedAffinity 10.5874214
REMARK minimizedRMSD -1
REMARK  0 active torsions:
REMARK  status: ('A' for Active; 'I' for Inactive)
ROOT
ATOM      1  C4' PXY d   1      -4.288   2.775   2.050  0.00  0.00     0.077 C 
ATOM      2  C1' PXY d   1      -3.599  -2.522  -0.160  0.00  0.00     0.077 C 
ATOM      3  C1  PXY d   1      -3.772  -1.136   0.430  0.00  0.00    -0.082 A 
ATOM      4  C2  PXY d   1      -4.860  -0.437   0.150  0.00  0.00     0.003 A 
ATOM      5  C3  PXY d   1      -5.017   0.831   0.648  0.00  0.00     0.003 A 
ATOM      6  C4  PXY d   1      -4.076   1.368   1.485  0.00  0.00    -0.082 A 
ATOM      7  C5  PXY d   1      -2.968   0.657   1.784  0.00  0.00     0.003 A 
ATOM      8  C6  PXY d   1      -2.808  -0.612   1.235  0.00  0.00     0.003 A 
ENDROOT
TORSDOF 0
ENDMDL
