MODEL 1
REMARK minimizedAffinity -0.276113182
REMARK minimizedRMSD -1
REMARK  0 active torsions:
REMARK  status: ('A' for Active; 'I' for Inactive)
ROOT
ATOM      1  C   UNL d   1      -0.561  -3.197  -2.534  0.00  0.00    -0.002 A 
ATOM      2  C1  UNL d   1       0.011  -2.056  -3.080  0.00  0.00     0.010 A 
ATOM      3  C2  UNL d   1       0.243  -0.929  -2.289  0.00  0.00     0.041 A 
ATOM      4  C3  UNL d   1      -0.111  -0.969  -0.927  0.00  0.00    -0.075 A 
ATOM      5  S   UNL d   1       0.080   0.292   0.234  0.00  0.00     0.015 SA
ATOM      6  C4  UNL d   1      -0.592  -0.654   1.483  0.00  0.00     0.022 A 
ATOM      7  C5  UNL d   1      -0.959  -1.904   1.042  0.00  0.00     0.026 A 
ATOM      8  C6  UNL d   1      -0.688  -2.106  -0.353  0.00  0.00    -0.082 A 
ATOM      9  C7  UNL d   1      -0.911  -3.232  -1.182  0.00  0.00     0.045 A 
ENDROOT
TORSDOF 0
ENDMDL
