MODEL 1
REMARK minimizedAffinity -0.551237047
REMARK minimizedRMSD -1
REMARK  0 active torsions:
REMARK  status: ('A' for Active; 'I' for Inactive)
ROOT
ATOM      1  C   UNL d   1      -0.879  -0.684   0.799  0.00  0.00    -0.002 A 
ATOM      2  C1  UNL d   1      -0.438  -0.644   2.114  0.00  0.00     0.010 A 
ATOM      3  C2  UNL d   1       0.442   0.354   2.538  0.00  0.00     0.041 A 
ATOM      4  C3  UNL d   1       0.874   1.321   1.609  0.00  0.00    -0.075 A 
ATOM      5  S   UNL d   1       1.949   2.636   1.902  0.00  0.00     0.015 SA
ATOM      6  C4  UNL d   1       1.848   3.176   0.288  0.00  0.00     0.022 A 
ATOM      7  C5  UNL d   1       1.019   2.383  -0.469  0.00  0.00     0.026 A 
ATOM      8  C6  UNL d   1       0.443   1.302   0.279  0.00  0.00    -0.082 A 
ATOM      9  C7  UNL d   1      -0.448   0.276  -0.119  0.00  0.00     0.045 A 
ENDROOT
TORSDOF 0
ENDMDL
