MODEL 1
REMARK minimizedAffinity 0.0672737509
REMARK minimizedRMSD -1
REMARK  0 active torsions:
REMARK  status: ('A' for Active; 'I' for Inactive)
ROOT
ATOM      1  C   UNL d   1      -0.462  -0.739   2.084  0.00  0.00    -0.002 A 
ATOM      2  C1  UNL d   1      -0.763  -1.286   0.845  0.00  0.00     0.010 A 
ATOM      3  C2  UNL d   1      -0.601  -0.535  -0.322  0.00  0.00     0.041 A 
ATOM      4  C3  UNL d   1      -0.126   0.787  -0.220  0.00  0.00    -0.075 A 
ATOM      5  S   UNL d   1       0.152   1.894  -1.513  0.00  0.00     0.015 SA
ATOM      6  C4  UNL d   1       0.676   3.119  -0.451  0.00  0.00     0.022 A 
ATOM      7  C5  UNL d   1       0.647   2.711   0.862  0.00  0.00     0.026 A 
ATOM      8  C6  UNL d   1       0.185   1.360   1.016  0.00  0.00    -0.082 A 
ATOM      9  C7  UNL d   1       0.009   0.573   2.180  0.00  0.00     0.045 A 
ENDROOT
TORSDOF 0
ENDMDL
