MODEL 1
REMARK minimizedAffinity 0.366336972
REMARK minimizedRMSD -1
REMARK  0 active torsions:
REMARK  status: ('A' for Active; 'I' for Inactive)
ROOT
ATOM      1  C   UNL d   1      -0.672  -0.339   0.102  0.00  0.00    -0.002 A 
ATOM      2  C1  UNL d   1      -0.066  -0.609   1.321  0.00  0.00     0.010 A 
ATOM      3  C2  UNL d   1       0.811   0.311   1.897  0.00  0.00     0.041 A 
ATOM      4  C3  UNL d   1       1.070   1.521   1.223  0.00  0.00    -0.075 A 
ATOM      5  S   UNL d   1       2.108   2.797   1.739  0.00  0.00     0.015 SA
ATOM      6  C4  UNL d   1       1.770   3.732   0.354  0.00  0.00     0.022 A 
ATOM      7  C5  UNL d   1       0.889   3.101  -0.492  0.00  0.00     0.026 A 
ATOM      8  C6  UNL d   1       0.470   1.816  -0.005  0.00  0.00    -0.082 A 
ATOM      9  C7  UNL d   1      -0.414   0.862  -0.564  0.00  0.00     0.045 A 
ENDROOT
TORSDOF 0
ENDMDL
