MODEL 1
REMARK minimizedAffinity -2.88454747
REMARK minimizedRMSD -1
REMARK  0 active torsions:
REMARK  status: ('A' for Active; 'I' for Inactive)
ROOT
ATOM      1  C   UNL d   1      -0.907  -3.163  -1.615  0.00  0.00    -0.002 A 
ATOM      2  C1  UNL d   1      -0.271  -2.328  -2.523  0.00  0.00     0.010 A 
ATOM      3  C2  UNL d   1       0.158  -1.056  -2.139  0.00  0.00     0.041 A 
ATOM      4  C3  UNL d   1      -0.063  -0.634  -0.813  0.00  0.00    -0.075 A 
ATOM      5  S   UNL d   1       0.378   0.880  -0.118  0.00  0.00     0.015 SA
ATOM      6  C4  UNL d   1      -0.267   0.455   1.402  0.00  0.00     0.022 A 
ATOM      7  C5  UNL d   1      -0.809  -0.808   1.396  0.00  0.00     0.026 A 
ATOM      8  C6  UNL d   1      -0.700  -1.457   0.120  0.00  0.00    -0.082 A 
ATOM      9  C7  UNL d   1      -1.125  -2.741  -0.301  0.00  0.00     0.045 A 
ENDROOT
TORSDOF 0
ENDMDL
