MODEL 1
REMARK minimizedAffinity -1.00847864
REMARK minimizedRMSD -1
REMARK  0 active torsions:
REMARK  status: ('A' for Active; 'I' for Inactive)
ROOT
ATOM      1  C   UNL d   1      -0.170   1.538   0.985  0.00  0.00    -0.002 A 
ATOM      2  C1  UNL d   1       0.150   1.760  -0.347  0.00  0.00     0.010 A 
ATOM      3  C2  UNL d   1       0.143   0.708  -1.265  0.00  0.00     0.041 A 
ATOM      4  C3  UNL d   1      -0.196  -0.584  -0.817  0.00  0.00    -0.075 A 
ATOM      5  S   UNL d   1      -0.272  -2.024  -1.762  0.00  0.00     0.015 SA
ATOM      6  C4  UNL d   1      -0.732  -2.969  -0.420  0.00  0.00     0.022 A 
ATOM      7  C5  UNL d   1      -0.830  -2.220   0.729  0.00  0.00     0.026 A 
ATOM      8  C6  UNL d   1      -0.523  -0.833   0.519  0.00  0.00    -0.082 A 
ATOM      9  C7  UNL d   1      -0.506   0.255   1.425  0.00  0.00     0.045 A 
ENDROOT
TORSDOF 0
ENDMDL
