MODEL 1
REMARK minimizedAffinity -2.51892447
REMARK minimizedRMSD -1
REMARK  0 active torsions:
REMARK  status: ('A' for Active; 'I' for Inactive)
ROOT
ATOM      1  C   UNL d   1      -1.009  -1.809   0.546  0.00  0.00    -0.002 A 
ATOM      2  C1  UNL d   1      -1.022  -1.098  -0.645  0.00  0.00     0.010 A 
ATOM      3  C2  UNL d   1      -0.395   0.146  -0.737  0.00  0.00     0.041 A 
ATOM      4  C3  UNL d   1       0.255   0.667   0.399  0.00  0.00    -0.075 A 
ATOM      5  S   UNL d   1       1.091   2.171   0.521  0.00  0.00     0.015 SA
ATOM      6  C4  UNL d   1       1.486   1.903   2.157  0.00  0.00     0.022 A 
ATOM      7  C5  UNL d   1       1.000   0.702   2.616  0.00  0.00     0.026 A 
ATOM      8  C6  UNL d   1       0.283  -0.031   1.610  0.00  0.00    -0.082 A 
ATOM      9  C7  UNL d   1      -0.363  -1.289   1.671  0.00  0.00     0.045 A 
ENDROOT
TORSDOF 0
ENDMDL
