MODEL 1
REMARK minimizedAffinity -0.773283184
REMARK minimizedRMSD -1
REMARK  0 active torsions:
REMARK  status: ('A' for Active; 'I' for Inactive)
ROOT
ATOM      1  C   UNL d   1      -0.372  -3.302  -1.876  0.00  0.00    -0.002 A 
ATOM      2  C1  UNL d   1       0.019  -2.269  -2.717  0.00  0.00     0.010 A 
ATOM      3  C2  UNL d   1       0.069  -0.954  -2.250  0.00  0.00     0.041 A 
ATOM      4  C3  UNL d   1      -0.282  -0.692  -0.911  0.00  0.00    -0.075 A 
ATOM      5  S   UNL d   1      -0.294   0.840  -0.120  0.00  0.00     0.015 SA
ATOM      6  C4  UNL d   1      -0.817   0.159   1.352  0.00  0.00     0.022 A 
ATOM      7  C5  UNL d   1      -0.983  -1.202   1.261  0.00  0.00     0.026 A 
ATOM      8  C6  UNL d   1      -0.677  -1.716  -0.045  0.00  0.00    -0.082 A 
ATOM      9  C7  UNL d   1      -0.719  -3.038  -0.548  0.00  0.00     0.045 A 
ENDROOT
TORSDOF 0
ENDMDL
