MODEL 1
REMARK minimizedAffinity -1.45378733
REMARK minimizedRMSD -1
REMARK  0 active torsions:
REMARK  status: ('A' for Active; 'I' for Inactive)
ROOT
ATOM      1  C   UNL d   1       2.329   2.794   0.172  0.00  0.00    -0.002 A 
ATOM      2  C1  UNL d   1       1.265   3.684   0.218  0.00  0.00     0.010 A 
ATOM      3  C2  UNL d   1      -0.046   3.218   0.335  0.00  0.00     0.041 A 
ATOM      4  C3  UNL d   1      -0.272   1.829   0.408  0.00  0.00    -0.075 A 
ATOM      5  S   UNL d   1      -1.792   1.030   0.556  0.00  0.00     0.015 SA
ATOM      6  C4  UNL d   1      -1.065  -0.512   0.563  0.00  0.00     0.022 A 
ATOM      7  C5  UNL d   1       0.303  -0.437   0.456  0.00  0.00     0.026 A 
ATOM      8  C6  UNL d   1       0.783   0.914   0.365  0.00  0.00    -0.082 A 
ATOM      9  C7  UNL d   1       2.101   1.417   0.245  0.00  0.00     0.045 A 
ENDROOT
TORSDOF 0
ENDMDL
