MODEL 1
REMARK minimizedAffinity -2.96798801
REMARK minimizedRMSD -1
REMARK  0 active torsions:
REMARK  status: ('A' for Active; 'I' for Inactive)
ROOT
ATOM      1  C   UNL d   1      -0.327  -2.289   1.681  0.00  0.00    -0.002 A 
ATOM      2  C1  UNL d   1      -0.999  -2.488   0.484  0.00  0.00     0.010 A 
ATOM      3  C2  UNL d   1      -1.028  -1.486  -0.489  0.00  0.00     0.041 A 
ATOM      4  C3  UNL d   1      -0.362  -0.271  -0.236  0.00  0.00    -0.075 A 
ATOM      5  S   UNL d   1      -0.262   1.097  -1.281  0.00  0.00     0.015 SA
ATOM      6  C4  UNL d   1       0.676   1.977  -0.163  0.00  0.00     0.022 A 
ATOM      7  C5  UNL d   1       0.916   1.260   0.986  0.00  0.00     0.026 A 
ATOM      8  C6  UNL d   1       0.322  -0.047   0.962  0.00  0.00    -0.082 A 
ATOM      9  C7  UNL d   1       0.332  -1.082   1.929  0.00  0.00     0.045 A 
ENDROOT
TORSDOF 0
ENDMDL
