MODEL 1
REMARK minimizedAffinity -2.53754568
REMARK minimizedRMSD -1
REMARK  0 active torsions:
REMARK  status: ('A' for Active; 'I' for Inactive)
ROOT
ATOM      1  C   UNL d   1      -0.939  -3.140  -1.510  0.00  0.00    -0.002 A 
ATOM      2  C1  UNL d   1      -0.323  -2.252  -2.380  0.00  0.00     0.010 A 
ATOM      3  C2  UNL d   1      -0.021  -0.952  -1.970  0.00  0.00     0.041 A 
ATOM      4  C3  UNL d   1      -0.350  -0.556  -0.659  0.00  0.00    -0.075 A 
ATOM      5  S   UNL d   1      -0.074   0.985   0.062  0.00  0.00     0.015 SA
ATOM      6  C4  UNL d   1      -0.767   0.500   1.542  0.00  0.00     0.022 A 
ATOM      7  C5  UNL d   1      -1.204  -0.803   1.504  0.00  0.00     0.026 A 
ATOM      8  C6  UNL d   1      -0.970  -1.433   0.236  0.00  0.00    -0.082 A 
ATOM      9  C7  UNL d   1      -1.264  -2.744  -0.210  0.00  0.00     0.045 A 
ENDROOT
TORSDOF 0
ENDMDL
