MODEL 1
REMARK minimizedAffinity -4.33125305
REMARK minimizedRMSD -1
REMARK  0 active torsions:
REMARK  status: ('A' for Active; 'I' for Inactive)
ROOT
ATOM      1  C   UNL d   1      -0.941   0.318   0.130  0.00  0.00     0.078 C 
ATOM      2  C1  UNL d   1       0.392  -0.365   0.196  0.00  0.00    -0.077 A 
ATOM      3  C2  UNL d   1       0.709  -1.414  -0.675  0.00  0.00    -0.001 A 
ATOM      4  C3  UNL d   1       1.951  -2.046  -0.596  0.00  0.00     0.003 A 
ATOM      5  C4  UNL d   1       2.885  -1.638   0.354  0.00  0.00    -0.005 A 
ATOM      6  C5  UNL d   1       2.577  -0.597   1.227  0.00  0.00     0.003 A 
ATOM      7  C6  UNL d   1       1.336   0.037   1.149  0.00  0.00    -0.001 A 
ENDROOT
TORSDOF 0
ENDMDL
