MODEL 1
REMARK minimizedAffinity -4.9932189
REMARK minimizedRMSD -1
REMARK  0 active torsions:
REMARK  status: ('A' for Active; 'I' for Inactive)
ROOT
ATOM      1  C   UNL d   1      -0.032  -2.407  -1.230  0.00  0.00     0.078 C 
ATOM      2  C1  UNL d   1       0.517  -1.344  -0.326  0.00  0.00    -0.077 A 
ATOM      3  C2  UNL d   1      -0.161  -0.133  -0.141  0.00  0.00    -0.001 A 
ATOM      4  C3  UNL d   1       0.366   0.851   0.696  0.00  0.00     0.003 A 
ATOM      5  C4  UNL d   1       1.576   0.636   1.354  0.00  0.00    -0.005 A 
ATOM      6  C5  UNL d   1       2.259  -0.565   1.175  0.00  0.00     0.003 A 
ATOM      7  C6  UNL d   1       1.733  -1.551   0.338  0.00  0.00    -0.001 A 
ENDROOT
TORSDOF 0
ENDMDL
