MODEL 1
REMARK minimizedAffinity -3.61069727
REMARK minimizedRMSD -1
REMARK  0 active torsions:
REMARK  status: ('A' for Active; 'I' for Inactive)
ROOT
ATOM      1  C   UNL d   1       2.472  -0.967   1.572  0.00  0.00     0.078 C 
ATOM      2  C1  UNL d   1       1.368  -0.327   0.784  0.00  0.00    -0.077 A 
ATOM      3  C2  UNL d   1       1.124   1.049   0.871  0.00  0.00    -0.001 A 
ATOM      4  C3  UNL d   1       0.087   1.629   0.139  0.00  0.00     0.003 A 
ATOM      5  C4  UNL d   1      -0.714   0.841  -0.685  0.00  0.00    -0.005 A 
ATOM      6  C5  UNL d   1      -0.480  -0.529  -0.776  0.00  0.00     0.003 A 
ATOM      7  C6  UNL d   1       0.556  -1.112  -0.045  0.00  0.00    -0.001 A 
ENDROOT
TORSDOF 0
ENDMDL
