MODEL 1
REMARK minimizedAffinity -3.81792068
REMARK minimizedRMSD -1
REMARK  0 active torsions:
REMARK  status: ('A' for Active; 'I' for Inactive)
ROOT
ATOM      1  C   UNL d   1      -0.369  -1.945  -1.630  0.00  0.00     0.078 C 
ATOM      2  C1  UNL d   1       0.543  -1.375  -0.585  0.00  0.00    -0.077 A 
ATOM      3  C2  UNL d   1       0.254  -0.153   0.035  0.00  0.00    -0.001 A 
ATOM      4  C3  UNL d   1       1.116   0.371   0.999  0.00  0.00     0.003 A 
ATOM      5  C4  UNL d   1       2.274  -0.319   1.352  0.00  0.00    -0.005 A 
ATOM      6  C5  UNL d   1       2.571  -1.535   0.739  0.00  0.00     0.003 A 
ATOM      7  C6  UNL d   1       1.710  -2.061  -0.225  0.00  0.00    -0.001 A 
ENDROOT
TORSDOF 0
ENDMDL
