MODEL 1
REMARK minimizedAffinity -3.50082445
REMARK minimizedRMSD -1
REMARK  0 active torsions:
REMARK  status: ('A' for Active; 'I' for Inactive)
ROOT
ATOM      1  C   UNL d   1      -3.760   0.733   0.761  0.00  0.00     0.078 C 
ATOM      2  C1  UNL d   1      -2.478   0.066   0.360  0.00  0.00    -0.077 A 
ATOM      3  C2  UNL d   1      -2.064  -1.126   0.969  0.00  0.00    -0.001 A 
ATOM      4  C3  UNL d   1      -0.864  -1.731   0.592  0.00  0.00     0.003 A 
ATOM      5  C4  UNL d   1      -0.068  -1.152  -0.393  0.00  0.00    -0.005 A 
ATOM      6  C5  UNL d   1      -0.470   0.034  -1.003  0.00  0.00     0.003 A 
ATOM      7  C6  UNL d   1      -1.670   0.641  -0.628  0.00  0.00    -0.001 A 
ENDROOT
TORSDOF 0
ENDMDL
