MODEL 1
REMARK minimizedAffinity -5.39624119
REMARK minimizedRMSD -1
REMARK  0 active torsions:
REMARK  status: ('A' for Active; 'I' for Inactive)
ROOT
ATOM      1  C   UNL d   1       3.047  -1.613   1.122  0.00  0.00     0.078 C 
ATOM      2  C1  UNL d   1       1.757  -1.225   0.463  0.00  0.00    -0.077 A 
ATOM      3  C2  UNL d   1       1.139  -2.071  -0.466  0.00  0.00    -0.001 A 
ATOM      4  C3  UNL d   1      -0.056  -1.692  -1.080  0.00  0.00     0.003 A 
ATOM      5  C4  UNL d   1      -0.643  -0.466  -0.772  0.00  0.00    -0.005 A 
ATOM      6  C5  UNL d   1      -0.033   0.384   0.149  0.00  0.00     0.003 A 
ATOM      7  C6  UNL d   1       1.162   0.006   0.764  0.00  0.00    -0.001 A 
ENDROOT
TORSDOF 0
ENDMDL
