MODEL 1
REMARK minimizedAffinity -4.69006777
REMARK minimizedRMSD -1
REMARK  0 active torsions:
REMARK  status: ('A' for Active; 'I' for Inactive)
ROOT
ATOM      1  C   UNL d   1      -0.728   0.246  -0.296  0.00  0.00     0.078 C 
ATOM      2  C1  UNL d   1       0.765   0.133  -0.367  0.00  0.00    -0.077 A 
ATOM      3  C2  UNL d   1       1.581   1.264  -0.241  0.00  0.00    -0.001 A 
ATOM      4  C3  UNL d   1       2.969   1.146  -0.319  0.00  0.00     0.003 A 
ATOM      5  C4  UNL d   1       3.554  -0.102  -0.525  0.00  0.00    -0.005 A 
ATOM      6  C5  UNL d   1       2.751  -1.233  -0.654  0.00  0.00     0.003 A 
ATOM      7  C6  UNL d   1       1.362  -1.116  -0.577  0.00  0.00    -0.001 A 
ENDROOT
TORSDOF 0
ENDMDL
