MODEL 1
REMARK minimizedAffinity -4.16884327
REMARK minimizedRMSD -1
REMARK  0 active torsions:
REMARK  status: ('A' for Active; 'I' for Inactive)
ROOT
ATOM      1  C   UNL d   1      -1.301   1.100   0.033  0.00  0.00     0.078 C 
ATOM      2  C1  UNL d   1       0.007   0.389   0.211  0.00  0.00    -0.077 A 
ATOM      3  C2  UNL d   1       0.965   0.859   1.117  0.00  0.00    -0.001 A 
ATOM      4  C3  UNL d   1       2.183   0.193   1.265  0.00  0.00     0.003 A 
ATOM      5  C4  UNL d   1       2.454  -0.946   0.509  0.00  0.00    -0.005 A 
ATOM      6  C5  UNL d   1       1.508  -1.419  -0.397  0.00  0.00     0.003 A 
ATOM      7  C6  UNL d   1       0.289  -0.755  -0.546  0.00  0.00    -0.001 A 
ENDROOT
TORSDOF 0
ENDMDL
