MODEL 1
REMARK minimizedAffinity -2.13558793
REMARK minimizedRMSD -1
REMARK  0 active torsions:
REMARK  status: ('A' for Active; 'I' for Inactive)
ROOT
ATOM      1  C   UNL d   1      -3.460   0.747   1.673  0.00  0.00     0.078 C 
ATOM      2  C1  UNL d   1      -2.111   0.518   1.059  0.00  0.00    -0.077 A 
ATOM      3  C2  UNL d   1      -1.218  -0.411   1.605  0.00  0.00    -0.001 A 
ATOM      4  C3  UNL d   1       0.038  -0.607   1.029  0.00  0.00     0.003 A 
ATOM      5  C4  UNL d   1       0.414   0.125  -0.096  0.00  0.00    -0.005 A 
ATOM      6  C5  UNL d   1      -0.468   1.054  -0.645  0.00  0.00     0.003 A 
ATOM      7  C6  UNL d   1      -1.724   1.251  -0.071  0.00  0.00    -0.001 A 
ENDROOT
TORSDOF 0
ENDMDL
