MODEL 1
REMARK minimizedAffinity -2.4800384
REMARK minimizedRMSD -1
REMARK  0 active torsions:
REMARK  status: ('A' for Active; 'I' for Inactive)
ROOT
ATOM      1  O1  BZF d   1      -0.566   1.561  -0.503  0.00  0.00    -0.204 OA
ATOM      2  C2  BZF d   1       0.229   0.439  -0.372  0.00  0.00     0.174 A 
ATOM      3  C3  BZF d   1       0.036  -0.407  -1.404  0.00  0.00    -0.012 A 
ATOM      4  C3A BZF d   1      -0.872   0.268  -2.279  0.00  0.00    -0.107 A 
ATOM      5  C4  BZF d   1      -1.432  -0.055  -3.482  0.00  0.00     0.055 A 
ATOM      6  C5  BZF d   1      -2.337   0.793  -4.039  0.00  0.00    -0.016 A 
ATOM      7  C6  BZF d   1      -2.708   1.968  -3.418  0.00  0.00     0.022 A 
ATOM      8  C7  BZF d   1      -2.175   2.333  -2.227  0.00  0.00     0.029 A 
ATOM      9  C7A BZF d   1      -1.237   1.495  -1.678  0.00  0.00     0.058 A 
ENDROOT
TORSDOF 0
ENDMDL
