MODEL 1
REMARK minimizedAffinity -2.22968173
REMARK minimizedRMSD -1
REMARK  0 active torsions:
REMARK  status: ('A' for Active; 'I' for Inactive)
ROOT
ATOM      1  O1  BZF d   1      -0.841   0.310   0.749  0.00  0.00    -0.204 OA
ATOM      2  C2  BZF d   1      -0.483   1.574   0.321  0.00  0.00     0.174 A 
ATOM      3  C3  BZF d   1       0.852   1.662   0.152  0.00  0.00    -0.012 A 
ATOM      4  C3A BZF d   1       1.351   0.345   0.407  0.00  0.00    -0.107 A 
ATOM      5  C4  BZF d   1       2.600  -0.207   0.382  0.00  0.00     0.055 A 
ATOM      6  C5  BZF d   1       2.756  -1.505   0.753  0.00  0.00    -0.016 A 
ATOM      7  C6  BZF d   1       1.687  -2.277   1.158  0.00  0.00     0.022 A 
ATOM      8  C7  BZF d   1       0.429  -1.775   1.194  0.00  0.00     0.029 A 
ATOM      9  C7A BZF d   1       0.263  -0.474   0.788  0.00  0.00     0.058 A 
ENDROOT
TORSDOF 0
ENDMDL
