MODEL 1
REMARK minimizedAffinity -4.20613813
REMARK minimizedRMSD -1
REMARK  0 active torsions:
REMARK  status: ('A' for Active; 'I' for Inactive)
ROOT
ATOM      1  O1  BZF d   1      -0.985   0.063   1.083  0.00  0.00    -0.204 OA
ATOM      2  C2  BZF d   1      -0.605   1.181   0.366  0.00  0.00     0.174 A 
ATOM      3  C3  BZF d   1       0.559   0.964  -0.280  0.00  0.00    -0.012 A 
ATOM      4  C3A BZF d   1       0.883  -0.406  -0.019  0.00  0.00    -0.107 A 
ATOM      5  C4  BZF d   1       1.914  -1.215  -0.402  0.00  0.00     0.055 A 
ATOM      6  C5  BZF d   1       1.974  -2.483   0.085  0.00  0.00    -0.016 A 
ATOM      7  C6  BZF d   1       1.024  -2.971   0.958  0.00  0.00     0.022 A 
ATOM      8  C7  BZF d   1      -0.020  -2.207   1.362  0.00  0.00     0.029 A 
ATOM      9  C7A BZF d   1      -0.101  -0.936   0.846  0.00  0.00     0.058 A 
ENDROOT
TORSDOF 0
ENDMDL
