MODEL 1
REMARK minimizedAffinity -1.9898982
REMARK minimizedRMSD -1
REMARK  0 active torsions:
REMARK  status: ('A' for Active; 'I' for Inactive)
ROOT
ATOM      1  O1  BZF d   1       0.710   0.399  -1.333  0.00  0.00    -0.204 OA
ATOM      2  C2  BZF d   1       0.396   0.159  -0.009  0.00  0.00     0.174 A 
ATOM      3  C3  BZF d   1      -0.916   0.375   0.217  0.00  0.00    -0.012 A 
ATOM      4  C3A BZF d   1      -1.473   0.685  -1.064  0.00  0.00    -0.107 A 
ATOM      5  C4  BZF d   1      -2.736   0.979  -1.492  0.00  0.00     0.055 A 
ATOM      6  C5  BZF d   1      -2.932   1.305  -2.797  0.00  0.00    -0.016 A 
ATOM      7  C6  BZF d   1      -1.888   1.351  -3.698  0.00  0.00     0.022 A 
ATOM      8  C7  BZF d   1      -0.619   1.062  -3.321  0.00  0.00     0.029 A 
ATOM      9  C7A BZF d   1      -0.423   0.700  -2.011  0.00  0.00     0.058 A 
ENDROOT
TORSDOF 0
ENDMDL
