MODEL 1
REMARK minimizedAffinity -5.52309084
REMARK minimizedRMSD -1
REMARK  0 active torsions:
REMARK  status: ('A' for Active; 'I' for Inactive)
ROOT
ATOM      1  O1  BZF d   1       0.700  -2.451   1.702  0.00  0.00    -0.204 OA
ATOM      2  C2  BZF d   1       1.782  -2.623   0.861  0.00  0.00     0.174 A 
ATOM      3  C3  BZF d   1       1.940  -1.550   0.059  0.00  0.00    -0.012 A 
ATOM      4  C3A BZF d   1       0.946  -0.613   0.484  0.00  0.00    -0.107 A 
ATOM      5  C4  BZF d   1       0.611   0.648   0.081  0.00  0.00     0.055 A 
ATOM      6  C5  BZF d   1      -0.457   1.262   0.653  0.00  0.00    -0.016 A 
ATOM      7  C6  BZF d   1      -1.216   0.644   1.625  0.00  0.00     0.022 A 
ATOM      8  C7  BZF d   1      -0.919  -0.604   2.061  0.00  0.00     0.029 A 
ATOM      9  C7A BZF d   1       0.180  -1.215   1.509  0.00  0.00     0.058 A 
ENDROOT
TORSDOF 0
ENDMDL
