MODEL 1
REMARK minimizedAffinity -3.5747714
REMARK minimizedRMSD -1
REMARK  0 active torsions:
REMARK  status: ('A' for Active; 'I' for Inactive)
ROOT
ATOM      1  O1  BZF d   1       1.151   1.190   0.003  0.00  0.00    -0.204 OA
ATOM      2  C2  BZF d   1      -0.172   1.068  -0.377  0.00  0.00     0.174 A 
ATOM      3  C3  BZF d   1      -0.574  -0.217  -0.302  0.00  0.00    -0.012 A 
ATOM      4  C3A BZF d   1       0.541  -0.929   0.242  0.00  0.00    -0.107 A 
ATOM      5  C4  BZF d   1       0.749  -2.239   0.568  0.00  0.00     0.055 A 
ATOM      6  C5  BZF d   1       1.976  -2.622   1.009  0.00  0.00    -0.016 A 
ATOM      7  C6  BZF d   1       3.016  -1.725   1.133  0.00  0.00     0.022 A 
ATOM      8  C7  BZF d   1       2.856  -0.414   0.827  0.00  0.00     0.029 A 
ATOM      9  C7A BZF d   1       1.608  -0.018   0.412  0.00  0.00     0.058 A 
ENDROOT
TORSDOF 0
ENDMDL
