MODEL 1
REMARK minimizedAffinity -1.12361789
REMARK minimizedRMSD -1
REMARK  0 active torsions:
REMARK  status: ('A' for Active; 'I' for Inactive)
ROOT
ATOM      1  O1  BZF d   1       4.071  -1.079   0.629  0.00  0.00    -0.204 OA
ATOM      2  C2  BZF d   1       4.022  -0.646   1.940  0.00  0.00     0.174 A 
ATOM      3  C3  BZF d   1       2.813  -0.119   2.225  0.00  0.00    -0.012 A 
ATOM      4  C3A BZF d   1       2.030  -0.314   1.044  0.00  0.00    -0.107 A 
ATOM      5  C4  BZF d   1       0.738  -0.017   0.714  0.00  0.00     0.055 A 
ATOM      6  C5  BZF d   1       0.303  -0.274  -0.547  0.00  0.00    -0.016 A 
ATOM      7  C6  BZF d   1       1.132  -0.821  -1.505  0.00  0.00     0.022 A 
ATOM      8  C7  BZF d   1       2.420  -1.137  -1.223  0.00  0.00     0.029 A 
ATOM      9  C7A BZF d   1       2.853  -0.910   0.060  0.00  0.00     0.058 A 
ENDROOT
TORSDOF 0
ENDMDL
