MODEL 1
REMARK minimizedAffinity -3.10749125
REMARK minimizedRMSD -1
REMARK  0 active torsions:
REMARK  status: ('A' for Active; 'I' for Inactive)
ROOT
ATOM      1  O1  BZF d   1       3.010  -1.659   0.642  0.00  0.00    -0.204 OA
ATOM      2  C2  BZF d   1       2.418  -2.722   1.297  0.00  0.00     0.174 A 
ATOM      3  C3  BZF d   1       1.074  -2.649   1.211  0.00  0.00    -0.012 A 
ATOM      4  C3A BZF d   1       0.812  -1.517   0.376  0.00  0.00    -0.107 A 
ATOM      5  C4  BZF d   1      -0.335  -0.941  -0.091  0.00  0.00     0.055 A 
ATOM      6  C5  BZF d   1      -0.249   0.200  -0.825  0.00  0.00    -0.016 A 
ATOM      7  C6  BZF d   1       0.964   0.793  -1.105  0.00  0.00     0.022 A 
ATOM      8  C7  BZF d   1       2.129   0.256  -0.668  0.00  0.00     0.029 A 
ATOM      9  C7A BZF d   1       2.048  -0.915   0.046  0.00  0.00     0.058 A 
ENDROOT
TORSDOF 0
ENDMDL
