MODEL 1
REMARK minimizedAffinity -5.0588479
REMARK minimizedRMSD -1
REMARK  0 active torsions:
REMARK  status: ('A' for Active; 'I' for Inactive)
ROOT
ATOM      1  O1  BZF d   1       0.399   0.761  -0.699  0.00  0.00    -0.204 OA
ATOM      2  C2  BZF d   1      -0.920   1.083  -0.444  0.00  0.00     0.174 A 
ATOM      3  C3  BZF d   1      -1.497   0.150   0.341  0.00  0.00    -0.012 A 
ATOM      4  C3A BZF d   1      -0.449  -0.767   0.667  0.00  0.00    -0.107 A 
ATOM      5  C4  BZF d   1      -0.396  -1.899   1.429  0.00  0.00     0.055 A 
ATOM      6  C5  BZF d   1       0.765  -2.605   1.484  0.00  0.00    -0.016 A 
ATOM      7  C6  BZF d   1       1.887  -2.211   0.786  0.00  0.00     0.022 A 
ATOM      8  C7  BZF d   1       1.884  -1.092   0.021  0.00  0.00     0.029 A 
ATOM      9  C7A BZF d   1       0.723  -0.359  -0.010  0.00  0.00     0.058 A 
ENDROOT
TORSDOF 0
ENDMDL
