MODEL 1
REMARK minimizedAffinity -4.28389454
REMARK minimizedRMSD -1
REMARK  0 active torsions:
REMARK  status: ('A' for Active; 'I' for Inactive)
ROOT
ATOM      1  O1  BZF d   1       0.702   1.033  -0.405  0.00  0.00    -0.204 OA
ATOM      2  C2  BZF d   1      -0.602   1.237   0.005  0.00  0.00     0.174 A 
ATOM      3  C3  BZF d   1      -1.097   0.128   0.590  0.00  0.00    -0.012 A 
ATOM      4  C3A BZF d   1      -0.007  -0.799   0.625  0.00  0.00    -0.107 A 
ATOM      5  C4  BZF d   1       0.128  -2.071   1.101  0.00  0.00     0.055 A 
ATOM      6  C5  BZF d   1       1.305  -2.725   0.915  0.00  0.00    -0.016 A 
ATOM      7  C6  BZF d   1       2.364  -2.138   0.253  0.00  0.00     0.022 A 
ATOM      8  C7  BZF d   1       2.279  -0.875  -0.232  0.00  0.00     0.029 A 
ATOM      9  C7A BZF d   1       1.102  -0.201  -0.016  0.00  0.00     0.058 A 
ENDROOT
TORSDOF 0
ENDMDL
