MODEL 1
REMARK minimizedAffinity -3.73697853
REMARK minimizedRMSD -1
REMARK  0 active torsions:
REMARK  status: ('A' for Active; 'I' for Inactive)
ROOT
ATOM      1  O1  BZF d   1       0.775   1.206   0.249  0.00  0.00    -0.204 OA
ATOM      2  C2  BZF d   1      -0.482   1.118  -0.318  0.00  0.00     0.174 A 
ATOM      3  C3  BZF d   1      -0.831  -0.170  -0.511  0.00  0.00    -0.012 A 
ATOM      4  C3A BZF d   1       0.238  -0.938   0.049  0.00  0.00    -0.107 A 
ATOM      5  C4  BZF d   1       0.465  -2.279   0.176  0.00  0.00     0.055 A 
ATOM      6  C5  BZF d   1       1.642  -2.702   0.706  0.00  0.00    -0.016 A 
ATOM      7  C6  BZF d   1       2.616  -1.814   1.114  0.00  0.00     0.022 A 
ATOM      8  C7  BZF d   1       2.435  -0.474   1.012  0.00  0.00     0.029 A 
ATOM      9  C7A BZF d   1       1.232  -0.043   0.507  0.00  0.00     0.058 A 
ENDROOT
TORSDOF 0
ENDMDL
