MODEL 1
REMARK minimizedAffinity -3.31243682
REMARK minimizedRMSD -1
REMARK  0 active torsions:
REMARK  status: ('A' for Active; 'I' for Inactive)
ROOT
ATOM      1  O1  BZF d   1       0.802   1.588   0.278  0.00  0.00    -0.204 OA
ATOM      2  C2  BZF d   1      -0.341   1.482  -0.490  0.00  0.00     0.174 A 
ATOM      3  C3  BZF d   1      -0.439   0.252  -1.034  0.00  0.00    -0.012 A 
ATOM      4  C3A BZF d   1       0.667  -0.484  -0.503  0.00  0.00    -0.107 A 
ATOM      5  C4  BZF d   1       1.101  -1.769  -0.658  0.00  0.00     0.055 A 
ATOM      6  C5  BZF d   1       2.258  -2.153  -0.057  0.00  0.00    -0.016 A 
ATOM      7  C6  BZF d   1       3.008  -1.277   0.701  0.00  0.00     0.022 A 
ATOM      8  C7  BZF d   1       2.615   0.007   0.887  0.00  0.00     0.029 A 
ATOM      9  C7A BZF d   1       1.430   0.388   0.308  0.00  0.00     0.058 A 
ENDROOT
TORSDOF 0
ENDMDL
