MODEL 1
REMARK minimizedAffinity -4.10628462
REMARK minimizedRMSD -1
REMARK  0 active torsions:
REMARK  status: ('A' for Active; 'I' for Inactive)
ROOT
ATOM      1  O1  BZF d   1       0.290   1.058  -0.673  0.00  0.00    -0.204 OA
ATOM      2  C2  BZF d   1      -1.043   1.128  -0.317  0.00  0.00     0.174 A 
ATOM      3  C3  BZF d   1      -1.421   0.014   0.342  0.00  0.00    -0.012 A 
ATOM      4  C3A BZF d   1      -0.229  -0.764   0.481  0.00  0.00    -0.107 A 
ATOM      5  C4  BZF d   1       0.043  -1.970   1.061  0.00  0.00     0.055 A 
ATOM      6  C5  BZF d   1       1.297  -2.484   0.960  0.00  0.00    -0.016 A 
ATOM      7  C6  BZF d   1       2.300  -1.822   0.283  0.00  0.00     0.022 A 
ATOM      8  C7  BZF d   1       2.080  -0.621  -0.304  0.00  0.00     0.029 A 
ATOM      9  C7A BZF d   1       0.823  -0.083  -0.176  0.00  0.00     0.058 A 
ENDROOT
TORSDOF 0
ENDMDL
