MODEL 1
REMARK minimizedAffinity -6.1419158
REMARK minimizedRMSD -1
REMARK  0 active torsions:
REMARK  status: ('A' for Active; 'I' for Inactive)
ROOT
ATOM      1  O1  BZF d   1      -0.403   0.243   0.597  0.00  0.00    -0.204 OA
ATOM      2  C2  BZF d   1       0.355   1.018  -0.260  0.00  0.00     0.174 A 
ATOM      3  C3  BZF d   1       1.618   0.552  -0.335  0.00  0.00    -0.012 A 
ATOM      4  C3A BZF d   1       1.628  -0.639   0.457  0.00  0.00    -0.107 A 
ATOM      5  C4  BZF d   1       2.591  -1.559   0.758  0.00  0.00     0.055 A 
ATOM      6  C5  BZF d   1       2.296  -2.567   1.621  0.00  0.00    -0.016 A 
ATOM      7  C6  BZF d   1       1.051  -2.683   2.204  0.00  0.00     0.022 A 
ATOM      8  C7  BZF d   1       0.061  -1.797   1.932  0.00  0.00     0.029 A 
ATOM      9  C7A BZF d   1       0.347  -0.797   1.035  0.00  0.00     0.058 A 
ENDROOT
TORSDOF 0
ENDMDL
