MODEL 1
REMARK minimizedAffinity -5.35118151
REMARK minimizedRMSD -1
REMARK  0 active torsions:
REMARK  status: ('A' for Active; 'I' for Inactive)
ROOT
ATOM      1  O1  BZF d   1       0.718   0.487  -0.950  0.00  0.00    -0.204 OA
ATOM      2  C2  BZF d   1      -0.429   1.111  -0.498  0.00  0.00     0.174 A 
ATOM      3  C3  BZF d   1      -0.811   0.606   0.692  0.00  0.00    -0.012 A 
ATOM      4  C3A BZF d   1       0.208  -0.334   1.048  0.00  0.00    -0.107 A 
ATOM      5  C4  BZF d   1       0.400  -1.147   2.128  0.00  0.00     0.055 A 
ATOM      6  C5  BZF d   1       1.460  -1.998   2.134  0.00  0.00    -0.016 A 
ATOM      7  C6  BZF d   1       2.343  -2.065   1.076  0.00  0.00     0.022 A 
ATOM      8  C7  BZF d   1       2.197  -1.274  -0.015  0.00  0.00     0.029 A 
ATOM      9  C7A BZF d   1       1.145  -0.390  -0.009  0.00  0.00     0.058 A 
ENDROOT
TORSDOF 0
ENDMDL
