MODEL 1
REMARK minimizedAffinity -1.62432444
REMARK minimizedRMSD -1
REMARK  0 active torsions:
REMARK  status: ('A' for Active; 'I' for Inactive)
ROOT
ATOM      1  O1  BZF d   1       1.484  -1.832   1.593  0.00  0.00    -0.204 OA
ATOM      2  C2  BZF d   1       2.471  -1.895   0.629  0.00  0.00     0.174 A 
ATOM      3  C3  BZF d   1       2.219  -1.027  -0.372  0.00  0.00    -0.012 A 
ATOM      4  C3A BZF d   1       1.047  -0.314   0.035  0.00  0.00    -0.107 A 
ATOM      5  C4  BZF d   1       0.315   0.691  -0.530  0.00  0.00     0.055 A 
ATOM      6  C5  BZF d   1      -0.817   1.113   0.091  0.00  0.00    -0.016 A 
ATOM      7  C6  BZF d   1      -1.250   0.551   1.274  0.00  0.00     0.022 A 
ATOM      8  C7  BZF d   1      -0.555  -0.445   1.875  0.00  0.00     0.029 A 
ATOM      9  C7A BZF d   1       0.608  -0.852   1.267  0.00  0.00     0.058 A 
ENDROOT
TORSDOF 0
ENDMDL
