MODEL 1
REMARK minimizedAffinity -4.67611504
REMARK minimizedRMSD -1
REMARK  0 active torsions:
REMARK  status: ('A' for Active; 'I' for Inactive)
ROOT
ATOM      1  O1  BZF d   1       0.608   1.009  -0.405  0.00  0.00    -0.204 OA
ATOM      2  C2  BZF d   1      -0.737   1.105  -0.106  0.00  0.00     0.174 A 
ATOM      3  C3  BZF d   1      -1.190  -0.044   0.436  0.00  0.00    -0.012 A 
ATOM      4  C3A BZF d   1      -0.036  -0.880   0.563  0.00  0.00    -0.107 A 
ATOM      5  C4  BZF d   1       0.161  -2.142   1.048  0.00  0.00     0.055 A 
ATOM      6  C5  BZF d   1       1.398  -2.697   0.961  0.00  0.00    -0.016 A 
ATOM      7  C6  BZF d   1       2.458  -2.024   0.391  0.00  0.00     0.022 A 
ATOM      8  C7  BZF d   1       2.313  -0.769  -0.100  0.00  0.00     0.029 A 
ATOM      9  C7A BZF d   1       1.072  -0.192   0.017  0.00  0.00     0.058 A 
ENDROOT
TORSDOF 0
ENDMDL
