MODEL 1
REMARK minimizedAffinity 7.86768007
REMARK minimizedRMSD -1
REMARK  0 active torsions:
REMARK  status: ('A' for Active; 'I' for Inactive)
ROOT
ATOM      1  C   UNL d   1      -1.568   3.737   1.855  0.00  0.00     0.172 C 
ATOM      2  N   UNL d   1      -0.319   4.444   1.694  0.00  0.00    -0.070 N 
ATOM      3  C1  UNL d   1      -0.026   5.676   2.217  0.00  0.00    -0.004 A 
ATOM      4  C2  UNL d   1       1.260   5.999   1.839  0.00  0.00    -0.047 A 
ATOM      5  C3  UNL d   1       1.756   4.926   1.062  0.00  0.00    -0.047 A 
ATOM      6  C4  UNL d   1       0.758   3.977   0.988  0.00  0.00    -0.004 A 
ENDROOT
TORSDOF 0
ENDMDL
