MODEL 1
REMARK minimizedAffinity -2.68426585
REMARK minimizedRMSD -1
REMARK  0 active torsions:
REMARK  status: ('A' for Active; 'I' for Inactive)
ROOT
ATOM      1  C   UNL d   1       5.999   6.000  -1.775  0.00  0.00     0.172 C 
ATOM      2  N   UNL d   1       5.426   5.283  -2.890  0.00  0.00    -0.070 N 
ATOM      3  C1  UNL d   1       4.240   5.581  -3.506  0.00  0.00    -0.004 A 
ATOM      4  C2  UNL d   1       4.049   4.666  -4.519  0.00  0.00    -0.047 A 
ATOM      5  C3  UNL d   1       5.158   3.787  -4.510  0.00  0.00    -0.047 A 
ATOM      6  C4  UNL d   1       5.995   4.191  -3.492  0.00  0.00    -0.004 A 
ENDROOT
TORSDOF 0
ENDMDL
