MODEL 1
REMARK minimizedAffinity 2.33897686
REMARK minimizedRMSD -1
REMARK  0 active torsions:
REMARK  status: ('A' for Active; 'I' for Inactive)
ROOT
ATOM      1  C   UNL d   1       2.472   5.432  -3.334  0.00  0.00     0.172 C 
ATOM      2  N   UNL d   1       3.899   5.303  -3.155  0.00  0.00    -0.070 N 
ATOM      3  C1  UNL d   1       4.649   5.961  -2.218  0.00  0.00    -0.004 A 
ATOM      4  C2  UNL d   1       5.960   5.566  -2.373  0.00  0.00    -0.047 A 
ATOM      5  C3  UNL d   1       6.000   4.639  -3.441  0.00  0.00    -0.047 A 
ATOM      6  C4  UNL d   1       4.710   4.494  -3.907  0.00  0.00    -0.004 A 
ENDROOT
TORSDOF 0
ENDMDL
