MODEL 1
REMARK minimizedAffinity -2.38524365
REMARK minimizedRMSD -1
REMARK  0 active torsions:
REMARK  status: ('A' for Active; 'I' for Inactive)
ROOT
ATOM      1  C   UNL d   1       5.997   5.999  -2.137  0.00  0.00     0.172 C 
ATOM      2  N   UNL d   1       5.415   5.076  -3.083  0.00  0.00    -0.070 N 
ATOM      3  C1  UNL d   1       4.220   5.244  -3.731  0.00  0.00    -0.004 A 
ATOM      4  C2  UNL d   1       4.023   4.149  -4.543  0.00  0.00    -0.047 A 
ATOM      5  C3  UNL d   1       5.137   3.292  -4.377  0.00  0.00    -0.047 A 
ATOM      6  C4  UNL d   1       5.983   3.890  -3.467  0.00  0.00    -0.004 A 
ENDROOT
TORSDOF 0
ENDMDL
