MODEL 1
REMARK minimizedAffinity -0.60435921
REMARK minimizedRMSD -1
REMARK  0 active torsions:
REMARK  status: ('A' for Active; 'I' for Inactive)
ROOT
ATOM      1  C   UNL d   1       2.535   5.994  -3.318  0.00  0.00     0.172 C 
ATOM      2  N   UNL d   1       3.909   5.565  -3.200  0.00  0.00    -0.070 N 
ATOM      3  C1  UNL d   1       4.802   5.999  -2.258  0.00  0.00    -0.004 A 
ATOM      4  C2  UNL d   1       6.000   5.355  -2.483  0.00  0.00    -0.047 A 
ATOM      5  C3  UNL d   1       5.820   4.506  -3.601  0.00  0.00    -0.047 A 
ATOM      6  C4  UNL d   1       4.516   4.656  -4.025  0.00  0.00    -0.004 A 
ENDROOT
TORSDOF 0
ENDMDL
