MODEL 1
REMARK minimizedAffinity -2.71039009
REMARK minimizedRMSD -1
REMARK  0 active torsions:
REMARK  status: ('A' for Active; 'I' for Inactive)
ROOT
ATOM      1  C   UNL d   1       5.680  -4.100   4.459  0.00  0.00     0.172 C 
ATOM      2  N   UNL d   1       4.698  -3.086   4.765  0.00  0.00    -0.070 N 
ATOM      3  C1  UNL d   1       3.807  -2.544   3.877  0.00  0.00    -0.004 A 
ATOM      4  C2  UNL d   1       3.047  -1.616   4.555  0.00  0.00    -0.047 A 
ATOM      5  C3  UNL d   1       3.496  -1.599   5.897  0.00  0.00    -0.047 A 
ATOM      6  C4  UNL d   1       4.519  -2.518   5.999  0.00  0.00    -0.004 A 
ENDROOT
TORSDOF 0
ENDMDL
