MODEL 1
REMARK minimizedAffinity 0.375080556
REMARK minimizedRMSD -1
REMARK  0 active torsions:
REMARK  status: ('A' for Active; 'I' for Inactive)
ROOT
ATOM      1  C   UNL d   1       6.000   5.956  -1.528  0.00  0.00     0.172 C 
ATOM      2  N   UNL d   1       5.385   5.098  -2.513  0.00  0.00    -0.070 N 
ATOM      3  C1  UNL d   1       6.000   4.062  -3.164  0.00  0.00    -0.004 A 
ATOM      4  C2  UNL d   1       5.079   3.495  -4.019  0.00  0.00    -0.047 A 
ATOM      5  C3  UNL d   1       3.869   4.216  -3.877  0.00  0.00    -0.047 A 
ATOM      6  C4  UNL d   1       4.087   5.202  -2.938  0.00  0.00    -0.004 A 
ENDROOT
TORSDOF 0
ENDMDL
