MODEL 1
REMARK minimizedAffinity -3.35694814
REMARK minimizedRMSD -1
REMARK  0 active torsions:
REMARK  status: ('A' for Active; 'I' for Inactive)
ROOT
ATOM      1  C   UNL d   1       5.998   5.999  -2.127  0.00  0.00     0.172 C 
ATOM      2  N   UNL d   1       5.358   5.108  -3.066  0.00  0.00    -0.070 N 
ATOM      3  C1  UNL d   1       4.027   5.110  -3.388  0.00  0.00    -0.004 A 
ATOM      4  C2  UNL d   1       3.815   4.113  -4.316  0.00  0.00    -0.047 A 
ATOM      5  C3  UNL d   1       5.062   3.490  -4.559  0.00  0.00    -0.047 A 
ATOM      6  C4  UNL d   1       6.000   4.126  -3.772  0.00  0.00    -0.004 A 
ENDROOT
TORSDOF 0
ENDMDL
