MODEL 1
REMARK minimizedAffinity -1.76681697
REMARK minimizedRMSD -1
REMARK  0 active torsions:
REMARK  status: ('A' for Active; 'I' for Inactive)
ROOT
ATOM      1  C   UNL d   1       5.996   5.999  -2.099  0.00  0.00     0.172 C 
ATOM      2  N   UNL d   1       5.483   5.281  -3.241  0.00  0.00    -0.070 N 
ATOM      3  C1  UNL d   1       5.999   4.120  -3.753  0.00  0.00    -0.004 A 
ATOM      4  C2  UNL d   1       5.229   3.757  -4.836  0.00  0.00    -0.047 A 
ATOM      5  C3  UNL d   1       4.214   4.733  -4.981  0.00  0.00    -0.047 A 
ATOM      6  C4  UNL d   1       4.395   5.664  -3.980  0.00  0.00    -0.004 A 
ENDROOT
TORSDOF 0
ENDMDL
