MODEL 1
REMARK minimizedAffinity -0.990129888
REMARK minimizedRMSD -1
REMARK  0 active torsions:
REMARK  status: ('A' for Active; 'I' for Inactive)
ROOT
ATOM      1  C   UNL d   1       4.842   3.002  -4.899  0.00  0.00     0.172 C 
ATOM      2  N   UNL d   1       4.862   4.221  -4.125  0.00  0.00    -0.070 N 
ATOM      3  C1  UNL d   1       3.761   4.891  -3.663  0.00  0.00    -0.004 A 
ATOM      4  C2  UNL d   1       4.200   5.999  -2.972  0.00  0.00    -0.047 A 
ATOM      5  C3  UNL d   1       5.615   5.995  -3.021  0.00  0.00    -0.047 A 
ATOM      6  C4  UNL d   1       5.998   4.884  -3.741  0.00  0.00    -0.004 A 
ENDROOT
TORSDOF 0
ENDMDL
