MODEL 1
REMARK minimizedAffinity -2.26934457
REMARK minimizedRMSD -1
REMARK  0 active torsions:
REMARK  status: ('A' for Active; 'I' for Inactive)
ROOT
ATOM      1  C   UNL d   1       4.852  -4.154   4.114  0.00  0.00     0.172 C 
ATOM      2  N   UNL d   1       4.845  -2.922   4.866  0.00  0.00    -0.070 N 
ATOM      3  C1  UNL d   1       5.954  -2.231   5.277  0.00  0.00    -0.004 A 
ATOM      4  C2  UNL d   1       5.525  -1.114   5.962  0.00  0.00    -0.047 A 
ATOM      5  C3  UNL d   1       4.110  -1.135   5.963  0.00  0.00    -0.047 A 
ATOM      6  C4  UNL d   1       3.716  -2.265   5.278  0.00  0.00    -0.004 A 
ENDROOT
TORSDOF 0
ENDMDL
