MODEL 1
REMARK minimizedAffinity -2.07327461
REMARK minimizedRMSD -1
REMARK  0 active torsions:
REMARK  status: ('A' for Active; 'I' for Inactive)
ROOT
ATOM      1  C   UNL d   1       5.624   5.544  -1.856  0.00  0.00     0.172 C 
ATOM      2  N   UNL d   1       5.692   5.155  -3.245  0.00  0.00    -0.070 N 
ATOM      3  C1  UNL d   1       5.463   3.896  -3.733  0.00  0.00    -0.004 A 
ATOM      4  C2  UNL d   1       5.625   3.938  -5.101  0.00  0.00    -0.047 A 
ATOM      5  C3  UNL d   1       5.964   5.268  -5.446  0.00  0.00    -0.047 A 
ATOM      6  C4  UNL d   1       5.998   6.000  -4.278  0.00  0.00    -0.004 A 
ENDROOT
TORSDOF 0
ENDMDL
