MODEL 1
REMARK minimizedAffinity -1.21279085
REMARK minimizedRMSD -1
REMARK  0 active torsions:
REMARK  status: ('A' for Active; 'I' for Inactive)
ROOT
ATOM      1  C   UNL d   1       5.999  -4.134   5.978  0.00  0.00     0.172 C 
ATOM      2  N   UNL d   1       4.951  -3.319   5.410  0.00  0.00    -0.070 N 
ATOM      3  C1  UNL d   1       4.387  -2.219   6.000  0.00  0.00    -0.004 A 
ATOM      4  C2  UNL d   1       3.430  -1.725   5.141  0.00  0.00    -0.047 A 
ATOM      5  C3  UNL d   1       3.417  -2.556   3.996  0.00  0.00    -0.047 A 
ATOM      6  C4  UNL d   1       4.369  -3.535   4.189  0.00  0.00    -0.004 A 
ENDROOT
TORSDOF 0
ENDMDL
