MODEL 1
REMARK minimizedAffinity -2.98318362
REMARK minimizedRMSD -1
REMARK  0 active torsions:
REMARK  status: ('A' for Active; 'I' for Inactive)
ROOT
ATOM      1  C   UNL d   1       5.999  -3.255   5.420  0.00  0.00     0.172 C 
ATOM      2  N   UNL d   1       4.679  -2.862   4.987  0.00  0.00    -0.070 N 
ATOM      3  C1  UNL d   1       4.170  -3.029   3.727  0.00  0.00    -0.004 A 
ATOM      4  C2  UNL d   1       2.887  -2.526   3.720  0.00  0.00    -0.047 A 
ATOM      5  C3  UNL d   1       2.616  -2.039   5.021  0.00  0.00    -0.047 A 
ATOM      6  C4  UNL d   1       3.742  -2.259   5.785  0.00  0.00    -0.004 A 
ENDROOT
TORSDOF 0
ENDMDL
