MODEL 1
REMARK minimizedAffinity -2.42073798
REMARK minimizedRMSD -1
REMARK  0 active torsions:
REMARK  status: ('A' for Active; 'I' for Inactive)
ROOT
ATOM      1  C   UNL d   1       5.717  -4.896   4.481  0.00  0.00     0.172 C 
ATOM      2  N   UNL d   1       5.081  -3.658   4.865  0.00  0.00    -0.070 N 
ATOM      3  C1  UNL d   1       5.350  -2.940   6.000  0.00  0.00    -0.004 A 
ATOM      4  C2  UNL d   1       4.536  -1.828   5.999  0.00  0.00    -0.047 A 
ATOM      5  C3  UNL d   1       3.750  -1.880   4.823  0.00  0.00    -0.047 A 
ATOM      6  C4  UNL d   1       4.107  -3.023   4.140  0.00  0.00    -0.004 A 
ENDROOT
TORSDOF 0
ENDMDL
