MODEL 1
REMARK minimizedAffinity -0.210954517
REMARK minimizedRMSD -1
REMARK  0 active torsions:
REMARK  status: ('A' for Active; 'I' for Inactive)
ROOT
ATOM      1  C   UNL d   1       5.968   2.994  -5.566  0.00  0.00     0.172 C 
ATOM      2  N   UNL d   1       5.384   4.066  -4.793  0.00  0.00    -0.070 N 
ATOM      3  C1  UNL d   1       5.999   5.247  -4.474  0.00  0.00    -0.004 A 
ATOM      4  C2  UNL d   1       5.113   5.997  -3.732  0.00  0.00    -0.047 A 
ATOM      5  C3  UNL d   1       3.924   5.241  -3.601  0.00  0.00    -0.047 A 
ATOM      6  C4  UNL d   1       4.120   4.049  -4.267  0.00  0.00    -0.004 A 
ENDROOT
TORSDOF 0
ENDMDL
