MODEL 1
REMARK minimizedAffinity -1.73929167
REMARK minimizedRMSD -1
REMARK  0 active torsions:
REMARK  status: ('A' for Active; 'I' for Inactive)
ROOT
ATOM      1  C   UNL d   1       3.033  -1.049   5.255  0.00  0.00     0.172 C 
ATOM      2  N   UNL d   1       4.104  -2.015   5.187  0.00  0.00    -0.070 N 
ATOM      3  C1  UNL d   1       4.178  -3.064   4.310  0.00  0.00    -0.004 A 
ATOM      4  C2  UNL d   1       5.348  -3.746   4.566  0.00  0.00    -0.047 A 
ATOM      5  C3  UNL d   1       6.000  -3.084   5.633  0.00  0.00    -0.047 A 
ATOM      6  C4  UNL d   1       5.208  -2.016   5.998  0.00  0.00    -0.004 A 
ENDROOT
TORSDOF 0
ENDMDL
