MODEL 1
REMARK minimizedAffinity 0.160356909
REMARK minimizedRMSD -1
REMARK  0 active torsions:
REMARK  status: ('A' for Active; 'I' for Inactive)
ROOT
ATOM      1  C   UNL d   1       5.972  -3.768   5.955  0.00  0.00     0.172 C 
ATOM      2  N   UNL d   1       4.894  -3.003   5.373  0.00  0.00    -0.070 N 
ATOM      3  C1  UNL d   1       4.370  -3.187   4.122  0.00  0.00    -0.004 A 
ATOM      4  C2  UNL d   1       3.363  -2.263   3.946  0.00  0.00    -0.047 A 
ATOM      5  C3  UNL d   1       3.280  -1.496   5.133  0.00  0.00    -0.047 A 
ATOM      6  C4  UNL d   1       4.239  -1.976   6.000  0.00  0.00    -0.004 A 
ENDROOT
TORSDOF 0
ENDMDL
