MODEL 1
REMARK minimizedAffinity 5.41713667
REMARK minimizedRMSD -1
REMARK  3 active torsions:
REMARK  status: ('A' for Active; 'I' for Inactive)
REMARK    1  A    between atoms: C3'_2  and  C2'_3 
REMARK    2  A    between atoms: C2'_3  and  C1'_4 
REMARK    3  A    between atoms: C1'_4  and  C1_5 
ROOT
ATOM      1  C1  N4B d   1      -4.892  -3.488  -4.906  0.00  0.00    -0.075 A 
ATOM      2  C2  N4B d   1      -4.769  -3.823  -3.540  0.00  0.00     0.002 A 
ATOM      3  C3  N4B d   1      -5.127  -5.075  -3.104  0.00  0.00     0.002 A 
ATOM      4  C4  N4B d   1      -5.627  -5.999  -4.009  0.00  0.00    -0.004 A 
ATOM      5  C5  N4B d   1      -5.719  -5.677  -5.332  0.00  0.00     0.002 A 
ATOM      6  C6  N4B d   1      -5.359  -4.424  -5.784  0.00  0.00     0.002 A 
ENDROOT
BRANCH   1   7
ATOM      7  C1' N4B d   1      -4.595  -2.105  -5.415  0.00  0.00     0.057 C 
BRANCH   7   8
ATOM      8  C2' N4B d   1      -4.356  -1.175  -4.229  0.00  0.00     0.009 C 
BRANCH   8   9
ATOM      9  C3' N4B d   1      -4.475   0.288  -4.621  0.00  0.00     0.004 C 
ATOM     10  C4' N4B d   1      -4.484   1.207  -3.436  0.00  0.00     0.003 C 
ENDBRANCH   8   9
ENDBRANCH   7   8
ENDBRANCH   1   7
TORSDOF 3
ENDMDL
