MODEL 1
REMARK minimizedAffinity 5.36221075
REMARK minimizedRMSD -1
REMARK  3 active torsions:
REMARK  status: ('A' for Active; 'I' for Inactive)
REMARK    1  A    between atoms: C3'_2  and  C2'_3 
REMARK    2  A    between atoms: C2'_3  and  C1'_4 
REMARK    3  A    between atoms: C1'_4  and  C1_5 
ROOT
ATOM      1  C1  N4B d   1       3.245  -3.170   3.754  0.00  0.00    -0.075 A 
ATOM      2  C2  N4B d   1       3.859  -3.275   2.487  0.00  0.00     0.002 A 
ATOM      3  C3  N4B d   1       5.225  -3.386   2.393  0.00  0.00     0.002 A 
ATOM      4  C4  N4B d   1       5.995  -3.374   3.546  0.00  0.00    -0.004 A 
ATOM      5  C5  N4B d   1       5.392  -3.298   4.768  0.00  0.00     0.002 A 
ATOM      6  C6  N4B d   1       4.021  -3.190   4.877  0.00  0.00     0.002 A 
ENDROOT
BRANCH   1   7
ATOM      7  C1' N4B d   1       1.763  -2.961   3.904  0.00  0.00     0.057 C 
BRANCH   7   8
ATOM      8  C2' N4B d   1       1.120  -2.931   2.520  0.00  0.00     0.009 C 
BRANCH   8   9
ATOM      9  C3' N4B d   1       0.838  -1.512   2.055  0.00  0.00     0.004 C 
ATOM     10  C4' N4B d   1       1.781  -1.055   0.982  0.00  0.00     0.003 C 
ENDBRANCH   8   9
ENDBRANCH   7   8
ENDBRANCH   1   7
TORSDOF 3
ENDMDL
