MODEL 1
REMARK minimizedAffinity 2.70466876
REMARK minimizedRMSD -1
REMARK  3 active torsions:
REMARK  status: ('A' for Active; 'I' for Inactive)
REMARK    1  A    between atoms: C3'_2  and  C2'_3 
REMARK    2  A    between atoms: C2'_3  and  C1'_4 
REMARK    3  A    between atoms: C1'_4  and  C1_5 
ROOT
ATOM      1  C1  N4B d   1       1.386  -1.285   2.221  0.00  0.00    -0.075 A 
ATOM      2  C2  N4B d   1       0.743  -2.064   1.234  0.00  0.00     0.002 A 
ATOM      3  C3  N4B d   1       0.324  -3.338   1.531  0.00  0.00     0.002 A 
ATOM      4  C4  N4B d   1       0.554  -3.858   2.796  0.00  0.00    -0.004 A 
ATOM      5  C5  N4B d   1       1.154  -3.090   3.750  0.00  0.00     0.002 A 
ATOM      6  C6  N4B d   1       1.576  -1.807   3.468  0.00  0.00     0.002 A 
ENDROOT
BRANCH   1   7
ATOM      7  C1' N4B d   1       1.938   0.082   1.918  0.00  0.00     0.057 C 
BRANCH   7   8
ATOM      8  C2' N4B d   1       1.642   1.012   3.091  0.00  0.00     0.009 C 
BRANCH   8   9
ATOM      9  C3' N4B d   1       2.440   2.302   3.008  0.00  0.00     0.004 C 
ATOM     10  C4' N4B d   1       3.226   2.418   1.736  0.00  0.00     0.003 C 
ENDBRANCH   8   9
ENDBRANCH   7   8
ENDBRANCH   1   7
TORSDOF 3
ENDMDL
