MODEL 1
REMARK minimizedAffinity -1.16154122
REMARK minimizedRMSD -1
REMARK  0 active torsions:
REMARK  status: ('A' for Active; 'I' for Inactive)
ROOT
ATOM      1  C   UNL d   1      -4.267   3.625   5.112  0.00  0.00     0.172 C 
ATOM      2  N   UNL d   1      -4.613   2.241   4.885  0.00  0.00    -0.070 N 
ATOM      3  C1  UNL d   1      -4.961   1.336   5.852  0.00  0.00    -0.004 A 
ATOM      4  C2  UNL d   1      -5.217   0.133   5.231  0.00  0.00    -0.047 A 
ATOM      5  C3  UNL d   1      -5.015   0.321   3.843  0.00  0.00    -0.047 A 
ATOM      6  C4  UNL d   1      -4.642   1.635   3.657  0.00  0.00    -0.004 A 
ENDROOT
TORSDOF 0
ENDMDL
