MODEL 1
REMARK minimizedAffinity 2.42624283
REMARK minimizedRMSD -1
REMARK  0 active torsions:
REMARK  status: ('A' for Active; 'I' for Inactive)
ROOT
ATOM      1  C   UNL d   1       1.619   1.442  -1.900  0.00  0.00     0.172 C 
ATOM      2  N   UNL d   1       2.087   2.269  -0.812  0.00  0.00    -0.070 N 
ATOM      3  C1  UNL d   1       2.094   3.638  -0.796  0.00  0.00    -0.004 A 
ATOM      4  C2  UNL d   1       2.614   4.044   0.414  0.00  0.00    -0.047 A 
ATOM      5  C3  UNL d   1       2.930   2.878   1.151  0.00  0.00    -0.047 A 
ATOM      6  C4  UNL d   1       2.594   1.793   0.368  0.00  0.00    -0.004 A 
ENDROOT
TORSDOF 0
ENDMDL
