MODEL 1
REMARK minimizedAffinity -3.07302427
REMARK minimizedRMSD -1
REMARK  0 active torsions:
REMARK  status: ('A' for Active; 'I' for Inactive)
ROOT
ATOM      1  C   UNL d   1       4.120  -4.256   5.994  0.00  0.00     0.172 C 
ATOM      2  N   UNL d   1       4.633  -3.010   5.475  0.00  0.00    -0.070 N 
ATOM      3  C1  UNL d   1       4.056  -2.258   4.486  0.00  0.00    -0.004 A 
ATOM      4  C2  UNL d   1       4.849  -1.150   4.281  0.00  0.00    -0.047 A 
ATOM      5  C3  UNL d   1       5.941  -1.239   5.177  0.00  0.00    -0.047 A 
ATOM      6  C4  UNL d   1       5.782  -2.400   5.904  0.00  0.00    -0.004 A 
ENDROOT
TORSDOF 0
ENDMDL
