MODEL 1
REMARK minimizedAffinity -3.05650091
REMARK minimizedRMSD -1
REMARK  0 active torsions:
REMARK  status: ('A' for Active; 'I' for Inactive)
ROOT
ATOM      1  C   UNL d   1      -3.141   5.894   5.462  0.00  0.00     0.172 C 
ATOM      2  N   UNL d   1      -3.411   5.829   4.045  0.00  0.00    -0.070 N 
ATOM      3  C1  UNL d   1      -4.645   5.931   3.461  0.00  0.00    -0.004 A 
ATOM      4  C2  UNL d   1      -4.478   5.820   2.098  0.00  0.00    -0.047 A 
ATOM      5  C3  UNL d   1      -3.096   5.643   1.853  0.00  0.00    -0.047 A 
ATOM      6  C4  UNL d   1      -2.458   5.653   3.076  0.00  0.00    -0.004 A 
ENDROOT
TORSDOF 0
ENDMDL
