MODEL 1
REMARK minimizedAffinity -2.21294451
REMARK minimizedRMSD -1
REMARK  0 active torsions:
REMARK  status: ('A' for Active; 'I' for Inactive)
ROOT
ATOM      1  C   UNL d   1      -3.088   5.994   5.479  0.00  0.00     0.172 C 
ATOM      2  N   UNL d   1      -3.516   5.987   4.100  0.00  0.00    -0.070 N 
ATOM      3  C1  UNL d   1      -4.815   5.965   3.668  0.00  0.00    -0.004 A 
ATOM      4  C2  UNL d   1      -4.802   5.966   2.290  0.00  0.00    -0.047 A 
ATOM      5  C3  UNL d   1      -3.448   5.987   1.880  0.00  0.00    -0.047 A 
ATOM      6  C4  UNL d   1      -2.673   5.999   3.020  0.00  0.00    -0.004 A 
ENDROOT
TORSDOF 0
ENDMDL
