MODEL 1
REMARK minimizedAffinity 1.62824547
REMARK minimizedRMSD -1
REMARK  0 active torsions:
REMARK  status: ('A' for Active; 'I' for Inactive)
ROOT
ATOM      1  C   UNL d   1       1.190  -1.527  -2.013  0.00  0.00     0.172 C 
ATOM      2  N   UNL d   1       1.284  -0.099  -2.208  0.00  0.00    -0.070 N 
ATOM      3  C1  UNL d   1       2.200   0.729  -1.617  0.00  0.00    -0.004 A 
ATOM      4  C2  UNL d   1       1.957   2.012  -2.059  0.00  0.00    -0.047 A 
ATOM      5  C3  UNL d   1       0.856   1.952  -2.946  0.00  0.00    -0.047 A 
ATOM      6  C4  UNL d   1       0.458   0.634  -3.020  0.00  0.00    -0.004 A 
ENDROOT
TORSDOF 0
ENDMDL
