MODEL 1
REMARK minimizedAffinity -2.65429306
REMARK minimizedRMSD -1
REMARK  0 active torsions:
REMARK  status: ('A' for Active; 'I' for Inactive)
ROOT
ATOM      1  C   UNL d   1      -3.017   5.884   5.478  0.00  0.00     0.172 C 
ATOM      2  N   UNL d   1      -3.439   5.841   4.097  0.00  0.00    -0.070 N 
ATOM      3  C1  UNL d   1      -2.624   6.000   3.008  0.00  0.00    -0.004 A 
ATOM      4  C2  UNL d   1      -3.405   5.891   1.878  0.00  0.00    -0.047 A 
ATOM      5  C3  UNL d   1      -4.735   5.659   2.302  0.00  0.00    -0.047 A 
ATOM      6  C4  UNL d   1      -4.727   5.633   3.681  0.00  0.00    -0.004 A 
ENDROOT
TORSDOF 0
ENDMDL
