MODEL 1
REMARK minimizedAffinity -1.76873207
REMARK minimizedRMSD -1
REMARK  0 active torsions:
REMARK  status: ('A' for Active; 'I' for Inactive)
ROOT
ATOM      1  C   UNL d   1      -5.855   5.992   2.950  0.00  0.00     0.172 C 
ATOM      2  N   UNL d   1      -4.499   5.995   3.446  0.00  0.00    -0.070 N 
ATOM      3  C1  UNL d   1      -3.367   5.995   2.676  0.00  0.00    -0.004 A 
ATOM      4  C2  UNL d   1      -2.280   5.999   3.523  0.00  0.00    -0.047 A 
ATOM      5  C3  UNL d   1      -2.776   5.999   4.848  0.00  0.00    -0.047 A 
ATOM      6  C4  UNL d   1      -4.153   5.997   4.772  0.00  0.00    -0.004 A 
ENDROOT
TORSDOF 0
ENDMDL
