MODEL 1
REMARK minimizedAffinity -1.5964334
REMARK minimizedRMSD -1
REMARK  0 active torsions:
REMARK  status: ('A' for Active; 'I' for Inactive)
ROOT
ATOM      1  C   UNL d   1      -3.124   6.000   2.249  0.00  0.00     0.172 C 
ATOM      2  N   UNL d   1      -3.240   5.999   3.688  0.00  0.00    -0.070 N 
ATOM      3  C1  UNL d   1      -2.195   5.999   4.573  0.00  0.00    -0.004 A 
ATOM      4  C2  UNL d   1      -2.720   5.999   5.847  0.00  0.00    -0.047 A 
ATOM      5  C3  UNL d   1      -4.130   5.998   5.723  0.00  0.00    -0.047 A 
ATOM      6  C4  UNL d   1      -4.424   5.998   4.376  0.00  0.00    -0.004 A 
ENDROOT
TORSDOF 0
ENDMDL
