MODEL 1
REMARK minimizedAffinity 2.74231839
REMARK minimizedRMSD -1
REMARK  0 active torsions:
REMARK  status: ('A' for Active; 'I' for Inactive)
ROOT
ATOM      1  C   UNL d   1       0.900   3.124  -4.495  0.00  0.00     0.172 C 
ATOM      2  N   UNL d   1       1.050   2.044  -3.548  0.00  0.00    -0.070 N 
ATOM      3  C1  UNL d   1       0.294   0.903  -3.512  0.00  0.00    -0.004 A 
ATOM      4  C2  UNL d   1       0.748   0.128  -2.467  0.00  0.00    -0.047 A 
ATOM      5  C3  UNL d   1       1.813   0.829  -1.852  0.00  0.00    -0.047 A 
ATOM      6  C4  UNL d   1       1.979   2.011  -2.541  0.00  0.00    -0.004 A 
ENDROOT
TORSDOF 0
ENDMDL
