MODEL 1
REMARK minimizedAffinity 1.27710652
REMARK minimizedRMSD -1
REMARK  0 active torsions:
REMARK  status: ('A' for Active; 'I' for Inactive)
ROOT
ATOM      1  C   UNL d   1      -3.402   5.389   5.867  0.00  0.00     0.172 C 
ATOM      2  N   UNL d   1      -3.799   5.536   4.487  0.00  0.00    -0.070 N 
ATOM      3  C1  UNL d   1      -5.034   5.239   3.975  0.00  0.00    -0.004 A 
ATOM      4  C2  UNL d   1      -5.009   5.517   2.625  0.00  0.00    -0.047 A 
ATOM      5  C3  UNL d   1      -3.714   5.996   2.315  0.00  0.00    -0.047 A 
ATOM      6  C4  UNL d   1      -2.985   5.998   3.486  0.00  0.00    -0.004 A 
ENDROOT
TORSDOF 0
ENDMDL
