MODEL 1
REMARK minimizedAffinity 6.57134581
REMARK minimizedRMSD -1
REMARK  0 active torsions:
REMARK  status: ('A' for Active; 'I' for Inactive)
ROOT
ATOM      1  C   UNL d   1      -2.735   0.020   3.076  0.00  0.00     0.172 C 
ATOM      2  N   UNL d   1      -3.886   0.079   3.946  0.00  0.00    -0.070 N 
ATOM      3  C1  UNL d   1      -3.852   0.132   5.313  0.00  0.00    -0.004 A 
ATOM      4  C2  UNL d   1      -5.152   0.178   5.767  0.00  0.00    -0.047 A 
ATOM      5  C3  UNL d   1      -5.998   0.151   4.633  0.00  0.00    -0.047 A 
ATOM      6  C4  UNL d   1      -5.188   0.090   3.518  0.00  0.00    -0.004 A 
ENDROOT
TORSDOF 0
ENDMDL
