MODEL 1
REMARK minimizedAffinity -0.725061715
REMARK minimizedRMSD -1
REMARK  0 active torsions:
REMARK  status: ('A' for Active; 'I' for Inactive)
ROOT
ATOM      1  C   UNL d   1      -2.992   5.996   5.791  0.00  0.00     0.172 C 
ATOM      2  N   UNL d   1      -3.433   5.858   4.423  0.00  0.00    -0.070 N 
ATOM      3  C1  UNL d   1      -4.709   5.568   4.021  0.00  0.00    -0.004 A 
ATOM      4  C2  UNL d   1      -4.718   5.524   2.644  0.00  0.00    -0.047 A 
ATOM      5  C3  UNL d   1      -3.401   5.795   2.203  0.00  0.00    -0.047 A 
ATOM      6  C4  UNL d   1      -2.626   5.998   3.325  0.00  0.00    -0.004 A 
ENDROOT
TORSDOF 0
ENDMDL
