MODEL 1
REMARK minimizedAffinity -1.86249185
REMARK minimizedRMSD -1
REMARK  0 active torsions:
REMARK  status: ('A' for Active; 'I' for Inactive)
ROOT
ATOM      1  C   UNL d   1      -3.823   5.999   5.775  0.00  0.00     0.172 C 
ATOM      2  N   UNL d   1      -3.605   5.999   4.348  0.00  0.00    -0.070 N 
ATOM      3  C1  UNL d   1      -2.385   5.999   3.726  0.00  0.00    -0.004 A 
ATOM      4  C2  UNL d   1      -2.604   5.998   2.366  0.00  0.00    -0.047 A 
ATOM      5  C3  UNL d   1      -4.005   5.999   2.162  0.00  0.00    -0.047 A 
ATOM      6  C4  UNL d   1      -4.600   6.000   3.406  0.00  0.00    -0.004 A 
ENDROOT
TORSDOF 0
ENDMDL
