MODEL 1
REMARK minimizedAffinity -2.30716729
REMARK minimizedRMSD -1
REMARK  0 active torsions:
REMARK  status: ('A' for Active; 'I' for Inactive)
ROOT
ATOM      1  C   UNL d   1      -4.114   5.999   2.403  0.00  0.00     0.172 C 
ATOM      2  N   UNL d   1      -3.621   5.999   3.760  0.00  0.00    -0.070 N 
ATOM      3  C1  UNL d   1      -2.303   5.998   4.131  0.00  0.00    -0.004 A 
ATOM      4  C2  UNL d   1      -2.252   5.999   5.508  0.00  0.00    -0.047 A 
ATOM      5  C3  UNL d   1      -3.586   6.000   5.982  0.00  0.00    -0.047 A 
ATOM      6  C4  UNL d   1      -4.413   6.000   4.878  0.00  0.00    -0.004 A 
ENDROOT
TORSDOF 0
ENDMDL
