MODEL 1
REMARK minimizedAffinity 1.79752195
REMARK minimizedRMSD -1
REMARK  0 active torsions:
REMARK  status: ('A' for Active; 'I' for Inactive)
ROOT
ATOM      1  C   UNL d   1      -3.235   5.991   5.239  0.00  0.00     0.172 C 
ATOM      2  N   UNL d   1      -3.555   5.992   3.831  0.00  0.00    -0.070 N 
ATOM      3  C1  UNL d   1      -2.646   5.998   2.806  0.00  0.00    -0.004 A 
ATOM      4  C2  UNL d   1      -3.348   5.996   1.620  0.00  0.00    -0.047 A 
ATOM      5  C3  UNL d   1      -4.726   5.989   1.943  0.00  0.00    -0.047 A 
ATOM      6  C4  UNL d   1      -4.825   5.987   3.319  0.00  0.00    -0.004 A 
ENDROOT
TORSDOF 0
ENDMDL
