MODEL 1
REMARK minimizedAffinity -0.975938439
REMARK minimizedRMSD -1
REMARK  0 active torsions:
REMARK  status: ('A' for Active; 'I' for Inactive)
ROOT
ATOM      1  C   UNL d   1      -3.796   5.672   2.451  0.00  0.00     0.172 C 
ATOM      2  N   UNL d   1      -3.782   5.798   3.889  0.00  0.00    -0.070 N 
ATOM      3  C1  UNL d   1      -4.886   5.837   4.698  0.00  0.00    -0.004 A 
ATOM      4  C2  UNL d   1      -4.452   5.962   6.000  0.00  0.00    -0.047 A 
ATOM      5  C3  UNL d   1      -3.038   6.000   5.973  0.00  0.00    -0.047 A 
ATOM      6  C4  UNL d   1      -2.649   5.897   4.654  0.00  0.00    -0.004 A 
ENDROOT
TORSDOF 0
ENDMDL
