MODEL 1
REMARK minimizedAffinity -2.34203315
REMARK minimizedRMSD -1
REMARK  0 active torsions:
REMARK  status: ('A' for Active; 'I' for Inactive)
ROOT
ATOM      1  C   UNL d   1      -5.623   5.975   2.997  0.00  0.00     0.172 C 
ATOM      2  N   UNL d   1      -4.335   5.982   3.648  0.00  0.00    -0.070 N 
ATOM      3  C1  UNL d   1      -3.120   5.973   3.015  0.00  0.00    -0.004 A 
ATOM      4  C2  UNL d   1      -2.140   5.984   3.984  0.00  0.00    -0.047 A 
ATOM      5  C3  UNL d   1      -2.787   6.000   5.242  0.00  0.00    -0.047 A 
ATOM      6  C4  UNL d   1      -4.145   5.998   5.005  0.00  0.00    -0.004 A 
ENDROOT
TORSDOF 0
ENDMDL
