MODEL 1
REMARK minimizedAffinity 4.12765169
REMARK minimizedRMSD -1
REMARK  0 active torsions:
REMARK  status: ('A' for Active; 'I' for Inactive)
ROOT
ATOM      1  C   UNL d   1      -5.430   5.146   1.846  0.00  0.00     0.172 C 
ATOM      2  N   UNL d   1      -4.491   5.337   2.926  0.00  0.00    -0.070 N 
ATOM      3  C1  UNL d   1      -4.746   6.000   4.097  0.00  0.00    -0.004 A 
ATOM      4  C2  UNL d   1      -3.600   5.962   4.862  0.00  0.00    -0.047 A 
ATOM      5  C3  UNL d   1      -2.622   5.252   4.125  0.00  0.00    -0.047 A 
ATOM      6  C4  UNL d   1      -3.201   4.877   2.931  0.00  0.00    -0.004 A 
ENDROOT
TORSDOF 0
ENDMDL
