MODEL 1
REMARK minimizedAffinity 2.09302497
REMARK minimizedRMSD -1
REMARK  0 active torsions:
REMARK  status: ('A' for Active; 'I' for Inactive)
ROOT
ATOM      1  O1  BZF d   1      -0.674  -1.668  -0.558  0.00  0.00    -0.204 OA
ATOM      2  C2  BZF d   1      -1.266  -0.978   0.482  0.00  0.00     0.174 A 
ATOM      3  C3  BZF d   1      -0.453  -0.001   0.932  0.00  0.00    -0.012 A 
ATOM      4  C3A BZF d   1       0.683  -0.026   0.062  0.00  0.00    -0.107 A 
ATOM      5  C4  BZF d   1       1.827   0.716  -0.010  0.00  0.00     0.055 A 
ATOM      6  C5  BZF d   1       2.770   0.388  -0.932  0.00  0.00    -0.016 A 
ATOM      7  C6  BZF d   1       2.604  -0.677  -1.793  0.00  0.00     0.022 A 
ATOM      8  C7  BZF d   1       1.484  -1.440  -1.762  0.00  0.00     0.029 A 
ATOM      9  C7A BZF d   1       0.515  -1.091  -0.853  0.00  0.00     0.058 A 
ENDROOT
TORSDOF 0
ENDMDL
