MODEL 1
REMARK minimizedAffinity -4.75456476
REMARK minimizedRMSD -1
REMARK  0 active torsions:
REMARK  status: ('A' for Active; 'I' for Inactive)
ROOT
ATOM      1  O1  BZF d   1       3.001  -1.256  -0.720  0.00  0.00    -0.204 OA
ATOM      2  C2  BZF d   1       3.489   0.020  -0.927  0.00  0.00     0.174 A 
ATOM      3  C3  BZF d   1       2.491   0.926  -0.888  0.00  0.00    -0.012 A 
ATOM      4  C3A BZF d   1       1.318   0.180  -0.550  0.00  0.00    -0.107 A 
ATOM      5  C4  BZF d   1       0.012   0.524  -0.349  0.00  0.00     0.055 A 
ATOM      6  C5  BZF d   1      -0.899  -0.455  -0.104  0.00  0.00    -0.016 A 
ATOM      7  C6  BZF d   1      -0.539  -1.786  -0.058  0.00  0.00     0.022 A 
ATOM      8  C7  BZF d   1       0.745  -2.176  -0.247  0.00  0.00     0.029 A 
ATOM      9  C7A BZF d   1       1.673  -1.186  -0.462  0.00  0.00     0.058 A 
ENDROOT
TORSDOF 0
ENDMDL
