MODEL 1
REMARK minimizedAffinity -3.23744297
REMARK minimizedRMSD -1
REMARK  0 active torsions:
REMARK  status: ('A' for Active; 'I' for Inactive)
ROOT
ATOM      1  O1  BZF d   1       0.297  -1.830  -0.621  0.00  0.00    -0.204 OA
ATOM      2  C2  BZF d   1       1.465  -2.215  -1.250  0.00  0.00     0.174 A 
ATOM      3  C3  BZF d   1       2.221  -1.140  -1.556  0.00  0.00    -0.012 A 
ATOM      4  C3A BZF d   1       1.521  -0.020  -1.007  0.00  0.00    -0.107 A 
ATOM      5  C4  BZF d   1       1.777   1.321  -0.971  0.00  0.00     0.055 A 
ATOM      6  C5  BZF d   1       0.855   2.155  -0.421  0.00  0.00    -0.016 A 
ATOM      7  C6  BZF d   1      -0.333   1.684   0.096  0.00  0.00     0.022 A 
ATOM      8  C7  BZF d   1      -0.630   0.361   0.088  0.00  0.00     0.029 A 
ATOM      9  C7A BZF d   1       0.314  -0.488  -0.437  0.00  0.00     0.058 A 
ENDROOT
TORSDOF 0
ENDMDL
