MODEL 1
REMARK minimizedAffinity -5.05220604
REMARK minimizedRMSD -1
REMARK  0 active torsions:
REMARK  status: ('A' for Active; 'I' for Inactive)
ROOT
ATOM      1  O1  BZF d   1      -0.291   0.938  -0.223  0.00  0.00    -0.204 OA
ATOM      2  C2  BZF d   1      -1.153  -0.012   0.289  0.00  0.00     0.174 A 
ATOM      3  C3  BZF d   1      -0.588  -1.236   0.260  0.00  0.00    -0.012 A 
ATOM      4  C3A BZF d   1       0.743  -1.025  -0.219  0.00  0.00    -0.107 A 
ATOM      5  C4  BZF d   1       1.800  -1.857  -0.451  0.00  0.00     0.055 A 
ATOM      6  C5  BZF d   1       2.938  -1.345  -0.990  0.00  0.00    -0.016 A 
ATOM      7  C6  BZF d   1       3.051  -0.009  -1.313  0.00  0.00     0.022 A 
ATOM      8  C7  BZF d   1       2.031   0.856  -1.097  0.00  0.00     0.029 A 
ATOM      9  C7A BZF d   1       0.892   0.349  -0.522  0.00  0.00     0.058 A 
ENDROOT
TORSDOF 0
ENDMDL
