MODEL 1
REMARK minimizedAffinity -5.15033484
REMARK minimizedRMSD -1
REMARK  0 active torsions:
REMARK  status: ('A' for Active; 'I' for Inactive)
ROOT
ATOM      1  O1  BZF d   1       2.658  -1.805  -1.753  0.00  0.00    -0.204 OA
ATOM      2  C2  BZF d   1       3.559  -0.812  -2.085  0.00  0.00     0.174 A 
ATOM      3  C3  BZF d   1       3.076   0.403  -1.754  0.00  0.00    -0.012 A 
ATOM      4  C3A BZF d   1       1.832   0.146  -1.095  0.00  0.00    -0.107 A 
ATOM      5  C4  BZF d   1       0.889   0.951  -0.522  0.00  0.00     0.055 A 
ATOM      6  C5  BZF d   1      -0.247   0.391  -0.030  0.00  0.00    -0.016 A 
ATOM      7  C6  BZF d   1      -0.475  -0.968  -0.098  0.00  0.00     0.022 A 
ATOM      8  C7  BZF d   1       0.433  -1.808  -0.653  0.00  0.00     0.029 A 
ATOM      9  C7A BZF d   1       1.597  -1.248  -1.122  0.00  0.00     0.058 A 
ENDROOT
TORSDOF 0
ENDMDL
