MODEL 1
REMARK minimizedAffinity -5.33847952
REMARK minimizedRMSD -1
REMARK  0 active torsions:
REMARK  status: ('A' for Active; 'I' for Inactive)
ROOT
ATOM      1  O1  BZF d   1      -3.297  -0.953   4.602  0.00  0.00    -0.204 OA
ATOM      2  C2  BZF d   1      -3.572  -2.089   3.865  0.00  0.00     0.174 A 
ATOM      3  C3  BZF d   1      -3.167  -1.941   2.587  0.00  0.00    -0.012 A 
ATOM      4  C3A BZF d   1      -2.519  -0.666   2.544  0.00  0.00    -0.107 A 
ATOM      5  C4  BZF d   1      -1.894   0.037   1.553  0.00  0.00     0.055 A 
ATOM      6  C5  BZF d   1      -1.431   1.286   1.820  0.00  0.00    -0.016 A 
ATOM      7  C6  BZF d   1      -1.580   1.865   3.063  0.00  0.00     0.022 A 
ATOM      8  C7  BZF d   1      -2.189   1.205   4.079  0.00  0.00     0.029 A 
ATOM      9  C7A BZF d   1      -2.628  -0.070   3.822  0.00  0.00     0.058 A 
ENDROOT
TORSDOF 0
ENDMDL
