MODEL 1
REMARK minimizedAffinity -1.23860276
REMARK minimizedRMSD -1
REMARK  0 active torsions:
REMARK  status: ('A' for Active; 'I' for Inactive)
ROOT
ATOM      1  O1  BZF d   1       2.665  -2.013  -0.798  0.00  0.00    -0.204 OA
ATOM      2  C2  BZF d   1       3.373  -0.843  -0.996  0.00  0.00     0.174 A 
ATOM      3  C3  BZF d   1       2.583   0.232  -0.804  0.00  0.00    -0.012 A 
ATOM      4  C3A BZF d   1       1.325  -0.297  -0.375  0.00  0.00    -0.107 A 
ATOM      5  C4  BZF d   1       0.139   0.276  -0.014  0.00  0.00     0.055 A 
ATOM      6  C5  BZF d   1      -0.919  -0.524   0.282  0.00  0.00    -0.016 A 
ATOM      7  C6  BZF d   1      -0.827  -1.899   0.224  0.00  0.00     0.022 A 
ATOM      8  C7  BZF d   1       0.330  -2.514  -0.124  0.00  0.00     0.029 A 
ATOM      9  C7A BZF d   1       1.409  -1.708  -0.393  0.00  0.00     0.058 A 
ENDROOT
TORSDOF 0
ENDMDL
