MODEL 1
REMARK minimizedAffinity -4.70043373
REMARK minimizedRMSD -1
REMARK  0 active torsions:
REMARK  status: ('A' for Active; 'I' for Inactive)
ROOT
ATOM      1  O1  BZF d   1       1.902  -1.180   0.462  0.00  0.00    -0.204 OA
ATOM      2  C2  BZF d   1       2.922  -0.924  -0.434  0.00  0.00     0.174 A 
ATOM      3  C3  BZF d   1       2.512  -0.071  -1.395  0.00  0.00    -0.012 A 
ATOM      4  C3A BZF d   1       1.178   0.296  -1.028  0.00  0.00    -0.107 A 
ATOM      5  C4  BZF d   1       0.248   1.129  -1.580  0.00  0.00     0.055 A 
ATOM      6  C5  BZF d   1      -0.985   1.210  -1.015  0.00  0.00    -0.016 A 
ATOM      7  C6  BZF d   1      -1.323   0.469   0.099  0.00  0.00     0.022 A 
ATOM      8  C7  BZF d   1      -0.432  -0.367   0.685  0.00  0.00     0.029 A 
ATOM      9  C7A BZF d   1       0.826  -0.426   0.136  0.00  0.00     0.058 A 
ENDROOT
TORSDOF 0
ENDMDL
