MODEL 1
REMARK minimizedAffinity -5.46894503
REMARK minimizedRMSD -1
REMARK  0 active torsions:
REMARK  status: ('A' for Active; 'I' for Inactive)
ROOT
ATOM      1  O1  BZF d   1       0.234  -0.597  -0.174  0.00  0.00    -0.204 OA
ATOM      2  C2  BZF d   1       0.927  -1.787  -0.068  0.00  0.00     0.174 A 
ATOM      3  C3  BZF d   1       2.042  -1.760  -0.827  0.00  0.00    -0.012 A 
ATOM      4  C3A BZF d   1       2.094  -0.439  -1.373  0.00  0.00    -0.107 A 
ATOM      5  C4  BZF d   1       2.975   0.203  -2.195  0.00  0.00     0.055 A 
ATOM      6  C5  BZF d   1       2.698   1.471  -2.600  0.00  0.00    -0.016 A 
ATOM      7  C6  BZF d   1       1.547   2.123  -2.207  0.00  0.00     0.022 A 
ATOM      8  C7  BZF d   1       0.646   1.529  -1.388  0.00  0.00     0.029 A 
ATOM      9  C7A BZF d   1       0.939   0.260  -0.951  0.00  0.00     0.058 A 
ENDROOT
TORSDOF 0
ENDMDL
