MODEL 1
REMARK minimizedAffinity -4.4263401
REMARK minimizedRMSD -1
REMARK  0 active torsions:
REMARK  status: ('A' for Active; 'I' for Inactive)
ROOT
ATOM      1  O1  BZF d   1      -0.633   0.760  -0.268  0.00  0.00    -0.204 OA
ATOM      2  C2  BZF d   1      -0.939  -0.410   0.401  0.00  0.00     0.174 A 
ATOM      3  C3  BZF d   1       0.033  -1.328   0.227  0.00  0.00    -0.012 A 
ATOM      4  C3A BZF d   1       1.051  -0.662  -0.526  0.00  0.00    -0.107 A 
ATOM      5  C4  BZF d   1       2.273  -1.046  -0.997  0.00  0.00     0.055 A 
ATOM      6  C5  BZF d   1       2.989  -0.179  -1.761  0.00  0.00    -0.016 A 
ATOM      7  C6  BZF d   1       2.511   1.076  -2.075  0.00  0.00     0.022 A 
ATOM      8  C7  BZF d   1       1.306   1.504  -1.626  0.00  0.00     0.029 A 
ATOM      9  C7A BZF d   1       0.595   0.642  -0.827  0.00  0.00     0.058 A 
ENDROOT
TORSDOF 0
ENDMDL
