MODEL 1
REMARK minimizedAffinity -6.22056437
REMARK minimizedRMSD -1
REMARK  0 active torsions:
REMARK  status: ('A' for Active; 'I' for Inactive)
ROOT
ATOM      1  O1  BZF d   1      -0.833   0.946  -0.534  0.00  0.00    -0.204 OA
ATOM      2  C2  BZF d   1      -0.968   0.055   0.513  0.00  0.00     0.174 A 
ATOM      3  C3  BZF d   1       0.128  -0.723   0.623  0.00  0.00    -0.012 A 
ATOM      4  C3A BZF d   1       1.041  -0.229  -0.363  0.00  0.00    -0.107 A 
ATOM      5  C4  BZF d   1       2.308  -0.582  -0.730  0.00  0.00     0.055 A 
ATOM      6  C5  BZF d   1       2.892   0.053  -1.779  0.00  0.00    -0.016 A 
ATOM      7  C6  BZF d   1       2.238   1.040  -2.487  0.00  0.00     0.022 A 
ATOM      8  C7  BZF d   1       0.981   1.428  -2.157  0.00  0.00     0.029 A 
ATOM      9  C7A BZF d   1       0.401   0.811  -1.076  0.00  0.00     0.058 A 
ENDROOT
TORSDOF 0
ENDMDL
