MODEL 1
REMARK minimizedAffinity -5.74147987
REMARK minimizedRMSD -1
REMARK  0 active torsions:
REMARK  status: ('A' for Active; 'I' for Inactive)
ROOT
ATOM      1  O1  BZF d   1       2.076  -0.367  -1.082  0.00  0.00    -0.204 OA
ATOM      2  C2  BZF d   1       2.633   0.599  -1.897  0.00  0.00     0.174 A 
ATOM      3  C3  BZF d   1       1.763   1.608  -2.107  0.00  0.00    -0.012 A 
ATOM      4  C3A BZF d   1       0.623   1.295  -1.301  0.00  0.00    -0.107 A 
ATOM      5  C4  BZF d   1      -0.568   1.925  -1.073  0.00  0.00     0.055 A 
ATOM      6  C5  BZF d   1      -1.497   1.317  -0.289  0.00  0.00    -0.016 A 
ATOM      7  C6  BZF d   1      -1.272   0.080   0.277  0.00  0.00     0.022 A 
ATOM      8  C7  BZF d   1      -0.104  -0.581   0.084  0.00  0.00     0.029 A 
ATOM      9  C7A BZF d   1       0.849   0.045  -0.681  0.00  0.00     0.058 A 
ENDROOT
TORSDOF 0
ENDMDL
