MODEL 1
REMARK minimizedAffinity -3.47802663
REMARK minimizedRMSD -1
REMARK  0 active torsions:
REMARK  status: ('A' for Active; 'I' for Inactive)
ROOT
ATOM      1  O1  BZF d   1      -0.055   0.911  -0.334  0.00  0.00    -0.204 OA
ATOM      2  C2  BZF d   1      -0.901  -0.021   0.235  0.00  0.00     0.174 A 
ATOM      3  C3  BZF d   1      -0.364  -1.257   0.171  0.00  0.00    -0.012 A 
ATOM      4  C3A BZF d   1       0.936  -1.073  -0.397  0.00  0.00    -0.107 A 
ATOM      5  C4  BZF d   1       1.958  -1.927  -0.698  0.00  0.00     0.055 A 
ATOM      6  C5  BZF d   1       3.068  -1.439  -1.312  0.00  0.00    -0.016 A 
ATOM      7  C6  BZF d   1       3.186  -0.105  -1.644  0.00  0.00     0.022 A 
ATOM      8  C7  BZF d   1       2.201   0.781  -1.361  0.00  0.00     0.029 A 
ATOM      9  C7A BZF d   1       1.092   0.297  -0.711  0.00  0.00     0.058 A 
ENDROOT
TORSDOF 0
ENDMDL
