MODEL 1
REMARK minimizedAffinity 3.12054467
REMARK minimizedRMSD -1
REMARK  0 active torsions:
REMARK  status: ('A' for Active; 'I' for Inactive)
ROOT
ATOM      1  O1  BZF d   1      -4.045  -0.939   5.058  0.00  0.00    -0.204 OA
ATOM      2  C2  BZF d   1      -4.237  -2.210   4.551  0.00  0.00     0.174 A 
ATOM      3  C3  BZF d   1      -3.684  -2.325   3.326  0.00  0.00    -0.012 A 
ATOM      4  C3A BZF d   1      -3.031  -1.074   3.089  0.00  0.00    -0.107 A 
ATOM      5  C4  BZF d   1      -2.292  -0.582   2.051  0.00  0.00     0.055 A 
ATOM      6  C5  BZF d   1      -1.859   0.705   2.100  0.00  0.00    -0.016 A 
ATOM      7  C6  BZF d   1      -2.150   1.529   3.167  0.00  0.00     0.022 A 
ATOM      8  C7  BZF d   1      -2.875   1.084   4.223  0.00  0.00     0.029 A 
ATOM      9  C7A BZF d   1      -3.287  -0.226   4.191  0.00  0.00     0.058 A 
ENDROOT
TORSDOF 0
ENDMDL
