MODEL 1
REMARK minimizedAffinity -4.84901667
REMARK minimizedRMSD -1
REMARK  0 active torsions:
REMARK  status: ('A' for Active; 'I' for Inactive)
ROOT
ATOM      1  O1  BZF d   1      -0.175   1.118   0.498  0.00  0.00    -0.204 OA
ATOM      2  C2  BZF d   1      -1.135   0.291   1.049  0.00  0.00     0.174 A 
ATOM      3  C3  BZF d   1      -1.044  -0.954   0.538  0.00  0.00    -0.012 A 
ATOM      4  C3A BZF d   1       0.099  -0.926  -0.322  0.00  0.00    -0.107 A 
ATOM      5  C4  BZF d   1       0.711  -1.865  -1.101  0.00  0.00     0.055 A 
ATOM      6  C5  BZF d   1       1.765  -1.496  -1.876  0.00  0.00    -0.016 A 
ATOM      7  C6  BZF d   1       2.229  -0.197  -1.900  0.00  0.00     0.022 A 
ATOM      8  C7  BZF d   1       1.657   0.769  -1.139  0.00  0.00     0.029 A 
ATOM      9  C7A BZF d   1       0.613   0.392  -0.330  0.00  0.00     0.058 A 
ENDROOT
TORSDOF 0
ENDMDL
