MODEL 1
REMARK minimizedAffinity -4.92965412
REMARK minimizedRMSD -1
REMARK  0 active torsions:
REMARK  status: ('A' for Active; 'I' for Inactive)
ROOT
ATOM      1  O1  BZF d   1       3.057  -1.137  -1.050  0.00  0.00    -0.204 OA
ATOM      2  C2  BZF d   1       3.592  -0.005  -0.467  0.00  0.00     0.174 A 
ATOM      3  C3  BZF d   1       2.623   0.750   0.089  0.00  0.00    -0.012 A 
ATOM      4  C3A BZF d   1       1.416   0.000  -0.082  0.00  0.00    -0.107 A 
ATOM      5  C4  BZF d   1       0.116   0.219   0.275  0.00  0.00     0.055 A 
ATOM      6  C5  BZF d   1      -0.832  -0.676  -0.106  0.00  0.00    -0.016 A 
ATOM      7  C6  BZF d   1      -0.518  -1.796  -0.847  0.00  0.00     0.022 A 
ATOM      8  C7  BZF d   1       0.758  -2.058  -1.220  0.00  0.00     0.029 A 
ATOM      9  C7A BZF d   1       1.724  -1.173  -0.809  0.00  0.00     0.058 A 
ENDROOT
TORSDOF 0
ENDMDL
