MODEL 1
REMARK minimizedAffinity 4.60262728
REMARK minimizedRMSD -1
REMARK  0 active torsions:
REMARK  status: ('A' for Active; 'I' for Inactive)
ROOT
ATOM      1  C2' OXE d   1       4.780  -2.400  -1.911  0.00  0.00     0.078 C 
ATOM      2  C1' OXE d   1       4.948  -4.734  -3.462  0.00  0.00     0.078 C 
ATOM      3  C1  OXE d   1       3.941  -4.706  -2.339  0.00  0.00    -0.078 A 
ATOM      4  C2  OXE d   1       3.898  -3.578  -1.556  0.00  0.00    -0.078 A 
ATOM      5  C3  OXE d   1       2.950  -3.478  -0.542  0.00  0.00     0.003 A 
ATOM      6  C4  OXE d   1       2.145  -4.576  -0.214  0.00  0.00    -0.002 A 
ATOM      7  C5  OXE d   1       2.201  -5.749  -0.974  0.00  0.00    -0.002 A 
ATOM      8  C6  OXE d   1       3.061  -5.815  -2.064  0.00  0.00     0.003 A 
ENDROOT
TORSDOF 0
ENDMDL
