MODEL 1
REMARK minimizedAffinity 6.85363674
REMARK minimizedRMSD -1
REMARK  0 active torsions:
REMARK  status: ('A' for Active; 'I' for Inactive)
ROOT
ATOM      1  C2' OXE d   1      -0.620   2.467  -0.728  0.00  0.00     0.078 C 
ATOM      2  C1' OXE d   1       0.539   4.975  -0.230  0.00  0.00     0.078 C 
ATOM      3  C1  OXE d   1       0.519   3.973   0.897  0.00  0.00    -0.078 A 
ATOM      4  C2  OXE d   1      -0.092   2.765   0.659  0.00  0.00    -0.078 A 
ATOM      5  C3  OXE d   1      -0.089   1.785   1.647  0.00  0.00     0.003 A 
ATOM      6  C4  OXE d   1       0.392   2.073   2.930  0.00  0.00    -0.002 A 
ATOM      7  C5  OXE d   1       0.982   3.311   3.205  0.00  0.00    -0.002 A 
ATOM      8  C6  OXE d   1       1.092   4.254   2.190  0.00  0.00     0.003 A 
ENDROOT
TORSDOF 0
ENDMDL
