MODEL 1
REMARK minimizedAffinity 7.07905579
REMARK minimizedRMSD -1
REMARK  0 active torsions:
REMARK  status: ('A' for Active; 'I' for Inactive)
ROOT
ATOM      1  C2' OXE d   1      -3.341   0.713  -1.073  0.00  0.00     0.078 C 
ATOM      2  C1' OXE d   1      -0.817   1.925  -0.871  0.00  0.00     0.078 C 
ATOM      3  C1  OXE d   1      -0.870   0.473  -1.278  0.00  0.00    -0.078 A 
ATOM      4  C2  OXE d   1      -2.107  -0.124  -1.329  0.00  0.00    -0.078 A 
ATOM      5  C3  OXE d   1      -2.217  -1.446  -1.751  0.00  0.00     0.003 A 
ATOM      6  C4  OXE d   1      -1.069  -2.216  -1.976  0.00  0.00    -0.002 A 
ATOM      7  C5  OXE d   1       0.202  -1.638  -1.891  0.00  0.00    -0.002 A 
ATOM      8  C6  OXE d   1       0.316  -0.286  -1.585  0.00  0.00     0.003 A 
ENDROOT
TORSDOF 0
ENDMDL
