MODEL 1
REMARK minimizedAffinity 5.7934165
REMARK minimizedRMSD -1
REMARK  0 active torsions:
REMARK  status: ('A' for Active; 'I' for Inactive)
ROOT
ATOM      1  C2' OXE d   1      -0.158   1.153  -0.718  0.00  0.00     0.078 C 
ATOM      2  C1' OXE d   1      -0.222   2.215   1.880  0.00  0.00     0.078 C 
ATOM      3  C1  OXE d   1      -0.450   3.161   0.727  0.00  0.00    -0.078 A 
ATOM      4  C2  OXE d   1      -0.370   2.641  -0.543  0.00  0.00    -0.078 A 
ATOM      5  C3  OXE d   1      -0.626   3.458  -1.640  0.00  0.00     0.003 A 
ATOM      6  C4  OXE d   1      -0.811   4.836  -1.469  0.00  0.00    -0.002 A 
ATOM      7  C5  OXE d   1      -0.857   5.393  -0.187  0.00  0.00    -0.002 A 
ATOM      8  C6  OXE d   1      -0.720   4.564   0.921  0.00  0.00     0.003 A 
ENDROOT
TORSDOF 0
ENDMDL
