MODEL 1
REMARK minimizedAffinity 10.2715921
REMARK minimizedRMSD -1
REMARK  0 active torsions:
REMARK  status: ('A' for Active; 'I' for Inactive)
ROOT
ATOM      1  C2' OXE d   1      -3.385   1.258   0.132  0.00  0.00     0.078 C 
ATOM      2  C1' OXE d   1      -0.750   2.209  -0.054  0.00  0.00     0.078 C 
ATOM      3  C1  OXE d   1      -1.069   0.888  -0.708  0.00  0.00    -0.078 A 
ATOM      4  C2  OXE d   1      -2.349   0.408  -0.572  0.00  0.00    -0.078 A 
ATOM      5  C3  OXE d   1      -2.710  -0.780  -1.202  0.00  0.00     0.003 A 
ATOM      6  C4  OXE d   1      -1.744  -1.565  -1.843  0.00  0.00    -0.002 A 
ATOM      7  C5  OXE d   1      -0.425  -1.113  -1.958  0.00  0.00    -0.002 A 
ATOM      8  C6  OXE d   1      -0.081   0.128  -1.434  0.00  0.00     0.003 A 
ENDROOT
TORSDOF 0
ENDMDL
