MODEL 1
REMARK minimizedAffinity 4.98975849
REMARK minimizedRMSD -1
REMARK  0 active torsions:
REMARK  status: ('A' for Active; 'I' for Inactive)
ROOT
ATOM      1  C2' OXE d   1       2.817  -4.735  -2.397  0.00  0.00     0.078 C 
ATOM      2  C1' OXE d   1       4.810  -3.905  -4.191  0.00  0.00     0.078 C 
ATOM      3  C1  OXE d   1       4.753  -3.232  -2.842  0.00  0.00    -0.078 A 
ATOM      4  C2  OXE d   1       3.745  -3.612  -1.988  0.00  0.00    -0.078 A 
ATOM      5  C3  OXE d   1       3.680  -3.062  -0.711  0.00  0.00     0.003 A 
ATOM      6  C4  OXE d   1       4.536  -2.016  -0.345  0.00  0.00    -0.002 A 
ATOM      7  C5  OXE d   1       5.544  -1.586  -1.215  0.00  0.00    -0.002 A 
ATOM      8  C6  OXE d   1       5.693  -2.211  -2.448  0.00  0.00     0.003 A 
ENDROOT
TORSDOF 0
ENDMDL
