MODEL 1
REMARK minimizedAffinity 6.99911642
REMARK minimizedRMSD -1
REMARK  0 active torsions:
REMARK  status: ('A' for Active; 'I' for Inactive)
ROOT
ATOM      1  C2' OXE d   1       1.573   3.463   3.378  0.00  0.00     0.078 C 
ATOM      2  C1' OXE d   1       0.023   1.165   2.934  0.00  0.00     0.078 C 
ATOM      3  C1  OXE d   1       0.017   2.235   1.870  0.00  0.00    -0.078 A 
ATOM      4  C2  OXE d   1       0.741   3.376   2.117  0.00  0.00    -0.078 A 
ATOM      5  C3  OXE d   1       0.813   4.370   1.146  0.00  0.00     0.003 A 
ATOM      6  C4  OXE d   1       0.032   4.287  -0.013  0.00  0.00    -0.002 A 
ATOM      7  C5  OXE d   1      -0.744   3.151  -0.266  0.00  0.00    -0.002 A 
ATOM      8  C6  OXE d   1      -0.729   2.099   0.644  0.00  0.00     0.003 A 
ENDROOT
TORSDOF 0
ENDMDL
