MODEL 1
REMARK minimizedAffinity 3.36976457
REMARK minimizedRMSD -1
REMARK  0 active torsions:
REMARK  status: ('A' for Active; 'I' for Inactive)
ROOT
ATOM      1  C2' OXE d   1      -3.726   1.205  -0.359  0.00  0.00     0.078 C 
ATOM      2  C1' OXE d   1      -1.140   2.285  -0.531  0.00  0.00     0.078 C 
ATOM      3  C1  OXE d   1      -1.313   0.820  -0.844  0.00  0.00    -0.078 A 
ATOM      4  C2  OXE d   1      -2.573   0.289  -0.712  0.00  0.00    -0.078 A 
ATOM      5  C3  OXE d   1      -2.798  -1.044  -1.041  0.00  0.00     0.003 A 
ATOM      6  C4  OXE d   1      -1.725  -1.887  -1.356  0.00  0.00    -0.002 A 
ATOM      7  C5  OXE d   1      -0.427  -1.376  -1.457  0.00  0.00    -0.002 A 
ATOM      8  C6  OXE d   1      -0.211  -0.019  -1.246  0.00  0.00     0.003 A 
ENDROOT
TORSDOF 0
ENDMDL
