MODEL 1
REMARK minimizedAffinity 12.8039913
REMARK minimizedRMSD -1
REMARK  0 active torsions:
REMARK  status: ('A' for Active; 'I' for Inactive)
ROOT
ATOM      1  C1  BNZ d   1       2.662  -2.140  -1.524  0.00  0.00     0.000 A 
ATOM      2  C2  BNZ d   1       2.634  -0.808  -1.844  0.00  0.00     0.000 A 
ATOM      3  C3  BNZ d   1       1.471  -0.095  -1.765  0.00  0.00     0.000 A 
ATOM      4  C4  BNZ d   1       0.331  -0.721  -1.405  0.00  0.00     0.000 A 
ATOM      5  C5  BNZ d   1       0.342  -2.064  -1.089  0.00  0.00     0.000 A 
ATOM      6  C6  BNZ d   1       1.522  -2.771  -1.132  0.00  0.00     0.000 A 
ENDROOT
TORSDOF 0
ENDMDL
