MODEL 1
REMARK minimizedAffinity 6.43096113
REMARK minimizedRMSD -1
REMARK  0 active torsions:
REMARK  status: ('A' for Active; 'I' for Inactive)
ROOT
ATOM      1  C1  BNZ d   1       1.354  -0.289  -0.581  0.00  0.00     0.000 A 
ATOM      2  C2  BNZ d   1       1.225  -1.562  -0.092  0.00  0.00     0.000 A 
ATOM      3  C3  BNZ d   1       1.606  -2.641  -0.840  0.00  0.00     0.000 A 
ATOM      4  C4  BNZ d   1       2.077  -2.448  -2.089  0.00  0.00     0.000 A 
ATOM      5  C5  BNZ d   1       2.203  -1.172  -2.600  0.00  0.00     0.000 A 
ATOM      6  C6  BNZ d   1       1.856  -0.086  -1.829  0.00  0.00     0.000 A 
ENDROOT
TORSDOF 0
ENDMDL
