MODEL 1
REMARK minimizedAffinity 6.2215457
REMARK minimizedRMSD -1
REMARK  0 active torsions:
REMARK  status: ('A' for Active; 'I' for Inactive)
ROOT
ATOM      1  C1  BNZ d   1      -4.148   1.079   4.089  0.00  0.00     0.000 A 
ATOM      2  C2  BNZ d   1      -5.279   1.851   4.108  0.00  0.00     0.000 A 
ATOM      3  C3  BNZ d   1      -5.446   2.824   5.053  0.00  0.00     0.000 A 
ATOM      4  C4  BNZ d   1      -4.502   2.998   6.000  0.00  0.00     0.000 A 
ATOM      5  C5  BNZ d   1      -3.360   2.222   6.000  0.00  0.00     0.000 A 
ATOM      6  C6  BNZ d   1      -3.178   1.269   5.024  0.00  0.00     0.000 A 
ENDROOT
TORSDOF 0
ENDMDL
