MODEL 1
REMARK minimizedAffinity -0.709052682
REMARK minimizedRMSD -1
REMARK  0 active torsions:
REMARK  status: ('A' for Active; 'I' for Inactive)
ROOT
ATOM      1  C1  BNZ d   1      -1.867  -5.665  -4.899  0.00  0.00     0.000 A 
ATOM      2  C2  BNZ d   1      -2.590  -5.287  -6.000  0.00  0.00     0.000 A 
ATOM      3  C3  BNZ d   1      -3.314  -4.128  -5.997  0.00  0.00     0.000 A 
ATOM      4  C4  BNZ d   1      -3.348  -3.369  -4.882  0.00  0.00     0.000 A 
ATOM      5  C5  BNZ d   1      -2.633  -3.742  -3.762  0.00  0.00     0.000 A 
ATOM      6  C6  BNZ d   1      -1.874  -4.889  -3.781  0.00  0.00     0.000 A 
ENDROOT
TORSDOF 0
ENDMDL
