MODEL 1
REMARK minimizedAffinity 2.06940746
REMARK minimizedRMSD -1
REMARK  0 active torsions:
REMARK  status: ('A' for Active; 'I' for Inactive)
ROOT
ATOM      1  C1  BNZ d   1      -2.663   3.008  -3.644  0.00  0.00     0.000 A 
ATOM      2  C2  BNZ d   1      -2.983   3.634  -4.820  0.00  0.00     0.000 A 
ATOM      3  C3  BNZ d   1      -2.420   3.237  -6.000  0.00  0.00     0.000 A 
ATOM      4  C4  BNZ d   1      -1.509   2.242  -5.998  0.00  0.00     0.000 A 
ATOM      5  C5  BNZ d   1      -1.169   1.607  -4.820  0.00  0.00     0.000 A 
ATOM      6  C6  BNZ d   1      -1.767   1.984  -3.640  0.00  0.00     0.000 A 
ENDROOT
TORSDOF 0
ENDMDL
