MODEL 1
REMARK minimizedAffinity -0.979151011
REMARK minimizedRMSD -1
REMARK  0 active torsions:
REMARK  status: ('A' for Active; 'I' for Inactive)
ROOT
ATOM      1  C1  BNZ d   1      -2.292  -3.717  -3.594  0.00  0.00     0.000 A 
ATOM      2  C2  BNZ d   1      -3.073  -2.910  -4.377  0.00  0.00     0.000 A 
ATOM      3  C3  BNZ d   1      -3.564  -3.358  -5.572  0.00  0.00     0.000 A 
ATOM      4  C4  BNZ d   1      -3.241  -4.595  -6.000  0.00  0.00     0.000 A 
ATOM      5  C5  BNZ d   1      -2.447  -5.417  -5.226  0.00  0.00     0.000 A 
ATOM      6  C6  BNZ d   1      -1.986  -4.978  -4.006  0.00  0.00     0.000 A 
ENDROOT
TORSDOF 0
ENDMDL
