MODEL 1
REMARK minimizedAffinity -3.12151265
REMARK minimizedRMSD -1
REMARK  0 active torsions:
REMARK  status: ('A' for Active; 'I' for Inactive)
ROOT
ATOM      1  C1  BNZ d   1      -2.259  -3.403  -4.502  0.00  0.00     0.000 A 
ATOM      2  C2  BNZ d   1      -1.346  -4.193  -3.855  0.00  0.00     0.000 A 
ATOM      3  C3  BNZ d   1      -1.140  -5.486  -4.246  0.00  0.00     0.000 A 
ATOM      4  C4  BNZ d   1      -1.873  -6.000  -5.254  0.00  0.00     0.000 A 
ATOM      5  C5  BNZ d   1      -2.804  -5.219  -5.909  0.00  0.00     0.000 A 
ATOM      6  C6  BNZ d   1      -2.982  -3.905  -5.539  0.00  0.00     0.000 A 
ENDROOT
TORSDOF 0
ENDMDL
