MODEL 1
REMARK minimizedAffinity 3.06624246
REMARK minimizedRMSD -1
REMARK  0 active torsions:
REMARK  status: ('A' for Active; 'I' for Inactive)
ROOT
ATOM      1  C1  BNZ d   1      -3.019  -4.934  -6.000  0.00  0.00     0.000 A 
ATOM      2  C2  BNZ d   1      -3.758  -3.781  -5.999  0.00  0.00     0.000 A 
ATOM      3  C3  BNZ d   1      -3.695  -2.910  -4.948  0.00  0.00     0.000 A 
ATOM      4  C4  BNZ d   1      -2.925  -3.211  -3.882  0.00  0.00     0.000 A 
ATOM      5  C5  BNZ d   1      -2.181  -4.374  -3.864  0.00  0.00     0.000 A 
ATOM      6  C6  BNZ d   1      -2.217  -5.229  -4.941  0.00  0.00     0.000 A 
ENDROOT
TORSDOF 0
ENDMDL
