MODEL 1
REMARK minimizedAffinity 4.93415689
REMARK minimizedRMSD -1
REMARK  0 active torsions:
REMARK  status: ('A' for Active; 'I' for Inactive)
ROOT
ATOM      1  C1  BNZ d   1       3.519   1.426  -1.286  0.00  0.00     0.000 A 
ATOM      2  C2  BNZ d   1       2.582   0.499  -1.656  0.00  0.00     0.000 A 
ATOM      3  C3  BNZ d   1       2.646  -0.785  -1.192  0.00  0.00     0.000 A 
ATOM      4  C4  BNZ d   1       3.668  -1.150  -0.391  0.00  0.00     0.000 A 
ATOM      5  C5  BNZ d   1       4.626  -0.229  -0.016  0.00  0.00     0.000 A 
ATOM      6  C6  BNZ d   1       4.537   1.072  -0.454  0.00  0.00     0.000 A 
ENDROOT
TORSDOF 0
ENDMDL
