MODEL 1
REMARK minimizedAffinity 4.95630503
REMARK minimizedRMSD -1
REMARK  0 active torsions:
REMARK  status: ('A' for Active; 'I' for Inactive)
ROOT
ATOM      1  C1  BNZ d   1      -3.870  -5.005  -5.999  0.00  0.00     0.000 A 
ATOM      2  C2  BNZ d   1      -4.545  -3.813  -6.000  0.00  0.00     0.000 A 
ATOM      3  C3  BNZ d   1      -4.128  -2.772  -5.218  0.00  0.00     0.000 A 
ATOM      4  C4  BNZ d   1      -3.063  -2.937  -4.407  0.00  0.00     0.000 A 
ATOM      5  C5  BNZ d   1      -2.378  -4.136  -4.388  0.00  0.00     0.000 A 
ATOM      6  C6  BNZ d   1      -2.777  -5.168  -5.206  0.00  0.00     0.000 A 
ENDROOT
TORSDOF 0
ENDMDL
