MODEL 1
REMARK minimizedAffinity -0.92901051
REMARK minimizedRMSD -1
REMARK  0 active torsions:
REMARK  status: ('A' for Active; 'I' for Inactive)
ROOT
ATOM      1  C1  BNZ d   1      -1.588  -4.112  -4.833  0.00  0.00     0.000 A 
ATOM      2  C2  BNZ d   1      -2.196  -4.495  -5.999  0.00  0.00     0.000 A 
ATOM      3  C3  BNZ d   1      -3.200  -5.423  -5.993  0.00  0.00     0.000 A 
ATOM      4  C4  BNZ d   1      -3.567  -5.995  -4.829  0.00  0.00     0.000 A 
ATOM      5  C5  BNZ d   1      -2.958  -5.627  -3.646  0.00  0.00     0.000 A 
ATOM      6  C6  BNZ d   1      -1.975  -4.664  -3.650  0.00  0.00     0.000 A 
ENDROOT
TORSDOF 0
ENDMDL
