MODEL 1
REMARK minimizedAffinity 3.56097913
REMARK minimizedRMSD -1
REMARK  0 active torsions:
REMARK  status: ('A' for Active; 'I' for Inactive)
ROOT
ATOM      1  C1  BNZ d   1      -1.536  -5.133  -3.879  0.00  0.00     0.000 A 
ATOM      2  C2  BNZ d   1      -1.588  -5.998  -4.939  0.00  0.00     0.000 A 
ATOM      3  C3  BNZ d   1      -2.417  -5.755  -6.000  0.00  0.00     0.000 A 
ATOM      4  C4  BNZ d   1      -3.219  -4.671  -5.980  0.00  0.00     0.000 A 
ATOM      5  C5  BNZ d   1      -3.184  -3.795  -4.913  0.00  0.00     0.000 A 
ATOM      6  C6  BNZ d   1      -2.321  -4.022  -3.866  0.00  0.00     0.000 A 
ENDROOT
TORSDOF 0
ENDMDL
