MODEL 1
REMARK minimizedAffinity -0.548376977
REMARK minimizedRMSD -1
REMARK  0 active torsions:
REMARK  status: ('A' for Active; 'I' for Inactive)
ROOT
ATOM      1  C1  BNZ d   1      -2.986  -3.473  -3.758  0.00  0.00     0.000 A 
ATOM      2  C2  BNZ d   1      -3.410  -3.371  -5.055  0.00  0.00     0.000 A 
ATOM      3  C3  BNZ d   1      -3.006  -4.275  -5.997  0.00  0.00     0.000 A 
ATOM      4  C4  BNZ d   1      -2.146  -5.255  -5.650  0.00  0.00     0.000 A 
ATOM      5  C5  BNZ d   1      -1.702  -5.365  -4.348  0.00  0.00     0.000 A 
ATOM      6  C6  BNZ d   1      -2.142  -4.477  -3.394  0.00  0.00     0.000 A 
ENDROOT
TORSDOF 0
ENDMDL
