MODEL 1
REMARK minimizedAffinity -2.4536016
REMARK minimizedRMSD -1
REMARK  0 active torsions:
REMARK  status: ('A' for Active; 'I' for Inactive)
ROOT
ATOM      1  C1  BNZ d   1      -3.325  -2.986  -5.341  0.00  0.00     0.000 A 
ATOM      2  C2  BNZ d   1      -2.103  -3.003  -4.724  0.00  0.00     0.000 A 
ATOM      3  C3  BNZ d   1      -1.316  -4.121  -4.762  0.00  0.00     0.000 A 
ATOM      4  C4  BNZ d   1      -1.769  -5.230  -5.380  0.00  0.00     0.000 A 
ATOM      5  C5  BNZ d   1      -3.003  -5.231  -5.999  0.00  0.00     0.000 A 
ATOM      6  C6  BNZ d   1      -3.776  -4.092  -5.993  0.00  0.00     0.000 A 
ENDROOT
TORSDOF 0
ENDMDL
