MODEL 1
REMARK minimizedAffinity 0.888215542
REMARK minimizedRMSD -1
REMARK  0 active torsions:
REMARK  status: ('A' for Active; 'I' for Inactive)
ROOT
ATOM      1  C1  BNZ d   1      -3.409  -2.982  -4.870  0.00  0.00     0.000 A 
ATOM      2  C2  BNZ d   1      -2.725  -3.377  -3.751  0.00  0.00     0.000 A 
ATOM      3  C3  BNZ d   1      -1.995  -4.532  -3.748  0.00  0.00     0.000 A 
ATOM      4  C4  BNZ d   1      -1.983  -5.312  -4.849  0.00  0.00     0.000 A 
ATOM      5  C5  BNZ d   1      -2.676  -4.932  -5.982  0.00  0.00     0.000 A 
ATOM      6  C6  BNZ d   1      -3.378  -3.749  -5.994  0.00  0.00     0.000 A 
ENDROOT
TORSDOF 0
ENDMDL
