MODEL 1
REMARK minimizedAffinity 20.1041355
REMARK minimizedRMSD -1
REMARK  0 active torsions:
REMARK  status: ('A' for Active; 'I' for Inactive)
ROOT
ATOM      1  C   UNL d   1       1.670   4.252   2.390  0.00  0.00     0.124 A 
ATOM      2  C1  UNL d   1       1.955   3.024   2.971  0.00  0.00     0.062 A 
ATOM      3  C2  UNL d   1       1.474   1.850   2.399  0.00  0.00     0.162 A 
ATOM      4  C3  UNL d   1       0.703   1.898   1.237  0.00  0.00    -0.034 A 
ATOM      5  C4  UNL d   1       0.420   3.136   0.659  0.00  0.00     0.162 A 
ATOM      6  C5  UNL d   1       0.903   4.307   1.234  0.00  0.00     0.062 A 
ATOM      7  F   UNL d   1       0.627   5.492   0.671  0.00  0.00    -0.097 F 
ATOM      8  F1  UNL d   1      -0.318   3.219  -0.458  0.00  0.00    -0.096 F 
ATOM      9  I   UNL d   1      -0.018   0.145   0.378  0.00  0.00    -0.060 I 
ATOM     10  F2  UNL d   1       1.765   0.678   2.982  0.00  0.00    -0.096 F 
ATOM     11  F3  UNL d   1       2.695   2.968   4.088  0.00  0.00    -0.097 F 
ATOM     12  F4  UNL d   1       2.134   5.380   2.943  0.00  0.00    -0.092 F 
ENDROOT
TORSDOF 0
ENDMDL
