MODEL 1
REMARK minimizedAffinity -5.77601147
REMARK minimizedRMSD -1
REMARK  0 active torsions:
REMARK  status: ('A' for Active; 'I' for Inactive)
ROOT
ATOM      1  C   UNL d   1      -1.308   3.161  -0.209  0.00  0.00     0.124 A 
ATOM      2  C1  UNL d   1      -1.874   2.112   0.503  0.00  0.00     0.062 A 
ATOM      3  C2  UNL d   1      -1.801   0.812   0.011  0.00  0.00     0.162 A 
ATOM      4  C3  UNL d   1      -1.158   0.553  -1.200  0.00  0.00    -0.034 A 
ATOM      5  C4  UNL d   1      -0.592   1.613  -1.911  0.00  0.00     0.162 A 
ATOM      6  C5  UNL d   1      -0.668   2.910  -1.415  0.00  0.00     0.062 A 
ATOM      7  F   UNL d   1      -0.121   3.922  -2.104  0.00  0.00    -0.097 F 
ATOM      8  F1  UNL d   1       0.033   1.399  -3.078  0.00  0.00    -0.096 F 
ATOM      9  I   UNL d   1      -1.046  -1.389  -1.938  0.00  0.00    -0.060 I 
ATOM     10  F2  UNL d   1      -2.356  -0.182   0.720  0.00  0.00    -0.096 F 
ATOM     11  F3  UNL d   1      -2.494   2.352   1.667  0.00  0.00    -0.097 F 
ATOM     12  F4  UNL d   1      -1.381   4.411   0.266  0.00  0.00    -0.092 F 
ENDROOT
TORSDOF 0
ENDMDL
