MODEL 1
REMARK minimizedAffinity -3.39550257
REMARK minimizedRMSD -1
REMARK  0 active torsions:
REMARK  status: ('A' for Active; 'I' for Inactive)
ROOT
ATOM      1  C   UNL d   1      -0.321   3.041   1.255  0.00  0.00     0.124 A 
ATOM      2  C1  UNL d   1       0.595   2.153   1.801  0.00  0.00     0.062 A 
ATOM      3  C2  UNL d   1       0.708   0.863   1.292  0.00  0.00     0.162 A 
ATOM      4  C3  UNL d   1      -0.096   0.452   0.229  0.00  0.00    -0.034 A 
ATOM      5  C4  UNL d   1      -1.016   1.351  -0.315  0.00  0.00     0.162 A 
ATOM      6  C5  UNL d   1      -1.126   2.639   0.198  0.00  0.00     0.062 A 
ATOM      7  F   UNL d   1      -2.012   3.496  -0.331  0.00  0.00    -0.097 F 
ATOM      8  F1  UNL d   1      -1.805   0.989  -1.337  0.00  0.00    -0.096 F 
ATOM      9  I   UNL d   1       0.070  -1.476  -0.536  0.00  0.00    -0.060 I 
ATOM     10  F2  UNL d   1       1.602   0.026   1.839  0.00  0.00    -0.096 F 
ATOM     11  F3  UNL d   1       1.373   2.538   2.823  0.00  0.00    -0.097 F 
ATOM     12  F4  UNL d   1      -0.429   4.282   1.747  0.00  0.00    -0.092 F 
ENDROOT
TORSDOF 0
ENDMDL
