MODEL 1
REMARK minimizedAffinity -1.07451391
REMARK minimizedRMSD -1
REMARK  0 active torsions:
REMARK  status: ('A' for Active; 'I' for Inactive)
ROOT
ATOM      1  C   UNL d   1       0.998   3.617   2.531  0.00  0.00     0.124 A 
ATOM      2  C1  UNL d   1       1.747   2.450   2.473  0.00  0.00     0.062 A 
ATOM      3  C2  UNL d   1       1.313   1.377   1.702  0.00  0.00     0.162 A 
ATOM      4  C3  UNL d   1       0.123   1.465   0.980  0.00  0.00    -0.034 A 
ATOM      5  C4  UNL d   1      -0.626   2.641   1.043  0.00  0.00     0.162 A 
ATOM      6  C5  UNL d   1      -0.188   3.712   1.816  0.00  0.00     0.062 A 
ATOM      7  F   UNL d   1      -0.913   4.838   1.870  0.00  0.00    -0.097 F 
ATOM      8  F1  UNL d   1      -1.775   2.760   0.361  0.00  0.00    -0.096 F 
ATOM      9  I   UNL d   1      -0.530  -0.139  -0.175  0.00  0.00    -0.060 I 
ATOM     10  F2  UNL d   1       2.057   0.261   1.665  0.00  0.00    -0.096 F 
ATOM     11  F3  UNL d   1       2.893   2.356   3.164  0.00  0.00    -0.097 F 
ATOM     12  F4  UNL d   1       1.418   4.649   3.275  0.00  0.00    -0.092 F 
ENDROOT
TORSDOF 0
ENDMDL
