MODEL 1
REMARK minimizedAffinity 1.92276287
REMARK minimizedRMSD -1
REMARK  0 active torsions:
REMARK  status: ('A' for Active; 'I' for Inactive)
ROOT
ATOM      1  C   UNL d   1       1.217   0.110   1.503  0.00  0.00     0.124 A 
ATOM      2  C1  UNL d   1       1.282   0.046   0.118  0.00  0.00     0.062 A 
ATOM      3  C2  UNL d   1       1.062   1.187  -0.647  0.00  0.00     0.162 A 
ATOM      4  C3  UNL d   1       0.777   2.405  -0.028  0.00  0.00    -0.034 A 
ATOM      5  C4  UNL d   1       0.713   2.462   1.365  0.00  0.00     0.162 A 
ATOM      6  C5  UNL d   1       0.933   1.317   2.125  0.00  0.00     0.062 A 
ATOM      7  F   UNL d   1       0.871   1.382   3.463  0.00  0.00    -0.097 F 
ATOM      8  F1  UNL d   1       0.441   3.616   1.992  0.00  0.00    -0.096 F 
ATOM      9  I   UNL d   1       0.447   4.114  -1.168  0.00  0.00    -0.060 I 
ATOM     10  F2  UNL d   1       1.130   1.096  -1.983  0.00  0.00    -0.096 F 
ATOM     11  F3  UNL d   1       1.555  -1.120  -0.485  0.00  0.00    -0.097 F 
ATOM     12  F4  UNL d   1       1.428  -0.990   2.237  0.00  0.00    -0.092 F 
ENDROOT
TORSDOF 0
ENDMDL
