MODEL 1
REMARK minimizedAffinity 3.94537163
REMARK minimizedRMSD -1
REMARK  0 active torsions:
REMARK  status: ('A' for Active; 'I' for Inactive)
ROOT
ATOM      1  C   UNL d   1       0.911   0.895   1.378  0.00  0.00     0.124 A 
ATOM      2  C1  UNL d   1       0.398   1.234   0.133  0.00  0.00     0.062 A 
ATOM      3  C2  UNL d   1       0.407   2.559  -0.290  0.00  0.00     0.162 A 
ATOM      4  C3  UNL d   1       0.932   3.557   0.531  0.00  0.00    -0.034 A 
ATOM      5  C4  UNL d   1       1.445   3.209   1.782  0.00  0.00     0.162 A 
ATOM      6  C5  UNL d   1       1.434   1.883   2.201  0.00  0.00     0.062 A 
ATOM      7  F   UNL d   1       1.930   1.558   3.403  0.00  0.00    -0.097 F 
ATOM      8  F1  UNL d   1       1.957   4.143   2.596  0.00  0.00    -0.096 F 
ATOM      9  I   UNL d   1       0.947   5.540  -0.099  0.00  0.00    -0.060 I 
ATOM     10  F2  UNL d   1      -0.096   2.857  -1.498  0.00  0.00    -0.096 F 
ATOM     11  F3  UNL d   1      -0.109   0.281  -0.663  0.00  0.00    -0.097 F 
ATOM     12  F4  UNL d   1       0.900  -0.381   1.784  0.00  0.00    -0.092 F 
ENDROOT
TORSDOF 0
ENDMDL
