MODEL 1
REMARK minimizedAffinity 10.3810205
REMARK minimizedRMSD -1
REMARK  0 active torsions:
REMARK  status: ('A' for Active; 'I' for Inactive)
ROOT
ATOM      1  C   UNL d   1       1.929  -0.879   0.147  0.00  0.00     0.124 A 
ATOM      2  C1  UNL d   1       1.871  -0.416  -1.161  0.00  0.00     0.062 A 
ATOM      3  C2  UNL d   1       0.681   0.093  -1.671  0.00  0.00     0.162 A 
ATOM      4  C3  UNL d   1      -0.463   0.142  -0.873  0.00  0.00    -0.034 A 
ATOM      5  C4  UNL d   1      -0.397  -0.326   0.440  0.00  0.00     0.162 A 
ATOM      6  C5  UNL d   1       0.795  -0.834   0.946  0.00  0.00     0.062 A 
ATOM      7  F   UNL d   1       0.849  -1.281   2.209  0.00  0.00    -0.097 F 
ATOM      8  F1  UNL d   1      -1.477  -0.293   1.234  0.00  0.00    -0.096 F 
ATOM      9  I   UNL d   1      -2.245   0.903  -1.633  0.00  0.00    -0.060 I 
ATOM     10  F2  UNL d   1       0.654   0.533  -2.938  0.00  0.00    -0.096 F 
ATOM     11  F3  UNL d   1       2.965  -0.460  -1.935  0.00  0.00    -0.097 F 
ATOM     12  F4  UNL d   1       3.076  -1.370   0.635  0.00  0.00    -0.092 F 
ENDROOT
TORSDOF 0
ENDMDL
