MODEL 1
REMARK minimizedAffinity 7.23796511
REMARK minimizedRMSD -1
REMARK  0 active torsions:
REMARK  status: ('A' for Active; 'I' for Inactive)
ROOT
ATOM      1  C   UNL d   1       2.604   4.906   1.533  0.00  0.00     0.124 A 
ATOM      2  C1  UNL d   1       2.500   3.811   2.378  0.00  0.00     0.062 A 
ATOM      3  C2  UNL d   1       1.665   2.748   2.047  0.00  0.00     0.162 A 
ATOM      4  C3  UNL d   1       0.927   2.775   0.863  0.00  0.00    -0.034 A 
ATOM      5  C4  UNL d   1       1.036   3.881   0.018  0.00  0.00     0.162 A 
ATOM      6  C5  UNL d   1       1.873   4.941   0.354  0.00  0.00     0.062 A 
ATOM      7  F   UNL d   1       1.972   5.999  -0.464  0.00  0.00    -0.097 F 
ATOM      8  F1  UNL d   1       0.342   3.940  -1.127  0.00  0.00    -0.096 F 
ATOM      9  I   UNL d   1      -0.323   1.188   0.364  0.00  0.00    -0.060 I 
ATOM     10  F2  UNL d   1       1.583   1.702   2.883  0.00  0.00    -0.096 F 
ATOM     11  F3  UNL d   1       3.205   3.776   3.518  0.00  0.00    -0.097 F 
ATOM     12  F4  UNL d   1       3.408   5.928   1.855  0.00  0.00    -0.092 F 
ENDROOT
TORSDOF 0
ENDMDL
