MODEL 1
REMARK minimizedAffinity -1.52848363
REMARK minimizedRMSD -1
REMARK  0 active torsions:
REMARK  status: ('A' for Active; 'I' for Inactive)
ROOT
ATOM      1  C   UNL d   1      -1.013  -0.353   3.450  0.00  0.00     0.078 C 
ATOM      2  C1  UNL d   1       0.033  -1.243   2.848  0.00  0.00    -0.077 A 
ATOM      3  C2  UNL d   1       1.330  -1.289   3.374  0.00  0.00    -0.001 A 
ATOM      4  C3  UNL d   1       2.297  -2.115   2.798  0.00  0.00     0.003 A 
ATOM      5  C4  UNL d   1       1.977  -2.899   1.691  0.00  0.00    -0.005 A 
ATOM      6  C5  UNL d   1       0.690  -2.858   1.160  0.00  0.00     0.003 A 
ATOM      7  C6  UNL d   1      -0.278  -2.033   1.735  0.00  0.00    -0.001 A 
ENDROOT
TORSDOF 0
ENDMDL
