MODEL 1
REMARK minimizedAffinity 2.28609133
REMARK minimizedRMSD -1
REMARK  0 active torsions:
REMARK  status: ('A' for Active; 'I' for Inactive)
ROOT
ATOM      1  C   UNL d   1       0.625  -1.720   3.158  0.00  0.00     0.078 C 
ATOM      2  C1  UNL d   1       1.366  -2.440   2.072  0.00  0.00    -0.077 A 
ATOM      3  C2  UNL d   1       1.988  -1.736   1.034  0.00  0.00    -0.001 A 
ATOM      4  C3  UNL d   1       2.666  -2.420   0.023  0.00  0.00     0.003 A 
ATOM      5  C4  UNL d   1       2.728  -3.812   0.041  0.00  0.00    -0.005 A 
ATOM      6  C5  UNL d   1       2.111  -4.522   1.069  0.00  0.00     0.003 A 
ATOM      7  C6  UNL d   1       1.432  -3.839   2.080  0.00  0.00    -0.001 A 
ENDROOT
TORSDOF 0
ENDMDL
