MODEL 1
REMARK minimizedAffinity 3.04318523
REMARK minimizedRMSD -1
REMARK  0 active torsions:
REMARK  status: ('A' for Active; 'I' for Inactive)
ROOT
ATOM      1  C   UNL d   1      -0.285  -1.124   2.910  0.00  0.00     0.078 C 
ATOM      2  C1  UNL d   1       0.781  -1.836   2.132  0.00  0.00    -0.077 A 
ATOM      3  C2  UNL d   1       1.322  -3.044   2.589  0.00  0.00    -0.001 A 
ATOM      4  C3  UNL d   1       2.320  -3.692   1.859  0.00  0.00     0.003 A 
ATOM      5  C4  UNL d   1       2.786  -3.138   0.668  0.00  0.00    -0.005 A 
ATOM      6  C5  UNL d   1       2.255  -1.936   0.206  0.00  0.00     0.003 A 
ATOM      7  C6  UNL d   1       1.257  -1.287   0.935  0.00  0.00    -0.001 A 
ENDROOT
TORSDOF 0
ENDMDL
