MODEL 1
REMARK minimizedAffinity 3.49813199
REMARK minimizedRMSD -1
REMARK  0 active torsions:
REMARK  status: ('A' for Active; 'I' for Inactive)
ROOT
ATOM      1  C   UNL d   1       5.967  -0.752  -1.390  0.00  0.00     0.078 C 
ATOM      2  C1  UNL d   1       5.970   0.316  -0.337  0.00  0.00    -0.077 A 
ATOM      3  C2  UNL d   1       5.970   1.672  -0.686  0.00  0.00    -0.001 A 
ATOM      4  C3  UNL d   1       5.982   2.656   0.305  0.00  0.00     0.003 A 
ATOM      5  C4  UNL d   1       5.996   2.293   1.650  0.00  0.00    -0.005 A 
ATOM      6  C5  UNL d   1       5.999   0.946   2.007  0.00  0.00     0.003 A 
ATOM      7  C6  UNL d   1       5.986  -0.038   1.017  0.00  0.00    -0.001 A 
ENDROOT
TORSDOF 0
ENDMDL
