MODEL 1
REMARK minimizedAffinity 4.88302088
REMARK minimizedRMSD -1
REMARK  0 active torsions:
REMARK  status: ('A' for Active; 'I' for Inactive)
ROOT
ATOM      1  C   UNL d   1       0.256  -1.045  -1.019  0.00  0.00     0.078 C 
ATOM      2  C1  UNL d   1       1.022  -1.623   0.134  0.00  0.00    -0.077 A 
ATOM      3  C2  UNL d   1       0.361  -2.088   1.277  0.00  0.00    -0.001 A 
ATOM      4  C3  UNL d   1       1.088  -2.614   2.347  0.00  0.00     0.003 A 
ATOM      5  C4  UNL d   1       2.478  -2.679   2.284  0.00  0.00    -0.005 A 
ATOM      6  C5  UNL d   1       3.144  -2.216   1.151  0.00  0.00     0.003 A 
ATOM      7  C6  UNL d   1       2.419  -1.690   0.080  0.00  0.00    -0.001 A 
ENDROOT
TORSDOF 0
ENDMDL
