MODEL 1
REMARK minimizedAffinity 2.51021194
REMARK minimizedRMSD -1
REMARK  0 active torsions:
REMARK  status: ('A' for Active; 'I' for Inactive)
ROOT
ATOM      1  C   UNL d   1      -0.379  -1.185   3.226  0.00  0.00     0.078 C 
ATOM      2  C1  UNL d   1       0.631  -1.854   2.341  0.00  0.00    -0.077 A 
ATOM      3  C2  UNL d   1       1.608  -2.702   2.875  0.00  0.00    -0.001 A 
ATOM      4  C3  UNL d   1       2.548  -3.310   2.041  0.00  0.00     0.003 A 
ATOM      5  C4  UNL d   1       2.519  -3.075   0.668  0.00  0.00    -0.005 A 
ATOM      6  C5  UNL d   1       1.552  -2.231   0.127  0.00  0.00     0.003 A 
ATOM      7  C6  UNL d   1       0.612  -1.622   0.960  0.00  0.00    -0.001 A 
ENDROOT
TORSDOF 0
ENDMDL
