MODEL 1
REMARK minimizedAffinity -1.06117225
REMARK minimizedRMSD -1
REMARK  0 active torsions:
REMARK  status: ('A' for Active; 'I' for Inactive)
ROOT
ATOM      1  C   UNL d   1       0.742  -1.929   2.174  0.00  0.00     0.078 C 
ATOM      2  C1  UNL d   1      -0.599  -1.264   2.270  0.00  0.00    -0.077 A 
ATOM      3  C2  UNL d   1      -1.008  -0.632   3.450  0.00  0.00    -0.001 A 
ATOM      4  C3  UNL d   1      -2.262  -0.026   3.528  0.00  0.00     0.003 A 
ATOM      5  C4  UNL d   1      -3.119  -0.047   2.430  0.00  0.00    -0.005 A 
ATOM      6  C5  UNL d   1      -2.722  -0.676   1.251  0.00  0.00     0.003 A 
ATOM      7  C6  UNL d   1      -1.468  -1.283   1.171  0.00  0.00    -0.001 A 
ENDROOT
TORSDOF 0
ENDMDL
