MODEL 1
REMARK minimizedAffinity 4.0673871
REMARK minimizedRMSD -1
REMARK  3 active torsions:
REMARK  status: ('A' for Active; 'I' for Inactive)
REMARK    1  A    between atoms: C3'_2  and  C2'_3 
REMARK    2  A    between atoms: C2'_3  and  C1'_4 
REMARK    3  A    between atoms: C1'_4  and  C1_5 
ROOT
ATOM      1  C1  N4B d   1      -0.800  -1.218  -0.054  0.00  0.00    -0.075 A 
ATOM      2  C2  N4B d   1       0.274  -1.698   0.728  0.00  0.00     0.002 A 
ATOM      3  C3  N4B d   1       1.359  -2.280   0.120  0.00  0.00     0.002 A 
ATOM      4  C4  N4B d   1       1.385  -2.409  -1.261  0.00  0.00    -0.004 A 
ATOM      5  C5  N4B d   1       0.355  -1.919  -2.010  0.00  0.00     0.002 A 
ATOM      6  C6  N4B d   1      -0.740  -1.329  -1.413  0.00  0.00     0.002 A 
ENDROOT
BRANCH   1   7
ATOM      7  C1' N4B d   1      -2.046  -0.653   0.571  0.00  0.00     0.057 C 
BRANCH   7   8
ATOM      8  C2' N4B d   1      -2.780   0.201  -0.460  0.00  0.00     0.009 C 
BRANCH   8   9
ATOM      9  C3' N4B d   1      -2.679   1.683  -0.145  0.00  0.00     0.004 C 
ATOM     10  C4' N4B d   1      -2.287   1.950   1.278  0.00  0.00     0.003 C 
ENDBRANCH   8   9
ENDBRANCH   7   8
ENDBRANCH   1   7
TORSDOF 3
ENDMDL
