MODEL 1
REMARK minimizedAffinity -3.23112798
REMARK minimizedRMSD -1
REMARK  3 active torsions:
REMARK  status: ('A' for Active; 'I' for Inactive)
REMARK    1  A    between atoms: C3'_2  and  C2'_3 
REMARK    2  A    between atoms: C2'_3  and  C1'_4 
REMARK    3  A    between atoms: C1'_4  and  C1_5 
ROOT
ATOM      1  C1  N4B d   1       2.074  -2.016   2.389  0.00  0.00    -0.075 A 
ATOM      2  C2  N4B d   1       3.039  -2.748   1.663  0.00  0.00     0.002 A 
ATOM      3  C3  N4B d   1       4.004  -2.085   0.945  0.00  0.00     0.002 A 
ATOM      4  C4  N4B d   1       4.012  -0.699   0.921  0.00  0.00    -0.004 A 
ATOM      5  C5  N4B d   1       3.091  -0.000   1.646  0.00  0.00     0.002 A 
ATOM      6  C6  N4B d   1       2.118  -0.652   2.376  0.00  0.00     0.002 A 
ENDROOT
BRANCH   1   7
ATOM      7  C1' N4B d   1       0.948  -2.695   3.120  0.00  0.00     0.057 C 
BRANCH   7   8
ATOM      8  C2' N4B d   1       0.036  -3.382   2.108  0.00  0.00     0.009 C 
BRANCH   8   9
ATOM      9  C3' N4B d   1      -1.195  -2.549   1.796  0.00  0.00     0.004 C 
ATOM     10  C4' N4B d   1      -0.956  -1.545   0.708  0.00  0.00     0.003 C 
ENDBRANCH   8   9
ENDBRANCH   7   8
ENDBRANCH   1   7
TORSDOF 3
ENDMDL
