MODEL 1
REMARK minimizedAffinity 3.253057
REMARK minimizedRMSD -1
REMARK  0 active torsions:
REMARK  status: ('A' for Active; 'I' for Inactive)
ROOT
ATOM      1  C   UNL d   1       2.736  -1.460  -1.075  0.00  0.00     0.078 C 
ATOM      2  C1  UNL d   1       1.271  -1.715  -0.883  0.00  0.00    -0.077 A 
ATOM      3  C2  UNL d   1       0.617  -1.317   0.290  0.00  0.00    -0.001 A 
ATOM      4  C3  UNL d   1      -0.745  -1.569   0.459  0.00  0.00     0.003 A 
ATOM      5  C4  UNL d   1      -1.465  -2.221  -0.541  0.00  0.00    -0.005 A 
ATOM      6  C5  UNL d   1      -0.823  -2.622  -1.710  0.00  0.00     0.003 A 
ATOM      7  C6  UNL d   1       0.539  -2.371  -1.881  0.00  0.00    -0.001 A 
ENDROOT
TORSDOF 0
ENDMDL
