MODEL 1
REMARK minimizedAffinity 2.75695324
REMARK minimizedRMSD -1
REMARK  0 active torsions:
REMARK  status: ('A' for Active; 'I' for Inactive)
ROOT
ATOM      1  C   UNL d   1       4.658   0.706  -1.608  0.00  0.00     0.078 C 
ATOM      2  C1  UNL d   1       3.805  -0.512  -1.796  0.00  0.00    -0.077 A 
ATOM      3  C2  UNL d   1       3.958  -1.334  -2.920  0.00  0.00    -0.001 A 
ATOM      4  C3  UNL d   1       3.150  -2.459  -3.088  0.00  0.00     0.003 A 
ATOM      5  C4  UNL d   1       2.182  -2.773  -2.136  0.00  0.00    -0.005 A 
ATOM      6  C5  UNL d   1       2.020  -1.961  -1.016  0.00  0.00     0.003 A 
ATOM      7  C6  UNL d   1       2.827  -0.835  -0.846  0.00  0.00    -0.001 A 
ENDROOT
TORSDOF 0
ENDMDL
