MODEL 1
REMARK minimizedAffinity 0.0262385588
REMARK minimizedRMSD -1
REMARK  0 active torsions:
REMARK  status: ('A' for Active; 'I' for Inactive)
ROOT
ATOM      1  C   UNL d   1       0.799   1.537   0.976  0.00  0.00     0.078 C 
ATOM      2  C1  UNL d   1       2.119   1.501   0.265  0.00  0.00    -0.077 A 
ATOM      3  C2  UNL d   1       2.954   2.625   0.237  0.00  0.00    -0.001 A 
ATOM      4  C3  UNL d   1       4.176   2.580  -0.437  0.00  0.00     0.003 A 
ATOM      5  C4  UNL d   1       4.573   1.415  -1.089  0.00  0.00    -0.005 A 
ATOM      6  C5  UNL d   1       3.747   0.292  -1.069  0.00  0.00     0.003 A 
ATOM      7  C6  UNL d   1       2.525   0.335  -0.396  0.00  0.00    -0.001 A 
ENDROOT
TORSDOF 0
ENDMDL
