MODEL 1
REMARK minimizedAffinity -0.134166732
REMARK minimizedRMSD -1
REMARK  0 active torsions:
REMARK  status: ('A' for Active; 'I' for Inactive)
ROOT
ATOM      1  C   UNL d   1       3.907   0.715  -1.053  0.00  0.00     0.078 C 
ATOM      2  C1  UNL d   1       2.700  -0.170  -0.967  0.00  0.00    -0.077 A 
ATOM      3  C2  UNL d   1       2.772  -1.525  -1.312  0.00  0.00    -0.001 A 
ATOM      4  C3  UNL d   1       1.638  -2.335  -1.237  0.00  0.00     0.003 A 
ATOM      5  C4  UNL d   1       0.422  -1.798  -0.818  0.00  0.00    -0.005 A 
ATOM      6  C5  UNL d   1       0.340  -0.451  -0.474  0.00  0.00     0.003 A 
ATOM      7  C6  UNL d   1       1.473   0.360  -0.549  0.00  0.00    -0.001 A 
ENDROOT
TORSDOF 0
ENDMDL
