MODEL 1
REMARK minimizedAffinity -0.0431691594
REMARK minimizedRMSD -1
REMARK  0 active torsions:
REMARK  status: ('A' for Active; 'I' for Inactive)
ROOT
ATOM      1  C   UNL d   1       1.314   1.128   0.137  0.00  0.00     0.078 C 
ATOM      2  C1  UNL d   1       2.699   1.394  -0.373  0.00  0.00    -0.077 A 
ATOM      3  C2  UNL d   1       3.311   2.639  -0.182  0.00  0.00    -0.001 A 
ATOM      4  C3  UNL d   1       4.597   2.875  -0.670  0.00  0.00     0.003 A 
ATOM      5  C4  UNL d   1       5.282   1.872  -1.353  0.00  0.00    -0.005 A 
ATOM      6  C5  UNL d   1       4.680   0.631  -1.550  0.00  0.00     0.003 A 
ATOM      7  C6  UNL d   1       3.394   0.393  -1.062  0.00  0.00    -0.001 A 
ENDROOT
TORSDOF 0
ENDMDL
