MODEL 1
REMARK minimizedAffinity 1.20050001
REMARK minimizedRMSD -1
REMARK  0 active torsions:
REMARK  status: ('A' for Active; 'I' for Inactive)
ROOT
ATOM      1  C   UNL d   1       1.878   1.295  -0.012  0.00  0.00     0.078 C 
ATOM      2  C1  UNL d   1       1.427  -0.108  -0.285  0.00  0.00    -0.077 A 
ATOM      3  C2  UNL d   1       0.140  -0.370  -0.772  0.00  0.00    -0.001 A 
ATOM      4  C3  UNL d   1      -0.270  -1.682  -1.012  0.00  0.00     0.003 A 
ATOM      5  C4  UNL d   1       0.600  -2.743  -0.769  0.00  0.00    -0.005 A 
ATOM      6  C5  UNL d   1       1.882  -2.493  -0.282  0.00  0.00     0.003 A 
ATOM      7  C6  UNL d   1       2.294  -1.181  -0.041  0.00  0.00    -0.001 A 
ENDROOT
TORSDOF 0
ENDMDL
