MODEL 1
REMARK minimizedAffinity 2.43871498
REMARK minimizedRMSD -1
REMARK  0 active torsions:
REMARK  status: ('A' for Active; 'I' for Inactive)
ROOT
ATOM      1  C   UNL d   1       3.719   0.833  -1.219  0.00  0.00     0.078 C 
ATOM      2  C1  UNL d   1       2.566  -0.075  -0.911  0.00  0.00    -0.077 A 
ATOM      3  C2  UNL d   1       1.371   0.430  -0.385  0.00  0.00    -0.001 A 
ATOM      4  C3  UNL d   1       0.309  -0.428  -0.094  0.00  0.00     0.003 A 
ATOM      5  C4  UNL d   1       0.433  -1.797  -0.325  0.00  0.00    -0.005 A 
ATOM      6  C5  UNL d   1       1.619  -2.309  -0.846  0.00  0.00     0.003 A 
ATOM      7  C6  UNL d   1       2.682  -1.452  -1.138  0.00  0.00    -0.001 A 
ENDROOT
TORSDOF 0
ENDMDL
