MODEL 1
REMARK minimizedAffinity 6.28454208
REMARK minimizedRMSD -1
REMARK  0 active torsions:
REMARK  status: ('A' for Active; 'I' for Inactive)
ROOT
ATOM      1  C   UNL d   1       2.804  -2.272  -0.986  0.00  0.00     0.078 C 
ATOM      2  C1  UNL d   1       1.469  -1.589  -1.024  0.00  0.00    -0.077 A 
ATOM      3  C2  UNL d   1       0.326  -2.263  -1.471  0.00  0.00    -0.001 A 
ATOM      4  C3  UNL d   1      -0.908  -1.612  -1.510  0.00  0.00     0.003 A 
ATOM      5  C4  UNL d   1      -1.011  -0.283  -1.104  0.00  0.00    -0.005 A 
ATOM      6  C5  UNL d   1       0.122   0.397  -0.659  0.00  0.00     0.003 A 
ATOM      7  C6  UNL d   1       1.356  -0.252  -0.620  0.00  0.00    -0.001 A 
ENDROOT
TORSDOF 0
ENDMDL
