MODEL 1
REMARK minimizedAffinity 20.8542728
REMARK minimizedRMSD -1
REMARK  0 active torsions:
REMARK  status: ('A' for Active; 'I' for Inactive)
ROOT
ATOM      1  C1  DEN d   1       0.318   4.742  -2.977  0.00  0.00     0.130 A 
ATOM      2  C2  DEN d   1      -0.821   5.476  -2.431  0.00  0.00    -0.031 A 
ATOM      3  C3  DEN d   1      -2.056   4.845  -2.939  0.00  0.00     0.027 A 
ATOM      4  C4  DEN d   1      -2.315   2.811  -4.503  0.00  0.00     0.027 A 
ATOM      5  C5  DEN d   1      -1.634   1.864  -5.235  0.00  0.00    -0.003 A 
ATOM      6  C6  DEN d   1      -0.265   1.831  -5.292  0.00  0.00     0.001 A 
ATOM      7  C7  DEN d   1       0.466   2.735  -4.569  0.00  0.00     0.017 A 
ATOM      8  C8  DEN d   1      -0.214   3.698  -3.835  0.00  0.00    -0.094 A 
ATOM      9  C9  DEN d   1      -1.597   3.707  -3.780  0.00  0.00    -0.072 A 
ENDROOT
TORSDOF 0
ENDMDL
