MODEL 1
REMARK minimizedAffinity 20.7929249
REMARK minimizedRMSD -1
REMARK  0 active torsions:
REMARK  status: ('A' for Active; 'I' for Inactive)
ROOT
ATOM      1  C1  DEN d   1      -1.406  -4.700  -1.978  0.00  0.00     0.130 A 
ATOM      2  C2  DEN d   1      -2.639  -5.395  -2.336  0.00  0.00    -0.031 A 
ATOM      3  C3  DEN d   1      -3.745  -4.787  -1.568  0.00  0.00     0.027 A 
ATOM      4  C4  DEN d   1      -3.668  -2.845   0.127  0.00  0.00     0.027 A 
ATOM      5  C5  DEN d   1      -2.844  -1.945   0.766  0.00  0.00    -0.003 A 
ATOM      6  C6  DEN d   1      -1.490  -1.923   0.563  0.00  0.00     0.001 A 
ATOM      7  C7  DEN d   1      -0.924  -2.788  -0.335  0.00  0.00     0.017 A 
ATOM      8  C8  DEN d   1      -1.747  -3.703  -0.978  0.00  0.00    -0.094 A 
ATOM      9  C9  DEN d   1      -3.115  -3.702  -0.768  0.00  0.00    -0.072 A 
ENDROOT
TORSDOF 0
ENDMDL
