MODEL 1
REMARK minimizedAffinity 8.19071484
REMARK minimizedRMSD -1
REMARK  0 active torsions:
REMARK  status: ('A' for Active; 'I' for Inactive)
ROOT
ATOM      1  C1  DEN d   1       2.761  -0.473   1.108  0.00  0.00     0.130 A 
ATOM      2  C2  DEN d   1       3.314  -0.031   2.386  0.00  0.00    -0.031 A 
ATOM      3  C3  DEN d   1       2.227  -0.052   3.385  0.00  0.00     0.027 A 
ATOM      4  C4  DEN d   1      -0.244  -0.728   3.083  0.00  0.00     0.027 A 
ATOM      5  C5  DEN d   1      -1.185  -1.163   2.177  0.00  0.00    -0.003 A 
ATOM      6  C6  DEN d   1      -0.889  -1.364   0.855  0.00  0.00     0.001 A 
ATOM      7  C7  DEN d   1       0.393  -1.173   0.410  0.00  0.00     0.017 A 
ATOM      8  C8  DEN d   1       1.346  -0.728   1.316  0.00  0.00    -0.094 A 
ATOM      9  C9  DEN d   1       1.029  -0.542   2.651  0.00  0.00    -0.072 A 
ENDROOT
TORSDOF 0
ENDMDL
