MODEL 1
REMARK minimizedAffinity 11.9128571
REMARK minimizedRMSD -1
REMARK  0 active torsions:
REMARK  status: ('A' for Active; 'I' for Inactive)
ROOT
ATOM      1  C1  DEN d   1       0.186   5.136  -2.699  0.00  0.00     0.130 A 
ATOM      2  C2  DEN d   1      -1.000   5.825  -2.199  0.00  0.00    -0.031 A 
ATOM      3  C3  DEN d   1      -2.188   5.066  -2.640  0.00  0.00     0.027 A 
ATOM      4  C4  DEN d   1      -2.304   2.900  -4.036  0.00  0.00     0.027 A 
ATOM      5  C5  DEN d   1      -1.558   1.951  -4.698  0.00  0.00    -0.003 A 
ATOM      6  C6  DEN d   1      -0.191   2.014  -4.769  0.00  0.00     0.001 A 
ATOM      7  C7  DEN d   1       0.475   3.025  -4.128  0.00  0.00     0.017 A 
ATOM      8  C8  DEN d   1      -0.270   3.990  -3.464  0.00  0.00    -0.094 A 
ATOM      9  C9  DEN d   1      -1.650   3.902  -3.394  0.00  0.00    -0.072 A 
ENDROOT
TORSDOF 0
ENDMDL
