MODEL 1
REMARK minimizedAffinity 23.1374588
REMARK minimizedRMSD -1
REMARK  0 active torsions:
REMARK  status: ('A' for Active; 'I' for Inactive)
ROOT
ATOM      1  C1  DEN d   1      -0.946  -4.801  -1.548  0.00  0.00     0.130 A 
ATOM      2  C2  DEN d   1      -2.254  -5.282  -1.984  0.00  0.00    -0.031 A 
ATOM      3  C3  DEN d   1      -3.287  -4.509  -1.266  0.00  0.00     0.027 A 
ATOM      4  C4  DEN d   1      -2.990  -2.622   0.468  0.00  0.00     0.027 A 
ATOM      5  C5  DEN d   1      -2.067  -1.875   1.167  0.00  0.00    -0.003 A 
ATOM      6  C6  DEN d   1      -0.718  -2.073   1.036  0.00  0.00     0.001 A 
ATOM      7  C7  DEN d   1      -0.252  -3.010   0.153  0.00  0.00     0.017 A 
ATOM      8  C8  DEN d   1      -1.176  -3.772  -0.550  0.00  0.00    -0.094 A 
ATOM      9  C9  DEN d   1      -2.535  -3.549  -0.413  0.00  0.00    -0.072 A 
ENDROOT
TORSDOF 0
ENDMDL
