MODEL 1
REMARK minimizedAffinity 17.7456226
REMARK minimizedRMSD -1
REMARK  0 active torsions:
REMARK  status: ('A' for Active; 'I' for Inactive)
ROOT
ATOM      1  C1  DEN d   1      -2.055  -3.000   4.769  0.00  0.00     0.130 A 
ATOM      2  C2  DEN d   1      -1.285  -2.845   6.000  0.00  0.00    -0.031 A 
ATOM      3  C3  DEN d   1      -0.198  -1.880   5.741  0.00  0.00     0.027 A 
ATOM      4  C4  DEN d   1       0.362  -0.613   3.565  0.00  0.00     0.027 A 
ATOM      5  C5  DEN d   1      -0.001  -0.426   2.250  0.00  0.00    -0.003 A 
ATOM      6  C6  DEN d   1      -1.044  -1.103   1.677  0.00  0.00     0.001 A 
ATOM      7  C7  DEN d   1      -1.790  -1.967   2.435  0.00  0.00     0.017 A 
ATOM      8  C8  DEN d   1      -1.426  -2.167   3.760  0.00  0.00    -0.094 A 
ATOM      9  C9  DEN d   1      -0.375  -1.463   4.324  0.00  0.00    -0.072 A 
ENDROOT
TORSDOF 0
ENDMDL
