MODEL 1
REMARK minimizedAffinity 13.3546963
REMARK minimizedRMSD -1
REMARK  0 active torsions:
REMARK  status: ('A' for Active; 'I' for Inactive)
ROOT
ATOM      1  C1  DEN d   1       2.357   0.080   2.721  0.00  0.00     0.130 A 
ATOM      2  C2  DEN d   1       3.250  -0.138   1.586  0.00  0.00    -0.031 A 
ATOM      3  C3  DEN d   1       2.478  -0.806   0.519  0.00  0.00     0.027 A 
ATOM      4  C4  DEN d   1      -0.001  -1.517   0.513  0.00  0.00     0.027 A 
ATOM      5  C5  DEN d   1      -1.161  -1.552   1.255  0.00  0.00    -0.003 A 
ATOM      6  C6  DEN d   1      -1.220  -1.081   2.540  0.00  0.00     0.001 A 
ATOM      7  C7  DEN d   1      -0.110  -0.512   3.106  0.00  0.00     0.017 A 
ATOM      8  C8  DEN d   1       1.065  -0.479   2.366  0.00  0.00    -0.094 A 
ATOM      9  C9  DEN d   1       1.101  -0.950   1.065  0.00  0.00    -0.072 A 
ENDROOT
TORSDOF 0
ENDMDL
