MODEL 1
REMARK minimizedAffinity 13.3855104
REMARK minimizedRMSD -1
REMARK  0 active torsions:
REMARK  status: ('A' for Active; 'I' for Inactive)
ROOT
ATOM      1  C1  DEN d   1       0.043  -1.204   0.379  0.00  0.00     0.130 A 
ATOM      2  C2  DEN d   1      -0.049  -0.250   1.481  0.00  0.00    -0.031 A 
ATOM      3  C3  DEN d   1      -1.427  -0.293   2.009  0.00  0.00     0.027 A 
ATOM      4  C4  DEN d   1      -3.416  -1.741   1.235  0.00  0.00     0.027 A 
ATOM      5  C5  DEN d   1      -3.826  -2.694   0.328  0.00  0.00    -0.003 A 
ATOM      6  C6  DEN d   1      -2.991  -3.187  -0.639  0.00  0.00     0.001 A 
ATOM      7  C7  DEN d   1      -1.690  -2.763  -0.693  0.00  0.00     0.017 A 
ATOM      8  C8  DEN d   1      -1.272  -1.798   0.213  0.00  0.00    -0.094 A 
ATOM      9  C9  DEN d   1      -2.127  -1.320   1.191  0.00  0.00    -0.072 A 
ENDROOT
TORSDOF 0
ENDMDL
