MODEL 1
REMARK minimizedAffinity 12.9592333
REMARK minimizedRMSD -1
REMARK  0 active torsions:
REMARK  status: ('A' for Active; 'I' for Inactive)
ROOT
ATOM      1  C1  DEN d   1       2.808  -0.307   1.028  0.00  0.00     0.130 A 
ATOM      2  C2  DEN d   1       3.573  -0.016   2.237  0.00  0.00    -0.031 A 
ATOM      3  C3  DEN d   1       2.652  -0.093   3.389  0.00  0.00     0.027 A 
ATOM      4  C4  DEN d   1       0.131  -0.637   3.418  0.00  0.00     0.027 A 
ATOM      5  C5  DEN d   1      -0.960  -0.942   2.635  0.00  0.00    -0.003 A 
ATOM      6  C6  DEN d   1      -0.880  -1.023   1.270  0.00  0.00     0.001 A 
ATOM      7  C7  DEN d   1       0.327  -0.840   0.649  0.00  0.00     0.017 A 
ATOM      8  C8  DEN d   1       1.430  -0.525   1.431  0.00  0.00    -0.094 A 
ATOM      9  C9  DEN d   1       1.332  -0.460   2.811  0.00  0.00    -0.072 A 
ENDROOT
TORSDOF 0
ENDMDL
