MODEL 1
REMARK minimizedAffinity 16.2947369
REMARK minimizedRMSD -1
REMARK  0 active torsions:
REMARK  status: ('A' for Active; 'I' for Inactive)
ROOT
ATOM      1  C1  DEN d   1      -2.284   5.222  -2.262  0.00  0.00     0.130 A 
ATOM      2  C2  DEN d   1      -1.105   6.000  -1.892  0.00  0.00    -0.031 A 
ATOM      3  C3  DEN d   1       0.061   5.423  -2.591  0.00  0.00     0.027 A 
ATOM      4  C4  DEN d   1       0.154   3.414  -4.205  0.00  0.00     0.027 A 
ATOM      5  C5  DEN d   1      -0.591   2.429  -4.816  0.00  0.00    -0.003 A 
ATOM      6  C6  DEN d   1      -1.935   2.286  -4.593  0.00  0.00     0.001 A 
ATOM      7  C7  DEN d   1      -2.585   3.170  -3.773  0.00  0.00     0.017 A 
ATOM      8  C8  DEN d   1      -1.839   4.161  -3.148  0.00  0.00    -0.094 A 
ATOM      9  C9  DEN d   1      -0.484   4.297  -3.396  0.00  0.00    -0.072 A 
ENDROOT
TORSDOF 0
ENDMDL
