MODEL 1
REMARK minimizedAffinity 11.1383553
REMARK minimizedRMSD -1
REMARK  0 active torsions:
REMARK  status: ('A' for Active; 'I' for Inactive)
ROOT
ATOM      1  C1  DEN d   1       1.813   0.181   1.515  0.00  0.00     0.130 A 
ATOM      2  C2  DEN d   1       2.052  -0.254   0.142  0.00  0.00    -0.031 A 
ATOM      3  C3  DEN d   1       0.971  -1.187  -0.236  0.00  0.00     0.027 A 
ATOM      4  C4  DEN d   1      -1.041  -1.992   1.165  0.00  0.00     0.027 A 
ATOM      5  C5  DEN d   1      -1.660  -1.906   2.392  0.00  0.00    -0.003 A 
ATOM      6  C6  DEN d   1      -1.151  -1.151   3.415  0.00  0.00     0.001 A 
ATOM      7  C7  DEN d   1      -0.012  -0.417   3.216  0.00  0.00     0.017 A 
ATOM      8  C8  DEN d   1       0.622  -0.504   1.984  0.00  0.00    -0.094 A 
ATOM      9  C9  DEN d   1       0.085  -1.262   0.958  0.00  0.00    -0.072 A 
ENDROOT
TORSDOF 0
ENDMDL
