MODEL 1
REMARK minimizedAffinity 4.37714052
REMARK minimizedRMSD -1
REMARK  0 active torsions:
REMARK  status: ('A' for Active; 'I' for Inactive)
ROOT
ATOM      1  C1  DEN d   1       4.676   1.914  -2.559  0.00  0.00     0.130 A 
ATOM      2  C2  DEN d   1       5.636   0.955  -3.098  0.00  0.00    -0.031 A 
ATOM      3  C3  DEN d   1       5.270  -0.387  -2.601  0.00  0.00     0.027 A 
ATOM      4  C4  DEN d   1       3.317  -1.069  -1.060  0.00  0.00     0.027 A 
ATOM      5  C5  DEN d   1       2.242  -0.601  -0.337  0.00  0.00    -0.003 A 
ATOM      6  C6  DEN d   1       1.925   0.730  -0.278  0.00  0.00     0.001 A 
ATOM      7  C7  DEN d   1       2.666   1.636  -0.989  0.00  0.00     0.017 A 
ATOM      8  C8  DEN d   1       3.756   1.174  -1.714  0.00  0.00    -0.094 A 
ATOM      9  C9  DEN d   1       4.053  -0.177  -1.772  0.00  0.00    -0.072 A 
ENDROOT
TORSDOF 0
ENDMDL
