MODEL 1
REMARK minimizedAffinity 13.0346212
REMARK minimizedRMSD -1
REMARK  0 active torsions:
REMARK  status: ('A' for Active; 'I' for Inactive)
ROOT
ATOM      1  C1  DEN d   1      -0.786   5.253  -2.126  0.00  0.00     0.130 A 
ATOM      2  C2  DEN d   1      -2.023   6.000  -1.916  0.00  0.00    -0.031 A 
ATOM      3  C3  DEN d   1      -3.091   5.343  -2.696  0.00  0.00     0.027 A 
ATOM      4  C4  DEN d   1      -2.952   3.249  -4.195  0.00  0.00     0.027 A 
ATOM      5  C5  DEN d   1      -2.110   2.278  -4.692  0.00  0.00    -0.003 A 
ATOM      6  C6  DEN d   1      -0.773   2.251  -4.399  0.00  0.00     0.001 A 
ATOM      7  C7  DEN d   1      -0.245   3.187  -3.549  0.00  0.00     0.017 A 
ATOM      8  C8  DEN d   1      -1.086   4.173  -3.049  0.00  0.00    -0.094 A 
ATOM      9  C9  DEN d   1      -2.438   4.176  -3.348  0.00  0.00    -0.072 A 
ENDROOT
TORSDOF 0
ENDMDL
