MODEL 1
REMARK minimizedAffinity 10.4871016
REMARK minimizedRMSD -1
REMARK  0 active torsions:
REMARK  status: ('A' for Active; 'I' for Inactive)
ROOT
ATOM      1  C1  DEN d   1       2.393  -0.095   3.076  0.00  0.00     0.130 A 
ATOM      2  C2  DEN d   1       3.268  -0.119   1.907  0.00  0.00    -0.031 A 
ATOM      3  C3  DEN d   1       2.487  -0.630   0.763  0.00  0.00     0.027 A 
ATOM      4  C4  DEN d   1       0.019  -1.378   0.687  0.00  0.00     0.027 A 
ATOM      5  C5  DEN d   1      -1.125  -1.548   1.434  0.00  0.00    -0.003 A 
ATOM      6  C6  DEN d   1      -1.168  -1.281   2.777  0.00  0.00     0.001 A 
ATOM      7  C7  DEN d   1      -0.056  -0.785   3.406  0.00  0.00     0.017 A 
ATOM      8  C8  DEN d   1       1.104  -0.617   2.661  0.00  0.00    -0.094 A 
ATOM      9  C9  DEN d   1       1.123  -0.882   1.302  0.00  0.00    -0.072 A 
ENDROOT
TORSDOF 0
ENDMDL
