MODEL 1
REMARK minimizedAffinity 2.17319632
REMARK minimizedRMSD -1
REMARK  0 active torsions:
REMARK  status: ('A' for Active; 'I' for Inactive)
ROOT
ATOM      1  C1  DEN d   1      -3.612   3.358  -3.019  0.00  0.00     0.130 A 
ATOM      2  C2  DEN d   1      -3.274   2.194  -3.834  0.00  0.00    -0.031 A 
ATOM      3  C3  DEN d   1      -1.811   2.185  -4.033  0.00  0.00     0.027 A 
ATOM      4  C4  DEN d   1      -0.044   3.847  -3.157  0.00  0.00     0.027 A 
ATOM      5  C5  DEN d   1       0.148   5.002  -2.431  0.00  0.00    -0.003 A 
ATOM      6  C6  DEN d   1      -0.894   5.702  -1.883  0.00  0.00     0.001 A 
ATOM      7  C7  DEN d   1      -2.173   5.229  -2.015  0.00  0.00     0.017 A 
ATOM      8  C8  DEN d   1      -2.376   4.070  -2.752  0.00  0.00    -0.094 A 
ATOM      9  C9  DEN d   1      -1.308   3.370  -3.287  0.00  0.00    -0.072 A 
ENDROOT
TORSDOF 0
ENDMDL
