MODEL 1
REMARK minimizedAffinity 2.63668633
REMARK minimizedRMSD -1
REMARK  0 active torsions:
REMARK  status: ('A' for Active; 'I' for Inactive)
ROOT
ATOM      1  C1  DEN d   1      -0.470  -0.999   0.960  0.00  0.00     0.130 A 
ATOM      2  C2  DEN d   1      -1.388  -1.114   2.090  0.00  0.00    -0.031 A 
ATOM      3  C3  DEN d   1      -0.634  -0.810   3.323  0.00  0.00     0.027 A 
ATOM      4  C4  DEN d   1       1.851  -0.171   3.590  0.00  0.00     0.027 A 
ATOM      5  C5  DEN d   1       3.033   0.042   2.917  0.00  0.00    -0.003 A 
ATOM      6  C6  DEN d   1       3.139  -0.108   1.560  0.00  0.00     0.001 A 
ATOM      7  C7  DEN d   1       2.031  -0.439   0.826  0.00  0.00     0.017 A 
ATOM      8  C8  DEN d   1       0.836  -0.663   1.498  0.00  0.00    -0.094 A 
ATOM      9  C9  DEN d   1       0.747  -0.494   2.869  0.00  0.00    -0.072 A 
ENDROOT
TORSDOF 0
ENDMDL
