MODEL 1
REMARK minimizedAffinity 6.73764706
REMARK minimizedRMSD -1
REMARK  0 active torsions:
REMARK  status: ('A' for Active; 'I' for Inactive)
ROOT
ATOM      1  C1  DEN d   1      -0.852  -1.163   4.289  0.00  0.00     0.130 A 
ATOM      2  C2  DEN d   1      -1.772  -2.255   4.595  0.00  0.00    -0.031 A 
ATOM      3  C3  DEN d   1      -2.020  -3.006   3.349  0.00  0.00     0.027 A 
ATOM      4  C4  DEN d   1      -1.071  -2.589   0.987  0.00  0.00     0.027 A 
ATOM      5  C5  DEN d   1      -0.259  -1.773   0.231  0.00  0.00    -0.003 A 
ATOM      6  C6  DEN d   1       0.380  -0.684   0.763  0.00  0.00     0.001 A 
ATOM      7  C7  DEN d   1       0.253  -0.409   2.099  0.00  0.00     0.017 A 
ATOM      8  C8  DEN d   1      -0.570  -1.224   2.866  0.00  0.00    -0.094 A 
ATOM      9  C9  DEN d   1      -1.197  -2.327   2.312  0.00  0.00    -0.072 A 
ENDROOT
TORSDOF 0
ENDMDL
