MODEL 1
REMARK minimizedAffinity 5.33546209
REMARK minimizedRMSD -1
REMARK  0 active torsions:
REMARK  status: ('A' for Active; 'I' for Inactive)
ROOT
ATOM      1  C1  DEN d   1       2.536  -0.359   1.389  0.00  0.00     0.130 A 
ATOM      2  C2  DEN d   1       3.332  -0.296   2.612  0.00  0.00    -0.031 A 
ATOM      3  C3  DEN d   1       2.440  -0.590   3.752  0.00  0.00     0.027 A 
ATOM      4  C4  DEN d   1      -0.080  -1.138   3.742  0.00  0.00     0.027 A 
ATOM      5  C5  DEN d   1      -1.191  -1.295   2.943  0.00  0.00    -0.003 A 
ATOM      6  C6  DEN d   1      -1.146  -1.120   1.586  0.00  0.00     0.001 A 
ATOM      7  C7  DEN d   1       0.046  -0.821   0.980  0.00  0.00     0.017 A 
ATOM      8  C8  DEN d   1       1.169  -0.653   1.779  0.00  0.00    -0.094 A 
ATOM      9  C9  DEN d   1       1.105  -0.846   3.148  0.00  0.00    -0.072 A 
ENDROOT
TORSDOF 0
ENDMDL
