MODEL 1
REMARK minimizedAffinity 9.70473862
REMARK minimizedRMSD -1
REMARK  0 active torsions:
REMARK  status: ('A' for Active; 'I' for Inactive)
ROOT
ATOM      1  C1  DEN d   1      -5.661  -3.625   5.269  0.00  0.00     0.130 A 
ATOM      2  C2  DEN d   1      -5.993  -4.848   5.995  0.00  0.00    -0.031 A 
ATOM      3  C3  DEN d   1      -5.670  -5.997   5.125  0.00  0.00     0.027 A 
ATOM      4  C4  DEN d   1      -4.689  -6.000   2.739  0.00  0.00     0.027 A 
ATOM      5  C5  DEN d   1      -4.254  -5.203   1.703  0.00  0.00    -0.003 A 
ATOM      6  C6  DEN d   1      -4.289  -3.836   1.770  0.00  0.00     0.001 A 
ATOM      7  C7  DEN d   1      -4.727  -3.222   2.913  0.00  0.00     0.017 A 
ATOM      8  C8  DEN d   1      -5.175  -4.019   3.959  0.00  0.00    -0.094 A 
ATOM      9  C9  DEN d   1      -5.120  -5.400   3.878  0.00  0.00    -0.072 A 
ENDROOT
TORSDOF 0
ENDMDL
