MODEL 1
REMARK minimizedAffinity -7.18165493
REMARK minimizedRMSD -1
REMARK  0 active torsions:
REMARK  status: ('A' for Active; 'I' for Inactive)
ROOT
ATOM      1  C1  DEN d   1      -1.335   2.983   1.124  0.00  0.00     0.130 A 
ATOM      2  C2  DEN d   1      -1.521   3.423  -0.256  0.00  0.00    -0.031 A 
ATOM      3  C3  DEN d   1      -0.983   2.375  -1.147  0.00  0.00     0.027 A 
ATOM      4  C4  DEN d   1       0.110   0.122  -0.526  0.00  0.00     0.027 A 
ATOM      5  C5  DEN d   1       0.497  -0.687   0.519  0.00  0.00    -0.003 A 
ATOM      6  C6  DEN d   1       0.334  -0.318   1.828  0.00  0.00     0.001 A 
ATOM      7  C7  DEN d   1      -0.273   0.873   2.127  0.00  0.00     0.017 A 
ATOM      8  C8  DEN d   1      -0.660   1.698   1.079  0.00  0.00    -0.094 A 
ATOM      9  C9  DEN d   1      -0.498   1.301  -0.238  0.00  0.00    -0.072 A 
ENDROOT
TORSDOF 0
ENDMDL
