MODEL 1
REMARK minimizedAffinity -2.61271119
REMARK minimizedRMSD -1
REMARK  0 active torsions:
REMARK  status: ('A' for Active; 'I' for Inactive)
ROOT
ATOM      1  C1  DEN d   1      -1.201  -3.444  -0.180  0.00  0.00     0.130 A 
ATOM      2  C2  DEN d   1      -0.827  -4.124  -1.417  0.00  0.00    -0.031 A 
ATOM      3  C3  DEN d   1       0.009  -3.202  -2.211  0.00  0.00     0.027 A 
ATOM      4  C4  DEN d   1       0.763  -0.801  -1.645  0.00  0.00     0.027 A 
ATOM      5  C5  DEN d   1       0.686   0.209  -0.712  0.00  0.00    -0.003 A 
ATOM      6  C6  DEN d   1      -0.046   0.086   0.439  0.00  0.00     0.001 A 
ATOM      7  C7  DEN d   1      -0.695  -1.090   0.707  0.00  0.00     0.017 A 
ATOM      8  C8  DEN d   1      -0.629  -2.110  -0.232  0.00  0.00    -0.094 A 
ATOM      9  C9  DEN d   1       0.127  -1.971  -1.384  0.00  0.00    -0.072 A 
ENDROOT
TORSDOF 0
ENDMDL
