MODEL 1
REMARK minimizedAffinity -6.22667313
REMARK minimizedRMSD -1
REMARK  0 active torsions:
REMARK  status: ('A' for Active; 'I' for Inactive)
ROOT
ATOM      1  C1  DEN d   1      -0.159   0.121  -1.102  0.00  0.00     0.130 A 
ATOM      2  C2  DEN d   1       0.475  -0.826  -0.188  0.00  0.00    -0.031 A 
ATOM      3  C3  DEN d   1       0.413  -0.258   1.173  0.00  0.00     0.027 A 
ATOM      4  C4  DEN d   1      -0.601   1.983   1.952  0.00  0.00     0.027 A 
ATOM      5  C5  DEN d   1      -1.241   3.130   1.537  0.00  0.00    -0.003 A 
ATOM      6  C6  DEN d   1      -1.532   3.368   0.220  0.00  0.00     0.001 A 
ATOM      7  C7  DEN d   1      -1.223   2.425  -0.725  0.00  0.00     0.017 A 
ATOM      8  C8  DEN d   1      -0.571   1.269  -0.315  0.00  0.00    -0.094 A 
ATOM      9  C9  DEN d   1      -0.297   1.041   1.023  0.00  0.00    -0.072 A 
ENDROOT
TORSDOF 0
ENDMDL
