MODEL 1
REMARK minimizedAffinity -6.95833874
REMARK minimizedRMSD -1
REMARK  0 active torsions:
REMARK  status: ('A' for Active; 'I' for Inactive)
ROOT
ATOM      1  C1  DEN d   1      -1.158   3.053  -0.392  0.00  0.00     0.130 A 
ATOM      2  C2  DEN d   1      -1.540   3.280   0.999  0.00  0.00    -0.031 A 
ATOM      3  C3  DEN d   1      -1.009   2.164   1.807  0.00  0.00     0.027 A 
ATOM      4  C4  DEN d   1       0.365   0.119   1.043  0.00  0.00     0.027 A 
ATOM      5  C5  DEN d   1       0.925  -0.515  -0.045  0.00  0.00    -0.003 A 
ATOM      6  C6  DEN d   1       0.803  -0.025  -1.318  0.00  0.00     0.001 A 
ATOM      7  C7  DEN d   1       0.141   1.156  -1.530  0.00  0.00     0.017 A 
ATOM      8  C8  DEN d   1      -0.433   1.796  -0.440  0.00  0.00    -0.094 A 
ATOM      9  C9  DEN d   1      -0.287   1.292   0.841  0.00  0.00    -0.072 A 
ENDROOT
TORSDOF 0
ENDMDL
