MODEL 1
REMARK minimizedAffinity -5.34504461
REMARK minimizedRMSD -1
REMARK  0 active torsions:
REMARK  status: ('A' for Active; 'I' for Inactive)
ROOT
ATOM      1  C1  DEN d   1      -0.890   2.580   2.224  0.00  0.00     0.130 A 
ATOM      2  C2  DEN d   1      -1.609   3.415   1.266  0.00  0.00    -0.031 A 
ATOM      3  C3  DEN d   1      -1.486   2.790  -0.066  0.00  0.00     0.027 A 
ATOM      4  C4  DEN d   1      -0.263   0.620  -0.734  0.00  0.00     0.027 A 
ATOM      5  C5  DEN d   1       0.503  -0.426  -0.268  0.00  0.00    -0.003 A 
ATOM      6  C6  DEN d   1       0.883  -0.525   1.044  0.00  0.00     0.001 A 
ATOM      7  C7  DEN d   1       0.461   0.416   1.946  0.00  0.00     0.017 A 
ATOM      8  C8  DEN d   1      -0.305   1.478   1.482  0.00  0.00    -0.094 A 
ATOM      9  C9  DEN d   1      -0.690   1.553   0.154  0.00  0.00    -0.072 A 
ENDROOT
TORSDOF 0
ENDMDL
