MODEL 1
REMARK minimizedAffinity 5.92818069
REMARK minimizedRMSD -1
REMARK  0 active torsions:
REMARK  status: ('A' for Active; 'I' for Inactive)
ROOT
ATOM      1  C1  DEN d   1       0.918   2.637   3.425  0.00  0.00     0.130 A 
ATOM      2  C2  DEN d   1       1.833   3.758   3.232  0.00  0.00    -0.031 A 
ATOM      3  C3  DEN d   1       1.847   4.094   1.795  0.00  0.00     0.027 A 
ATOM      4  C4  DEN d   1       0.543   2.997  -0.141  0.00  0.00     0.027 A 
ATOM      5  C5  DEN d   1      -0.351   2.001  -0.471  0.00  0.00    -0.003 A 
ATOM      6  C6  DEN d   1      -0.853   1.133   0.462  0.00  0.00     0.001 A 
ATOM      7  C7  DEN d   1      -0.501   1.273   1.779  0.00  0.00     0.017 A 
ATOM      8  C8  DEN d   1       0.405   2.269   2.117  0.00  0.00    -0.094 A 
ATOM      9  C9  DEN d   1       0.892   3.145   1.162  0.00  0.00    -0.072 A 
ENDROOT
TORSDOF 0
ENDMDL
