MODEL 1
REMARK minimizedAffinity 2.78786325
REMARK minimizedRMSD -1
REMARK  0 active torsions:
REMARK  status: ('A' for Active; 'I' for Inactive)
ROOT
ATOM      1  C1  DEN d   1       0.016  -3.159  -0.266  0.00  0.00     0.130 A 
ATOM      2  C2  DEN d   1      -0.425  -3.214  -1.657  0.00  0.00    -0.031 A 
ATOM      3  C3  DEN d   1      -0.495  -1.831  -2.169  0.00  0.00     0.027 A 
ATOM      4  C4  DEN d   1       0.038   0.379  -0.950  0.00  0.00     0.027 A 
ATOM      5  C5  DEN d   1       0.439   0.933   0.246  0.00  0.00    -0.003 A 
ATOM      6  C6  DEN d   1       0.692   0.171   1.355  0.00  0.00     0.001 A 
ATOM      7  C7  DEN d   1       0.590  -1.193   1.280  0.00  0.00     0.017 A 
ATOM      8  C8  DEN d   1       0.180  -1.759   0.080  0.00  0.00    -0.094 A 
ATOM      9  C9  DEN d   1      -0.059  -0.972  -1.035  0.00  0.00    -0.072 A 
ENDROOT
TORSDOF 0
ENDMDL
