MODEL 1
REMARK minimizedAffinity -0.247480676
REMARK minimizedRMSD -1
REMARK  0 active torsions:
REMARK  status: ('A' for Active; 'I' for Inactive)
ROOT
ATOM      1  C   UNL d   1      -0.345  -1.787   0.698  0.00  0.00    -0.002 A 
ATOM      2  C1  UNL d   1       0.449  -0.651   0.749  0.00  0.00     0.010 A 
ATOM      3  C2  UNL d   1       1.824  -0.735   0.522  0.00  0.00     0.041 A 
ATOM      4  C3  UNL d   1       2.393  -1.992   0.238  0.00  0.00    -0.075 A 
ATOM      5  S   UNL d   1       4.053  -2.336  -0.075  0.00  0.00     0.015 SA
ATOM      6  C4  UNL d   1       3.746  -3.999  -0.285  0.00  0.00     0.022 A 
ATOM      7  C5  UNL d   1       2.415  -4.302  -0.124  0.00  0.00     0.026 A 
ATOM      8  C6  UNL d   1       1.613  -3.151   0.180  0.00  0.00    -0.082 A 
ATOM      9  C7  UNL d   1       0.222  -3.032   0.416  0.00  0.00     0.045 A 
ENDROOT
TORSDOF 0
ENDMDL
