MODEL 1
REMARK minimizedAffinity 10.2708302
REMARK minimizedRMSD -1
REMARK  0 active torsions:
REMARK  status: ('A' for Active; 'I' for Inactive)
ROOT
ATOM      1  C   UNL d   1       4.992   4.696  -1.761  0.00  0.00    -0.002 A 
ATOM      2  C1  UNL d   1       5.964   5.513  -1.202  0.00  0.00     0.010 A 
ATOM      3  C2  UNL d   1       5.845   5.961   0.115  0.00  0.00     0.041 A 
ATOM      4  C3  UNL d   1       4.721   5.569   0.869  0.00  0.00    -0.075 A 
ATOM      5  S   UNL d   1       4.364   5.996   2.501  0.00  0.00     0.015 SA
ATOM      6  C4  UNL d   1       2.912   5.103   2.495  0.00  0.00     0.022 A 
ATOM      7  C5  UNL d   1       2.690   4.488   1.285  0.00  0.00     0.026 A 
ATOM      8  C6  UNL d   1       3.729   4.747   0.328  0.00  0.00    -0.082 A 
ATOM      9  C7  UNL d   1       3.878   4.309  -1.010  0.00  0.00     0.045 A 
ENDROOT
TORSDOF 0
ENDMDL
