MODEL 1
REMARK minimizedAffinity 6.54400444
REMARK minimizedRMSD -1
REMARK  0 active torsions:
REMARK  status: ('A' for Active; 'I' for Inactive)
ROOT
ATOM      1  C   UNL d   1       2.640  -0.501   2.986  0.00  0.00    -0.002 A 
ATOM      2  C1  UNL d   1       3.349  -0.835   1.841  0.00  0.00     0.010 A 
ATOM      3  C2  UNL d   1       2.683  -1.069   0.636  0.00  0.00     0.041 A 
ATOM      4  C3  UNL d   1       1.279  -0.960   0.601  0.00  0.00    -0.075 A 
ATOM      5  S   UNL d   1       0.251  -1.201  -0.762  0.00  0.00     0.015 SA
ATOM      6  C4  UNL d   1      -1.153  -0.866   0.144  0.00  0.00     0.022 A 
ATOM      7  C5  UNL d   1      -0.864  -0.576   1.456  0.00  0.00     0.026 A 
ATOM      8  C6  UNL d   1       0.543  -0.624   1.741  0.00  0.00    -0.082 A 
ATOM      9  C7  UNL d   1       1.247  -0.394   2.948  0.00  0.00     0.045 A 
ENDROOT
TORSDOF 0
ENDMDL
