MODEL 1
REMARK minimizedAffinity 4.00385857
REMARK minimizedRMSD -1
REMARK  0 active torsions:
REMARK  status: ('A' for Active; 'I' for Inactive)
ROOT
ATOM      1  C   UNL d   1      -0.419  -1.659   0.348  0.00  0.00    -0.002 A 
ATOM      2  C1  UNL d   1      -0.543  -0.771   1.408  0.00  0.00     0.010 A 
ATOM      3  C2  UNL d   1       0.589  -0.212   2.002  0.00  0.00     0.041 A 
ATOM      4  C3  UNL d   1       1.862  -0.561   1.508  0.00  0.00    -0.075 A 
ATOM      5  S   UNL d   1       3.389   0.000   2.079  0.00  0.00     0.015 SA
ATOM      6  C4  UNL d   1       4.242  -0.924   0.929  0.00  0.00     0.022 A 
ATOM      7  C5  UNL d   1       3.398  -1.650   0.122  0.00  0.00     0.026 A 
ATOM      8  C6  UNL d   1       2.013  -1.452   0.442  0.00  0.00    -0.082 A 
ATOM      9  C7  UNL d   1       0.845  -2.003  -0.139  0.00  0.00     0.045 A 
ENDROOT
TORSDOF 0
ENDMDL
