MODEL 1
REMARK minimizedAffinity 4.79132223
REMARK minimizedRMSD -1
REMARK  0 active torsions:
REMARK  status: ('A' for Active; 'I' for Inactive)
ROOT
ATOM      1  C   UNL d   1      -0.446  -1.560   0.534  0.00  0.00    -0.002 A 
ATOM      2  C1  UNL d   1       0.519  -0.737   1.097  0.00  0.00     0.010 A 
ATOM      3  C2  UNL d   1       1.865  -1.105   1.078  0.00  0.00     0.041 A 
ATOM      4  C3  UNL d   1       2.230  -2.325   0.475  0.00  0.00    -0.075 A 
ATOM      5  S   UNL d   1       3.818  -2.981   0.333  0.00  0.00     0.015 SA
ATOM      6  C4  UNL d   1       3.253  -4.369  -0.479  0.00  0.00     0.022 A 
ATOM      7  C5  UNL d   1       1.889  -4.349  -0.646  0.00  0.00     0.026 A 
ATOM      8  C6  UNL d   1       1.276  -3.171  -0.099  0.00  0.00    -0.082 A 
ATOM      9  C7  UNL d   1      -0.081  -2.770  -0.063  0.00  0.00     0.045 A 
ENDROOT
TORSDOF 0
ENDMDL
