MODEL 1
REMARK minimizedAffinity 2.52876925
REMARK minimizedRMSD -1
REMARK  0 active torsions:
REMARK  status: ('A' for Active; 'I' for Inactive)
ROOT
ATOM      1  C   UNL d   1       5.977   4.564  -1.899  0.00  0.00    -0.002 A 
ATOM      2  C1  UNL d   1       4.989   3.599  -2.033  0.00  0.00     0.010 A 
ATOM      3  C2  UNL d   1       4.006   3.447  -1.053  0.00  0.00     0.041 A 
ATOM      4  C3  UNL d   1       4.032   4.291   0.075  0.00  0.00    -0.075 A 
ATOM      5  S   UNL d   1       2.931   4.288   1.401  0.00  0.00     0.015 SA
ATOM      6  C4  UNL d   1       3.745   5.569   2.177  0.00  0.00     0.022 A 
ATOM      7  C5  UNL d   1       4.833   6.000   1.456  0.00  0.00     0.026 A 
ATOM      8  C6  UNL d   1       5.017   5.271   0.232  0.00  0.00    -0.082 A 
ATOM      9  C7  UNL d   1       5.999   5.400  -0.779  0.00  0.00     0.045 A 
ENDROOT
TORSDOF 0
ENDMDL
