MODEL 1
REMARK minimizedAffinity 3.37344837
REMARK minimizedRMSD -1
REMARK  0 active torsions:
REMARK  status: ('A' for Active; 'I' for Inactive)
ROOT
ATOM      1  C   UNL d   1      -1.164  -2.703   0.387  0.00  0.00    -0.002 A 
ATOM      2  C1  UNL d   1      -0.229  -3.547  -0.196  0.00  0.00     0.010 A 
ATOM      3  C2  UNL d   1       1.118  -3.184  -0.252  0.00  0.00     0.041 A 
ATOM      4  C3  UNL d   1       1.514  -1.948   0.295  0.00  0.00    -0.075 A 
ATOM      5  S   UNL d   1       3.109  -1.295   0.341  0.00  0.00     0.015 SA
ATOM      6  C4  UNL d   1       2.588   0.119   1.137  0.00  0.00     0.022 A 
ATOM      7  C5  UNL d   1       1.233   0.110   1.369  0.00  0.00     0.026 A 
ATOM      8  C6  UNL d   1       0.592  -1.081   0.888  0.00  0.00    -0.082 A 
ATOM      9  C7  UNL d   1      -0.767  -1.477   0.928  0.00  0.00     0.045 A 
ENDROOT
TORSDOF 0
ENDMDL
