MODEL 1
REMARK minimizedAffinity -1.04665589
REMARK minimizedRMSD -1
REMARK  0 active torsions:
REMARK  status: ('A' for Active; 'I' for Inactive)
ROOT
ATOM      1  C   UNL d   1       3.776  -2.865  -0.448  0.00  0.00    -0.002 A 
ATOM      2  C1  UNL d   1       3.801  -1.523  -0.094  0.00  0.00     0.010 A 
ATOM      3  C2  UNL d   1       2.655  -0.898   0.401  0.00  0.00     0.041 A 
ATOM      4  C3  UNL d   1       1.473  -1.651   0.538  0.00  0.00    -0.075 A 
ATOM      5  S   UNL d   1      -0.051  -1.096   1.124  0.00  0.00     0.015 SA
ATOM      6  C4  UNL d   1      -0.771  -2.627   0.919  0.00  0.00     0.022 A 
ATOM      7  C5  UNL d   1       0.115  -3.551   0.416  0.00  0.00     0.026 A 
ATOM      8  C6  UNL d   1       1.423  -3.003   0.189  0.00  0.00    -0.082 A 
ATOM      9  C7  UNL d   1       2.601  -3.609  -0.311  0.00  0.00     0.045 A 
ENDROOT
TORSDOF 0
ENDMDL
