MODEL 1
REMARK minimizedAffinity -1.84318829
REMARK minimizedRMSD -1
REMARK  0 active torsions:
REMARK  status: ('A' for Active; 'I' for Inactive)
ROOT
ATOM      1  C   UNL d   1       2.018  -4.860  -0.363  0.00  0.00    -0.002 A 
ATOM      2  C1  UNL d   1       3.188  -4.132  -0.198  0.00  0.00     0.010 A 
ATOM      3  C2  UNL d   1       3.143  -2.809   0.247  0.00  0.00     0.041 A 
ATOM      4  C3  UNL d   1       1.892  -2.226   0.528  0.00  0.00    -0.075 A 
ATOM      5  S   UNL d   1       1.594  -0.622   1.085  0.00  0.00     0.015 SA
ATOM      6  C4  UNL d   1      -0.092  -0.867   1.119  0.00  0.00     0.022 A 
ATOM      7  C5  UNL d   1      -0.437  -2.135   0.717  0.00  0.00     0.026 A 
ATOM      8  C6  UNL d   1       0.701  -2.940   0.370  0.00  0.00    -0.082 A 
ATOM      9  C7  UNL d   1       0.779  -4.279  -0.083  0.00  0.00     0.045 A 
ENDROOT
TORSDOF 0
ENDMDL
