MODEL 1
REMARK minimizedAffinity 5.75975466
REMARK minimizedRMSD -1
REMARK  0 active torsions:
REMARK  status: ('A' for Active; 'I' for Inactive)
ROOT
ATOM      1  C   UNL d   1       0.411   0.105   2.005  0.00  0.00    -0.002 A 
ATOM      2  C1  UNL d   1      -0.739  -0.104   1.256  0.00  0.00     0.010 A 
ATOM      3  C2  UNL d   1      -0.907  -1.283   0.527  0.00  0.00     0.041 A 
ATOM      4  C3  UNL d   1       0.109  -2.258   0.564  0.00  0.00    -0.075 A 
ATOM      5  S   UNL d   1       0.121  -3.778  -0.249  0.00  0.00     0.015 SA
ATOM      6  C4  UNL d   1       1.652  -4.186   0.379  0.00  0.00     0.022 A 
ATOM      7  C5  UNL d   1       2.157  -3.197   1.190  0.00  0.00     0.026 A 
ATOM      8  C6  UNL d   1       1.276  -2.070   1.311  0.00  0.00    -0.082 A 
ATOM      9  C7  UNL d   1       1.416  -0.864   2.039  0.00  0.00     0.045 A 
ENDROOT
TORSDOF 0
ENDMDL
