MODEL 1
REMARK minimizedAffinity 0.383611381
REMARK minimizedRMSD -1
REMARK  0 active torsions:
REMARK  status: ('A' for Active; 'I' for Inactive)
ROOT
ATOM      1  C   UNL d   1       3.126  -2.934  -0.299  0.00  0.00    -0.002 A 
ATOM      2  C1  UNL d   1       2.110  -3.876  -0.381  0.00  0.00     0.010 A 
ATOM      3  C2  UNL d   1       0.816  -3.563   0.037  0.00  0.00     0.041 A 
ATOM      4  C3  UNL d   1       0.556  -2.274   0.543  0.00  0.00    -0.075 A 
ATOM      5  S   UNL d   1      -0.953  -1.666   1.113  0.00  0.00     0.015 SA
ATOM      6  C4  UNL d   1      -0.286  -0.141   1.479  0.00  0.00     0.022 A 
ATOM      7  C5  UNL d   1       1.055  -0.080   1.179  0.00  0.00     0.026 A 
ATOM      8  C6  UNL d   1       1.562  -1.308   0.635  0.00  0.00    -0.082 A 
ATOM      9  C7  UNL d   1       2.864  -1.656   0.203  0.00  0.00     0.045 A 
ENDROOT
TORSDOF 0
ENDMDL
