MODEL 1
REMARK minimizedAffinity 6.75639772
REMARK minimizedRMSD -1
REMARK  0 active torsions:
REMARK  status: ('A' for Active; 'I' for Inactive)
ROOT
ATOM      1  C   UNL d   1       2.564  -2.673  -0.400  0.00  0.00    -0.002 A 
ATOM      2  C1  UNL d   1       1.522  -3.547  -0.677  0.00  0.00     0.010 A 
ATOM      3  C2  UNL d   1       0.214  -3.235  -0.300  0.00  0.00     0.041 A 
ATOM      4  C3  UNL d   1      -0.031  -2.017   0.365  0.00  0.00    -0.075 A 
ATOM      5  S   UNL d   1      -1.552  -1.425   0.920  0.00  0.00     0.015 SA
ATOM      6  C4  UNL d   1      -0.854   0.003   1.537  0.00  0.00     0.022 A 
ATOM      7  C5  UNL d   1       0.505   0.043   1.333  0.00  0.00     0.026 A 
ATOM      8  C6  UNL d   1       1.001  -1.121   0.654  0.00  0.00    -0.082 A 
ATOM      9  C7  UNL d   1       2.316  -1.466   0.259  0.00  0.00     0.045 A 
ENDROOT
TORSDOF 0
ENDMDL
