MODEL 1
REMARK minimizedAffinity 10.5164356
REMARK minimizedRMSD -1
REMARK  0 active torsions:
REMARK  status: ('A' for Active; 'I' for Inactive)
ROOT
ATOM      1  C   UNL d   1       4.777   2.973  -1.932  0.00  0.00    -0.002 A 
ATOM      2  C1  UNL d   1       5.842   3.861  -1.976  0.00  0.00     0.010 A 
ATOM      3  C2  UNL d   1       5.998   4.832  -0.985  0.00  0.00     0.041 A 
ATOM      4  C3  UNL d   1       5.058   4.894   0.062  0.00  0.00    -0.075 A 
ATOM      5  S   UNL d   1       5.048   5.999   1.386  0.00  0.00     0.015 SA
ATOM      6  C4  UNL d   1       3.630   5.317   2.041  0.00  0.00     0.022 A 
ATOM      7  C5  UNL d   1       3.162   4.271   1.281  0.00  0.00     0.026 A 
ATOM      8  C6  UNL d   1       3.977   4.010   0.129  0.00  0.00    -0.082 A 
ATOM      9  C7  UNL d   1       3.846   3.038  -0.892  0.00  0.00     0.045 A 
ENDROOT
TORSDOF 0
ENDMDL
