MODEL 1
REMARK minimizedAffinity -3.43174767
REMARK minimizedRMSD -1
REMARK  3 active torsions:
REMARK  status: ('A' for Active; 'I' for Inactive)
REMARK    1  A    between atoms: C3'_2  and  C2'_3 
REMARK    2  A    between atoms: C2'_3  and  C1'_4 
REMARK    3  A    between atoms: C1'_4  and  C1_5 
ROOT
ATOM      1  C1  N4B d   1       0.922   0.102  -0.094  0.00  0.00    -0.075 A 
ATOM      2  C2  N4B d   1       0.838   0.410  -1.470  0.00  0.00     0.002 A 
ATOM      3  C3  N4B d   1      -0.377   0.373  -2.108  0.00  0.00     0.002 A 
ATOM      4  C4  N4B d   1      -1.514   0.013  -1.400  0.00  0.00    -0.004 A 
ATOM      5  C5  N4B d   1      -1.428  -0.259  -0.066  0.00  0.00     0.002 A 
ATOM      6  C6  N4B d   1      -0.214  -0.221   0.590  0.00  0.00     0.002 A 
ENDROOT
BRANCH   1   7
ATOM      7  C1' N4B d   1       2.241   0.045   0.628  0.00  0.00     0.057 C 
BRANCH   7   8
ATOM      8  C2' N4B d   1       2.926   1.405   0.526  0.00  0.00     0.009 C 
BRANCH   8   9
ATOM      9  C3' N4B d   1       2.541   2.323   1.674  0.00  0.00     0.004 C 
ATOM     10  C4' N4B d   1       2.323   3.740   1.237  0.00  0.00     0.003 C 
ENDBRANCH   8   9
ENDBRANCH   7   8
ENDBRANCH   1   7
TORSDOF 3
ENDMDL
