MODEL 1
REMARK minimizedAffinity -4.16595936
REMARK minimizedRMSD -1
REMARK  3 active torsions:
REMARK  status: ('A' for Active; 'I' for Inactive)
REMARK    1  A    between atoms: C3'_2  and  C2'_3 
REMARK    2  A    between atoms: C2'_3  and  C1'_4 
REMARK    3  A    between atoms: C1'_4  and  C1_5 
ROOT
ATOM      1  C1  N4B d   1       0.055  -0.162  -0.422  0.00  0.00    -0.075 A 
ATOM      2  C2  N4B d   1      -0.778  -1.111   0.210  0.00  0.00     0.002 A 
ATOM      3  C3  N4B d   1      -2.090  -1.236  -0.175  0.00  0.00     0.002 A 
ATOM      4  C4  N4B d   1      -2.594  -0.414  -1.172  0.00  0.00    -0.004 A 
ATOM      5  C5  N4B d   1      -1.776   0.482  -1.795  0.00  0.00     0.002 A 
ATOM      6  C6  N4B d   1      -0.454   0.616  -1.422  0.00  0.00     0.002 A 
ENDROOT
BRANCH   1   7
ATOM      7  C1' N4B d   1       1.473   0.071   0.022  0.00  0.00     0.057 C 
BRANCH   7   8
ATOM      8  C2' N4B d   1       1.766   1.568  -0.001  0.00  0.00     0.009 C 
BRANCH   8   9
ATOM      9  C3' N4B d   1       1.568   2.207   1.363  0.00  0.00     0.004 C 
ATOM     10  C4' N4B d   1       2.341   3.482   1.525  0.00  0.00     0.003 C 
ENDBRANCH   8   9
ENDBRANCH   7   8
ENDBRANCH   1   7
TORSDOF 3
ENDMDL
