MODEL 1
REMARK minimizedAffinity -1.73404908
REMARK minimizedRMSD -1
REMARK  3 active torsions:
REMARK  status: ('A' for Active; 'I' for Inactive)
REMARK    1  A    between atoms: C3'_2  and  C2'_3 
REMARK    2  A    between atoms: C2'_3  and  C1'_4 
REMARK    3  A    between atoms: C1'_4  and  C1_5 
ROOT
ATOM      1  C1  N4B d   1       1.752   0.590   0.056  0.00  0.00    -0.075 A 
ATOM      2  C2  N4B d   1       2.006  -0.519   0.893  0.00  0.00     0.002 A 
ATOM      3  C3  N4B d   1       0.961  -1.267   1.377  0.00  0.00     0.002 A 
ATOM      4  C4  N4B d   1      -0.341  -0.916   1.054  0.00  0.00    -0.004 A 
ATOM      5  C5  N4B d   1      -0.576   0.141   0.225  0.00  0.00     0.002 A 
ATOM      6  C6  N4B d   1       0.464   0.899  -0.272  0.00  0.00     0.002 A 
ENDROOT
BRANCH   1   7
ATOM      7  C1' N4B d   1       2.857   1.489  -0.428  0.00  0.00     0.057 C 
BRANCH   7   8
ATOM      8  C2' N4B d   1       2.765   2.829   0.295  0.00  0.00     0.009 C 
BRANCH   8   9
ATOM      9  C3' N4B d   1       2.968   2.681   1.793  0.00  0.00     0.004 C 
ATOM     10  C4' N4B d   1       1.682   2.750   2.563  0.00  0.00     0.003 C 
ENDBRANCH   8   9
ENDBRANCH   7   8
ENDBRANCH   1   7
TORSDOF 3
ENDMDL
