MODEL 1
REMARK minimizedAffinity -3.09091783
REMARK minimizedRMSD -1
REMARK  3 active torsions:
REMARK  status: ('A' for Active; 'I' for Inactive)
REMARK    1  A    between atoms: C3'_2  and  C2'_3 
REMARK    2  A    between atoms: C2'_3  and  C1'_4 
REMARK    3  A    between atoms: C1'_4  and  C1_5 
ROOT
ATOM      1  C1  N4B d   1       1.524   0.362   0.261  0.00  0.00    -0.075 A 
ATOM      2  C2  N4B d   1       1.182  -0.765   1.040  0.00  0.00     0.002 A 
ATOM      3  C3  N4B d   1      -0.019  -1.399   0.839  0.00  0.00     0.002 A 
ATOM      4  C4  N4B d   1      -0.900  -0.914  -0.117  0.00  0.00    -0.004 A 
ATOM      5  C5  N4B d   1      -0.551   0.160  -0.881  0.00  0.00     0.002 A 
ATOM      6  C6  N4B d   1       0.655   0.805  -0.694  0.00  0.00     0.002 A 
ENDROOT
BRANCH   1   7
ATOM      7  C1' N4B d   1       2.789   1.140   0.503  0.00  0.00     0.057 C 
BRANCH   7   8
ATOM      8  C2' N4B d   1       2.473   2.353   1.374  0.00  0.00     0.009 C 
BRANCH   8   9
ATOM      9  C3' N4B d   1       1.918   1.949   2.730  0.00  0.00     0.004 C 
ATOM     10  C4' N4B d   1       2.897   1.157   3.545  0.00  0.00     0.003 C 
ENDBRANCH   8   9
ENDBRANCH   7   8
ENDBRANCH   1   7
TORSDOF 3
ENDMDL
