MODEL 1
REMARK minimizedAffinity 5.0983777
REMARK minimizedRMSD -1
REMARK  3 active torsions:
REMARK  status: ('A' for Active; 'I' for Inactive)
REMARK    1  A    between atoms: C3'_2  and  C2'_3 
REMARK    2  A    between atoms: C2'_3  and  C1'_4 
REMARK    3  A    between atoms: C1'_4  and  C1_5 
ROOT
ATOM      1  C1  N4B d   1      -2.190  -1.045  -0.113  0.00  0.00    -0.075 A 
ATOM      2  C2  N4B d   1      -3.025  -2.045   0.431  0.00  0.00     0.002 A 
ATOM      3  C3  N4B d   1      -2.597  -2.788   1.504  0.00  0.00     0.002 A 
ATOM      4  C4  N4B d   1      -1.336  -2.563   2.034  0.00  0.00    -0.004 A 
ATOM      5  C5  N4B d   1      -0.545  -1.578   1.519  0.00  0.00     0.002 A 
ATOM      6  C6  N4B d   1      -0.964  -0.821   0.444  0.00  0.00     0.002 A 
ENDROOT
BRANCH   1   7
ATOM      7  C1' N4B d   1      -2.579  -0.265  -1.339  0.00  0.00     0.057 C 
BRANCH   7   8
ATOM      8  C2' N4B d   1      -1.444  -0.330  -2.356  0.00  0.00     0.009 C 
BRANCH   8   9
ATOM      9  C3' N4B d   1      -1.200  -1.748  -2.845  0.00  0.00     0.004 C 
ATOM     10  C4' N4B d   1      -2.461  -2.442  -3.265  0.00  0.00     0.003 C 
ENDBRANCH   8   9
ENDBRANCH   7   8
ENDBRANCH   1   7
TORSDOF 3
ENDMDL
