MODEL 1
REMARK minimizedAffinity -2.69884753
REMARK minimizedRMSD -1
REMARK  3 active torsions:
REMARK  status: ('A' for Active; 'I' for Inactive)
REMARK    1  A    between atoms: C3'_2  and  C2'_3 
REMARK    2  A    between atoms: C2'_3  and  C1'_4 
REMARK    3  A    between atoms: C1'_4  and  C1_5 
ROOT
ATOM      1  C1  N4B d   1       0.309   0.197  -0.036  0.00  0.00    -0.075 A 
ATOM      2  C2  N4B d   1      -0.247  -1.039   0.360  0.00  0.00     0.002 A 
ATOM      3  C3  N4B d   1      -1.378  -1.513  -0.259  0.00  0.00     0.002 A 
ATOM      4  C4  N4B d   1      -1.978  -0.762  -1.259  0.00  0.00    -0.004 A 
ATOM      5  C5  N4B d   1      -1.420   0.419  -1.653  0.00  0.00     0.002 A 
ATOM      6  C6  N4B d   1      -0.282   0.905  -1.042  0.00  0.00     0.002 A 
ENDROOT
BRANCH   1   7
ATOM      7  C1' N4B d   1       1.494   0.797   0.670  0.00  0.00     0.057 C 
BRANCH   7   8
ATOM      8  C2' N4B d   1       2.254   1.695  -0.301  0.00  0.00     0.009 C 
BRANCH   8   9
ATOM      9  C3' N4B d   1       2.885   2.886   0.400  0.00  0.00     0.004 C 
ATOM     10  C4' N4B d   1       2.721   2.836   1.890  0.00  0.00     0.003 C 
ENDBRANCH   8   9
ENDBRANCH   7   8
ENDBRANCH   1   7
TORSDOF 3
ENDMDL
