MODEL 1
REMARK minimizedAffinity -5.3022542
REMARK minimizedRMSD -1
REMARK  3 active torsions:
REMARK  status: ('A' for Active; 'I' for Inactive)
REMARK    1  A    between atoms: C3'_2  and  C2'_3 
REMARK    2  A    between atoms: C2'_3  and  C1'_4 
REMARK    3  A    between atoms: C1'_4  and  C1_5 
ROOT
ATOM      1  C1  N4B d   1      -0.183  -0.225  -0.097  0.00  0.00    -0.075 A 
ATOM      2  C2  N4B d   1      -0.667   0.695  -1.052  0.00  0.00     0.002 A 
ATOM      3  C3  N4B d   1      -1.897   0.501  -1.631  0.00  0.00     0.002 A 
ATOM      4  C4  N4B d   1      -2.650  -0.612  -1.286  0.00  0.00    -0.004 A 
ATOM      5  C5  N4B d   1      -2.186  -1.483  -0.344  0.00  0.00     0.002 A 
ATOM      6  C6  N4B d   1      -0.953  -1.298   0.249  0.00  0.00     0.002 A 
ENDROOT
BRANCH   1   7
ATOM      7  C1' N4B d   1       1.192  -0.101   0.500  0.00  0.00     0.057 C 
BRANCH   7   8
ATOM      8  C2' N4B d   1       1.783   1.253   0.118  0.00  0.00     0.009 C 
BRANCH   8   9
ATOM      9  C3' N4B d   1       1.805   2.214   1.294  0.00  0.00     0.004 C 
ATOM     10  C4' N4B d   1       2.152   3.617   0.891  0.00  0.00     0.003 C 
ENDBRANCH   8   9
ENDBRANCH   7   8
ENDBRANCH   1   7
TORSDOF 3
ENDMDL
