MODEL 1
REMARK minimizedAffinity -3.88493371
REMARK minimizedRMSD -1
REMARK  3 active torsions:
REMARK  status: ('A' for Active; 'I' for Inactive)
REMARK    1  A    between atoms: C3'_2  and  C2'_3 
REMARK    2  A    between atoms: C2'_3  and  C1'_4 
REMARK    3  A    between atoms: C1'_4  and  C1_5 
ROOT
ATOM      1  C1  N4B d   1       1.794   0.841   0.043  0.00  0.00    -0.075 A 
ATOM      2  C2  N4B d   1       2.800   1.379  -0.790  0.00  0.00     0.002 A 
ATOM      3  C3  N4B d   1       3.371   2.590  -0.482  0.00  0.00     0.002 A 
ATOM      4  C4  N4B d   1       2.941   3.286   0.637  0.00  0.00    -0.004 A 
ATOM      5  C5  N4B d   1       1.987   2.748   1.451  0.00  0.00     0.002 A 
ATOM      6  C6  N4B d   1       1.408   1.530   1.156  0.00  0.00     0.002 A 
ENDROOT
BRANCH   1   7
ATOM      7  C1' N4B d   1       1.080  -0.438  -0.299  0.00  0.00     0.057 C 
BRANCH   7   8
ATOM      8  C2' N4B d   1      -0.148  -0.115  -1.144  0.00  0.00     0.009 C 
BRANCH   8   9
ATOM      9  C3' N4B d   1      -1.375  -0.880  -0.679  0.00  0.00     0.004 C 
ATOM     10  C4' N4B d   1      -2.652  -0.318  -1.229  0.00  0.00     0.003 C 
ENDBRANCH   8   9
ENDBRANCH   7   8
ENDBRANCH   1   7
TORSDOF 3
ENDMDL
