MODEL 1
REMARK minimizedAffinity -2.76020718
REMARK minimizedRMSD -1
REMARK  3 active torsions:
REMARK  status: ('A' for Active; 'I' for Inactive)
REMARK    1  A    between atoms: C3'_2  and  C2'_3 
REMARK    2  A    between atoms: C2'_3  and  C1'_4 
REMARK    3  A    between atoms: C1'_4  and  C1_5 
ROOT
ATOM      1  C1  N4B d   1       1.386   1.275   0.625  0.00  0.00    -0.075 A 
ATOM      2  C2  N4B d   1       1.006   2.153   1.664  0.00  0.00     0.002 A 
ATOM      3  C3  N4B d   1       1.869   3.135   2.084  0.00  0.00     0.002 A 
ATOM      4  C4  N4B d   1       3.120   3.246   1.496  0.00  0.00    -0.004 A 
ATOM      5  C5  N4B d   1       3.470   2.411   0.476  0.00  0.00     0.002 A 
ATOM      6  C6  N4B d   1       2.611   1.422   0.041  0.00  0.00     0.002 A 
ENDROOT
BRANCH   1   7
ATOM      7  C1' N4B d   1       0.511   0.131   0.191  0.00  0.00     0.057 C 
BRANCH   7   8
ATOM      8  C2' N4B d   1      -0.528   0.645  -0.802  0.00  0.00     0.009 C 
BRANCH   8   9
ATOM      9  C3' N4B d   1      -1.153  -0.483  -1.605  0.00  0.00     0.004 C 
ATOM     10  C4' N4B d   1      -2.467  -0.936  -1.044  0.00  0.00     0.003 C 
ENDBRANCH   8   9
ENDBRANCH   7   8
ENDBRANCH   1   7
TORSDOF 3
ENDMDL
