MODEL 1
REMARK minimizedAffinity -1.95887756
REMARK minimizedRMSD -1
REMARK  0 active torsions:
REMARK  status: ('A' for Active; 'I' for Inactive)
ROOT
ATOM      1  C   UNL d   1       3.159  -1.876   5.241  0.00  0.00     0.078 C 
ATOM      2  C1  UNL d   1       4.156  -0.780   5.011  0.00  0.00    -0.077 A 
ATOM      3  C2  UNL d   1       5.084  -0.430   6.000  0.00  0.00    -0.001 A 
ATOM      4  C3  UNL d   1       6.000   0.599   5.776  0.00  0.00     0.003 A 
ATOM      5  C4  UNL d   1       5.996   1.288   4.564  0.00  0.00    -0.005 A 
ATOM      6  C5  UNL d   1       5.075   0.948   3.575  0.00  0.00     0.003 A 
ATOM      7  C6  UNL d   1       4.159  -0.081   3.797  0.00  0.00    -0.001 A 
ENDROOT
TORSDOF 0
ENDMDL
