MODEL 1
REMARK minimizedAffinity 1.31127107
REMARK minimizedRMSD -1
REMARK  0 active torsions:
REMARK  status: ('A' for Active; 'I' for Inactive)
ROOT
ATOM      1  C   UNL d   1       4.236   3.205   2.565  0.00  0.00     0.078 C 
ATOM      2  C1  UNL d   1       4.847   2.051   3.303  0.00  0.00    -0.077 A 
ATOM      3  C2  UNL d   1       5.416   2.226   4.570  0.00  0.00    -0.001 A 
ATOM      4  C3  UNL d   1       5.990   1.145   5.242  0.00  0.00     0.003 A 
ATOM      5  C4  UNL d   1       6.000  -0.118   4.653  0.00  0.00    -0.005 A 
ATOM      6  C5  UNL d   1       5.437  -0.301   3.392  0.00  0.00     0.003 A 
ATOM      7  C6  UNL d   1       4.864   0.779   2.719  0.00  0.00    -0.001 A 
ENDROOT
TORSDOF 0
ENDMDL
