MODEL 1
REMARK minimizedAffinity 0.548576117
REMARK minimizedRMSD -1
REMARK  0 active torsions:
REMARK  status: ('A' for Active; 'I' for Inactive)
ROOT
ATOM      1  C   UNL d   1       3.375  -0.749   4.050  0.00  0.00     0.078 C 
ATOM      2  C1  UNL d   1       4.238   0.472   3.936  0.00  0.00    -0.077 A 
ATOM      3  C2  UNL d   1       4.125   1.336   2.840  0.00  0.00    -0.001 A 
ATOM      4  C3  UNL d   1       4.942   2.463   2.743  0.00  0.00     0.003 A 
ATOM      5  C4  UNL d   1       5.879   2.737   3.738  0.00  0.00    -0.005 A 
ATOM      6  C5  UNL d   1       6.000   1.882   4.831  0.00  0.00     0.003 A 
ATOM      7  C6  UNL d   1       5.184   0.754   4.930  0.00  0.00    -0.001 A 
ENDROOT
TORSDOF 0
ENDMDL
