MODEL 1
REMARK minimizedAffinity 3.85340881
REMARK minimizedRMSD -1
REMARK  0 active torsions:
REMARK  status: ('A' for Active; 'I' for Inactive)
ROOT
ATOM      1  C   UNL d   1       2.202  -1.382   4.532  0.00  0.00     0.078 C 
ATOM      2  C1  UNL d   1       3.520  -0.671   4.593  0.00  0.00    -0.077 A 
ATOM      3  C2  UNL d   1       3.994   0.064   3.499  0.00  0.00    -0.001 A 
ATOM      4  C3  UNL d   1       5.228   0.714   3.566  0.00  0.00     0.003 A 
ATOM      5  C4  UNL d   1       5.999   0.634   4.724  0.00  0.00    -0.005 A 
ATOM      6  C5  UNL d   1       5.537  -0.097   5.817  0.00  0.00     0.003 A 
ATOM      7  C6  UNL d   1       4.303  -0.747   5.752  0.00  0.00    -0.001 A 
ENDROOT
TORSDOF 0
ENDMDL
