MODEL 1
REMARK minimizedAffinity -2.00785208
REMARK minimizedRMSD -1
REMARK  0 active torsions:
REMARK  status: ('A' for Active; 'I' for Inactive)
ROOT
ATOM      1  C   UNL d   1       6.000   1.103   5.265  0.00  0.00     0.078 C 
ATOM      2  C1  UNL d   1       4.940   0.699   4.284  0.00  0.00    -0.077 A 
ATOM      3  C2  UNL d   1       4.180  -0.460   4.481  0.00  0.00    -0.001 A 
ATOM      4  C3  UNL d   1       3.203  -0.830   3.554  0.00  0.00     0.003 A 
ATOM      5  C4  UNL d   1       2.978  -0.046   2.425  0.00  0.00    -0.005 A 
ATOM      6  C5  UNL d   1       3.731   1.109   2.220  0.00  0.00     0.003 A 
ATOM      7  C6  UNL d   1       4.708   1.480   3.145  0.00  0.00    -0.001 A 
ENDROOT
TORSDOF 0
ENDMDL
