MODEL 1
REMARK minimizedAffinity -0.0640167743
REMARK minimizedRMSD -1
REMARK  0 active torsions:
REMARK  status: ('A' for Active; 'I' for Inactive)
ROOT
ATOM      1  C   UNL d   1      -6.000  -2.201   2.998  0.00  0.00     0.078 C 
ATOM      2  C1  UNL d   1      -4.942  -1.142   3.086  0.00  0.00    -0.077 A 
ATOM      3  C2  UNL d   1      -4.377  -0.590   1.930  0.00  0.00    -0.001 A 
ATOM      4  C3  UNL d   1      -3.386   0.388   2.027  0.00  0.00     0.003 A 
ATOM      5  C4  UNL d   1      -2.950   0.822   3.277  0.00  0.00    -0.005 A 
ATOM      6  C5  UNL d   1      -3.505   0.276   4.433  0.00  0.00     0.003 A 
ATOM      7  C6  UNL d   1      -4.496  -0.702   4.339  0.00  0.00    -0.001 A 
ENDROOT
TORSDOF 0
ENDMDL
