MODEL 1
REMARK minimizedAffinity -3.83676624
REMARK minimizedRMSD -1
REMARK  0 active torsions:
REMARK  status: ('A' for Active; 'I' for Inactive)
ROOT
ATOM      1  C   UNL d   1       0.887  -5.339   1.279  0.00  0.00     0.078 C 
ATOM      2  C1  UNL d   1       0.798  -3.895   0.885  0.00  0.00    -0.077 A 
ATOM      3  C2  UNL d   1       1.843  -3.006   1.165  0.00  0.00    -0.001 A 
ATOM      4  C3  UNL d   1       1.743  -1.662   0.802  0.00  0.00     0.003 A 
ATOM      5  C4  UNL d   1       0.599  -1.195   0.157  0.00  0.00    -0.005 A 
ATOM      6  C5  UNL d   1      -0.446  -2.072  -0.124  0.00  0.00     0.003 A 
ATOM      7  C6  UNL d   1      -0.348  -3.416   0.239  0.00  0.00    -0.001 A 
ENDROOT
TORSDOF 0
ENDMDL
