MODEL 1
REMARK minimizedAffinity 1.82264364
REMARK minimizedRMSD -1
REMARK  0 active torsions:
REMARK  status: ('A' for Active; 'I' for Inactive)
ROOT
ATOM      1  C   UNL d   1       6.000   0.873   5.689  0.00  0.00     0.078 C 
ATOM      2  C1  UNL d   1       5.140   0.770   4.465  0.00  0.00    -0.077 A 
ATOM      3  C2  UNL d   1       4.633  -0.464   4.041  0.00  0.00    -0.001 A 
ATOM      4  C3  UNL d   1       3.843  -0.546   2.893  0.00  0.00     0.003 A 
ATOM      5  C4  UNL d   1       3.553   0.603   2.160  0.00  0.00    -0.005 A 
ATOM      6  C5  UNL d   1       4.056   1.836   2.572  0.00  0.00     0.003 A 
ATOM      7  C6  UNL d   1       4.846   1.919   3.720  0.00  0.00    -0.001 A 
ENDROOT
TORSDOF 0
ENDMDL
