MODEL 1
REMARK minimizedAffinity 5.05404758
REMARK minimizedRMSD -1
REMARK  0 active torsions:
REMARK  status: ('A' for Active; 'I' for Inactive)
ROOT
ATOM      1  C   UNL d   1       3.750   2.627   2.206  0.00  0.00     0.078 C 
ATOM      2  C1  UNL d   1       4.428   1.624   3.090  0.00  0.00    -0.077 A 
ATOM      3  C2  UNL d   1       4.126   0.260   2.997  0.00  0.00    -0.001 A 
ATOM      4  C3  UNL d   1       4.758  -0.662   3.833  0.00  0.00     0.003 A 
ATOM      5  C4  UNL d   1       5.694  -0.230   4.770  0.00  0.00    -0.005 A 
ATOM      6  C5  UNL d   1       5.999   1.126   4.872  0.00  0.00     0.003 A 
ATOM      7  C6  UNL d   1       5.369   2.049   4.036  0.00  0.00    -0.001 A 
ENDROOT
TORSDOF 0
ENDMDL
