MODEL 1
REMARK minimizedAffinity 3.29474497
REMARK minimizedRMSD -1
REMARK  0 active torsions:
REMARK  status: ('A' for Active; 'I' for Inactive)
ROOT
ATOM      1  C   UNL d   1       6.000   1.726  -5.632  0.00  0.00     0.078 C 
ATOM      2  C1  UNL d   1       4.684   2.446  -5.622  0.00  0.00    -0.077 A 
ATOM      3  C2  UNL d   1       3.503   1.794  -5.998  0.00  0.00    -0.001 A 
ATOM      4  C3  UNL d   1       2.287   2.479  -5.993  0.00  0.00     0.003 A 
ATOM      5  C4  UNL d   1       2.240   3.820  -5.615  0.00  0.00    -0.005 A 
ATOM      6  C5  UNL d   1       3.411   4.477  -5.241  0.00  0.00     0.003 A 
ATOM      7  C6  UNL d   1       4.628   3.793  -5.245  0.00  0.00    -0.001 A 
ENDROOT
TORSDOF 0
ENDMDL
