MODEL 1
REMARK minimizedAffinity -3.86279845
REMARK minimizedRMSD -1
REMARK  0 active torsions:
REMARK  status: ('A' for Active; 'I' for Inactive)
ROOT
ATOM      1  C   UNL d   1       5.999   1.118   6.000  0.00  0.00     0.078 C 
ATOM      2  C1  UNL d   1       5.113   0.667   4.877  0.00  0.00    -0.077 A 
ATOM      3  C2  UNL d   1       4.559  -0.619   4.867  0.00  0.00    -0.001 A 
ATOM      4  C3  UNL d   1       3.744  -1.028   3.810  0.00  0.00     0.003 A 
ATOM      5  C4  UNL d   1       3.477  -0.159   2.755  0.00  0.00    -0.005 A 
ATOM      6  C5  UNL d   1       4.026   1.122   2.754  0.00  0.00     0.003 A 
ATOM      7  C6  UNL d   1       4.841   1.533   3.810  0.00  0.00    -0.001 A 
ENDROOT
TORSDOF 0
ENDMDL
