MODEL 1
REMARK minimizedAffinity -2.10020399
REMARK minimizedRMSD -1
REMARK  0 active torsions:
REMARK  status: ('A' for Active; 'I' for Inactive)
ROOT
ATOM      1  C   UNL d   1       5.998   0.763   5.612  0.00  0.00     0.078 C 
ATOM      2  C1  UNL d   1       5.012   0.537   4.504  0.00  0.00    -0.077 A 
ATOM      3  C2  UNL d   1       4.741   1.539   3.565  0.00  0.00    -0.001 A 
ATOM      4  C3  UNL d   1       3.814   1.318   2.545  0.00  0.00     0.003 A 
ATOM      5  C4  UNL d   1       3.149   0.097   2.456  0.00  0.00    -0.005 A 
ATOM      6  C5  UNL d   1       3.411  -0.906   3.388  0.00  0.00     0.003 A 
ATOM      7  C6  UNL d   1       4.338  -0.687   4.408  0.00  0.00    -0.001 A 
ENDROOT
TORSDOF 0
ENDMDL
