MODEL 1
REMARK minimizedAffinity -4.27438068
REMARK minimizedRMSD -1
REMARK  0 active torsions:
REMARK  status: ('A' for Active; 'I' for Inactive)
ROOT
ATOM      1  C   UNL d   1      -2.918  -1.476   0.811  0.00  0.00     0.078 C 
ATOM      2  C1  UNL d   1      -2.962   0.001   1.063  0.00  0.00    -0.077 A 
ATOM      3  C2  UNL d   1      -2.216   0.579   2.098  0.00  0.00    -0.001 A 
ATOM      4  C3  UNL d   1      -2.274   1.954   2.327  0.00  0.00     0.003 A 
ATOM      5  C4  UNL d   1      -3.078   2.764   1.527  0.00  0.00    -0.005 A 
ATOM      6  C5  UNL d   1      -3.825   2.198   0.496  0.00  0.00     0.003 A 
ATOM      7  C6  UNL d   1      -3.769   0.823   0.265  0.00  0.00    -0.001 A 
ENDROOT
TORSDOF 0
ENDMDL
