MODEL 1
REMARK minimizedAffinity 0.609057486
REMARK minimizedRMSD -1
REMARK  0 active torsions:
REMARK  status: ('A' for Active; 'I' for Inactive)
ROOT
ATOM      1  C   UNL d   1      -3.208   2.075   0.010  0.00  0.00     0.078 C 
ATOM      2  C1  UNL d   1      -3.222   1.148   1.188  0.00  0.00    -0.077 A 
ATOM      3  C2  UNL d   1      -3.726  -0.153   1.077  0.00  0.00    -0.001 A 
ATOM      4  C3  UNL d   1      -3.741  -1.002   2.185  0.00  0.00     0.003 A 
ATOM      5  C4  UNL d   1      -3.255  -0.558   3.413  0.00  0.00    -0.005 A 
ATOM      6  C5  UNL d   1      -2.753   0.736   3.534  0.00  0.00     0.003 A 
ATOM      7  C6  UNL d   1      -2.737   1.586   2.427  0.00  0.00    -0.001 A 
ENDROOT
TORSDOF 0
ENDMDL
