MODEL 1
REMARK minimizedAffinity 1.41921318
REMARK minimizedRMSD -1
REMARK  0 active torsions:
REMARK  status: ('A' for Active; 'I' for Inactive)
ROOT
ATOM      1  C   UNL d   1      -2.990  -0.802   2.824  0.00  0.00     0.078 C 
ATOM      2  C1  UNL d   1      -3.606  -0.350   1.533  0.00  0.00    -0.077 A 
ATOM      3  C2  UNL d   1      -2.817   0.177   0.503  0.00  0.00    -0.001 A 
ATOM      4  C3  UNL d   1      -3.405   0.602  -0.689  0.00  0.00     0.003 A 
ATOM      5  C4  UNL d   1      -4.784   0.506  -0.862  0.00  0.00    -0.005 A 
ATOM      6  C5  UNL d   1      -5.577  -0.015   0.158  0.00  0.00     0.003 A 
ATOM      7  C6  UNL d   1      -4.991  -0.441   1.351  0.00  0.00    -0.001 A 
ENDROOT
TORSDOF 0
ENDMDL
