MODEL 1
REMARK minimizedAffinity -0.567451775
REMARK minimizedRMSD -1
REMARK  0 active torsions:
REMARK  status: ('A' for Active; 'I' for Inactive)
ROOT
ATOM      1  C   UNL d   1      -2.591   3.116   0.333  0.00  0.00     0.078 C 
ATOM      2  C1  UNL d   1      -2.690   1.709   0.842  0.00  0.00    -0.077 A 
ATOM      3  C2  UNL d   1      -2.946   0.643  -0.029  0.00  0.00    -0.001 A 
ATOM      4  C3  UNL d   1      -3.046  -0.660   0.460  0.00  0.00     0.003 A 
ATOM      5  C4  UNL d   1      -2.891  -0.910   1.822  0.00  0.00    -0.005 A 
ATOM      6  C5  UNL d   1      -2.638   0.144   2.697  0.00  0.00     0.003 A 
ATOM      7  C6  UNL d   1      -2.538   1.449   2.210  0.00  0.00    -0.001 A 
ENDROOT
TORSDOF 0
ENDMDL
