MODEL 1
REMARK minimizedAffinity 4.72597218
REMARK minimizedRMSD -1
REMARK  3 active torsions:
REMARK  status: ('A' for Active; 'I' for Inactive)
REMARK    1  A    between atoms: C3'_2  and  C2'_3 
REMARK    2  A    between atoms: C2'_3  and  C1'_4 
REMARK    3  A    between atoms: C1'_4  and  C1_5 
ROOT
ATOM      1  C1  N4B d   1       0.190   1.835   0.381  0.00  0.00    -0.075 A 
ATOM      2  C2  N4B d   1       1.068   1.647   1.471  0.00  0.00     0.002 A 
ATOM      3  C3  N4B d   1       1.648   2.732   2.081  0.00  0.00     0.002 A 
ATOM      4  C4  N4B d   1       1.382   4.008   1.608  0.00  0.00    -0.004 A 
ATOM      5  C5  N4B d   1       0.513   4.183   0.571  0.00  0.00     0.002 A 
ATOM      6  C6  N4B d   1      -0.081   3.102  -0.049  0.00  0.00     0.002 A 
ENDROOT
BRANCH   1   7
ATOM      7  C1' N4B d   1      -0.401   0.675  -0.372  0.00  0.00     0.057 C 
BRANCH   7   8
ATOM      8  C2' N4B d   1      -1.852   0.992  -0.722  0.00  0.00     0.009 C 
BRANCH   8   9
ATOM      9  C3' N4B d   1      -2.794   0.692   0.432  0.00  0.00     0.004 C 
ATOM     10  C4' N4B d   1      -4.168   1.254   0.220  0.00  0.00     0.003 C 
ENDBRANCH   8   9
ENDBRANCH   7   8
ENDBRANCH   1   7
TORSDOF 3
ENDMDL
