MODEL 1
REMARK minimizedAffinity 6.61401796
REMARK minimizedRMSD -1
REMARK  3 active torsions:
REMARK  status: ('A' for Active; 'I' for Inactive)
REMARK    1  A    between atoms: C3'_2  and  C2'_3 
REMARK    2  A    between atoms: C2'_3  and  C1'_4 
REMARK    3  A    between atoms: C1'_4  and  C1_5 
ROOT
ATOM      1  C1  N4B d   1      -4.579   4.317   3.830  0.00  0.00    -0.075 A 
ATOM      2  C2  N4B d   1      -5.109   3.008   3.808  0.00  0.00     0.002 A 
ATOM      3  C3  N4B d   1      -5.821   2.537   4.883  0.00  0.00     0.002 A 
ATOM      4  C4  N4B d   1      -5.999   3.346   5.995  0.00  0.00    -0.004 A 
ATOM      5  C5  N4B d   1      -5.506   4.618   5.999  0.00  0.00     0.002 A 
ATOM      6  C6  N4B d   1      -4.792   5.106   4.924  0.00  0.00     0.002 A 
ENDROOT
BRANCH   1   7
ATOM      7  C1' N4B d   1      -3.721   4.846   2.714  0.00  0.00     0.057 C 
BRANCH   7   8
ATOM      8  C2' N4B d   1      -2.343   5.200   3.266  0.00  0.00     0.009 C 
BRANCH   8   9
ATOM      9  C3' N4B d   1      -1.410   5.708   2.181  0.00  0.00     0.004 C 
ATOM     10  C4' N4B d   1      -1.700   5.109   0.837  0.00  0.00     0.003 C 
ENDBRANCH   8   9
ENDBRANCH   7   8
ENDBRANCH   1   7
TORSDOF 3
ENDMDL
