MODEL 1
REMARK minimizedAffinity 1.4524461
REMARK minimizedRMSD -1
REMARK  3 active torsions:
REMARK  status: ('A' for Active; 'I' for Inactive)
REMARK    1  A    between atoms: C3'_2  and  C2'_3 
REMARK    2  A    between atoms: C2'_3  and  C1'_4 
REMARK    3  A    between atoms: C1'_4  and  C1_5 
ROOT
ATOM      1  C1  N4B d   1      -3.673   5.933   3.395  0.00  0.00    -0.075 A 
ATOM      2  C2  N4B d   1      -3.403   5.968   4.780  0.00  0.00     0.002 A 
ATOM      3  C3  N4B d   1      -4.439   5.991   5.681  0.00  0.00     0.002 A 
ATOM      4  C4  N4B d   1      -5.747   5.998   5.222  0.00  0.00    -0.004 A 
ATOM      5  C5  N4B d   1      -6.000   5.938   3.882  0.00  0.00     0.002 A 
ATOM      6  C6  N4B d   1      -4.968   5.911   2.965  0.00  0.00     0.002 A 
ENDROOT
BRANCH   1   7
ATOM      7  C1' N4B d   1      -2.573   5.994   2.369  0.00  0.00     0.057 C 
BRANCH   7   8
ATOM      8  C2' N4B d   1      -3.061   5.354   1.073  0.00  0.00     0.009 C 
BRANCH   8   9
ATOM      9  C3' N4B d   1      -4.339   6.000   0.566  0.00  0.00     0.004 C 
ATOM     10  C4' N4B d   1      -4.650   5.634  -0.855  0.00  0.00     0.003 C 
ENDBRANCH   8   9
ENDBRANCH   7   8
ENDBRANCH   1   7
TORSDOF 3
ENDMDL
