MODEL 1
REMARK minimizedAffinity -0.0814205036
REMARK minimizedRMSD -1
REMARK  3 active torsions:
REMARK  status: ('A' for Active; 'I' for Inactive)
REMARK    1  A    between atoms: C3'_2  and  C2'_3 
REMARK    2  A    between atoms: C2'_3  and  C1'_4 
REMARK    3  A    between atoms: C1'_4  and  C1_5 
ROOT
ATOM      1  C1  N4B d   1      -2.215  -0.261  -1.684  0.00  0.00    -0.075 A 
ATOM      2  C2  N4B d   1      -2.826   0.832  -2.336  0.00  0.00     0.002 A 
ATOM      3  C3  N4B d   1      -4.122   1.173  -2.037  0.00  0.00     0.002 A 
ATOM      4  C4  N4B d   1      -4.830   0.428  -1.106  0.00  0.00    -0.004 A 
ATOM      5  C5  N4B d   1      -4.225  -0.611  -0.462  0.00  0.00     0.002 A 
ATOM      6  C6  N4B d   1      -2.921  -0.963  -0.750  0.00  0.00     0.002 A 
ENDROOT
BRANCH   1   7
ATOM      7  C1' N4B d   1      -0.829  -0.726  -2.040  0.00  0.00     0.057 C 
BRANCH   7   8
ATOM      8  C2' N4B d   1       0.055  -0.660  -0.798  0.00  0.00     0.009 C 
BRANCH   8   9
ATOM      9  C3' N4B d   1       1.529  -0.784  -1.143  0.00  0.00     0.004 C 
ATOM     10  C4' N4B d   1       2.388   0.178  -0.378  0.00  0.00     0.003 C 
ENDBRANCH   8   9
ENDBRANCH   7   8
ENDBRANCH   1   7
TORSDOF 3
ENDMDL
