MODEL 1
REMARK minimizedAffinity 3.17096639
REMARK minimizedRMSD -1
REMARK  3 active torsions:
REMARK  status: ('A' for Active; 'I' for Inactive)
REMARK    1  A    between atoms: C3'_2  and  C2'_3 
REMARK    2  A    between atoms: C2'_3  and  C1'_4 
REMARK    3  A    between atoms: C1'_4  and  C1_5 
ROOT
ATOM      1  C1  N4B d   1      -1.461   0.166  -2.135  0.00  0.00    -0.075 A 
ATOM      2  C2  N4B d   1      -2.294  -0.427  -1.161  0.00  0.00     0.002 A 
ATOM      3  C3  N4B d   1      -3.551   0.077  -0.934  0.00  0.00     0.002 A 
ATOM      4  C4  N4B d   1      -3.988   1.180  -1.652  0.00  0.00    -0.004 A 
ATOM      5  C5  N4B d   1      -3.187   1.731  -2.609  0.00  0.00     0.002 A 
ATOM      6  C6  N4B d   1      -1.922   1.233  -2.850  0.00  0.00     0.002 A 
ENDROOT
BRANCH   1   7
ATOM      7  C1' N4B d   1      -0.047  -0.296  -2.358  0.00  0.00     0.057 C 
BRANCH   7   8
ATOM      8  C2' N4B d   1       0.420  -1.085  -1.138  0.00  0.00     0.009 C 
BRANCH   8   9
ATOM      9  C3' N4B d   1       1.856  -0.758  -0.766  0.00  0.00     0.004 C 
ATOM     10  C4' N4B d   1       2.227   0.662  -1.076  0.00  0.00     0.003 C 
ENDBRANCH   8   9
ENDBRANCH   7   8
ENDBRANCH   1   7
TORSDOF 3
ENDMDL
