MODEL 1
REMARK minimizedAffinity -2.00789666
REMARK minimizedRMSD -1
REMARK  3 active torsions:
REMARK  status: ('A' for Active; 'I' for Inactive)
REMARK    1  A    between atoms: C3'_2  and  C2'_3 
REMARK    2  A    between atoms: C2'_3  and  C1'_4 
REMARK    3  A    between atoms: C1'_4  and  C1_5 
ROOT
ATOM      1  C1  N4B d   1       0.864  -1.099  -1.373  0.00  0.00    -0.075 A 
ATOM      2  C2  N4B d   1      -0.016  -2.108  -0.924  0.00  0.00     0.002 A 
ATOM      3  C3  N4B d   1       0.434  -3.397  -0.779  0.00  0.00     0.002 A 
ATOM      4  C4  N4B d   1       1.749  -3.704  -1.095  0.00  0.00    -0.004 A 
ATOM      5  C5  N4B d   1       2.600  -2.719  -1.504  0.00  0.00     0.002 A 
ATOM      6  C6  N4B d   1       2.162  -1.418  -1.650  0.00  0.00     0.002 A 
ENDROOT
BRANCH   1   7
ATOM      7  C1' N4B d   1       0.396   0.308  -1.629  0.00  0.00     0.057 C 
BRANCH   7   8
ATOM      8  C2' N4B d   1      -1.087   0.412  -1.285  0.00  0.00     0.009 C 
BRANCH   8   9
ATOM      9  C3' N4B d   1      -1.760   1.560  -2.016  0.00  0.00     0.004 C 
ATOM     10  C4' N4B d   1      -0.837   2.266  -2.964  0.00  0.00     0.003 C 
ENDBRANCH   8   9
ENDBRANCH   7   8
ENDBRANCH   1   7
TORSDOF 3
ENDMDL
