MODEL 1
REMARK minimizedAffinity 0.108945049
REMARK minimizedRMSD -1
REMARK  0 active torsions:
REMARK  status: ('A' for Active; 'I' for Inactive)
ROOT
ATOM      1  C   UNL d   1       5.379   2.501  -0.125  0.00  0.00     0.172 C 
ATOM      2  N   UNL d   1       4.340   1.499  -0.119  0.00  0.00    -0.070 N 
ATOM      3  C1  UNL d   1       3.082   1.656   0.396  0.00  0.00    -0.004 A 
ATOM      4  C2  UNL d   1       2.397   0.476   0.206  0.00  0.00    -0.047 A 
ATOM      5  C3  UNL d   1       3.274  -0.423  -0.446  0.00  0.00    -0.047 A 
ATOM      6  C4  UNL d   1       4.471   0.236  -0.635  0.00  0.00    -0.004 A 
ENDROOT
TORSDOF 0
ENDMDL
