MODEL 1
REMARK minimizedAffinity 1.42938983
REMARK minimizedRMSD -1
REMARK  0 active torsions:
REMARK  status: ('A' for Active; 'I' for Inactive)
ROOT
ATOM      1  C   UNL d   1       0.416   1.192  -0.302  0.00  0.00     0.172 C 
ATOM      2  N   UNL d   1       0.033   1.436   1.069  0.00  0.00    -0.070 N 
ATOM      3  C1  UNL d   1      -0.852   2.391   1.493  0.00  0.00    -0.004 A 
ATOM      4  C2  UNL d   1      -0.945   2.301   2.865  0.00  0.00    -0.047 A 
ATOM      5  C3  UNL d   1      -0.085   1.257   3.280  0.00  0.00    -0.047 A 
ATOM      6  C4  UNL d   1       0.508   0.739   2.149  0.00  0.00    -0.004 A 
ENDROOT
TORSDOF 0
ENDMDL
