MODEL 1
REMARK minimizedAffinity 2.68631291
REMARK minimizedRMSD -1
REMARK  0 active torsions:
REMARK  status: ('A' for Active; 'I' for Inactive)
ROOT
ATOM      1  C   UNL d   1       2.114  -2.094  -0.323  0.00  0.00     0.172 C 
ATOM      2  N   UNL d   1       0.929  -2.691  -0.891  0.00  0.00    -0.070 N 
ATOM      3  C1  UNL d   1       0.344  -3.858  -0.475  0.00  0.00    -0.004 A 
ATOM      4  C2  UNL d   1      -0.760  -4.083  -1.268  0.00  0.00    -0.047 A 
ATOM      5  C3  UNL d   1      -0.842  -3.016  -2.194  0.00  0.00    -0.047 A 
ATOM      6  C4  UNL d   1       0.216  -2.169  -1.938  0.00  0.00    -0.004 A 
ENDROOT
TORSDOF 0
ENDMDL
