MODEL 1
REMARK minimizedAffinity -0.480208248
REMARK minimizedRMSD -1
REMARK  0 active torsions:
REMARK  status: ('A' for Active; 'I' for Inactive)
ROOT
ATOM      1  C   UNL d   1       2.917   1.417  -0.040  0.00  0.00     0.172 C 
ATOM      2  N   UNL d   1       1.680   1.450   0.705  0.00  0.00    -0.070 N 
ATOM      3  C1  UNL d   1       0.422   1.390   0.166  0.00  0.00    -0.004 A 
ATOM      4  C2  UNL d   1      -0.484   1.449   1.203  0.00  0.00    -0.047 A 
ATOM      5  C3  UNL d   1       0.255   1.550   2.406  0.00  0.00    -0.047 A 
ATOM      6  C4  UNL d   1       1.592   1.549   2.068  0.00  0.00    -0.004 A 
ENDROOT
TORSDOF 0
ENDMDL
