MODEL 1
REMARK minimizedAffinity 7.96852207
REMARK minimizedRMSD -1
REMARK  0 active torsions:
REMARK  status: ('A' for Active; 'I' for Inactive)
ROOT
ATOM      1  C   UNL d   1      -5.254   0.368  -1.132  0.00  0.00     0.172 C 
ATOM      2  N   UNL d   1      -5.484   1.327  -2.187  0.00  0.00    -0.070 N 
ATOM      3  C1  UNL d   1      -5.882   1.031  -3.463  0.00  0.00    -0.004 A 
ATOM      4  C2  UNL d   1      -5.988   2.216  -4.158  0.00  0.00    -0.047 A 
ATOM      5  C3  UNL d   1      -5.641   3.261  -3.269  0.00  0.00    -0.047 A 
ATOM      6  C4  UNL d   1      -5.333   2.683  -2.056  0.00  0.00    -0.004 A 
ENDROOT
TORSDOF 0
ENDMDL
