MODEL 1
REMARK minimizedAffinity 4.5025959
REMARK minimizedRMSD -1
REMARK  0 active torsions:
REMARK  status: ('A' for Active; 'I' for Inactive)
ROOT
ATOM      1  C   UNL d   1      -5.994   0.783  -1.109  0.00  0.00     0.172 C 
ATOM      2  N   UNL d   1      -5.922   1.837  -2.094  0.00  0.00    -0.070 N 
ATOM      3  C1  UNL d   1      -5.889   1.660  -3.451  0.00  0.00    -0.004 A 
ATOM      4  C2  UNL d   1      -5.821   2.905  -4.038  0.00  0.00    -0.047 A 
ATOM      5  C3  UNL d   1      -5.812   3.864  -2.997  0.00  0.00    -0.047 A 
ATOM      6  C4  UNL d   1      -5.875   3.175  -1.804  0.00  0.00    -0.004 A 
ENDROOT
TORSDOF 0
ENDMDL
