MODEL 1
REMARK minimizedAffinity 3.45502639
REMARK minimizedRMSD -1
REMARK  0 active torsions:
REMARK  status: ('A' for Active; 'I' for Inactive)
ROOT
ATOM      1  C   UNL d   1       2.514  -1.829   0.009  0.00  0.00     0.172 C 
ATOM      2  N   UNL d   1       3.406  -0.702  -0.131  0.00  0.00    -0.070 N 
ATOM      3  C1  UNL d   1       4.630  -0.574   0.470  0.00  0.00    -0.004 A 
ATOM      4  C2  UNL d   1       5.164   0.637   0.085  0.00  0.00    -0.047 A 
ATOM      5  C3  UNL d   1       4.228   1.258  -0.776  0.00  0.00    -0.047 A 
ATOM      6  C4  UNL d   1       3.149   0.407  -0.892  0.00  0.00    -0.004 A 
ENDROOT
TORSDOF 0
ENDMDL
