MODEL 1
REMARK minimizedAffinity -0.120708086
REMARK minimizedRMSD -1
REMARK  0 active torsions:
REMARK  status: ('A' for Active; 'I' for Inactive)
ROOT
ATOM      1  C   UNL d   1       2.134  -2.222  -0.226  0.00  0.00     0.172 C 
ATOM      2  N   UNL d   1       3.033  -1.191  -0.687  0.00  0.00    -0.070 N 
ATOM      3  C1  UNL d   1       3.700  -1.188  -1.883  0.00  0.00    -0.004 A 
ATOM      4  C2  UNL d   1       4.452  -0.035  -1.944  0.00  0.00    -0.047 A 
ATOM      5  C3  UNL d   1       4.231   0.680  -0.743  0.00  0.00    -0.047 A 
ATOM      6  C4  UNL d   1       3.348  -0.058   0.017  0.00  0.00    -0.004 A 
ENDROOT
TORSDOF 0
ENDMDL
