MODEL 1
REMARK minimizedAffinity -2.46635509
REMARK minimizedRMSD -1
REMARK  0 active torsions:
REMARK  status: ('A' for Active; 'I' for Inactive)
ROOT
ATOM      1  O1  BZF d   1       0.837  -1.647   4.031  0.00  0.00    -0.204 OA
ATOM      2  C2  BZF d   1       1.535  -0.953   5.001  0.00  0.00     0.174 A 
ATOM      3  C3  BZF d   1       1.319   0.373   4.889  0.00  0.00    -0.012 A 
ATOM      4  C3A BZF d   1       0.358   0.510   3.837  0.00  0.00    -0.107 A 
ATOM      5  C4  BZF d   1      -0.266   1.584   3.270  0.00  0.00     0.055 A 
ATOM      6  C5  BZF d   1      -1.096   1.383   2.213  0.00  0.00    -0.016 A 
ATOM      7  C6  BZF d   1      -1.319   0.125   1.694  0.00  0.00     0.022 A 
ATOM      8  C7  BZF d   1      -0.726  -0.972   2.226  0.00  0.00     0.029 A 
ATOM      9  C7A BZF d   1       0.087  -0.776   3.316  0.00  0.00     0.058 A 
ENDROOT
TORSDOF 0
ENDMDL
