MODEL 1
REMARK minimizedAffinity -2.68718743
REMARK minimizedRMSD -1
REMARK  0 active torsions:
REMARK  status: ('A' for Active; 'I' for Inactive)
ROOT
ATOM      1  O1  BZF d   1       1.618  -1.491   3.252  0.00  0.00    -0.204 OA
ATOM      2  C2  BZF d   1       1.654  -1.362   4.627  0.00  0.00     0.174 A 
ATOM      3  C3  BZF d   1       0.767  -0.436   5.045  0.00  0.00    -0.012 A 
ATOM      4  C3A BZF d   1       0.072  -0.022   3.865  0.00  0.00    -0.107 A 
ATOM      5  C4  BZF d   1      -0.939   0.866   3.634  0.00  0.00     0.055 A 
ATOM      6  C5  BZF d   1      -1.341   1.092   2.356  0.00  0.00    -0.016 A 
ATOM      7  C6  BZF d   1      -0.751   0.452   1.286  0.00  0.00     0.022 A 
ATOM      8  C7  BZF d   1       0.252  -0.441   1.465  0.00  0.00     0.029 A 
ATOM      9  C7A BZF d   1       0.638  -0.696   2.758  0.00  0.00     0.058 A 
ENDROOT
TORSDOF 0
ENDMDL
