MODEL 1
REMARK minimizedAffinity 6.98289347
REMARK minimizedRMSD -1
REMARK  0 active torsions:
REMARK  status: ('A' for Active; 'I' for Inactive)
ROOT
ATOM      1  O1  BZF d   1       1.680  -0.730   0.395  0.00  0.00    -0.204 OA
ATOM      2  C2  BZF d   1       1.852   0.194   1.407  0.00  0.00     0.174 A 
ATOM      3  C3  BZF d   1       0.683   0.795   1.710  0.00  0.00    -0.012 A 
ATOM      4  C3A BZF d   1      -0.297   0.143   0.897  0.00  0.00    -0.107 A 
ATOM      5  C4  BZF d   1      -1.648   0.286   0.758  0.00  0.00     0.055 A 
ATOM      6  C5  BZF d   1      -2.298  -0.456  -0.177  0.00  0.00    -0.016 A 
ATOM      7  C6  BZF d   1      -1.629  -1.344  -0.993  0.00  0.00     0.022 A 
ATOM      8  C7  BZF d   1      -0.290  -1.524  -0.889  0.00  0.00     0.029 A 
ATOM      9  C7A BZF d   1       0.365  -0.801   0.077  0.00  0.00     0.058 A 
ENDROOT
TORSDOF 0
ENDMDL
