MODEL 1
REMARK minimizedAffinity 5.30169392
REMARK minimizedRMSD -1
REMARK  0 active torsions:
REMARK  status: ('A' for Active; 'I' for Inactive)
ROOT
ATOM      1  O1  BZF d   1       0.090   5.958  -0.660  0.00  0.00    -0.204 OA
ATOM      2  C2  BZF d   1      -0.798   5.953   0.399  0.00  0.00     0.174 A 
ATOM      3  C3  BZF d   1      -0.140   5.912   1.575  0.00  0.00    -0.012 A 
ATOM      4  C3A BZF d   1       1.248   5.982   1.233  0.00  0.00    -0.107 A 
ATOM      5  C4  BZF d   1       2.397   5.999   1.970  0.00  0.00     0.055 A 
ATOM      6  C5  BZF d   1       3.594   5.999   1.327  0.00  0.00    -0.016 A 
ATOM      7  C6  BZF d   1       3.679   5.978  -0.050  0.00  0.00     0.022 A 
ATOM      8  C7  BZF d   1       2.566   5.967  -0.824  0.00  0.00     0.029 A 
ATOM      9  C7A BZF d   1       1.355   6.000  -0.177  0.00  0.00     0.058 A 
ENDROOT
TORSDOF 0
ENDMDL
