MODEL 1
REMARK minimizedAffinity 8.56965351
REMARK minimizedRMSD -1
REMARK  0 active torsions:
REMARK  status: ('A' for Active; 'I' for Inactive)
ROOT
ATOM      1  O1  BZF d   1      -1.980   5.954  -0.773  0.00  0.00    -0.204 OA
ATOM      2  C2  BZF d   1      -2.637   5.917   0.442  0.00  0.00     0.174 A 
ATOM      3  C3  BZF d   1      -1.755   5.856   1.461  0.00  0.00    -0.012 A 
ATOM      4  C3A BZF d   1      -0.465   5.949   0.849  0.00  0.00    -0.107 A 
ATOM      5  C4  BZF d   1       0.809   5.960   1.340  0.00  0.00     0.055 A 
ATOM      6  C5  BZF d   1       1.852   5.987   0.470  0.00  0.00    -0.016 A 
ATOM      7  C6  BZF d   1       1.658   5.998  -0.895  0.00  0.00     0.022 A 
ATOM      8  C7  BZF d   1       0.413   5.993  -1.430  0.00  0.00     0.029 A 
ATOM      9  C7A BZF d   1      -0.644   5.999  -0.553  0.00  0.00     0.058 A 
ENDROOT
TORSDOF 0
ENDMDL
