MODEL 1
REMARK minimizedAffinity 2.22828937
REMARK minimizedRMSD -1
REMARK  0 active torsions:
REMARK  status: ('A' for Active; 'I' for Inactive)
ROOT
ATOM      1  O1  BZF d   1      -1.319  -1.369  -0.387  0.00  0.00    -0.204 OA
ATOM      2  C2  BZF d   1      -2.499  -0.771   0.010  0.00  0.00     0.174 A 
ATOM      3  C3  BZF d   1      -2.256   0.266   0.837  0.00  0.00    -0.012 A 
ATOM      4  C3A BZF d   1      -0.830   0.378   0.891  0.00  0.00    -0.107 A 
ATOM      5  C4  BZF d   1       0.021   1.229   1.535  0.00  0.00     0.055 A 
ATOM      6  C5  BZF d   1       1.361   1.022   1.439  0.00  0.00    -0.016 A 
ATOM      7  C6  BZF d   1       1.883  -0.028   0.712  0.00  0.00     0.022 A 
ATOM      8  C7  BZF d   1       1.078  -0.896   0.052  0.00  0.00     0.029 A 
ATOM      9  C7A BZF d   1      -0.275  -0.670   0.121  0.00  0.00     0.058 A 
ENDROOT
TORSDOF 0
ENDMDL
