MODEL 1
REMARK minimizedAffinity -1.27672577
REMARK minimizedRMSD -1
REMARK  0 active torsions:
REMARK  status: ('A' for Active; 'I' for Inactive)
ROOT
ATOM      1  O1  BZF d   1      -1.326  -1.316  -1.096  0.00  0.00    -0.204 OA
ATOM      2  C2  BZF d   1      -2.639  -0.926  -0.914  0.00  0.00     0.174 A 
ATOM      3  C3  BZF d   1      -2.808  -0.364   0.300  0.00  0.00    -0.012 A 
ATOM      4  C3A BZF d   1      -1.501  -0.321   0.880  0.00  0.00    -0.107 A 
ATOM      5  C4  BZF d   1      -1.016   0.140   2.070  0.00  0.00     0.055 A 
ATOM      6  C5  BZF d   1       0.300  -0.034   2.360  0.00  0.00    -0.016 A 
ATOM      7  C6  BZF d   1       1.158  -0.669   1.486  0.00  0.00     0.022 A 
ATOM      8  C7  BZF d   1       0.724  -1.139   0.291  0.00  0.00     0.029 A 
ATOM      9  C7A BZF d   1      -0.598  -0.935  -0.019  0.00  0.00     0.058 A 
ENDROOT
TORSDOF 0
ENDMDL
