MODEL 1
REMARK minimizedAffinity 2.39475608
REMARK minimizedRMSD -1
REMARK  0 active torsions:
REMARK  status: ('A' for Active; 'I' for Inactive)
ROOT
ATOM      1  O1  BZF d   1      -0.554  -0.805  -0.385  0.00  0.00    -0.204 OA
ATOM      2  C2  BZF d   1      -1.890  -0.725  -0.728  0.00  0.00     0.174 A 
ATOM      3  C3  BZF d   1      -2.582  -0.040   0.205  0.00  0.00    -0.012 A 
ATOM      4  C3A BZF d   1      -1.603   0.410   1.146  0.00  0.00    -0.107 A 
ATOM      5  C4  BZF d   1      -1.671   1.155   2.288  0.00  0.00     0.055 A 
ATOM      6  C5  BZF d   1      -0.540   1.355   3.015  0.00  0.00    -0.016 A 
ATOM      7  C6  BZF d   1       0.673   0.821   2.632  0.00  0.00     0.022 A 
ATOM      8  C7  BZF d   1       0.791   0.080   1.504  0.00  0.00     0.029 A 
ATOM      9  C7A BZF d   1      -0.343  -0.096   0.750  0.00  0.00     0.058 A 
ENDROOT
TORSDOF 0
ENDMDL
