MODEL 1
REMARK minimizedAffinity 9.30108166
REMARK minimizedRMSD -1
REMARK  0 active torsions:
REMARK  status: ('A' for Active; 'I' for Inactive)
ROOT
ATOM      1  O1  BZF d   1       0.237   1.625   1.492  0.00  0.00    -0.204 OA
ATOM      2  C2  BZF d   1      -0.262   0.400   1.093  0.00  0.00     0.174 A 
ATOM      3  C3  BZF d   1       0.556  -0.179   0.190  0.00  0.00    -0.012 A 
ATOM      4  C3A BZF d   1       1.680   0.699   0.083  0.00  0.00    -0.107 A 
ATOM      5  C4  BZF d   1       2.835   0.661  -0.644  0.00  0.00     0.055 A 
ATOM      6  C5  BZF d   1       3.694   1.712  -0.576  0.00  0.00    -0.016 A 
ATOM      7  C6  BZF d   1       3.426   2.819   0.203  0.00  0.00     0.022 A 
ATOM      8  C7  BZF d   1       2.295   2.900   0.946  0.00  0.00     0.029 A 
ATOM      9  C7A BZF d   1       1.442   1.825   0.905  0.00  0.00     0.058 A 
ENDROOT
TORSDOF 0
ENDMDL
