MODEL 1
REMARK minimizedAffinity 5.29716015
REMARK minimizedRMSD -1
REMARK  3 active torsions:
REMARK  status: ('A' for Active; 'I' for Inactive)
REMARK    1  A    between atoms: C3'_2  and  C2'_3 
REMARK    2  A    between atoms: C2'_3  and  C1'_4 
REMARK    3  A    between atoms: C1'_4  and  C1_5 
ROOT
ATOM      1  C1  N4B d   1       3.216   2.726   2.584  0.00  0.00    -0.075 A 
ATOM      2  C2  N4B d   1       3.549   4.092   2.712  0.00  0.00     0.002 A 
ATOM      3  C3  N4B d   1       4.764   4.455   3.241  0.00  0.00     0.002 A 
ATOM      4  C4  N4B d   1       5.649   3.475   3.664  0.00  0.00    -0.004 A 
ATOM      5  C5  N4B d   1       5.329   2.157   3.513  0.00  0.00     0.002 A 
ATOM      6  C6  N4B d   1       4.114   1.778   2.979  0.00  0.00     0.002 A 
ENDROOT
BRANCH   1   7
ATOM      7  C1' N4B d   1       1.866   2.281   2.091  0.00  0.00     0.057 C 
BRANCH   7   8
ATOM      8  C2' N4B d   1       1.739   2.616   0.608  0.00  0.00     0.009 C 
BRANCH   8   9
ATOM      9  C3' N4B d   1       0.324   3.028   0.238  0.00  0.00     0.004 C 
ATOM     10  C4' N4B d   1      -0.062   4.359   0.811  0.00  0.00     0.003 C 
ENDBRANCH   8   9
ENDBRANCH   7   8
ENDBRANCH   1   7
TORSDOF 3
ENDMDL
