MODEL 1
REMARK minimizedAffinity -1.6968261
REMARK minimizedRMSD -1
REMARK  3 active torsions:
REMARK  status: ('A' for Active; 'I' for Inactive)
REMARK    1  A    between atoms: C3'_2  and  C2'_3 
REMARK    2  A    between atoms: C2'_3  and  C1'_4 
REMARK    3  A    between atoms: C1'_4  and  C1_5 
ROOT
ATOM      1  C1  N4B d   1      -1.810   1.431   0.122  0.00  0.00    -0.075 A 
ATOM      2  C2  N4B d   1      -1.961   1.688   1.502  0.00  0.00     0.002 A 
ATOM      3  C3  N4B d   1      -0.931   2.255   2.212  0.00  0.00     0.002 A 
ATOM      4  C4  N4B d   1       0.260   2.555   1.570  0.00  0.00    -0.004 A 
ATOM      5  C5  N4B d   1       0.389   2.328   0.231  0.00  0.00     0.002 A 
ATOM      6  C6  N4B d   1      -0.639   1.762  -0.496  0.00  0.00     0.002 A 
ENDROOT
BRANCH   1   7
ATOM      7  C1' N4B d   1      -2.876   0.734  -0.678  0.00  0.00     0.057 C 
BRANCH   7   8
ATOM      8  C2' N4B d   1      -4.147   0.635   0.161  0.00  0.00     0.009 C 
BRANCH   8   9
ATOM      9  C3' N4B d   1      -4.927   1.938   0.166  0.00  0.00     0.004 C 
ATOM     10  C4' N4B d   1      -5.240   2.423   1.550  0.00  0.00     0.003 C 
ENDBRANCH   8   9
ENDBRANCH   7   8
ENDBRANCH   1   7
TORSDOF 3
ENDMDL
