MODEL 1
REMARK minimizedAffinity 7.6192441
REMARK minimizedRMSD -1
REMARK  3 active torsions:
REMARK  status: ('A' for Active; 'I' for Inactive)
REMARK    1  A    between atoms: C3'_2  and  C2'_3 
REMARK    2  A    between atoms: C2'_3  and  C1'_4 
REMARK    3  A    between atoms: C1'_4  and  C1_5 
ROOT
ATOM      1  C1  N4B d   1       0.455  -3.816   4.275  0.00  0.00    -0.075 A 
ATOM      2  C2  N4B d   1      -0.798  -4.467   4.290  0.00  0.00     0.002 A 
ATOM      3  C3  N4B d   1      -1.020  -5.510   5.156  0.00  0.00     0.002 A 
ATOM      4  C4  N4B d   1      -0.003  -5.929   6.000  0.00  0.00    -0.004 A 
ATOM      5  C5  N4B d   1       1.196  -5.278   5.998  0.00  0.00     0.002 A 
ATOM      6  C6  N4B d   1       1.433  -4.227   5.135  0.00  0.00     0.002 A 
ENDROOT
BRANCH   1   7
ATOM      7  C1' N4B d   1       0.774  -2.728   3.286  0.00  0.00     0.057 C 
BRANCH   7   8
ATOM      8  C2' N4B d   1       1.100  -3.359   1.936  0.00  0.00     0.009 C 
BRANCH   8   9
ATOM      9  C3' N4B d   1       2.208  -2.612   1.213  0.00  0.00     0.004 C 
ATOM     10  C4' N4B d   1       1.927  -2.428  -0.248  0.00  0.00     0.003 C 
ENDBRANCH   8   9
ENDBRANCH   7   8
ENDBRANCH   1   7
TORSDOF 3
ENDMDL
