MODEL 1
REMARK minimizedAffinity 2.2558701
REMARK minimizedRMSD -1
REMARK  3 active torsions:
REMARK  status: ('A' for Active; 'I' for Inactive)
REMARK    1  A    between atoms: C3'_2  and  C2'_3 
REMARK    2  A    between atoms: C2'_3  and  C1'_4 
REMARK    3  A    between atoms: C1'_4  and  C1_5 
ROOT
ATOM      1  C1  N4B d   1      -0.300   1.890   1.210  0.00  0.00    -0.075 A 
ATOM      2  C2  N4B d   1      -1.692   2.125   1.248  0.00  0.00     0.002 A 
ATOM      3  C3  N4B d   1      -2.403   1.848   2.389  0.00  0.00     0.002 A 
ATOM      4  C4  N4B d   1      -1.751   1.320   3.493  0.00  0.00    -0.004 A 
ATOM      5  C5  N4B d   1      -0.402   1.119   3.456  0.00  0.00     0.002 A 
ATOM      6  C6  N4B d   1       0.327   1.397   2.317  0.00  0.00     0.002 A 
ENDROOT
BRANCH   1   7
ATOM      7  C1' N4B d   1       0.506   2.097  -0.044  0.00  0.00     0.057 C 
BRANCH   7   8
ATOM      8  C2' N4B d   1       1.885   1.470   0.138  0.00  0.00     0.009 C 
BRANCH   8   9
ATOM      9  C3' N4B d   1       1.969   0.090  -0.493  0.00  0.00     0.004 C 
ATOM     10  C4' N4B d   1       3.037  -0.765   0.121  0.00  0.00     0.003 C 
ENDBRANCH   8   9
ENDBRANCH   7   8
ENDBRANCH   1   7
TORSDOF 3
ENDMDL
