MODEL 1
REMARK minimizedAffinity 4.93563795
REMARK minimizedRMSD -1
REMARK  3 active torsions:
REMARK  status: ('A' for Active; 'I' for Inactive)
REMARK    1  A    between atoms: C3'_2  and  C2'_3 
REMARK    2  A    between atoms: C2'_3  and  C1'_4 
REMARK    3  A    between atoms: C1'_4  and  C1_5 
ROOT
ATOM      1  C1  N4B d   1       1.727   0.453   0.007  0.00  0.00    -0.075 A 
ATOM      2  C2  N4B d   1       3.006  -0.143  -0.050  0.00  0.00     0.002 A 
ATOM      3  C3  N4B d   1       3.123  -1.502  -0.215  0.00  0.00     0.002 A 
ATOM      4  C4  N4B d   1       1.981  -2.283  -0.306  0.00  0.00    -0.004 A 
ATOM      5  C5  N4B d   1       0.750  -1.696  -0.275  0.00  0.00     0.002 A 
ATOM      6  C6  N4B d   1       0.617  -0.332  -0.114  0.00  0.00     0.002 A 
ENDROOT
BRANCH   1   7
ATOM      7  C1' N4B d   1       1.547   1.923   0.272  0.00  0.00     0.057 C 
BRANCH   7   8
ATOM      8  C2' N4B d   1       0.128   2.331  -0.113  0.00  0.00     0.009 C 
BRANCH   8   9
ATOM      9  C3' N4B d   1      -0.406   3.438   0.779  0.00  0.00     0.004 C 
ATOM     10  C4' N4B d   1      -1.756   3.123   1.351  0.00  0.00     0.003 C 
ENDBRANCH   8   9
ENDBRANCH   7   8
ENDBRANCH   1   7
TORSDOF 3
ENDMDL
