MODEL 1
REMARK minimizedAffinity 5.71830273
REMARK minimizedRMSD -1
REMARK  3 active torsions:
REMARK  status: ('A' for Active; 'I' for Inactive)
REMARK    1  A    between atoms: C3'_2  and  C2'_3 
REMARK    2  A    between atoms: C2'_3  and  C1'_4 
REMARK    3  A    between atoms: C1'_4  and  C1_5 
ROOT
ATOM      1  C1  N4B d   1       1.410   0.652   0.297  0.00  0.00    -0.075 A 
ATOM      2  C2  N4B d   1       0.409   1.506  -0.215  0.00  0.00     0.002 A 
ATOM      3  C3  N4B d   1      -0.601   1.948   0.604  0.00  0.00     0.002 A 
ATOM      4  C4  N4B d   1      -0.641   1.536   1.927  0.00  0.00    -0.004 A 
ATOM      5  C5  N4B d   1       0.344   0.731   2.421  0.00  0.00     0.002 A 
ATOM      6  C6  N4B d   1       1.367   0.283   1.610  0.00  0.00     0.002 A 
ENDROOT
BRANCH   1   7
ATOM      7  C1' N4B d   1       2.486   0.073  -0.581  0.00  0.00     0.057 C 
BRANCH   7   8
ATOM      8  C2' N4B d   1       2.726  -1.381  -0.187  0.00  0.00     0.009 C 
BRANCH   8   9
ATOM      9  C3' N4B d   1       2.390  -2.339  -1.317  0.00  0.00     0.004 C 
ATOM     10  C4' N4B d   1       3.295  -2.179  -2.502  0.00  0.00     0.003 C 
ENDBRANCH   8   9
ENDBRANCH   7   8
ENDBRANCH   1   7
TORSDOF 3
ENDMDL
