MODEL 1
REMARK minimizedAffinity 1.96634531
REMARK minimizedRMSD -1
REMARK  0 active torsions:
REMARK  status: ('A' for Active; 'I' for Inactive)
ROOT
ATOM      1  C   UNL d   1       0.068  -0.108  -4.020  0.00  0.00     0.124 A 
ATOM      2  C1  UNL d   1       1.147   0.679  -3.642  0.00  0.00     0.062 A 
ATOM      3  C2  UNL d   1       1.596   0.666  -2.324  0.00  0.00     0.162 A 
ATOM      4  C3  UNL d   1       0.967  -0.139  -1.375  0.00  0.00    -0.034 A 
ATOM      5  C4  UNL d   1      -0.119  -0.927  -1.762  0.00  0.00     0.162 A 
ATOM      6  C5  UNL d   1      -0.564  -0.910  -3.080  0.00  0.00     0.062 A 
ATOM      7  F   UNL d   1      -1.606  -1.671  -3.443  0.00  0.00    -0.097 F 
ATOM      8  F1  UNL d   1      -0.747  -1.712  -0.875  0.00  0.00    -0.096 F 
ATOM      9  I   UNL d   1       1.635  -0.162   0.596  0.00  0.00    -0.060 I 
ATOM     10  F2  UNL d   1       2.641   1.436  -1.987  0.00  0.00    -0.096 F 
ATOM     11  F3  UNL d   1       1.758   1.456  -4.548  0.00  0.00    -0.097 F 
ATOM     12  F4  UNL d   1      -0.362  -0.092  -5.288  0.00  0.00    -0.092 F 
ENDROOT
TORSDOF 0
ENDMDL
