MODEL 1
REMARK minimizedAffinity -1.37123752
REMARK minimizedRMSD -1
REMARK  0 active torsions:
REMARK  status: ('A' for Active; 'I' for Inactive)
ROOT
ATOM      1  C   UNL d   1       0.739   1.481   3.189  0.00  0.00     0.124 A 
ATOM      2  C1  UNL d   1       1.352   0.942   2.067  0.00  0.00     0.062 A 
ATOM      3  C2  UNL d   1       0.591   0.299   1.095  0.00  0.00     0.162 A 
ATOM      4  C3  UNL d   1      -0.792   0.192   1.240  0.00  0.00    -0.034 A 
ATOM      5  C4  UNL d   1      -1.401   0.736   2.372  0.00  0.00     0.162 A 
ATOM      6  C5  UNL d   1      -0.636   1.378   3.341  0.00  0.00     0.062 A 
ATOM      7  F   UNL d   1      -1.230   1.898   4.425  0.00  0.00    -0.097 F 
ATOM      8  F1  UNL d   1      -2.729   0.652   2.544  0.00  0.00    -0.096 F 
ATOM      9  I   UNL d   1      -1.933  -0.769  -0.211  0.00  0.00    -0.060 I 
ATOM     10  F2  UNL d   1       1.210  -0.213   0.020  0.00  0.00    -0.096 F 
ATOM     11  F3  UNL d   1       2.681   1.040   1.918  0.00  0.00    -0.097 F 
ATOM     12  F4  UNL d   1       1.474   2.099   4.123  0.00  0.00    -0.092 F 
ENDROOT
TORSDOF 0
ENDMDL
