MODEL 1
REMARK minimizedAffinity 0.706561685
REMARK minimizedRMSD -1
REMARK  0 active torsions:
REMARK  status: ('A' for Active; 'I' for Inactive)
ROOT
ATOM      1  C   UNL d   1       1.235  -0.952  -0.803  0.00  0.00     0.124 A 
ATOM      2  C1  UNL d   1      -0.063  -0.482  -0.950  0.00  0.00     0.062 A 
ATOM      3  C2  UNL d   1      -0.674   0.222   0.083  0.00  0.00     0.162 A 
ATOM      4  C3  UNL d   1       0.013   0.463   1.273  0.00  0.00    -0.034 A 
ATOM      5  C4  UNL d   1       1.318  -0.013   1.414  0.00  0.00     0.162 A 
ATOM      6  C5  UNL d   1       1.924  -0.717   0.378  0.00  0.00     0.062 A 
ATOM      7  F   UNL d   1       3.178  -1.170   0.522  0.00  0.00    -0.097 F 
ATOM      8  F1  UNL d   1       2.007   0.201   2.545  0.00  0.00    -0.096 F 
ATOM      9  I   UNL d   1      -0.896   1.517   2.820  0.00  0.00    -0.060 I 
ATOM     10  F2  UNL d   1      -1.929   0.664  -0.086  0.00  0.00    -0.096 F 
ATOM     11  F3  UNL d   1      -0.731  -0.709  -2.090  0.00  0.00    -0.097 F 
ATOM     12  F4  UNL d   1       1.820  -1.631  -1.798  0.00  0.00    -0.092 F 
ENDROOT
TORSDOF 0
ENDMDL
