MODEL 1
REMARK minimizedAffinity -0.891467988
REMARK minimizedRMSD -1
REMARK  0 active torsions:
REMARK  status: ('A' for Active; 'I' for Inactive)
ROOT
ATOM      1  C   UNL d   1       2.061   0.053  -3.137  0.00  0.00     0.124 A 
ATOM      2  C1  UNL d   1       2.196  -0.675  -1.963  0.00  0.00     0.062 A 
ATOM      3  C2  UNL d   1       1.223  -0.591  -0.971  0.00  0.00     0.162 A 
ATOM      4  C3  UNL d   1       0.105   0.225  -1.149  0.00  0.00    -0.034 A 
ATOM      5  C4  UNL d   1      -0.023   0.955  -2.332  0.00  0.00     0.162 A 
ATOM      6  C5  UNL d   1       0.952   0.867  -3.320  0.00  0.00     0.062 A 
ATOM      7  F   UNL d   1       0.820   1.572  -4.454  0.00  0.00    -0.097 F 
ATOM      8  F1  UNL d   1      -1.085   1.749  -2.536  0.00  0.00    -0.096 F 
ATOM      9  I   UNL d   1      -1.351   0.354   0.332  0.00  0.00    -0.060 I 
ATOM     10  F2  UNL d   1       1.379  -1.306   0.153  0.00  0.00    -0.096 F 
ATOM     11  F3  UNL d   1       3.266  -1.462  -1.783  0.00  0.00    -0.097 F 
ATOM     12  F4  UNL d   1       2.999  -0.029  -4.089  0.00  0.00    -0.092 F 
ENDROOT
TORSDOF 0
ENDMDL
