MODEL 1
REMARK minimizedAffinity -2.5027535
REMARK minimizedRMSD -1
REMARK  0 active torsions:
REMARK  status: ('A' for Active; 'I' for Inactive)
ROOT
ATOM      1  C   UNL d   1      -0.353  -0.000   1.330  0.00  0.00     0.124 A 
ATOM      2  C1  UNL d   1       0.757  -0.468   0.640  0.00  0.00     0.062 A 
ATOM      3  C2  UNL d   1       0.775  -0.451  -0.751  0.00  0.00     0.162 A 
ATOM      4  C3  UNL d   1      -0.321   0.037  -1.464  0.00  0.00    -0.034 A 
ATOM      5  C4  UNL d   1      -1.434   0.506  -0.763  0.00  0.00     0.162 A 
ATOM      6  C5  UNL d   1      -1.447   0.486   0.628  0.00  0.00     0.062 A 
ATOM      7  F   UNL d   1      -2.520   0.939   1.292  0.00  0.00    -0.097 F 
ATOM      8  F1  UNL d   1      -2.504   0.982  -1.417  0.00  0.00    -0.096 F 
ATOM      9  I   UNL d   1      -0.297   0.065  -3.545  0.00  0.00    -0.060 I 
ATOM     10  F2  UNL d   1       1.861  -0.910  -1.392  0.00  0.00    -0.096 F 
ATOM     11  F3  UNL d   1       1.814  -0.940   1.316  0.00  0.00    -0.097 F 
ATOM     12  F4  UNL d   1      -0.368  -0.019   2.669  0.00  0.00    -0.092 F 
ENDROOT
TORSDOF 0
ENDMDL
