MODEL 1
REMARK minimizedAffinity -2.33928943
REMARK minimizedRMSD -1
REMARK  0 active torsions:
REMARK  status: ('A' for Active; 'I' for Inactive)
ROOT
ATOM      1  C   UNL d   1      -0.751   1.046   2.681  0.00  0.00     0.124 A 
ATOM      2  C1  UNL d   1       0.580   1.052   2.288  0.00  0.00     0.062 A 
ATOM      3  C2  UNL d   1       0.954   0.483   1.074  0.00  0.00     0.162 A 
ATOM      4  C3  UNL d   1      -0.006  -0.096   0.243  0.00  0.00    -0.034 A 
ATOM      5  C4  UNL d   1      -1.342  -0.099   0.646  0.00  0.00     0.162 A 
ATOM      6  C5  UNL d   1      -1.711   0.471   1.860  0.00  0.00     0.062 A 
ATOM      7  F   UNL d   1      -2.997   0.464   2.239  0.00  0.00    -0.097 F 
ATOM      8  F1  UNL d   1      -2.290  -0.648  -0.128  0.00  0.00    -0.096 F 
ATOM      9  I   UNL d   1       0.549  -0.948  -1.573  0.00  0.00    -0.060 I 
ATOM     10  F2  UNL d   1       2.247   0.503   0.719  0.00  0.00    -0.096 F 
ATOM     11  F3  UNL d   1       1.509   1.607   3.080  0.00  0.00    -0.097 F 
ATOM     12  F4  UNL d   1      -1.108   1.593   3.850  0.00  0.00    -0.092 F 
ENDROOT
TORSDOF 0
ENDMDL
