MODEL 1
REMARK minimizedAffinity -1.60916054
REMARK minimizedRMSD -1
REMARK  0 active torsions:
REMARK  status: ('A' for Active; 'I' for Inactive)
ROOT
ATOM      1  C   UNL d   1      -1.357   0.220   1.353  0.00  0.00     0.124 A 
ATOM      2  C1  UNL d   1      -1.401  -0.640   0.264  0.00  0.00     0.062 A 
ATOM      3  C2  UNL d   1      -0.641  -0.372  -0.871  0.00  0.00     0.162 A 
ATOM      4  C3  UNL d   1       0.170   0.762  -0.923  0.00  0.00    -0.034 A 
ATOM      5  C4  UNL d   1       0.208   1.623   0.175  0.00  0.00     0.162 A 
ATOM      6  C5  UNL d   1      -0.553   1.351   1.307  0.00  0.00     0.062 A 
ATOM      7  F   UNL d   1      -0.510   2.183   2.358  0.00  0.00    -0.097 F 
ATOM      8  F1  UNL d   1       0.977   2.722   0.159  0.00  0.00    -0.096 F 
ATOM      9  I   UNL d   1       1.308   1.166  -2.618  0.00  0.00    -0.060 I 
ATOM     10  F2  UNL d   1      -0.702  -1.221  -1.907  0.00  0.00    -0.096 F 
ATOM     11  F3  UNL d   1      -2.177  -1.732   0.305  0.00  0.00    -0.097 F 
ATOM     12  F4  UNL d   1      -2.090  -0.039   2.443  0.00  0.00    -0.092 F 
ENDROOT
TORSDOF 0
ENDMDL
