MODEL 1
REMARK minimizedAffinity 2.05605221
REMARK minimizedRMSD -1
REMARK  0 active torsions:
REMARK  status: ('A' for Active; 'I' for Inactive)
ROOT
ATOM      1  C   UNL d   1      -0.496  -0.657  -0.682  0.00  0.00     0.124 A 
ATOM      2  C1  UNL d   1      -1.705  -0.443  -0.035  0.00  0.00     0.062 A 
ATOM      3  C2  UNL d   1      -1.749   0.305   1.138  0.00  0.00     0.162 A 
ATOM      4  C3  UNL d   1      -0.579   0.845   1.672  0.00  0.00    -0.034 A 
ATOM      5  C4  UNL d   1       0.633   0.625   1.017  0.00  0.00     0.162 A 
ATOM      6  C5  UNL d   1       0.672  -0.123  -0.156  0.00  0.00     0.062 A 
ATOM      7  F   UNL d   1       1.841  -0.329  -0.779  0.00  0.00    -0.097 F 
ATOM      8  F1  UNL d   1       1.777   1.129   1.503  0.00  0.00    -0.096 F 
ATOM      9  I   UNL d   1      -0.640   1.963   3.427  0.00  0.00    -0.060 I 
ATOM     10  F2  UNL d   1      -2.932   0.495   1.742  0.00  0.00    -0.096 F 
ATOM     11  F3  UNL d   1      -2.835  -0.958  -0.541  0.00  0.00    -0.097 F 
ATOM     12  F4  UNL d   1      -0.457  -1.377  -1.810  0.00  0.00    -0.092 F 
ENDROOT
TORSDOF 0
ENDMDL
