MODEL 1
REMARK minimizedAffinity 12.1057158
REMARK minimizedRMSD -1
REMARK  2 active torsions:
REMARK  status: ('A' for Active; 'I' for Inactive)
REMARK    1  A    between atoms: C2'_3  and  C1'_4 
REMARK    2  A    between atoms: C1'_4  and  C1_5 
ROOT
ATOM      1  C1  I4B d   1       0.377   2.947   1.492  0.00  0.00    -0.075 A 
ATOM      2  C2  I4B d   1      -0.584   2.552   2.390  0.00  0.00     0.003 A 
ATOM      3  C3  I4B d   1      -0.210   1.943   3.612  0.00  0.00     0.002 A 
ATOM      4  C4  I4B d   1       1.124   1.704   3.873  0.00  0.00    -0.004 A 
ATOM      5  C5  I4B d   1       2.098   2.126   2.972  0.00  0.00     0.002 A 
ATOM      6  C6  I4B d   1       1.723   2.762   1.780  0.00  0.00     0.003 A 
ENDROOT
BRANCH   1   7
ATOM      7  C1' I4B d   1      -0.054   3.557   0.197  0.00  0.00     0.060 C 
BRANCH   7   8
ATOM      8  C2' I4B d   1       0.505   4.963   0.134  0.00  0.00    -0.013 C 
ATOM      9  C4' I4B d   1       1.061   5.269  -1.232  0.00  0.00     0.013 C 
ATOM     10  C3' I4B d   1      -0.595   5.916   0.496  0.00  0.00     0.013 C 
ENDBRANCH   7   8
ENDBRANCH   1   7
TORSDOF 2
ENDMDL
