MODEL 1
REMARK minimizedAffinity 7.90221071
REMARK minimizedRMSD -1
REMARK  2 active torsions:
REMARK  status: ('A' for Active; 'I' for Inactive)
REMARK    1  A    between atoms: C2'_3  and  C1'_4 
REMARK    2  A    between atoms: C1'_4  and  C1_5 
ROOT
ATOM      1  C1  I4B d   1      -0.007   3.414   0.236  0.00  0.00    -0.075 A 
ATOM      2  C2  I4B d   1      -0.997   4.096  -0.427  0.00  0.00     0.003 A 
ATOM      3  C3  I4B d   1      -0.754   5.401  -0.922  0.00  0.00     0.002 A 
ATOM      4  C4  I4B d   1       0.467   6.000  -0.689  0.00  0.00    -0.004 A 
ATOM      5  C5  I4B d   1       1.476   5.298  -0.037  0.00  0.00     0.002 A 
ATOM      6  C6  I4B d   1       1.243   3.992   0.418  0.00  0.00     0.003 A 
ENDROOT
BRANCH   1   7
ATOM      7  C1' I4B d   1      -0.307   2.051   0.774  0.00  0.00     0.060 C 
BRANCH   7   8
ATOM      8  C2' I4B d   1      -1.201   1.342  -0.223  0.00  0.00    -0.013 C 
ATOM      9  C4' I4B d   1      -0.411   0.390  -1.082  0.00  0.00     0.013 C 
ATOM     10  C3' I4B d   1      -2.269   0.620   0.543  0.00  0.00     0.013 C 
ENDBRANCH   7   8
ENDBRANCH   1   7
TORSDOF 2
ENDMDL
