MODEL 1
REMARK minimizedAffinity 11.2225275
REMARK minimizedRMSD -1
REMARK  2 active torsions:
REMARK  status: ('A' for Active; 'I' for Inactive)
REMARK    1  A    between atoms: C2'_3  and  C1'_4 
REMARK    2  A    between atoms: C1'_4  and  C1_5 
ROOT
ATOM      1  C1  I4B d   1      -0.366   5.758  -2.078  0.00  0.00    -0.075 A 
ATOM      2  C2  I4B d   1       0.433   5.853  -3.190  0.00  0.00     0.003 A 
ATOM      3  C3  I4B d   1      -0.147   6.000  -4.474  0.00  0.00     0.002 A 
ATOM      4  C4  I4B d   1      -1.521   5.996  -4.603  0.00  0.00    -0.004 A 
ATOM      5  C5  I4B d   1      -2.329   5.924  -3.472  0.00  0.00     0.002 A 
ATOM      6  C6  I4B d   1      -1.748   5.816  -2.200  0.00  0.00     0.003 A 
ENDROOT
BRANCH   1   7
ATOM      7  C1' I4B d   1       0.279   5.571  -0.741  0.00  0.00     0.060 C 
BRANCH   7   8
ATOM      8  C2' I4B d   1      -0.447   4.450  -0.025  0.00  0.00    -0.013 C 
ATOM      9  C4' I4B d   1       0.513   3.381   0.427  0.00  0.00     0.013 C 
ATOM     10  C3' I4B d   1      -1.183   5.045   1.138  0.00  0.00     0.013 C 
ENDBRANCH   7   8
ENDBRANCH   1   7
TORSDOF 2
ENDMDL
