MODEL 1
REMARK minimizedAffinity 8.57493114
REMARK minimizedRMSD -1
REMARK  2 active torsions:
REMARK  status: ('A' for Active; 'I' for Inactive)
REMARK    1  A    between atoms: C2'_3  and  C1'_4 
REMARK    2  A    between atoms: C1'_4  and  C1_5 
ROOT
ATOM      1  C1  I4B d   1      -1.059   2.310   2.429  0.00  0.00    -0.075 A 
ATOM      2  C2  I4B d   1      -1.135   3.069   1.288  0.00  0.00     0.003 A 
ATOM      3  C3  I4B d   1       0.042   3.410   0.578  0.00  0.00     0.002 A 
ATOM      4  C4  I4B d   1       1.270   3.016   1.070  0.00  0.00    -0.004 A 
ATOM      5  C5  I4B d   1       1.343   2.227   2.215  0.00  0.00     0.002 A 
ATOM      6  C6  I4B d   1       0.171   1.861   2.892  0.00  0.00     0.003 A 
ENDROOT
BRANCH   1   7
ATOM      7  C1' I4B d   1      -2.319   1.996   3.171  0.00  0.00     0.060 C 
BRANCH   7   8
ATOM      8  C2' I4B d   1      -3.190   1.142   2.272  0.00  0.00    -0.013 C 
ATOM      9  C4' I4B d   1      -2.617   1.053   0.882  0.00  0.00     0.013 C 
ATOM     10  C3' I4B d   1      -3.308  -0.216   2.897  0.00  0.00     0.013 C 
ENDBRANCH   7   8
ENDBRANCH   1   7
TORSDOF 2
ENDMDL
