MODEL 1
REMARK minimizedAffinity 9.10709572
REMARK minimizedRMSD -1
REMARK  2 active torsions:
REMARK  status: ('A' for Active; 'I' for Inactive)
REMARK    1  A    between atoms: C2'_3  and  C1'_4 
REMARK    2  A    between atoms: C1'_4  and  C1_5 
ROOT
ATOM      1  C1  I4B d   1       0.150   3.624   0.997  0.00  0.00    -0.075 A 
ATOM      2  C2  I4B d   1       0.497   3.859  -0.310  0.00  0.00     0.003 A 
ATOM      3  C3  I4B d   1       0.131   5.075  -0.937  0.00  0.00     0.002 A 
ATOM      4  C4  I4B d   1      -0.619   6.000  -0.240  0.00  0.00    -0.004 A 
ATOM      5  C5  I4B d   1      -0.950   5.770   1.092  0.00  0.00     0.002 A 
ATOM      6  C6  I4B d   1      -0.553   4.580   1.719  0.00  0.00     0.003 A 
ENDROOT
BRANCH   1   7
ATOM      7  C1' I4B d   1       0.524   2.316   1.618  0.00  0.00     0.060 C 
BRANCH   7   8
ATOM      8  C2' I4B d   1       0.006   2.310   3.042  0.00  0.00    -0.013 C 
ATOM      9  C4' I4B d   1      -1.453   1.940   3.090  0.00  0.00     0.013 C 
ATOM     10  C3' I4B d   1       0.835   1.342   3.833  0.00  0.00     0.013 C 
ENDBRANCH   7   8
ENDBRANCH   1   7
TORSDOF 2
ENDMDL
