MODEL 1
REMARK minimizedAffinity 16.9332237
REMARK minimizedRMSD -1
REMARK  2 active torsions:
REMARK  status: ('A' for Active; 'I' for Inactive)
REMARK    1  A    between atoms: C2'_3  and  C1'_4 
REMARK    2  A    between atoms: C1'_4  and  C1_5 
ROOT
ATOM      1  C1  I4B d   1       5.210  -3.909  -3.423  0.00  0.00    -0.075 A 
ATOM      2  C2  I4B d   1       4.123  -4.640  -3.010  0.00  0.00     0.003 A 
ATOM      3  C3  I4B d   1       3.651  -5.719  -3.795  0.00  0.00     0.002 A 
ATOM      4  C4  I4B d   1       4.259  -6.000  -5.002  0.00  0.00    -0.004 A 
ATOM      5  C5  I4B d   1       5.374  -5.273  -5.407  0.00  0.00     0.002 A 
ATOM      6  C6  I4B d   1       5.861  -4.229  -4.607  0.00  0.00     0.003 A 
ENDROOT
BRANCH   1   7
ATOM      7  C1' I4B d   1       5.662  -2.755  -2.586  0.00  0.00     0.060 C 
BRANCH   7   8
ATOM      8  C2' I4B d   1       5.126  -2.957  -1.183  0.00  0.00    -0.013 C 
ATOM      9  C4' I4B d   1       5.992  -3.908  -0.400  0.00  0.00     0.013 C 
ATOM     10  C3' I4B d   1       5.055  -1.615  -0.517  0.00  0.00     0.013 C 
ENDBRANCH   7   8
ENDBRANCH   1   7
TORSDOF 2
ENDMDL
