MODEL 1
REMARK minimizedAffinity 14.7940454
REMARK minimizedRMSD -1
REMARK  2 active torsions:
REMARK  status: ('A' for Active; 'I' for Inactive)
REMARK    1  A    between atoms: C2'_3  and  C1'_4 
REMARK    2  A    between atoms: C1'_4  and  C1_5 
ROOT
ATOM      1  C1  I4B d   1      -0.250   4.856  -0.558  0.00  0.00    -0.075 A 
ATOM      2  C2  I4B d   1      -0.768   5.081   0.693  0.00  0.00     0.003 A 
ATOM      3  C3  I4B d   1      -0.698   4.074   1.685  0.00  0.00     0.002 A 
ATOM      4  C4  I4B d   1      -0.151   2.847   1.370  0.00  0.00    -0.004 A 
ATOM      5  C5  I4B d   1       0.394   2.628   0.108  0.00  0.00     0.002 A 
ATOM      6  C6  I4B d   1       0.355   3.643  -0.858  0.00  0.00     0.003 A 
ENDROOT
BRANCH   1   7
ATOM      7  C1' I4B d   1      -0.371   5.931  -1.592  0.00  0.00     0.060 C 
BRANCH   7   8
ATOM      8  C2' I4B d   1      -1.410   5.491  -2.603  0.00  0.00    -0.013 C 
ATOM      9  C4' I4B d   1      -2.779   6.000  -2.233  0.00  0.00     0.013 C 
ATOM     10  C3' I4B d   1      -0.990   5.999  -3.950  0.00  0.00     0.013 C 
ENDBRANCH   7   8
ENDBRANCH   1   7
TORSDOF 2
ENDMDL
