MODEL 1
REMARK minimizedAffinity 14.5944824
REMARK minimizedRMSD -1
REMARK  2 active torsions:
REMARK  status: ('A' for Active; 'I' for Inactive)
REMARK    1  A    between atoms: C2'_3  and  C1'_4 
REMARK    2  A    between atoms: C1'_4  and  C1_5 
ROOT
ATOM      1  C1  I4B d   1      -0.606   1.302  -0.049  0.00  0.00    -0.075 A 
ATOM      2  C2  I4B d   1      -1.908   0.941  -0.288  0.00  0.00     0.003 A 
ATOM      3  C3  I4B d   1      -2.201  -0.135  -1.161  0.00  0.00     0.002 A 
ATOM      4  C4  I4B d   1      -1.171  -0.785  -1.808  0.00  0.00    -0.004 A 
ATOM      5  C5  I4B d   1       0.150  -0.433  -1.547  0.00  0.00     0.002 A 
ATOM      6  C6  I4B d   1       0.436   0.609  -0.653  0.00  0.00     0.003 A 
ENDROOT
BRANCH   1   7
ATOM      7  C1' I4B d   1      -0.333   2.464   0.853  0.00  0.00     0.060 C 
BRANCH   7   8
ATOM      8  C2' I4B d   1      -0.810   3.720   0.152  0.00  0.00    -0.013 C 
ATOM      9  C4' I4B d   1      -1.423   4.689   1.128  0.00  0.00     0.013 C 
ATOM     10  C3' I4B d   1       0.365   4.331  -0.552  0.00  0.00     0.013 C 
ENDBRANCH   7   8
ENDBRANCH   1   7
TORSDOF 2
ENDMDL
