MODEL 1
REMARK minimizedAffinity 10.4630785
REMARK minimizedRMSD -1
REMARK  2 active torsions:
REMARK  status: ('A' for Active; 'I' for Inactive)
REMARK    1  A    between atoms: C2'_3  and  C1'_4 
REMARK    2  A    between atoms: C1'_4  and  C1_5 
ROOT
ATOM      1  C1  I4B d   1       3.125  -0.668   1.463  0.00  0.00    -0.075 A 
ATOM      2  C2  I4B d   1       2.043  -0.906   0.652  0.00  0.00     0.003 A 
ATOM      3  C3  I4B d   1       2.225  -1.488  -0.626  0.00  0.00     0.002 A 
ATOM      4  C4  I4B d   1       3.501  -1.768  -1.070  0.00  0.00    -0.004 A 
ATOM      5  C5  I4B d   1       4.594  -1.547  -0.238  0.00  0.00     0.002 A 
ATOM      6  C6  I4B d   1       4.405  -1.005   1.042  0.00  0.00     0.003 A 
ENDROOT
BRANCH   1   7
ATOM      7  C1' I4B d   1       2.900  -0.021   2.793  0.00  0.00     0.060 C 
BRANCH   7   8
ATOM      8  C2' I4B d   1       1.532  -0.440   3.290  0.00  0.00    -0.013 C 
ATOM      9  C4' I4B d   1       1.638  -1.286   4.532  0.00  0.00     0.013 C 
ATOM     10  C3' I4B d   1       0.733   0.802   3.548  0.00  0.00     0.013 C 
ENDBRANCH   7   8
ENDBRANCH   1   7
TORSDOF 2
ENDMDL
