MODEL 1
REMARK minimizedAffinity 6.54765368
REMARK minimizedRMSD -1
REMARK  2 active torsions:
REMARK  status: ('A' for Active; 'I' for Inactive)
REMARK    1  A    between atoms: C2'_3  and  C1'_4 
REMARK    2  A    between atoms: C1'_4  and  C1_5 
ROOT
ATOM      1  C1  I4B d   1       1.005   1.965   1.254  0.00  0.00    -0.075 A 
ATOM      2  C2  I4B d   1       1.490   0.850   0.617  0.00  0.00     0.003 A 
ATOM      3  C3  I4B d   1       0.966   0.462  -0.640  0.00  0.00     0.002 A 
ATOM      4  C4  I4B d   1      -0.071   1.184  -1.196  0.00  0.00    -0.004 A 
ATOM      5  C5  I4B d   1      -0.546   2.327  -0.560  0.00  0.00     0.002 A 
ATOM      6  C6  I4B d   1       0.003   2.728   0.667  0.00  0.00     0.003 A 
ENDROOT
BRANCH   1   7
ATOM      7  C1' I4B d   1       1.558   2.326   2.595  0.00  0.00     0.060 C 
BRANCH   7   8
ATOM      8  C2' I4B d   1       0.680   1.687   3.651  0.00  0.00    -0.013 C 
ATOM      9  C4' I4B d   1      -0.745   1.572   3.178  0.00  0.00     0.013 C 
ATOM     10  C3' I4B d   1       1.253   0.340   3.976  0.00  0.00     0.013 C 
ENDBRANCH   7   8
ENDBRANCH   1   7
TORSDOF 2
ENDMDL
