MODEL 1
REMARK minimizedAffinity 6.3730731
REMARK minimizedRMSD -1
REMARK  2 active torsions:
REMARK  status: ('A' for Active; 'I' for Inactive)
REMARK    1  A    between atoms: C2'_3  and  C1'_4 
REMARK    2  A    between atoms: C1'_4  and  C1_5 
ROOT
ATOM      1  C1  I4B d   1      -0.080   5.588  -2.119  0.00  0.00    -0.075 A 
ATOM      2  C2  I4B d   1       0.740   5.610  -3.220  0.00  0.00     0.003 A 
ATOM      3  C3  I4B d   1       0.198   5.845  -4.507  0.00  0.00     0.002 A 
ATOM      4  C4  I4B d   1      -1.165   6.000  -4.653  0.00  0.00    -0.004 A 
ATOM      5  C5  I4B d   1      -1.992   6.000  -3.533  0.00  0.00     0.002 A 
ATOM      6  C6  I4B d   1      -1.445   5.805  -2.256  0.00  0.00     0.003 A 
ENDROOT
BRANCH   1   7
ATOM      7  C1' I4B d   1       0.521   5.305  -0.779  0.00  0.00     0.060 C 
BRANCH   7   8
ATOM      8  C2' I4B d   1      -0.286   4.199  -0.129  0.00  0.00    -0.013 C 
ATOM      9  C4' I4B d   1       0.607   3.094   0.370  0.00  0.00     0.013 C 
ATOM     10  C3' I4B d   1      -1.079   4.802   0.992  0.00  0.00     0.013 C 
ENDBRANCH   7   8
ENDBRANCH   1   7
TORSDOF 2
ENDMDL
