MODEL 1
REMARK minimizedAffinity 0.022164017
REMARK minimizedRMSD -1
REMARK  0 active torsions:
REMARK  status: ('A' for Active; 'I' for Inactive)
ROOT
ATOM      1  C   UNL d   1       5.999   4.450  -4.056  0.00  0.00     0.023 A 
ATOM      2  C1  UNL d   1       6.000   3.392  -3.147  0.00  0.00     0.003 A 
ATOM      3  C2  UNL d   1       5.999   2.074  -3.609  0.00  0.00     0.048 A 
ATOM      4  C3  UNL d   1       5.999   1.821  -4.980  0.00  0.00     0.023 A 
ATOM      5  C4  UNL d   1       6.000   2.877  -5.893  0.00  0.00     0.048 A 
ATOM      6  C5  UNL d   1       5.999   4.193  -5.427  0.00  0.00     0.003 A 
ATOM      7  I   UNL d   1       5.999  -0.140  -5.669  0.00  0.00    -0.146 I 
ENDROOT
TORSDOF 0
ENDMDL
