MODEL 1
REMARK minimizedAffinity 7.54310703
REMARK minimizedRMSD -1
REMARK  0 active torsions:
REMARK  status: ('A' for Active; 'I' for Inactive)
ROOT
ATOM      1  C   UNL d   1      -0.276  -3.261   0.165  0.00  0.00     0.023 A 
ATOM      2  C1  UNL d   1      -0.272  -4.297  -0.769  0.00  0.00     0.003 A 
ATOM      3  C2  UNL d   1      -0.931  -4.141  -1.990  0.00  0.00     0.048 A 
ATOM      4  C3  UNL d   1      -1.593  -2.946  -2.271  0.00  0.00     0.023 A 
ATOM      5  C4  UNL d   1      -1.599  -1.906  -1.340  0.00  0.00     0.048 A 
ATOM      6  C5  UNL d   1      -0.938  -2.067  -0.120  0.00  0.00     0.003 A 
ATOM      7  I   UNL d   1      -2.575  -2.712  -4.087  0.00  0.00    -0.146 I 
ENDROOT
TORSDOF 0
ENDMDL
