MODEL 1
REMARK minimizedAffinity -0.319783896
REMARK minimizedRMSD -1
REMARK  0 active torsions:
REMARK  status: ('A' for Active; 'I' for Inactive)
ROOT
ATOM      1  C   UNL d   1       4.686   1.005  -3.998  0.00  0.00     0.023 A 
ATOM      2  C1  UNL d   1       4.349   1.285  -5.322  0.00  0.00     0.003 A 
ATOM      3  C2  UNL d   1       4.725   2.500  -5.898  0.00  0.00     0.048 A 
ATOM      4  C3  UNL d   1       5.439   3.431  -5.144  0.00  0.00     0.023 A 
ATOM      5  C4  UNL d   1       5.779   3.155  -3.819  0.00  0.00     0.048 A 
ATOM      6  C5  UNL d   1       5.400   1.939  -3.247  0.00  0.00     0.003 A 
ATOM      7  I   UNL d   1       6.000   5.240  -5.999  0.00  0.00    -0.146 I 
ENDROOT
TORSDOF 0
ENDMDL
