MODEL 1
REMARK minimizedAffinity 4.24658442
REMARK minimizedRMSD -1
REMARK  0 active torsions:
REMARK  status: ('A' for Active; 'I' for Inactive)
ROOT
ATOM      1  C   UNL d   1      -0.547  -2.341   0.524  0.00  0.00     0.023 A 
ATOM      2  C1  UNL d   1      -1.593  -1.612  -0.043  0.00  0.00     0.003 A 
ATOM      3  C2  UNL d   1      -1.967  -1.842  -1.369  0.00  0.00     0.048 A 
ATOM      4  C3  UNL d   1      -1.292  -2.803  -2.121  0.00  0.00     0.023 A 
ATOM      5  C4  UNL d   1      -0.246  -3.535  -1.557  0.00  0.00     0.048 A 
ATOM      6  C5  UNL d   1       0.125  -3.301  -0.232  0.00  0.00     0.003 A 
ATOM      7  I   UNL d   1      -1.848  -3.147  -4.094  0.00  0.00    -0.146 I 
ENDROOT
TORSDOF 0
ENDMDL
