MODEL 1
REMARK minimizedAffinity 10.9789963
REMARK minimizedRMSD -1
REMARK  0 active torsions:
REMARK  status: ('A' for Active; 'I' for Inactive)
ROOT
ATOM      1  C   UNL d   1       1.241   5.935  -5.996  0.00  0.00     0.023 A 
ATOM      2  C1  UNL d   1       0.562   4.716  -5.990  0.00  0.00     0.003 A 
ATOM      3  C2  UNL d   1       1.275   3.518  -5.909  0.00  0.00     0.048 A 
ATOM      4  C3  UNL d   1       2.667   3.546  -5.833  0.00  0.00     0.023 A 
ATOM      5  C4  UNL d   1       3.351   4.763  -5.838  0.00  0.00     0.048 A 
ATOM      6  C5  UNL d   1       2.634   5.958  -5.920  0.00  0.00     0.003 A 
ATOM      7  I   UNL d   1       3.731   1.764  -5.713  0.00  0.00    -0.146 I 
ENDROOT
TORSDOF 0
ENDMDL
