MODEL 1
REMARK minimizedAffinity 7.65062046
REMARK minimizedRMSD -1
REMARK  0 active torsions:
REMARK  status: ('A' for Active; 'I' for Inactive)
ROOT
ATOM      1  C   UNL d   1       0.340  -4.594   0.683  0.00  0.00     0.023 A 
ATOM      2  C1  UNL d   1      -0.204  -5.073   1.875  0.00  0.00     0.003 A 
ATOM      3  C2  UNL d   1      -0.777  -4.186   2.789  0.00  0.00     0.048 A 
ATOM      4  C3  UNL d   1      -0.803  -2.822   2.504  0.00  0.00     0.023 A 
ATOM      5  C4  UNL d   1      -0.261  -2.337   1.313  0.00  0.00     0.048 A 
ATOM      6  C5  UNL d   1       0.312  -3.228   0.402  0.00  0.00     0.003 A 
ATOM      7  I   UNL d   1      -1.655  -1.500   3.863  0.00  0.00    -0.146 I 
ENDROOT
TORSDOF 0
ENDMDL
