MODEL 1
REMARK minimizedAffinity 8.97187042
REMARK minimizedRMSD -1
REMARK  0 active torsions:
REMARK  status: ('A' for Active; 'I' for Inactive)
ROOT
ATOM      1  C   UNL d   1      -2.500  -3.553  -5.991  0.00  0.00     0.023 A 
ATOM      2  C1  UNL d   1      -1.320  -2.863  -5.712  0.00  0.00     0.003 A 
ATOM      3  C2  UNL d   1      -1.052  -2.434  -4.410  0.00  0.00     0.048 A 
ATOM      4  C3  UNL d   1      -1.968  -2.698  -3.393  0.00  0.00     0.023 A 
ATOM      5  C4  UNL d   1      -3.150  -3.388  -3.667  0.00  0.00     0.048 A 
ATOM      6  C5  UNL d   1      -3.414  -3.815  -4.970  0.00  0.00     0.003 A 
ATOM      7  I   UNL d   1      -1.572  -2.059  -1.455  0.00  0.00    -0.146 I 
ENDROOT
TORSDOF 0
ENDMDL
