MODEL 1
REMARK minimizedAffinity 10.8904257
REMARK minimizedRMSD -1
REMARK  0 active torsions:
REMARK  status: ('A' for Active; 'I' for Inactive)
ROOT
ATOM      1  C   UNL d   1       0.041  -3.533   0.489  0.00  0.00     0.023 A 
ATOM      2  C1  UNL d   1      -0.749  -2.424   0.186  0.00  0.00     0.003 A 
ATOM      3  C2  UNL d   1      -1.355  -2.318  -1.067  0.00  0.00     0.048 A 
ATOM      4  C3  UNL d   1      -1.168  -3.325  -2.013  0.00  0.00     0.023 A 
ATOM      5  C4  UNL d   1      -0.380  -4.437  -1.715  0.00  0.00     0.048 A 
ATOM      6  C5  UNL d   1       0.226  -4.539  -0.461  0.00  0.00     0.003 A 
ATOM      7  I   UNL d   1      -2.070  -3.169  -3.879  0.00  0.00    -0.146 I 
ENDROOT
TORSDOF 0
ENDMDL
