MODEL 1
REMARK minimizedAffinity 11.1288595
REMARK minimizedRMSD -1
REMARK  0 active torsions:
REMARK  status: ('A' for Active; 'I' for Inactive)
ROOT
ATOM      1  C   UNL d   1      -1.911  -4.247  -6.000  0.00  0.00     0.023 A 
ATOM      2  C1  UNL d   1      -1.404  -4.779  -4.814  0.00  0.00     0.003 A 
ATOM      3  C2  UNL d   1      -1.495  -4.052  -3.626  0.00  0.00     0.048 A 
ATOM      4  C3  UNL d   1      -2.096  -2.793  -3.630  0.00  0.00     0.023 A 
ATOM      5  C4  UNL d   1      -2.605  -2.257  -4.814  0.00  0.00     0.048 A 
ATOM      6  C5  UNL d   1      -2.511  -2.988  -6.000  0.00  0.00     0.003 A 
ATOM      7  I   UNL d   1      -2.233  -1.709  -1.862  0.00  0.00    -0.146 I 
ENDROOT
TORSDOF 0
ENDMDL
