MODEL 1
REMARK minimizedAffinity 7.34769535
REMARK minimizedRMSD -1
REMARK  0 active torsions:
REMARK  status: ('A' for Active; 'I' for Inactive)
ROOT
ATOM      1  C   UNL d   1      -2.246  -4.008  -6.000  0.00  0.00     0.023 A 
ATOM      2  C1  UNL d   1      -2.216  -2.617  -5.895  0.00  0.00     0.003 A 
ATOM      3  C2  UNL d   1      -2.178  -2.011  -4.637  0.00  0.00     0.048 A 
ATOM      4  C3  UNL d   1      -2.169  -2.802  -3.489  0.00  0.00     0.023 A 
ATOM      5  C4  UNL d   1      -2.199  -4.194  -3.589  0.00  0.00     0.048 A 
ATOM      6  C5  UNL d   1      -2.237  -4.795  -4.848  0.00  0.00     0.003 A 
ATOM      7  I   UNL d   1      -2.113  -1.902  -1.616  0.00  0.00    -0.146 I 
ENDROOT
TORSDOF 0
ENDMDL
