MODEL 1
REMARK minimizedAffinity 5.68526936
REMARK minimizedRMSD -1
REMARK  0 active torsions:
REMARK  status: ('A' for Active; 'I' for Inactive)
ROOT
ATOM      1  C   UNL d   1      -2.886  -3.850  -5.992  0.00  0.00     0.023 A 
ATOM      2  C1  UNL d   1      -1.531  -3.562  -5.828  0.00  0.00     0.003 A 
ATOM      3  C2  UNL d   1      -1.054  -3.125  -4.591  0.00  0.00     0.048 A 
ATOM      4  C3  UNL d   1      -1.937  -2.979  -3.521  0.00  0.00     0.023 A 
ATOM      5  C4  UNL d   1      -3.293  -3.267  -3.681  0.00  0.00     0.048 A 
ATOM      6  C5  UNL d   1      -3.766  -3.703  -4.920  0.00  0.00     0.003 A 
ATOM      7  I   UNL d   1      -1.228  -2.328  -1.679  0.00  0.00    -0.146 I 
ENDROOT
TORSDOF 0
ENDMDL
