MODEL 1
REMARK minimizedAffinity 2.07863617
REMARK minimizedRMSD -1
REMARK  0 active torsions:
REMARK  status: ('A' for Active; 'I' for Inactive)
ROOT
ATOM      1  C   UNL d   1       3.594  -3.056  -4.709  0.00  0.00     0.023 A 
ATOM      2  C1  UNL d   1       4.836  -2.778  -4.136  0.00  0.00     0.003 A 
ATOM      3  C2  UNL d   1       5.527  -1.619  -4.495  0.00  0.00     0.048 A 
ATOM      4  C3  UNL d   1       4.972  -0.742  -5.425  0.00  0.00     0.023 A 
ATOM      5  C4  UNL d   1       3.729  -1.015  -6.000  0.00  0.00     0.048 A 
ATOM      6  C5  UNL d   1       3.042  -2.175  -5.639  0.00  0.00     0.003 A 
ATOM      7  I   UNL d   1       5.999   0.984  -5.960  0.00  0.00    -0.146 I 
ENDROOT
TORSDOF 0
ENDMDL
