MODEL 1
REMARK minimizedAffinity 3.70726132
REMARK minimizedRMSD -1
REMARK  0 active torsions:
REMARK  status: ('A' for Active; 'I' for Inactive)
ROOT
ATOM      1  C   UNL d   1      -2.012  -3.783  -5.989  0.00  0.00     0.023 A 
ATOM      2  C1  UNL d   1      -1.255  -2.617  -5.873  0.00  0.00     0.003 A 
ATOM      3  C2  UNL d   1      -0.982  -2.083  -4.612  0.00  0.00     0.048 A 
ATOM      4  C3  UNL d   1      -1.467  -2.721  -3.471  0.00  0.00     0.023 A 
ATOM      5  C4  UNL d   1      -2.223  -3.888  -3.582  0.00  0.00     0.048 A 
ATOM      6  C5  UNL d   1      -2.495  -4.418  -4.845  0.00  0.00     0.003 A 
ATOM      7  I   UNL d   1      -1.060  -1.928  -1.593  0.00  0.00    -0.146 I 
ENDROOT
TORSDOF 0
ENDMDL
