MODEL 1
REMARK minimizedAffinity 4.25316286
REMARK minimizedRMSD -1
REMARK  0 active torsions:
REMARK  status: ('A' for Active; 'I' for Inactive)
ROOT
ATOM      1  C   UNL d   1       0.597   4.518   0.238  0.00  0.00     0.172 C 
ATOM      2  N   UNL d   1       0.732   3.659   1.391  0.00  0.00    -0.070 N 
ATOM      3  C1  UNL d   1      -0.198   2.752   1.824  0.00  0.00    -0.004 A 
ATOM      4  C2  UNL d   1       0.306   2.135   2.949  0.00  0.00    -0.047 A 
ATOM      5  C3  UNL d   1       1.583   2.690   3.200  0.00  0.00    -0.047 A 
ATOM      6  C4  UNL d   1       1.822   3.631   2.220  0.00  0.00    -0.004 A 
ENDROOT
TORSDOF 0
ENDMDL
