MODEL 1
REMARK minimizedAffinity 8.37099457
REMARK minimizedRMSD -1
REMARK  0 active torsions:
REMARK  status: ('A' for Active; 'I' for Inactive)
ROOT
ATOM      1  C   UNL d   1      -6.000   2.917  -2.289  0.00  0.00     0.172 C 
ATOM      2  N   UNL d   1      -5.999   2.293  -3.591  0.00  0.00    -0.070 N 
ATOM      3  C1  UNL d   1      -5.999   2.950  -4.792  0.00  0.00    -0.004 A 
ATOM      4  C2  UNL d   1      -5.998   2.002  -5.792  0.00  0.00    -0.047 A 
ATOM      5  C3  UNL d   1      -5.999   0.731  -5.171  0.00  0.00    -0.047 A 
ATOM      6  C4  UNL d   1      -6.000   0.940  -3.808  0.00  0.00    -0.004 A 
ENDROOT
TORSDOF 0
ENDMDL
