MODEL 1
REMARK minimizedAffinity 4.63267946
REMARK minimizedRMSD -1
REMARK  0 active torsions:
REMARK  status: ('A' for Active; 'I' for Inactive)
ROOT
ATOM      1  C   UNL d   1      -5.997   5.615  -3.060  0.00  0.00     0.172 C 
ATOM      2  N   UNL d   1      -5.996   4.323  -2.416  0.00  0.00    -0.070 N 
ATOM      3  C1  UNL d   1      -5.991   3.112  -3.056  0.00  0.00    -0.004 A 
ATOM      4  C2  UNL d   1      -5.990   2.126  -2.093  0.00  0.00    -0.047 A 
ATOM      5  C3  UNL d   1      -5.997   2.766  -0.831  0.00  0.00    -0.047 A 
ATOM      6  C4  UNL d   1      -6.000   4.125  -1.060  0.00  0.00    -0.004 A 
ENDROOT
TORSDOF 0
ENDMDL
