MODEL 1
REMARK minimizedAffinity 6.71668577
REMARK minimizedRMSD -1
REMARK  0 active torsions:
REMARK  status: ('A' for Active; 'I' for Inactive)
ROOT
ATOM      1  C   UNL d   1      -5.998   1.873  -3.973  0.00  0.00     0.172 C 
ATOM      2  N   UNL d   1      -5.987   2.307  -2.596  0.00  0.00    -0.070 N 
ATOM      3  C1  UNL d   1      -5.996   1.486  -1.500  0.00  0.00    -0.004 A 
ATOM      4  C2  UNL d   1      -5.980   2.283  -0.376  0.00  0.00    -0.047 A 
ATOM      5  C3  UNL d   1      -5.963   3.629  -0.811  0.00  0.00    -0.047 A 
ATOM      6  C4  UNL d   1      -5.968   3.615  -2.190  0.00  0.00    -0.004 A 
ENDROOT
TORSDOF 0
ENDMDL
