MODEL 1
REMARK minimizedAffinity -1.71785843
REMARK minimizedRMSD -1
REMARK  0 active torsions:
REMARK  status: ('A' for Active; 'I' for Inactive)
ROOT
ATOM      1  C   UNL d   1       2.056   3.073   2.864  0.00  0.00     0.172 C 
ATOM      2  N   UNL d   1       1.422   3.531   1.650  0.00  0.00    -0.070 N 
ATOM      3  C1  UNL d   1       2.006   4.316   0.692  0.00  0.00    -0.004 A 
ATOM      4  C2  UNL d   1       1.075   4.531  -0.302  0.00  0.00    -0.047 A 
ATOM      5  C3  UNL d   1      -0.109   3.852   0.072  0.00  0.00    -0.047 A 
ATOM      6  C4  UNL d   1       0.133   3.242   1.285  0.00  0.00    -0.004 A 
ENDROOT
TORSDOF 0
ENDMDL
