MODEL 1
REMARK minimizedAffinity 2.57034874
REMARK minimizedRMSD -1
REMARK  0 active torsions:
REMARK  status: ('A' for Active; 'I' for Inactive)
ROOT
ATOM      1  C   UNL d   1      -2.358   4.518  -2.258  0.00  0.00     0.172 C 
ATOM      2  N   UNL d   1      -3.730   4.282  -2.641  0.00  0.00    -0.070 N 
ATOM      3  C1  UNL d   1      -4.833   4.609  -1.898  0.00  0.00    -0.004 A 
ATOM      4  C2  UNL d   1      -5.949   4.222  -2.609  0.00  0.00    -0.047 A 
ATOM      5  C3  UNL d   1      -5.501   3.643  -3.819  0.00  0.00    -0.047 A 
ATOM      6  C4  UNL d   1      -4.123   3.693  -3.813  0.00  0.00    -0.004 A 
ENDROOT
TORSDOF 0
ENDMDL
