MODEL 1
REMARK minimizedAffinity -3.1685946
REMARK minimizedRMSD -1
REMARK  0 active torsions:
REMARK  status: ('A' for Active; 'I' for Inactive)
ROOT
ATOM      1  C   UNL d   1      -4.743   1.111   4.905  0.00  0.00     0.020 A 
ATOM      2  C1  UNL d   1      -5.926   1.458   4.253  0.00  0.00     0.020 A 
ATOM      3  C2  UNL d   1      -6.000   1.394   2.860  0.00  0.00     0.034 A 
ATOM      4  C3  UNL d   1      -4.889   0.984   2.114  0.00  0.00     0.017 A 
ATOM      5  C4  UNL d   1      -3.702   0.636   2.770  0.00  0.00     0.017 A 
ATOM      6  C5  UNL d   1      -3.634   0.701   4.165  0.00  0.00     0.034 A 
ATOM      7 Cl   UNL d   1      -2.290   0.120   1.917  0.00  0.00    -0.070 Cl
ATOM      8 Cl1  UNL d   1      -5.052   0.928   0.395  0.00  0.00    -0.070 Cl
ENDROOT
TORSDOF 0
ENDMDL
