MODEL 1
REMARK minimizedAffinity 6.55812407
REMARK minimizedRMSD -1
REMARK  0 active torsions:
REMARK  status: ('A' for Active; 'I' for Inactive)
ROOT
ATOM      1  C   UNL d   1      -4.415   1.525   1.948  0.00  0.00     0.020 A 
ATOM      2  C1  UNL d   1      -4.365   0.730   0.804  0.00  0.00     0.020 A 
ATOM      3  C2  UNL d   1      -3.428  -0.302   0.711  0.00  0.00     0.034 A 
ATOM      4  C3  UNL d   1      -2.537  -0.540   1.764  0.00  0.00     0.017 A 
ATOM      5  C4  UNL d   1      -2.588   0.259   2.912  0.00  0.00     0.017 A 
ATOM      6  C5  UNL d   1      -3.528   1.290   3.000  0.00  0.00     0.034 A 
ATOM      7 Cl   UNL d   1      -1.522   0.025   4.252  0.00  0.00    -0.070 Cl
ATOM      8 Cl1  UNL d   1      -1.406  -1.833   1.582  0.00  0.00    -0.070 Cl
ENDROOT
TORSDOF 0
ENDMDL
