MODEL 1
REMARK minimizedAffinity 2.7743237
REMARK minimizedRMSD -1
REMARK  0 active torsions:
REMARK  status: ('A' for Active; 'I' for Inactive)
ROOT
ATOM      1  C   UNL d   1      -1.561  -0.123   2.916  0.00  0.00     0.020 A 
ATOM      2  C1  UNL d   1      -1.537  -0.545   1.588  0.00  0.00     0.020 A 
ATOM      3  C2  UNL d   1      -2.526  -0.117   0.700  0.00  0.00     0.034 A 
ATOM      4  C3  UNL d   1      -3.544   0.737   1.140  0.00  0.00     0.017 A 
ATOM      5  C4  UNL d   1      -3.568   1.161   2.474  0.00  0.00     0.017 A 
ATOM      6  C5  UNL d   1      -2.575   0.729   3.358  0.00  0.00     0.034 A 
ATOM      7 Cl   UNL d   1      -4.792   2.214   3.090  0.00  0.00    -0.070 Cl
ATOM      8 Cl1  UNL d   1      -4.735   1.228  -0.012  0.00  0.00    -0.070 Cl
ENDROOT
TORSDOF 0
ENDMDL
