MODEL 1
REMARK minimizedAffinity 4.49091244
REMARK minimizedRMSD -1
REMARK  0 active torsions:
REMARK  status: ('A' for Active; 'I' for Inactive)
ROOT
ATOM      1  C   UNL d   1      -2.234   0.491   2.995  0.00  0.00     0.020 A 
ATOM      2  C1  UNL d   1      -1.376  -0.406   2.360  0.00  0.00     0.020 A 
ATOM      3  C2  UNL d   1      -1.683  -0.884   1.085  0.00  0.00     0.034 A 
ATOM      4  C3  UNL d   1      -2.853  -0.466   0.440  0.00  0.00     0.017 A 
ATOM      5  C4  UNL d   1      -3.715   0.434   1.078  0.00  0.00     0.017 A 
ATOM      6  C5  UNL d   1      -3.402   0.910   2.355  0.00  0.00     0.034 A 
ATOM      7 Cl   UNL d   1      -5.176   0.995   0.345  0.00  0.00    -0.070 Cl
ATOM      8 Cl1  UNL d   1      -3.171  -1.098  -1.136  0.00  0.00    -0.070 Cl
ENDROOT
TORSDOF 0
ENDMDL
