MODEL 1
REMARK minimizedAffinity 10.3616858
REMARK minimizedRMSD -1
REMARK  0 active torsions:
REMARK  status: ('A' for Active; 'I' for Inactive)
ROOT
ATOM      1  C   UNL d   1       4.873   4.496  -4.453  0.00  0.00     0.020 A 
ATOM      2  C1  UNL d   1       4.111   3.370  -4.142  0.00  0.00     0.020 A 
ATOM      3  C2  UNL d   1       3.866   3.040  -2.808  0.00  0.00     0.034 A 
ATOM      4  C3  UNL d   1       4.383   3.836  -1.779  0.00  0.00     0.017 A 
ATOM      5  C4  UNL d   1       5.148   4.966  -2.092  0.00  0.00     0.017 A 
ATOM      6  C5  UNL d   1       5.390   5.292  -3.430  0.00  0.00     0.034 A 
ATOM      7 Cl   UNL d   1       5.819   5.997  -0.878  0.00  0.00    -0.070 Cl
ATOM      8 Cl1  UNL d   1       4.041   3.368  -0.151  0.00  0.00    -0.070 Cl
ENDROOT
TORSDOF 0
ENDMDL
