MODEL 1
REMARK minimizedAffinity 8.80001831
REMARK minimizedRMSD -1
REMARK  0 active torsions:
REMARK  status: ('A' for Active; 'I' for Inactive)
ROOT
ATOM      1  C   UNL d   1       5.986   4.092  -4.480  0.00  0.00     0.020 A 
ATOM      2  C1  UNL d   1       4.788   3.564  -4.960  0.00  0.00     0.020 A 
ATOM      3  C2  UNL d   1       3.599   3.784  -4.260  0.00  0.00     0.034 A 
ATOM      4  C3  UNL d   1       3.606   4.533  -3.078  0.00  0.00     0.017 A 
ATOM      5  C4  UNL d   1       4.810   5.062  -2.598  0.00  0.00     0.017 A 
ATOM      6  C5  UNL d   1       5.997   4.839  -3.302  0.00  0.00     0.034 A 
ATOM      7 Cl   UNL d   1       4.898   5.996  -1.146  0.00  0.00    -0.070 Cl
ATOM      8 Cl1  UNL d   1       2.100   4.765  -2.264  0.00  0.00    -0.070 Cl
ENDROOT
TORSDOF 0
ENDMDL
