MODEL 1
REMARK minimizedAffinity 2.90950751
REMARK minimizedRMSD -1
REMARK  0 active torsions:
REMARK  status: ('A' for Active; 'I' for Inactive)
ROOT
ATOM      1  C   UNL d   1      -3.037   0.490   2.193  0.00  0.00     0.020 A 
ATOM      2  C1  UNL d   1      -2.902  -0.435   1.159  0.00  0.00     0.020 A 
ATOM      3  C2  UNL d   1      -1.875  -1.380   1.196  0.00  0.00     0.034 A 
ATOM      4  C3  UNL d   1      -0.978  -1.402   2.270  0.00  0.00     0.017 A 
ATOM      5  C4  UNL d   1      -1.113  -0.472   3.308  0.00  0.00     0.017 A 
ATOM      6  C5  UNL d   1      -2.144   0.472   3.265  0.00  0.00     0.034 A 
ATOM      7 Cl   UNL d   1      -0.045  -0.437   4.666  0.00  0.00    -0.070 Cl
ATOM      8 Cl1  UNL d   1       0.269  -2.598   2.252  0.00  0.00    -0.070 Cl
ENDROOT
TORSDOF 0
ENDMDL
