MODEL 1
REMARK minimizedAffinity 3.95981216
REMARK minimizedRMSD -1
REMARK  0 active torsions:
REMARK  status: ('A' for Active; 'I' for Inactive)
ROOT
ATOM      1  C   UNL d   1      -1.226  -1.639   1.482  0.00  0.00     0.020 A 
ATOM      2  C1  UNL d   1      -0.653  -1.065   2.616  0.00  0.00     0.020 A 
ATOM      3  C2  UNL d   1      -1.302  -0.018   3.273  0.00  0.00     0.034 A 
ATOM      4  C3  UNL d   1      -2.528   0.459   2.796  0.00  0.00     0.017 A 
ATOM      5  C4  UNL d   1      -3.103  -0.118   1.657  0.00  0.00     0.017 A 
ATOM      6  C5  UNL d   1      -2.448  -1.166   1.004  0.00  0.00     0.034 A 
ATOM      7 Cl   UNL d   1      -4.613   0.417   1.009  0.00  0.00    -0.070 Cl
ATOM      8 Cl1  UNL d   1      -3.276   1.757   3.658  0.00  0.00    -0.070 Cl
ENDROOT
TORSDOF 0
ENDMDL
