MODEL 1
REMARK minimizedAffinity 7.5461278
REMARK minimizedRMSD -1
REMARK  0 active torsions:
REMARK  status: ('A' for Active; 'I' for Inactive)
ROOT
ATOM      1  C   UNL d   1      -4.359  -0.163  -1.237  0.00  0.00     0.020 A 
ATOM      2  C1  UNL d   1      -5.131   0.592  -0.354  0.00  0.00     0.020 A 
ATOM      3  C2  UNL d   1      -4.675   0.829   0.944  0.00  0.00     0.034 A 
ATOM      4  C3  UNL d   1      -3.444   0.311   1.363  0.00  0.00     0.017 A 
ATOM      5  C4  UNL d   1      -2.670  -0.446   0.476  0.00  0.00     0.017 A 
ATOM      6  C5  UNL d   1      -3.132  -0.680  -0.823  0.00  0.00     0.034 A 
ATOM      7 Cl   UNL d   1      -1.141  -1.118   0.921  0.00  0.00    -0.070 Cl
ATOM      8 Cl1  UNL d   1      -2.941   0.644   2.983  0.00  0.00    -0.070 Cl
ENDROOT
TORSDOF 0
ENDMDL
