MODEL 1
REMARK minimizedAffinity 0.599819303
REMARK minimizedRMSD -1
REMARK  0 active torsions:
REMARK  status: ('A' for Active; 'I' for Inactive)
ROOT
ATOM      1  C   UNL d   1       0.859  -5.732  -5.536  0.00  0.00     0.020 A 
ATOM      2  C1  UNL d   1       1.052  -4.876  -4.453  0.00  0.00     0.020 A 
ATOM      3  C2  UNL d   1      -0.047  -4.287  -3.824  0.00  0.00     0.034 A 
ATOM      4  C3  UNL d   1      -1.344  -4.553  -4.278  0.00  0.00     0.017 A 
ATOM      5  C4  UNL d   1      -1.536  -5.412  -5.366  0.00  0.00     0.017 A 
ATOM      6  C5  UNL d   1      -0.432  -6.000  -5.992  0.00  0.00     0.034 A 
ATOM      7 Cl   UNL d   1      -3.106  -5.788  -5.983  0.00  0.00    -0.070 Cl
ATOM      8 Cl1  UNL d   1      -2.656  -3.790  -3.453  0.00  0.00    -0.070 Cl
ENDROOT
TORSDOF 0
ENDMDL
