MODEL 1
REMARK minimizedAffinity 8.08570385
REMARK minimizedRMSD -1
REMARK  0 active torsions:
REMARK  status: ('A' for Active; 'I' for Inactive)
ROOT
ATOM      1  C   UNL d   1       1.135   2.040  -2.287  0.00  0.00     0.020 A 
ATOM      2  C1  UNL d   1       2.515   2.235  -2.232  0.00  0.00     0.020 A 
ATOM      3  C2  UNL d   1       3.229   1.856  -1.094  0.00  0.00     0.034 A 
ATOM      4  C3  UNL d   1       2.565   1.280  -0.005  0.00  0.00     0.017 A 
ATOM      5  C4  UNL d   1       1.180   1.084  -0.060  0.00  0.00     0.017 A 
ATOM      6  C5  UNL d   1       0.470   1.466  -1.203  0.00  0.00     0.034 A 
ATOM      7 Cl   UNL d   1       0.290   0.380   1.243  0.00  0.00    -0.070 Cl
ATOM      8 Cl1  UNL d   1       3.511   0.835   1.370  0.00  0.00    -0.070 Cl
ENDROOT
TORSDOF 0
ENDMDL
