MODEL 1
REMARK minimizedAffinity 4.46743965
REMARK minimizedRMSD -1
REMARK  0 active torsions:
REMARK  status: ('A' for Active; 'I' for Inactive)
ROOT
ATOM      1  C   UNL d   1       5.020   5.597  -2.716  0.00  0.00     0.020 A 
ATOM      2  C1  UNL d   1       5.183   4.342  -3.300  0.00  0.00     0.020 A 
ATOM      3  C2  UNL d   1       4.088   3.486  -3.435  0.00  0.00     0.034 A 
ATOM      4  C3  UNL d   1       2.824   3.885  -2.985  0.00  0.00     0.017 A 
ATOM      5  C4  UNL d   1       2.661   5.145  -2.398  0.00  0.00     0.017 A 
ATOM      6  C5  UNL d   1       3.761   5.998  -2.266  0.00  0.00     0.034 A 
ATOM      7 Cl   UNL d   1       1.132   5.707  -1.819  0.00  0.00    -0.070 Cl
ATOM      8 Cl1  UNL d   1       1.514   2.776  -3.183  0.00  0.00    -0.070 Cl
ENDROOT
TORSDOF 0
ENDMDL
