MODEL 1
REMARK minimizedAffinity 6.89649153
REMARK minimizedRMSD -1
REMARK  0 active torsions:
REMARK  status: ('A' for Active; 'I' for Inactive)
ROOT
ATOM      1  C   UNL d   1      -1.502  -1.447   0.712  0.00  0.00     0.020 A 
ATOM      2  C1  UNL d   1      -0.593  -2.085   1.554  0.00  0.00     0.020 A 
ATOM      3  C2  UNL d   1      -0.400  -1.617   2.856  0.00  0.00     0.034 A 
ATOM      4  C3  UNL d   1      -1.118  -0.508   3.319  0.00  0.00     0.017 A 
ATOM      5  C4  UNL d   1      -2.030   0.132   2.472  0.00  0.00     0.017 A 
ATOM      6  C5  UNL d   1      -2.219  -0.341   1.169  0.00  0.00     0.034 A 
ATOM      7 Cl   UNL d   1      -2.952   1.506   2.971  0.00  0.00    -0.070 Cl
ATOM      8 Cl1  UNL d   1      -0.830   0.016   4.940  0.00  0.00    -0.070 Cl
ENDROOT
TORSDOF 0
ENDMDL
