MODEL 1
REMARK minimizedAffinity 16.1679535
REMARK minimizedRMSD -1
REMARK  0 active torsions:
REMARK  status: ('A' for Active; 'I' for Inactive)
ROOT
ATOM      1  C   UNL d   1       5.999   4.421  -3.343  0.00  0.00     0.020 A 
ATOM      2  C1  UNL d   1       5.177   4.509  -2.220  0.00  0.00     0.020 A 
ATOM      3  C2  UNL d   1       3.891   3.966  -2.252  0.00  0.00     0.034 A 
ATOM      4  C3  UNL d   1       3.422   3.334  -3.409  0.00  0.00     0.017 A 
ATOM      5  C4  UNL d   1       4.248   3.246  -4.536  0.00  0.00     0.017 A 
ATOM      6  C5  UNL d   1       5.535   3.791  -4.498  0.00  0.00     0.034 A 
ATOM      7 Cl   UNL d   1       3.740   2.481  -6.000  0.00  0.00    -0.070 Cl
ATOM      8 Cl1  UNL d   1       1.821   2.685  -3.378  0.00  0.00    -0.070 Cl
ENDROOT
TORSDOF 0
ENDMDL
