MODEL 1
REMARK minimizedAffinity 8.4397707
REMARK minimizedRMSD -1
REMARK  0 active torsions:
REMARK  status: ('A' for Active; 'I' for Inactive)
ROOT
ATOM      1  C   UNL d   1      -0.866  -1.422   1.285  0.00  0.00     0.020 A 
ATOM      2  C1  UNL d   1      -0.068  -1.088   2.379  0.00  0.00     0.020 A 
ATOM      3  C2  UNL d   1      -0.601  -0.335   3.427  0.00  0.00     0.034 A 
ATOM      4  C3  UNL d   1      -1.934   0.086   3.384  0.00  0.00     0.017 A 
ATOM      5  C4  UNL d   1      -2.734  -0.249   2.286  0.00  0.00     0.017 A 
ATOM      6  C5  UNL d   1      -2.196  -1.004   1.239  0.00  0.00     0.034 A 
ATOM      7 Cl   UNL d   1      -4.389   0.234   2.162  0.00  0.00    -0.070 Cl
ATOM      8 Cl1  UNL d   1      -2.527   1.014   4.716  0.00  0.00    -0.070 Cl
ENDROOT
TORSDOF 0
ENDMDL
