MODEL 1
REMARK minimizedAffinity 7.66944885
REMARK minimizedRMSD -1
REMARK  0 active torsions:
REMARK  status: ('A' for Active; 'I' for Inactive)
ROOT
ATOM      1  C   UNL d   1       0.040  -6.000  -6.000  0.00  0.00     0.020 A 
ATOM      2  C1  UNL d   1      -1.287  -5.570  -6.000  0.00  0.00     0.020 A 
ATOM      3  C2  UNL d   1      -1.719  -4.637  -5.055  0.00  0.00     0.034 A 
ATOM      4  C3  UNL d   1      -0.824  -4.131  -4.105  0.00  0.00     0.017 A 
ATOM      5  C4  UNL d   1       0.508  -4.563  -4.106  0.00  0.00     0.017 A 
ATOM      6  C5  UNL d   1       0.935  -5.497  -5.055  0.00  0.00     0.034 A 
ATOM      7 Cl   UNL d   1       1.671  -3.983  -2.966  0.00  0.00    -0.070 Cl
ATOM      8 Cl1  UNL d   1      -1.426  -2.980  -2.966  0.00  0.00    -0.070 Cl
ENDROOT
TORSDOF 0
ENDMDL
