MODEL 1
REMARK minimizedAffinity 5.62226725
REMARK minimizedRMSD -1
REMARK  0 active torsions:
REMARK  status: ('A' for Active; 'I' for Inactive)
ROOT
ATOM      1  C   UNL d   1      -5.475   4.923  -1.526  0.00  0.00     0.020 A 
ATOM      2  C1  UNL d   1      -4.192   5.456  -1.410  0.00  0.00     0.020 A 
ATOM      3  C2  UNL d   1      -3.433   5.707  -2.555  0.00  0.00     0.034 A 
ATOM      4  C3  UNL d   1      -3.957   5.424  -3.822  0.00  0.00     0.017 A 
ATOM      5  C4  UNL d   1      -5.245   4.889  -3.938  0.00  0.00     0.017 A 
ATOM      6  C5  UNL d   1      -6.000   4.640  -2.788  0.00  0.00     0.034 A 
ATOM      7 Cl   UNL d   1      -5.959   4.515  -5.467  0.00  0.00    -0.070 Cl
ATOM      8 Cl1  UNL d   1      -2.963   5.760  -5.195  0.00  0.00    -0.070 Cl
ENDROOT
TORSDOF 0
ENDMDL
