MODEL 1
REMARK minimizedAffinity 7.31666517
REMARK minimizedRMSD -1
REMARK  0 active torsions:
REMARK  status: ('A' for Active; 'I' for Inactive)
ROOT
ATOM      1  C   UNL d   1      -1.624   5.510  -5.523  0.00  0.00     0.020 A 
ATOM      2  C1  UNL d   1      -1.440   5.118  -4.198  0.00  0.00     0.020 A 
ATOM      3  C2  UNL d   1      -2.540   4.992  -3.348  0.00  0.00     0.034 A 
ATOM      4  C3  UNL d   1      -3.830   5.259  -3.822  0.00  0.00     0.017 A 
ATOM      5  C4  UNL d   1      -4.014   5.653  -5.153  0.00  0.00     0.017 A 
ATOM      6  C5  UNL d   1      -2.908   5.777  -5.999  0.00  0.00     0.034 A 
ATOM      7 Cl   UNL d   1      -5.574   6.000  -5.810  0.00  0.00    -0.070 Cl
ATOM      8 Cl1  UNL d   1      -5.145   5.083  -2.716  0.00  0.00    -0.070 Cl
ENDROOT
TORSDOF 0
ENDMDL
