MODEL 1
REMARK minimizedAffinity 5.7978673
REMARK minimizedRMSD -1
REMARK  0 active torsions:
REMARK  status: ('A' for Active; 'I' for Inactive)
ROOT
ATOM      1  C   UNL d   1      -1.561   0.375   3.801  0.00  0.00     0.020 A 
ATOM      2  C1  UNL d   1      -2.200   0.031   2.610  0.00  0.00     0.020 A 
ATOM      3  C2  UNL d   1      -3.564   0.285   2.451  0.00  0.00     0.034 A 
ATOM      4  C3  UNL d   1      -4.294   0.885   3.485  0.00  0.00     0.017 A 
ATOM      5  C4  UNL d   1      -3.651   1.230   4.679  0.00  0.00     0.017 A 
ATOM      6  C5  UNL d   1      -2.285   0.973   4.833  0.00  0.00     0.034 A 
ATOM      7 Cl   UNL d   1      -4.484   1.973   5.999  0.00  0.00    -0.070 Cl
ATOM      8 Cl1  UNL d   1      -5.977   1.170   3.219  0.00  0.00    -0.070 Cl
ENDROOT
TORSDOF 0
ENDMDL
