MODEL 1
REMARK minimizedAffinity 6.08936119
REMARK minimizedRMSD -1
REMARK  0 active torsions:
REMARK  status: ('A' for Active; 'I' for Inactive)
ROOT
ATOM      1  C   UNL d   1      -3.791  -0.908  -0.659  0.00  0.00     0.020 A 
ATOM      2  C1  UNL d   1      -2.743  -1.314  -1.485  0.00  0.00     0.020 A 
ATOM      3  C2  UNL d   1      -1.499  -1.624  -0.932  0.00  0.00     0.034 A 
ATOM      4  C3  UNL d   1      -1.300  -1.531   0.450  0.00  0.00     0.017 A 
ATOM      5  C4  UNL d   1      -2.352  -1.124   1.278  0.00  0.00     0.017 A 
ATOM      6  C5  UNL d   1      -3.596  -0.814   0.719  0.00  0.00     0.034 A 
ATOM      7 Cl   UNL d   1      -2.183  -0.985   2.993  0.00  0.00    -0.070 Cl
ATOM      8 Cl1  UNL d   1       0.265  -1.931   1.066  0.00  0.00    -0.070 Cl
ENDROOT
TORSDOF 0
ENDMDL
