MODEL 1
REMARK minimizedAffinity 9.99474335
REMARK minimizedRMSD -1
REMARK  0 active torsions:
REMARK  status: ('A' for Active; 'I' for Inactive)
ROOT
ATOM      1  C   UNL d   1      -0.989  -1.936   1.678  0.00  0.00     0.020 A 
ATOM      2  C1  UNL d   1       0.285  -2.491   1.561  0.00  0.00     0.020 A 
ATOM      3  C2  UNL d   1       1.402  -1.772   1.989  0.00  0.00     0.034 A 
ATOM      4  C3  UNL d   1       1.249  -0.493   2.537  0.00  0.00     0.017 A 
ATOM      5  C4  UNL d   1      -0.030   0.064   2.654  0.00  0.00     0.017 A 
ATOM      6  C5  UNL d   1      -1.146  -0.661   2.224  0.00  0.00     0.034 A 
ATOM      7 Cl   UNL d   1      -0.299   1.636   3.319  0.00  0.00    -0.070 Cl
ATOM      8 Cl1  UNL d   1       2.674   0.340   3.046  0.00  0.00    -0.070 Cl
ENDROOT
TORSDOF 0
ENDMDL
