MODEL 1
REMARK minimizedAffinity 4.40494251
REMARK minimizedRMSD -1
REMARK  0 active torsions:
REMARK  status: ('A' for Active; 'I' for Inactive)
ROOT
ATOM      1  C   UNL d   1      -0.527  -1.897   2.074  0.00  0.00     0.020 A 
ATOM      2  C1  UNL d   1       0.641  -2.121   1.346  0.00  0.00     0.020 A 
ATOM      3  C2  UNL d   1       1.528  -1.069   1.108  0.00  0.00     0.034 A 
ATOM      4  C3  UNL d   1       1.248   0.212   1.597  0.00  0.00     0.017 A 
ATOM      5  C4  UNL d   1       0.075   0.436   2.327  0.00  0.00     0.017 A 
ATOM      6  C5  UNL d   1      -0.809  -0.621   2.563  0.00  0.00     0.034 A 
ATOM      7 Cl   UNL d   1      -0.339   1.989   2.963  0.00  0.00    -0.070 Cl
ATOM      8 Cl1  UNL d   1       2.389   1.466   1.265  0.00  0.00    -0.070 Cl
ENDROOT
TORSDOF 0
ENDMDL
