MODEL 1
REMARK minimizedAffinity -0.407615781
REMARK minimizedRMSD -1
REMARK  0 active torsions:
REMARK  status: ('A' for Active; 'I' for Inactive)
ROOT
ATOM      1  C   UNL d   1       3.882   1.842   5.996  0.00  0.00     0.020 A 
ATOM      2  C1  UNL d   1       5.269   1.982   6.000  0.00  0.00     0.020 A 
ATOM      3  C2  UNL d   1       5.842   3.256   5.999  0.00  0.00     0.034 A 
ATOM      4  C3  UNL d   1       5.027   4.394   5.994  0.00  0.00     0.017 A 
ATOM      5  C4  UNL d   1       3.635   4.252   5.990  0.00  0.00     0.017 A 
ATOM      6  C5  UNL d   1       3.067   2.974   5.991  0.00  0.00     0.034 A 
ATOM      7 Cl   UNL d   1       2.565   5.609   5.984  0.00  0.00    -0.070 Cl
ATOM      8 Cl1  UNL d   1       5.804   5.937   5.994  0.00  0.00    -0.070 Cl
ENDROOT
TORSDOF 0
ENDMDL
