MODEL 1
REMARK minimizedAffinity 0.0761504248
REMARK minimizedRMSD -1
REMARK  0 active torsions:
REMARK  status: ('A' for Active; 'I' for Inactive)
ROOT
ATOM      1  C   UNL d   1      -5.469   6.000  -0.668  0.00  0.00     0.020 A 
ATOM      2  C1  UNL d   1      -4.216   5.541  -1.071  0.00  0.00     0.020 A 
ATOM      3  C2  UNL d   1      -3.446   4.762  -0.205  0.00  0.00     0.034 A 
ATOM      4  C3  UNL d   1      -3.928   4.440   1.069  0.00  0.00     0.017 A 
ATOM      5  C4  UNL d   1      -5.186   4.901   1.473  0.00  0.00     0.017 A 
ATOM      6  C5  UNL d   1      -5.953   5.681   0.601  0.00  0.00     0.034 A 
ATOM      7 Cl   UNL d   1      -5.849   4.545   3.029  0.00  0.00    -0.070 Cl
ATOM      8 Cl1  UNL d   1      -2.923   3.473   2.088  0.00  0.00    -0.070 Cl
ENDROOT
TORSDOF 0
ENDMDL
