MODEL 1
REMARK minimizedAffinity 3.57489491
REMARK minimizedRMSD -1
REMARK  0 active torsions:
REMARK  status: ('A' for Active; 'I' for Inactive)
ROOT
ATOM      1  C   UNL d   1       5.803   5.426   5.601  0.00  0.00     0.020 A 
ATOM      2  C1  UNL d   1       5.994   4.050   5.723  0.00  0.00     0.020 A 
ATOM      3  C2  UNL d   1       4.892   3.201   5.845  0.00  0.00     0.034 A 
ATOM      4  C3  UNL d   1       3.594   3.727   5.845  0.00  0.00     0.017 A 
ATOM      5  C4  UNL d   1       3.405   5.108   5.723  0.00  0.00     0.017 A 
ATOM      6  C5  UNL d   1       4.512   5.954   5.601  0.00  0.00     0.034 A 
ATOM      7 Cl   UNL d   1       1.835   5.831   5.714  0.00  0.00    -0.070 Cl
ATOM      8 Cl1  UNL d   1       2.278   2.619   6.000  0.00  0.00    -0.070 Cl
ENDROOT
TORSDOF 0
ENDMDL
