MODEL 1
REMARK minimizedAffinity 8.60043144
REMARK minimizedRMSD -1
REMARK  0 active torsions:
REMARK  status: ('A' for Active; 'I' for Inactive)
ROOT
ATOM      1  C   UNL d   1      -4.942   6.000  -4.740  0.00  0.00     0.020 A 
ATOM      2  C1  UNL d   1      -5.924   5.548  -5.620  0.00  0.00     0.020 A 
ATOM      3  C2  UNL d   1      -5.966   4.201  -5.988  0.00  0.00     0.034 A 
ATOM      4  C3  UNL d   1      -5.024   3.302  -5.475  0.00  0.00     0.017 A 
ATOM      5  C4  UNL d   1      -4.039   3.757  -4.591  0.00  0.00     0.017 A 
ATOM      6  C5  UNL d   1      -4.001   5.106  -4.226  0.00  0.00     0.034 A 
ATOM      7 Cl   UNL d   1      -2.843   2.707  -3.916  0.00  0.00    -0.070 Cl
ATOM      8 Cl1  UNL d   1      -5.136   1.651  -5.972  0.00  0.00    -0.070 Cl
ENDROOT
TORSDOF 0
ENDMDL
