MODEL 1
REMARK minimizedAffinity 16.5421104
REMARK minimizedRMSD -1
REMARK  0 active torsions:
REMARK  status: ('A' for Active; 'I' for Inactive)
ROOT
ATOM      1  C   UNL d   1      -2.030  -1.664  -3.257  0.00  0.00     0.020 A 
ATOM      2  C1  UNL d   1      -1.274  -2.589  -2.538  0.00  0.00     0.020 A 
ATOM      3  C2  UNL d   1      -1.363  -2.630  -1.145  0.00  0.00     0.034 A 
ATOM      4  C3  UNL d   1      -2.209  -1.746  -0.467  0.00  0.00     0.017 A 
ATOM      5  C4  UNL d   1      -2.967  -0.818  -1.189  0.00  0.00     0.017 A 
ATOM      6  C5  UNL d   1      -2.875  -0.780  -2.584  0.00  0.00     0.034 A 
ATOM      7 Cl   UNL d   1      -4.033   0.306  -0.422  0.00  0.00    -0.070 Cl
ATOM      8 Cl1  UNL d   1      -2.269  -1.854   1.257  0.00  0.00    -0.070 Cl
ENDROOT
TORSDOF 0
ENDMDL
