MODEL 1
REMARK minimizedAffinity 12.413496
REMARK minimizedRMSD -1
REMARK  0 active torsions:
REMARK  status: ('A' for Active; 'I' for Inactive)
ROOT
ATOM      1  C   UNL d   1       3.013  -0.191  -2.212  0.00  0.00     0.020 A 
ATOM      2  C1  UNL d   1       3.006   1.201  -2.280  0.00  0.00     0.020 A 
ATOM      3  C2  UNL d   1       3.932   1.865  -3.087  0.00  0.00     0.034 A 
ATOM      4  C3  UNL d   1       4.869   1.137  -3.830  0.00  0.00     0.017 A 
ATOM      5  C4  UNL d   1       4.875  -0.260  -3.761  0.00  0.00     0.017 A 
ATOM      6  C5  UNL d   1       3.946  -0.921  -2.951  0.00  0.00     0.034 A 
ATOM      7 Cl   UNL d   1       6.000  -1.227  -4.648  0.00  0.00    -0.070 Cl
ATOM      8 Cl1  UNL d   1       5.984   2.024  -4.807  0.00  0.00    -0.070 Cl
ENDROOT
TORSDOF 0
ENDMDL
