MODEL 1
REMARK minimizedAffinity 14.1329975
REMARK minimizedRMSD -1
REMARK  0 active torsions:
REMARK  status: ('A' for Active; 'I' for Inactive)
ROOT
ATOM      1  C   UNL d   1       2.999  -0.579  -1.821  0.00  0.00     0.020 A 
ATOM      2  C1  UNL d   1       2.999   0.816  -1.835  0.00  0.00     0.020 A 
ATOM      3  C2  UNL d   1       3.934   1.506  -2.609  0.00  0.00     0.034 A 
ATOM      4  C3  UNL d   1       4.873   0.802  -3.372  0.00  0.00     0.017 A 
ATOM      5  C4  UNL d   1       4.872  -0.597  -3.358  0.00  0.00     0.017 A 
ATOM      6  C5  UNL d   1       3.934  -1.283  -2.581  0.00  0.00     0.034 A 
ATOM      7 Cl   UNL d   1       5.999  -1.535  -4.273  0.00  0.00    -0.070 Cl
ATOM      8 Cl1  UNL d   1       6.000   1.721  -4.307  0.00  0.00    -0.070 Cl
ENDROOT
TORSDOF 0
ENDMDL
