MODEL 1
REMARK minimizedAffinity 9.85703373
REMARK minimizedRMSD -1
REMARK  0 active torsions:
REMARK  status: ('A' for Active; 'I' for Inactive)
ROOT
ATOM      1  C   UNL d   1      -2.465   2.312  -5.303  0.00  0.00     0.020 A 
ATOM      2  C1  UNL d   1      -1.862   3.144  -4.361  0.00  0.00     0.020 A 
ATOM      3  C2  UNL d   1      -2.535   4.278  -3.899  0.00  0.00     0.034 A 
ATOM      4  C3  UNL d   1      -3.814   4.582  -4.380  0.00  0.00     0.017 A 
ATOM      5  C4  UNL d   1      -4.418   3.746  -5.326  0.00  0.00     0.017 A 
ATOM      6  C5  UNL d   1      -3.740   2.612  -5.785  0.00  0.00     0.034 A 
ATOM      7 Cl   UNL d   1      -5.993   4.056  -5.966  0.00  0.00    -0.070 Cl
ATOM      8 Cl1  UNL d   1      -4.587   6.000  -3.765  0.00  0.00    -0.070 Cl
ENDROOT
TORSDOF 0
ENDMDL
