MODEL 1
REMARK minimizedAffinity 12.5059061
REMARK minimizedRMSD -1
REMARK  0 active torsions:
REMARK  status: ('A' for Active; 'I' for Inactive)
ROOT
ATOM      1  C   UNL d   1      -1.199  -2.052   0.200  0.00  0.00     0.020 A 
ATOM      2  C1  UNL d   1      -0.712  -1.909   1.499  0.00  0.00     0.020 A 
ATOM      3  C2  UNL d   1      -0.351  -3.038   2.237  0.00  0.00     0.034 A 
ATOM      4  C3  UNL d   1      -0.475  -4.315   1.677  0.00  0.00     0.017 A 
ATOM      5  C4  UNL d   1      -0.964  -4.457   0.373  0.00  0.00     0.017 A 
ATOM      6  C5  UNL d   1      -1.324  -3.323  -0.362  0.00  0.00     0.034 A 
ATOM      7 Cl   UNL d   1      -1.146  -6.000  -0.385  0.00  0.00    -0.070 Cl
ATOM      8 Cl1  UNL d   1      -0.009  -5.666   2.647  0.00  0.00    -0.070 Cl
ENDROOT
TORSDOF 0
ENDMDL
