MODEL 1
REMARK minimizedAffinity 15.9579391
REMARK minimizedRMSD -1
REMARK  0 active torsions:
REMARK  status: ('A' for Active; 'I' for Inactive)
ROOT
ATOM      1  C   UNL d   1      -1.632  -1.650   1.403  0.00  0.00     0.020 A 
ATOM      2  C1  UNL d   1      -1.614  -0.800   0.298  0.00  0.00     0.020 A 
ATOM      3  C2  UNL d   1      -1.327  -1.309  -0.970  0.00  0.00     0.034 A 
ATOM      4  C3  UNL d   1      -1.058  -2.672  -1.137  0.00  0.00     0.017 A 
ATOM      5  C4  UNL d   1      -1.076  -3.525  -0.027  0.00  0.00     0.017 A 
ATOM      6  C5  UNL d   1      -1.364  -3.010   1.240  0.00  0.00     0.034 A 
ATOM      7 Cl   UNL d   1      -0.754  -5.218  -0.154  0.00  0.00    -0.070 Cl
ATOM      8 Cl1  UNL d   1      -0.711  -3.233  -2.734  0.00  0.00    -0.070 Cl
ENDROOT
TORSDOF 0
ENDMDL
