MODEL 1
REMARK minimizedAffinity 9.40924358
REMARK minimizedRMSD -1
REMARK  0 active torsions:
REMARK  status: ('A' for Active; 'I' for Inactive)
ROOT
ATOM      1  C   UNL d   1      -1.640  -1.293  -1.332  0.00  0.00     0.020 A 
ATOM      2  C1  UNL d   1      -0.544  -0.854  -0.591  0.00  0.00     0.020 A 
ATOM      3  C2  UNL d   1      -0.583  -0.894   0.804  0.00  0.00     0.034 A 
ATOM      4  C3  UNL d   1      -1.720  -1.374   1.463  0.00  0.00     0.017 A 
ATOM      5  C4  UNL d   1      -2.820  -1.815   0.718  0.00  0.00     0.017 A 
ATOM      6  C5  UNL d   1      -2.776  -1.773  -0.679  0.00  0.00     0.034 A 
ATOM      7 Cl   UNL d   1      -4.259  -2.421   1.460  0.00  0.00    -0.070 Cl
ATOM      8 Cl1  UNL d   1      -1.700  -1.396   3.190  0.00  0.00    -0.070 Cl
ENDROOT
TORSDOF 0
ENDMDL
