MODEL 1
REMARK minimizedAffinity 16.0701141
REMARK minimizedRMSD -1
REMARK  0 active torsions:
REMARK  status: ('A' for Active; 'I' for Inactive)
ROOT
ATOM      1  C   UNL d   1      -1.431  -0.874   1.034  0.00  0.00     0.020 A 
ATOM      2  C1  UNL d   1      -1.408  -1.917   1.959  0.00  0.00     0.020 A 
ATOM      3  C2  UNL d   1      -1.238  -3.233   1.524  0.00  0.00     0.034 A 
ATOM      4  C3  UNL d   1      -1.092  -3.510   0.160  0.00  0.00     0.017 A 
ATOM      5  C4  UNL d   1      -1.115  -2.463  -0.768  0.00  0.00     0.017 A 
ATOM      6  C5  UNL d   1      -1.285  -1.147  -0.327  0.00  0.00     0.034 A 
ATOM      7 Cl   UNL d   1      -0.941  -2.727  -2.467  0.00  0.00    -0.070 Cl
ATOM      8 Cl1  UNL d   1      -0.886  -5.161  -0.307  0.00  0.00    -0.070 Cl
ENDROOT
TORSDOF 0
ENDMDL
