MODEL 1
REMARK minimizedAffinity 13.3821259
REMARK minimizedRMSD -1
REMARK  0 active torsions:
REMARK  status: ('A' for Active; 'I' for Inactive)
ROOT
ATOM      1  C   UNL d   1       3.225   5.819   5.857  0.00  0.00     0.020 A 
ATOM      2  C1  UNL d   1       4.610   5.986   5.859  0.00  0.00     0.020 A 
ATOM      3  C2  UNL d   1       5.448   4.870   5.903  0.00  0.00     0.034 A 
ATOM      4  C3  UNL d   1       4.903   3.582   5.944  0.00  0.00     0.017 A 
ATOM      5  C4  UNL d   1       3.513   3.415   5.941  0.00  0.00     0.017 A 
ATOM      6  C5  UNL d   1       2.679   4.536   5.897  0.00  0.00     0.034 A 
ATOM      7 Cl   UNL d   1       2.767   1.856   5.989  0.00  0.00    -0.070 Cl
ATOM      8 Cl1  UNL d   1       5.999   2.247   5.996  0.00  0.00    -0.070 Cl
ENDROOT
TORSDOF 0
ENDMDL
