MODEL 1
REMARK minimizedAffinity 11.1745253
REMARK minimizedRMSD -1
REMARK  0 active torsions:
REMARK  status: ('A' for Active; 'I' for Inactive)
ROOT
ATOM      1  C   UNL d   1      -4.144  -2.600   6.000  0.00  0.00     0.020 A 
ATOM      2  C1  UNL d   1      -2.987  -3.377   6.000  0.00  0.00     0.020 A 
ATOM      3  C2  UNL d   1      -1.736  -2.767   5.889  0.00  0.00     0.034 A 
ATOM      4  C3  UNL d   1      -1.639  -1.375   5.777  0.00  0.00     0.017 A 
ATOM      5  C4  UNL d   1      -2.801  -0.596   5.777  0.00  0.00     0.017 A 
ATOM      6  C5  UNL d   1      -4.051  -1.212   5.888  0.00  0.00     0.034 A 
ATOM      7 Cl   UNL d   1      -2.761   1.127   5.642  0.00  0.00    -0.070 Cl
ATOM      8 Cl1  UNL d   1      -0.059  -0.688   5.643  0.00  0.00    -0.070 Cl
ENDROOT
TORSDOF 0
ENDMDL
