MODEL 1
REMARK minimizedAffinity 12.6418972
REMARK minimizedRMSD -1
REMARK  0 active torsions:
REMARK  status: ('A' for Active; 'I' for Inactive)
ROOT
ATOM      1  C   UNL d   1      -3.461  -3.620   5.854  0.00  0.00     0.020 A 
ATOM      2  C1  UNL d   1      -2.208  -4.232   5.865  0.00  0.00     0.020 A 
ATOM      3  C2  UNL d   1      -1.050  -3.453   5.908  0.00  0.00     0.034 A 
ATOM      4  C3  UNL d   1      -1.142  -2.057   5.941  0.00  0.00     0.017 A 
ATOM      5  C4  UNL d   1      -2.400  -1.443   5.930  0.00  0.00     0.017 A 
ATOM      6  C5  UNL d   1      -3.556  -2.228   5.886  0.00  0.00     0.034 A 
ATOM      7 Cl   UNL d   1      -2.593   0.274   5.969  0.00  0.00    -0.070 Cl
ATOM      8 Cl1  UNL d   1       0.331  -1.156   5.995  0.00  0.00    -0.070 Cl
ENDROOT
TORSDOF 0
ENDMDL
