MODEL 1
REMARK minimizedAffinity 7.85069799
REMARK minimizedRMSD -1
REMARK  0 active torsions:
REMARK  status: ('A' for Active; 'I' for Inactive)
ROOT
ATOM      1  C   UNL d   1      -1.771  -2.897   5.971  0.00  0.00     0.020 A 
ATOM      2  C1  UNL d   1      -1.097  -1.677   5.999  0.00  0.00     0.020 A 
ATOM      3  C2  UNL d   1      -1.769  -0.500   5.661  0.00  0.00     0.034 A 
ATOM      4  C3  UNL d   1      -3.119  -0.541   5.295  0.00  0.00     0.017 A 
ATOM      5  C4  UNL d   1      -3.795  -1.766   5.268  0.00  0.00     0.017 A 
ATOM      6  C5  UNL d   1      -3.117  -2.941   5.607  0.00  0.00     0.034 A 
ATOM      7 Cl   UNL d   1      -5.461  -1.896   4.826  0.00  0.00    -0.070 Cl
ATOM      8 Cl1  UNL d   1      -3.887   0.953   4.890  0.00  0.00    -0.070 Cl
ENDROOT
TORSDOF 0
ENDMDL
