MODEL 1
REMARK minimizedAffinity 10.1745806
REMARK minimizedRMSD -1
REMARK  0 active torsions:
REMARK  status: ('A' for Active; 'I' for Inactive)
ROOT
ATOM      1  C   UNL d   1      -2.396  -3.768   6.000  0.00  0.00     0.020 A 
ATOM      2  C1  UNL d   1      -3.569  -3.014   5.997  0.00  0.00     0.020 A 
ATOM      3  C2  UNL d   1      -3.502  -1.619   5.991  0.00  0.00     0.034 A 
ATOM      4  C3  UNL d   1      -2.260  -0.974   5.989  0.00  0.00     0.017 A 
ATOM      5  C4  UNL d   1      -1.084  -1.732   5.992  0.00  0.00     0.017 A 
ATOM      6  C5  UNL d   1      -1.156  -3.128   5.997  0.00  0.00     0.034 A 
ATOM      7 Cl   UNL d   1       0.486  -1.007   5.990  0.00  0.00    -0.070 Cl
ATOM      8 Cl1  UNL d   1      -2.252   0.754   5.983  0.00  0.00    -0.070 Cl
ENDROOT
TORSDOF 0
ENDMDL
