MODEL 1
REMARK minimizedAffinity -2.52059746
REMARK minimizedRMSD -1
REMARK  0 active torsions:
REMARK  status: ('A' for Active; 'I' for Inactive)
ROOT
ATOM      1  C2' OXE d   1       2.415  -5.966  -5.737  0.00  0.00     0.078 C 
ATOM      2  C1' OXE d   1       5.210  -5.944  -5.997  0.00  0.00     0.078 C 
ATOM      3  C1  OXE d   1       4.633  -5.964  -4.603  0.00  0.00    -0.078 A 
ATOM      4  C2  OXE d   1       3.265  -5.928  -4.485  0.00  0.00    -0.078 A 
ATOM      5  C3  OXE d   1       2.679  -6.000  -3.224  0.00  0.00     0.003 A 
ATOM      6  C4  OXE d   1       3.472  -5.954  -2.071  0.00  0.00    -0.002 A 
ATOM      7  C5  OXE d   1       4.868  -5.950  -2.169  0.00  0.00    -0.002 A 
ATOM      8  C6  OXE d   1       5.463  -5.998  -3.424  0.00  0.00     0.003 A 
ENDROOT
TORSDOF 0
ENDMDL
