MODEL 1
REMARK minimizedAffinity 4.88014269
REMARK minimizedRMSD -1
REMARK  0 active torsions:
REMARK  status: ('A' for Active; 'I' for Inactive)
ROOT
ATOM      1  C2' OXE d   1      -3.001   2.655  -1.578  0.00  0.00     0.078 C 
ATOM      2  C1' OXE d   1      -2.780   1.492   0.968  0.00  0.00     0.078 C 
ATOM      3  C1  OXE d   1      -3.933   2.434   0.722  0.00  0.00    -0.078 A 
ATOM      4  C2  OXE d   1      -4.006   3.035  -0.512  0.00  0.00    -0.078 A 
ATOM      5  C3  OXE d   1      -5.079   3.869  -0.810  0.00  0.00     0.003 A 
ATOM      6  C4  OXE d   1      -5.999   4.223   0.185  0.00  0.00    -0.002 A 
ATOM      7  C5  OXE d   1      -5.920   3.654   1.460  0.00  0.00    -0.002 A 
ATOM      8  C6  OXE d   1      -4.920   2.727   1.732  0.00  0.00     0.003 A 
ENDROOT
TORSDOF 0
ENDMDL
