MODEL 1
REMARK minimizedAffinity 12.1134453
REMARK minimizedRMSD -1
REMARK  0 active torsions:
REMARK  status: ('A' for Active; 'I' for Inactive)
ROOT
ATOM      1  C2' OXE d   1      -5.999   2.896  -2.159  0.00  0.00     0.078 C 
ATOM      2  C1' OXE d   1      -3.214   2.556  -2.073  0.00  0.00     0.078 C 
ATOM      3  C1  OXE d   1      -3.928   2.848  -0.776  0.00  0.00    -0.078 A 
ATOM      4  C2  OXE d   1      -5.284   3.059  -0.835  0.00  0.00    -0.078 A 
ATOM      5  C3  OXE d   1      -6.000   3.279   0.339  0.00  0.00     0.003 A 
ATOM      6  C4  OXE d   1      -5.329   3.438   1.558  0.00  0.00    -0.002 A 
ATOM      7  C5  OXE d   1      -3.943   3.266   1.634  0.00  0.00    -0.002 A 
ATOM      8  C6  OXE d   1      -3.234   2.929   0.485  0.00  0.00     0.003 A 
ENDROOT
TORSDOF 0
ENDMDL
