MODEL 1
REMARK minimizedAffinity 9.48069
REMARK minimizedRMSD -1
REMARK  0 active torsions:
REMARK  status: ('A' for Active; 'I' for Inactive)
ROOT
ATOM      1  C2' OXE d   1       2.961  -6.000   5.999  0.00  0.00     0.078 C 
ATOM      2  C1' OXE d   1       0.397  -5.999   4.855  0.00  0.00     0.078 C 
ATOM      3  C1  OXE d   1       1.311  -4.843   4.535  0.00  0.00    -0.078 A 
ATOM      4  C2  OXE d   1       2.546  -4.828   5.136  0.00  0.00    -0.078 A 
ATOM      5  C3  OXE d   1       3.448  -3.812   4.832  0.00  0.00     0.003 A 
ATOM      6  C4  OXE d   1       3.053  -2.726   4.041  0.00  0.00    -0.002 A 
ATOM      7  C5  OXE d   1       1.785  -2.702   3.451  0.00  0.00    -0.002 A 
ATOM      8  C6  OXE d   1       0.919  -3.771   3.653  0.00  0.00     0.003 A 
ENDROOT
TORSDOF 0
ENDMDL
