MODEL 1
REMARK minimizedAffinity -0.0124950837
REMARK minimizedRMSD -1
REMARK  0 active torsions:
REMARK  status: ('A' for Active; 'I' for Inactive)
ROOT
ATOM      1  C2' OXE d   1       2.638  -5.956  -5.464  0.00  0.00     0.078 C 
ATOM      2  C1' OXE d   1       5.417  -5.950  -5.061  0.00  0.00     0.078 C 
ATOM      3  C1  OXE d   1       4.529  -5.963  -3.841  0.00  0.00    -0.078 A 
ATOM      4  C2  OXE d   1       3.171  -5.918  -4.048  0.00  0.00    -0.078 A 
ATOM      5  C3  OXE d   1       2.306  -5.983  -2.959  0.00  0.00     0.003 A 
ATOM      6  C4  OXE d   1       2.807  -5.938  -1.652  0.00  0.00    -0.002 A 
ATOM      7  C5  OXE d   1       4.186  -5.942  -1.420  0.00  0.00    -0.002 A 
ATOM      8  C6  OXE d   1       5.059  -5.997  -2.501  0.00  0.00     0.003 A 
ENDROOT
TORSDOF 0
ENDMDL
