MODEL 1
REMARK minimizedAffinity -4.74089146
REMARK minimizedRMSD -1
REMARK  0 active torsions:
REMARK  status: ('A' for Active; 'I' for Inactive)
ROOT
ATOM      1  C4' PXY d   1      -0.043   1.982  -0.290  0.00  0.00     0.077 C 
ATOM      2  C1' PXY d   1      -0.551  -3.745   0.307  0.00  0.00     0.077 C 
ATOM      3  C1  PXY d   1      -0.408  -2.245   0.142  0.00  0.00    -0.082 A 
ATOM      4  C2  PXY d   1      -0.812  -1.439   1.111  0.00  0.00     0.003 A 
ATOM      5  C3  PXY d   1      -0.719  -0.079   0.965  0.00  0.00     0.003 A 
ATOM      6  C4  PXY d   1      -0.159   0.461  -0.162  0.00  0.00    -0.082 A 
ATOM      7  C5  PXY d   1       0.265  -0.355  -1.150  0.00  0.00     0.003 A 
ATOM      8  C6  PXY d   1       0.125  -1.732  -1.000  0.00  0.00     0.003 A 
ENDROOT
TORSDOF 0
ENDMDL
