MODEL 1
REMARK minimizedAffinity -4.90395832
REMARK minimizedRMSD -1
REMARK  0 active torsions:
REMARK  status: ('A' for Active; 'I' for Inactive)
ROOT
ATOM      1  C4' PXY d   1      -0.775  -3.000   0.765  0.00  0.00     0.077 C 
ATOM      2  C1' PXY d   1       1.234   2.347  -0.119  0.00  0.00     0.077 C 
ATOM      3  C1  PXY d   1       0.700   0.949   0.123  0.00  0.00    -0.082 A 
ATOM      4  C2  PXY d   1       1.392  -0.097  -0.299  0.00  0.00     0.003 A 
ATOM      5  C3  PXY d   1       0.908  -1.367  -0.117  0.00  0.00     0.003 A 
ATOM      6  C4  PXY d   1      -0.270  -1.571   0.551  0.00  0.00    -0.082 A 
ATOM      7  C5  PXY d   1      -0.976  -0.509   0.993  0.00  0.00     0.003 A 
ATOM      8  C6  PXY d   1      -0.488   0.774   0.762  0.00  0.00     0.003 A 
ENDROOT
TORSDOF 0
ENDMDL
