MODEL 1
REMARK minimizedAffinity -0.420335948
REMARK minimizedRMSD -1
REMARK  0 active torsions:
REMARK  status: ('A' for Active; 'I' for Inactive)
ROOT
ATOM      1  C4' PXY d   1       0.589  -2.537  -0.000  0.00  0.00     0.077 C 
ATOM      2  C1' PXY d   1       0.878   3.236   0.002  0.00  0.00     0.077 C 
ATOM      3  C1  PXY d   1       0.806   1.722  -0.011  0.00  0.00    -0.082 A 
ATOM      4  C2  PXY d   1       0.062   1.095   0.886  0.00  0.00     0.003 A 
ATOM      5  C3  PXY d   1       0.011  -0.275   0.909  0.00  0.00     0.003 A 
ATOM      6  C4  PXY d   1       0.684  -1.009  -0.030  0.00  0.00    -0.082 A 
ATOM      7  C5  PXY d   1       1.436  -0.376  -0.956  0.00  0.00     0.003 A 
ATOM      8  C6  PXY d   1       1.508   1.013  -0.936  0.00  0.00     0.003 A 
ENDROOT
TORSDOF 0
ENDMDL
