MODEL 1
REMARK minimizedAffinity 0.118735105
REMARK minimizedRMSD -1
REMARK  0 active torsions:
REMARK  status: ('A' for Active; 'I' for Inactive)
ROOT
ATOM      1  C4' PXY d   1       0.261   3.151   0.253  0.00  0.00     0.077 C 
ATOM      2  C1' PXY d   1       0.423  -2.555  -0.660  0.00  0.00     0.077 C 
ATOM      3  C1  PXY d   1       0.369  -1.060  -0.414  0.00  0.00    -0.082 A 
ATOM      4  C2  PXY d   1       1.008  -0.239  -1.232  0.00  0.00     0.003 A 
ATOM      5  C3  PXY d   1       0.997   1.113  -1.006  0.00  0.00     0.003 A 
ATOM      6  C4  PXY d   1       0.280   1.635   0.038  0.00  0.00    -0.082 A 
ATOM      7  C5  PXY d   1      -0.383   0.805   0.871  0.00  0.00     0.003 A 
ATOM      8  C6  PXY d   1      -0.325  -0.568   0.648  0.00  0.00     0.003 A 
ENDROOT
TORSDOF 0
ENDMDL
