MODEL 1
REMARK minimizedAffinity -2.94937372
REMARK minimizedRMSD -1
REMARK  0 active torsions:
REMARK  status: ('A' for Active; 'I' for Inactive)
ROOT
ATOM      1  C4' PXY d   1      -2.060   0.379   1.887  0.00  0.00     0.077 C 
ATOM      2  C1' PXY d   1       1.959  -1.759  -1.676  0.00  0.00     0.077 C 
ATOM      3  C1  PXY d   1       0.910  -1.186  -0.744  0.00  0.00    -0.082 A 
ATOM      4  C2  PXY d   1       0.371  -1.957   0.188  0.00  0.00     0.003 A 
ATOM      5  C3  PXY d   1      -0.602  -1.464   1.018  0.00  0.00     0.003 A 
ATOM      6  C4  PXY d   1      -0.990  -0.154   0.930  0.00  0.00    -0.082 A 
ATOM      7  C5  PXY d   1      -0.438   0.641  -0.010  0.00  0.00     0.003 A 
ATOM      8  C6  PXY d   1       0.519   0.111  -0.871  0.00  0.00     0.003 A 
ENDROOT
TORSDOF 0
ENDMDL
