MODEL 1
REMARK minimizedAffinity -5.17579937
REMARK minimizedRMSD -1
REMARK  0 active torsions:
REMARK  status: ('A' for Active; 'I' for Inactive)
ROOT
ATOM      1  C4' PXY d   1      -0.097   1.986  -0.016  0.00  0.00     0.077 C 
ATOM      2  C1' PXY d   1       0.123  -3.781   0.301  0.00  0.00     0.077 C 
ATOM      3  C1  PXY d   1       0.054  -2.269   0.225  0.00  0.00    -0.082 A 
ATOM      4  C2  PXY d   1       0.656  -1.636  -0.769  0.00  0.00     0.003 A 
ATOM      5  C3  PXY d   1       0.631  -0.267  -0.836  0.00  0.00     0.003 A 
ATOM      6  C4  PXY d   1      -0.062   0.460   0.095  0.00  0.00    -0.082 A 
ATOM      7  C5  PXY d   1      -0.687  -0.179   1.107  0.00  0.00     0.003 A 
ATOM      8  C6  PXY d   1      -0.615  -1.568   1.179  0.00  0.00     0.003 A 
ENDROOT
TORSDOF 0
ENDMDL
