MODEL 1
REMARK minimizedAffinity -4.57639122
REMARK minimizedRMSD -1
REMARK  0 active torsions:
REMARK  status: ('A' for Active; 'I' for Inactive)
ROOT
ATOM      1  C4' PXY d   1      -0.167  -3.801   0.271  0.00  0.00     0.077 C 
ATOM      2  C1' PXY d   1       0.162   1.912  -0.548  0.00  0.00     0.077 C 
ATOM      3  C1  PXY d   1       0.076   0.412  -0.346  0.00  0.00    -0.082 A 
ATOM      4  C2  PXY d   1      -0.446  -0.069   0.770  0.00  0.00     0.003 A 
ATOM      5  C3  PXY d   1      -0.503  -1.422   0.983  0.00  0.00     0.003 A 
ATOM      6  C4  PXY d   1      -0.068  -2.294   0.020  0.00  0.00    -0.082 A 
ATOM      7  C5  PXY d   1       0.456  -1.811  -1.126  0.00  0.00     0.003 A 
ATOM      8  C6  PXY d   1       0.542  -0.433  -1.305  0.00  0.00     0.003 A 
ENDROOT
TORSDOF 0
ENDMDL
