MODEL 1
REMARK minimizedAffinity -4.73449516
REMARK minimizedRMSD -1
REMARK  0 active torsions:
REMARK  status: ('A' for Active; 'I' for Inactive)
ROOT
ATOM      1  C4' PXY d   1      -2.365  -0.322   2.319  0.00  0.00     0.077 C 
ATOM      2  C1' PXY d   1       0.983  -1.487  -2.247  0.00  0.00     0.077 C 
ATOM      3  C1  PXY d   1       0.101  -1.194  -1.050  0.00  0.00    -0.082 A 
ATOM      4  C2  PXY d   1      -0.302   0.045  -0.822  0.00  0.00     0.003 A 
ATOM      5  C3  PXY d   1      -1.074   0.333   0.274  0.00  0.00     0.003 A 
ATOM      6  C4  PXY d   1      -1.482  -0.666   1.117  0.00  0.00    -0.082 A 
ATOM      7  C5  PXY d   1      -1.083  -1.935   0.885  0.00  0.00     0.003 A 
ATOM      8  C6  PXY d   1      -0.266  -2.200  -0.210  0.00  0.00     0.003 A 
ENDROOT
TORSDOF 0
ENDMDL
