MODEL 1
REMARK minimizedAffinity -4.93140316
REMARK minimizedRMSD -1
REMARK  0 active torsions:
REMARK  status: ('A' for Active; 'I' for Inactive)
ROOT
ATOM      1  C4' PXY d   1       0.150   2.182  -0.051  0.00  0.00     0.077 C 
ATOM      2  C1' PXY d   1       0.160  -3.583   0.366  0.00  0.00     0.077 C 
ATOM      3  C1  PXY d   1       0.145  -2.071   0.263  0.00  0.00    -0.082 A 
ATOM      4  C2  PXY d   1       0.867  -1.473  -0.671  0.00  0.00     0.003 A 
ATOM      5  C3  PXY d   1       0.891  -0.105  -0.758  0.00  0.00     0.003 A 
ATOM      6  C4  PXY d   1       0.127   0.657   0.084  0.00  0.00    -0.082 A 
ATOM      7  C5  PXY d   1      -0.621   0.053   1.033  0.00  0.00     0.003 A 
ATOM      8  C6  PXY d   1      -0.599  -1.335   1.131  0.00  0.00     0.003 A 
ENDROOT
TORSDOF 0
ENDMDL
