MODEL 1
REMARK minimizedAffinity -3.88487458
REMARK minimizedRMSD -1
REMARK  0 active torsions:
REMARK  status: ('A' for Active; 'I' for Inactive)
ROOT
ATOM      1  C4' PXY d   1      -0.687   2.014  -0.401  0.00  0.00     0.077 C 
ATOM      2  C1' PXY d   1       0.200  -3.565   0.829  0.00  0.00     0.077 C 
ATOM      3  C1  PXY d   1      -0.022  -2.102   0.500  0.00  0.00    -0.082 A 
ATOM      4  C2  PXY d   1      -0.786  -1.362   1.288  0.00  0.00     0.003 A 
ATOM      5  C3  PXY d   1      -1.022  -0.045   0.987  0.00  0.00     0.003 A 
ATOM      6  C4  PXY d   1      -0.428   0.534  -0.102  0.00  0.00    -0.082 A 
ATOM      7  C5  PXY d   1       0.362  -0.211  -0.904  0.00  0.00     0.003 A 
ATOM      8  C6  PXY d   1       0.556  -1.556  -0.605  0.00  0.00     0.003 A 
ENDROOT
TORSDOF 0
ENDMDL
