MODEL 1
REMARK minimizedAffinity -3.29075217
REMARK minimizedRMSD -1
REMARK  0 active torsions:
REMARK  status: ('A' for Active; 'I' for Inactive)
ROOT
ATOM      1  C4' PXY d   1       0.240   1.763   0.024  0.00  0.00     0.077 C 
ATOM      2  C1' PXY d   1       0.050  -4.001   0.421  0.00  0.00     0.077 C 
ATOM      3  C1  PXY d   1       0.111  -2.490   0.310  0.00  0.00    -0.082 A 
ATOM      4  C2  PXY d   1      -0.528  -1.743   1.195  0.00  0.00     0.003 A 
ATOM      5  C3  PXY d   1      -0.510  -0.376   1.091  0.00  0.00     0.003 A 
ATOM      6  C4  PXY d   1       0.214   0.234   0.102  0.00  0.00    -0.082 A 
ATOM      7  C5  PXY d   1       0.878  -0.521  -0.799  0.00  0.00     0.003 A 
ATOM      8  C6  PXY d   1       0.813  -1.908  -0.700  0.00  0.00     0.003 A 
ENDROOT
TORSDOF 0
ENDMDL
