MODEL 1
REMARK minimizedAffinity -3.82813072
REMARK minimizedRMSD -1
REMARK  0 active torsions:
REMARK  status: ('A' for Active; 'I' for Inactive)
ROOT
ATOM      1  C4' PXY d   1       0.029  -3.506   0.743  0.00  0.00     0.077 C 
ATOM      2  C1' PXY d   1      -0.231   2.173  -0.304  0.00  0.00     0.077 C 
ATOM      3  C1  PXY d   1      -0.165   0.686  -0.017  0.00  0.00    -0.082 A 
ATOM      4  C2  PXY d   1       0.489  -0.112  -0.846  0.00  0.00     0.003 A 
ATOM      5  C3  PXY d   1       0.532  -1.463  -0.618  0.00  0.00     0.003 A 
ATOM      6  C4  PXY d   1      -0.056  -1.997   0.497  0.00  0.00    -0.082 A 
ATOM      7  C5  PXY d   1      -0.715  -1.188   1.354  0.00  0.00     0.003 A 
ATOM      8  C6  PXY d   1      -0.782   0.175   1.083  0.00  0.00     0.003 A 
ENDROOT
TORSDOF 0
ENDMDL
