MODEL 1
REMARK minimizedAffinity -2.90198755
REMARK minimizedRMSD -1
REMARK  0 active torsions:
REMARK  status: ('A' for Active; 'I' for Inactive)
ROOT
ATOM      1  C4' PXY d   1       0.678   3.346  -0.102  0.00  0.00     0.077 C 
ATOM      2  C1' PXY d   1      -0.103  -2.379   0.082  0.00  0.00     0.077 C 
ATOM      3  C1  PXY d   1       0.101  -0.878   0.020  0.00  0.00    -0.082 A 
ATOM      4  C2  PXY d   1       0.709  -0.259   1.020  0.00  0.00     0.003 A 
ATOM      5  C3  PXY d   1       0.873   1.102   0.995  0.00  0.00     0.003 A 
ATOM      6  C4  PXY d   1       0.459   1.830  -0.087  0.00  0.00    -0.082 A 
ATOM      7  C5  PXY d   1      -0.152   1.205  -1.116  0.00  0.00     0.003 A 
ATOM      8  C6  PXY d   1      -0.347  -0.172  -1.053  0.00  0.00     0.003 A 
ENDROOT
TORSDOF 0
ENDMDL
