MODEL 1
REMARK minimizedAffinity -4.1771822
REMARK minimizedRMSD -1
REMARK  0 active torsions:
REMARK  status: ('A' for Active; 'I' for Inactive)
ROOT
ATOM      1  C4' PXY d   1      -0.747  -2.960   0.720  0.00  0.00     0.077 C 
ATOM      2  C1' PXY d   1      -0.030   2.707  -0.163  0.00  0.00     0.077 C 
ATOM      3  C1  PXY d   1      -0.213   1.219   0.057  0.00  0.00    -0.082 A 
ATOM      4  C2  PXY d   1      -1.123   0.791   0.917  0.00  0.00     0.003 A 
ATOM      5  C3  PXY d   1      -1.280  -0.550   1.151  0.00  0.00     0.003 A 
ATOM      6  C4  PXY d   1      -0.534  -1.466   0.460  0.00  0.00    -0.082 A 
ATOM      7  C5  PXY d   1       0.390  -1.039  -0.427  0.00  0.00     0.003 A 
ATOM      8  C6  PXY d   1       0.562   0.329  -0.621  0.00  0.00     0.003 A 
ENDROOT
TORSDOF 0
ENDMDL
