MODEL 1
REMARK minimizedAffinity -3.44804096
REMARK minimizedRMSD -1
REMARK  0 active torsions:
REMARK  status: ('A' for Active; 'I' for Inactive)
ROOT
ATOM      1  C4' PXY d   1      -0.081   2.180  -0.146  0.00  0.00     0.077 C 
ATOM      2  C1' PXY d   1       0.469  -3.529   0.575  0.00  0.00     0.077 C 
ATOM      3  C1  PXY d   1       0.313  -2.032   0.392  0.00  0.00    -0.082 A 
ATOM      4  C2  PXY d   1       0.946  -1.425  -0.599  0.00  0.00     0.003 A 
ATOM      5  C3  PXY d   1       0.842  -0.067  -0.760  0.00  0.00     0.003 A 
ATOM      6  C4  PXY d   1       0.040   0.669   0.071  0.00  0.00    -0.082 A 
ATOM      7  C5  PXY d   1      -0.617   0.055   1.077  0.00  0.00     0.003 A 
ATOM      8  C6  PXY d   1      -0.466  -1.317   1.249  0.00  0.00     0.003 A 
ENDROOT
TORSDOF 0
ENDMDL
