MODEL 1
REMARK minimizedAffinity -3.86428142
REMARK minimizedRMSD -1
REMARK  0 active torsions:
REMARK  status: ('A' for Active; 'I' for Inactive)
ROOT
ATOM      1  C4' PXY d   1       1.111   2.855   0.302  0.00  0.00     0.077 C 
ATOM      2  C1' PXY d   1      -0.849  -2.572   0.656  0.00  0.00     0.077 C 
ATOM      3  C1  PXY d   1      -0.330  -1.151   0.552  0.00  0.00    -0.082 A 
ATOM      4  C2  PXY d   1      -0.121  -0.448   1.653  0.00  0.00     0.003 A 
ATOM      5  C3  PXY d   1       0.317   0.848   1.575  0.00  0.00     0.003 A 
ATOM      6  C4  PXY d   1       0.597   1.414   0.360  0.00  0.00    -0.082 A 
ATOM      7  C5  PXY d   1       0.397   0.699  -0.768  0.00  0.00     0.003 A 
ATOM      8  C6  PXY d   1      -0.089  -0.602  -0.669  0.00  0.00     0.003 A 
ENDROOT
TORSDOF 0
ENDMDL
