MODEL 1
REMARK minimizedAffinity -2.82597828
REMARK minimizedRMSD -1
REMARK  0 active torsions:
REMARK  status: ('A' for Active; 'I' for Inactive)
ROOT
ATOM      1  C4' PXY d   1       0.243   2.333   0.726  0.00  0.00     0.077 C 
ATOM      2  C1' PXY d   1      -0.435  -3.366   0.043  0.00  0.00     0.077 C 
ATOM      3  C1  PXY d   1      -0.246  -1.872   0.215  0.00  0.00    -0.082 A 
ATOM      4  C2  PXY d   1      -0.830  -1.252   1.228  0.00  0.00     0.003 A 
ATOM      5  C3  PXY d   1      -0.696   0.104   1.380  0.00  0.00     0.003 A 
ATOM      6  C4  PXY d   1       0.087   0.824   0.518  0.00  0.00    -0.082 A 
ATOM      7  C5  PXY d   1       0.695   0.197  -0.511  0.00  0.00     0.003 A 
ATOM      8  C6  PXY d   1       0.513  -1.174  -0.672  0.00  0.00     0.003 A 
ENDROOT
TORSDOF 0
ENDMDL
