MODEL 1
REMARK minimizedAffinity -2.21539998
REMARK minimizedRMSD -1
REMARK  0 active torsions:
REMARK  status: ('A' for Active; 'I' for Inactive)
ROOT
ATOM      1  C4' PXY d   1       0.362   2.928   0.169  0.00  0.00     0.077 C 
ATOM      2  C1' PXY d   1      -0.651  -2.736   0.725  0.00  0.00     0.077 C 
ATOM      3  C1  PXY d   1      -0.374  -1.253   0.573  0.00  0.00    -0.082 A 
ATOM      4  C2  PXY d   1      -0.973  -0.390   1.378  0.00  0.00     0.003 A 
ATOM      5  C3  PXY d   1      -0.758   0.956   1.234  0.00  0.00     0.003 A 
ATOM      6  C4  PXY d   1       0.119   1.421   0.291  0.00  0.00    -0.082 A 
ATOM      7  C5  PXY d   1       0.742   0.546  -0.526  0.00  0.00     0.003 A 
ATOM      8  C6  PXY d   1       0.479  -0.814  -0.391  0.00  0.00     0.003 A 
ENDROOT
TORSDOF 0
ENDMDL
