MODEL 1
REMARK minimizedAffinity -2.579597
REMARK minimizedRMSD -1
REMARK  0 active torsions:
REMARK  status: ('A' for Active; 'I' for Inactive)
ROOT
ATOM      1  C4' PXY d   1       1.034   2.860   0.180  0.00  0.00     0.077 C 
ATOM      2  C1' PXY d   1      -0.865  -2.573   0.717  0.00  0.00     0.077 C 
ATOM      3  C1  PXY d   1      -0.363  -1.151   0.564  0.00  0.00    -0.082 A 
ATOM      4  C2  PXY d   1      -0.045  -0.450   1.640  0.00  0.00     0.003 A 
ATOM      5  C3  PXY d   1       0.380   0.848   1.522  0.00  0.00     0.003 A 
ATOM      6  C4  PXY d   1       0.532   1.418   0.286  0.00  0.00    -0.082 A 
ATOM      7  C5  PXY d   1       0.219   0.706  -0.818  0.00  0.00     0.003 A 
ATOM      8  C6  PXY d   1      -0.250  -0.597  -0.674  0.00  0.00     0.003 A 
ENDROOT
TORSDOF 0
ENDMDL
