MODEL 1
REMARK minimizedAffinity -4.01541042
REMARK minimizedRMSD -1
REMARK  0 active torsions:
REMARK  status: ('A' for Active; 'I' for Inactive)
ROOT
ATOM      1  C4' PXY d   1       0.103  -3.389   0.778  0.00  0.00     0.077 C 
ATOM      2  C1' PXY d   1      -0.371   2.259  -0.356  0.00  0.00     0.077 C 
ATOM      3  C1  PXY d   1      -0.251   0.780  -0.047  0.00  0.00    -0.082 A 
ATOM      4  C2  PXY d   1       0.607   0.037  -0.727  0.00  0.00     0.003 A 
ATOM      5  C3  PXY d   1       0.705  -1.309  -0.482  0.00  0.00     0.003 A 
ATOM      6  C4  PXY d   1      -0.045  -1.890   0.506  0.00  0.00    -0.082 A 
ATOM      7  C5  PXY d   1      -0.915  -1.136   1.211  0.00  0.00     0.003 A 
ATOM      8  C6  PXY d   1      -1.029   0.220   0.919  0.00  0.00     0.003 A 
ENDROOT
TORSDOF 0
ENDMDL
