MODEL 1
REMARK minimizedAffinity 12.4144087
REMARK minimizedRMSD -1
REMARK  0 active torsions:
REMARK  status: ('A' for Active; 'I' for Inactive)
ROOT
ATOM      1  C1  DEN d   1       3.439   1.481  -4.899  0.00  0.00     0.130 A 
ATOM      2  C2  DEN d   1       4.317   1.871  -5.999  0.00  0.00    -0.031 A 
ATOM      3  C3  DEN d   1       5.479   0.959  -6.000  0.00  0.00     0.027 A 
ATOM      4  C4  DEN d   1       5.997  -1.011  -4.417  0.00  0.00     0.027 A 
ATOM      5  C5  DEN d   1       5.552  -1.718  -3.323  0.00  0.00    -0.003 A 
ATOM      6  C6  DEN d   1       4.398  -1.391  -2.661  0.00  0.00     0.001 A 
ATOM      7  C7  DEN d   1       3.626  -0.355  -3.117  0.00  0.00     0.017 A 
ATOM      8  C8  DEN d   1       4.072   0.368  -4.215  0.00  0.00    -0.094 A 
ATOM      9  C9  DEN d   1       5.235   0.014  -4.877  0.00  0.00    -0.072 A 
ENDROOT
TORSDOF 0
ENDMDL
