MODEL 1
REMARK minimizedAffinity -0.517384291
REMARK minimizedRMSD -1
REMARK  0 active torsions:
REMARK  status: ('A' for Active; 'I' for Inactive)
ROOT
ATOM      1  C1  DEN d   1      -5.602  -2.483  -4.698  0.00  0.00     0.130 A 
ATOM      2  C2  DEN d   1      -6.000  -3.013  -5.999  0.00  0.00    -0.031 A 
ATOM      3  C3  DEN d   1      -6.000  -4.487  -5.911  0.00  0.00     0.027 A 
ATOM      4  C4  DEN d   1      -5.430  -5.992  -3.895  0.00  0.00     0.027 A 
ATOM      5  C5  DEN d   1      -5.026  -5.999  -2.579  0.00  0.00    -0.003 A 
ATOM      6  C6  DEN d   1      -4.755  -4.846  -1.892  0.00  0.00     0.001 A 
ATOM      7  C7  DEN d   1      -4.928  -3.633  -2.506  0.00  0.00     0.017 A 
ATOM      8  C8  DEN d   1      -5.329  -3.618  -3.836  0.00  0.00    -0.094 A 
ATOM      9  C9  DEN d   1      -5.610  -4.795  -4.509  0.00  0.00    -0.072 A 
ENDROOT
TORSDOF 0
ENDMDL
