MODEL 1
REMARK minimizedAffinity -1.80795491
REMARK minimizedRMSD -1
REMARK  0 active torsions:
REMARK  status: ('A' for Active; 'I' for Inactive)
ROOT
ATOM      1  C1  DEN d   1      -5.719  -5.550  -2.130  0.00  0.00     0.130 A 
ATOM      2  C2  DEN d   1      -5.884  -4.320  -1.361  0.00  0.00    -0.031 A 
ATOM      3  C3  DEN d   1      -5.983  -3.196  -2.313  0.00  0.00     0.027 A 
ATOM      4  C4  DEN d   1      -5.901  -3.241  -4.891  0.00  0.00     0.027 A 
ATOM      5  C5  DEN d   1      -5.762  -4.052  -5.995  0.00  0.00    -0.003 A 
ATOM      6  C6  DEN d   1      -5.567  -5.403  -5.889  0.00  0.00     0.001 A 
ATOM      7  C7  DEN d   1      -5.551  -5.991  -4.652  0.00  0.00     0.017 A 
ATOM      8  C8  DEN d   1      -5.682  -5.179  -3.533  0.00  0.00    -0.094 A 
ATOM      9  C9  DEN d   1      -5.891  -3.817  -3.662  0.00  0.00    -0.072 A 
ENDROOT
TORSDOF 0
ENDMDL
