MODEL 1
REMARK minimizedAffinity 3.7016921
REMARK minimizedRMSD -1
REMARK  0 active torsions:
REMARK  status: ('A' for Active; 'I' for Inactive)
ROOT
ATOM      1  C1  DEN d   1       4.502  -2.138  -2.704  0.00  0.00     0.130 A 
ATOM      2  C2  DEN d   1       3.061  -2.128  -2.466  0.00  0.00    -0.031 A 
ATOM      3  C3  DEN d   1       2.457  -1.126  -3.367  0.00  0.00     0.027 A 
ATOM      4  C4  DEN d   1       3.607   0.398  -5.102  0.00  0.00     0.027 A 
ATOM      5  C5  DEN d   1       4.816   0.756  -5.655  0.00  0.00    -0.003 A 
ATOM      6  C6  DEN d   1       6.000   0.203  -5.243  0.00  0.00     0.001 A 
ATOM      7  C7  DEN d   1       5.995  -0.771  -4.280  0.00  0.00     0.017 A 
ATOM      8  C8  DEN d   1       4.780  -1.132  -3.712  0.00  0.00    -0.094 A 
ATOM      9  C9  DEN d   1       3.593  -0.571  -4.152  0.00  0.00    -0.072 A 
ENDROOT
TORSDOF 0
ENDMDL
