MODEL 1
REMARK minimizedAffinity 10.4532766
REMARK minimizedRMSD -1
REMARK  0 active torsions:
REMARK  status: ('A' for Active; 'I' for Inactive)
ROOT
ATOM      1  C1  DEN d   1      -5.924  -6.000  -4.012  0.00  0.00     0.130 A 
ATOM      2  C2  DEN d   1      -5.998  -5.739  -5.447  0.00  0.00    -0.031 A 
ATOM      3  C3  DEN d   1      -5.889  -4.281  -5.652  0.00  0.00     0.027 A 
ATOM      4  C4  DEN d   1      -5.610  -2.411  -3.897  0.00  0.00     0.027 A 
ATOM      5  C5  DEN d   1      -5.509  -2.143  -2.550  0.00  0.00    -0.003 A 
ATOM      6  C6  DEN d   1      -5.573  -3.129  -1.601  0.00  0.00     0.001 A 
ATOM      7  C7  DEN d   1      -5.697  -4.437  -1.990  0.00  0.00     0.017 A 
ATOM      8  C8  DEN d   1      -5.807  -4.715  -3.346  0.00  0.00    -0.094 A 
ATOM      9  C9  DEN d   1      -5.728  -3.705  -4.290  0.00  0.00    -0.072 A 
ENDROOT
TORSDOF 0
ENDMDL
