MODEL 1
REMARK minimizedAffinity -0.269269586
REMARK minimizedRMSD -1
REMARK  0 active torsions:
REMARK  status: ('A' for Active; 'I' for Inactive)
ROOT
ATOM      1  C1  DEN d   1      -5.816  -2.758  -4.225  0.00  0.00     0.130 A 
ATOM      2  C2  DEN d   1      -5.999  -3.333  -5.555  0.00  0.00    -0.031 A 
ATOM      3  C3  DEN d   1      -5.461  -4.709  -5.535  0.00  0.00     0.027 A 
ATOM      4  C4  DEN d   1      -4.373  -5.997  -3.583  0.00  0.00     0.027 A 
ATOM      5  C5  DEN d   1      -3.988  -5.920  -2.263  0.00  0.00    -0.003 A 
ATOM      6  C6  DEN d   1      -4.153  -4.781  -1.520  0.00  0.00     0.001 A 
ATOM      7  C7  DEN d   1      -4.759  -3.687  -2.080  0.00  0.00     0.017 A 
ATOM      8  C8  DEN d   1      -5.143  -3.755  -3.412  0.00  0.00    -0.094 A 
ATOM      9  C9  DEN d   1      -4.979  -4.920  -4.143  0.00  0.00    -0.072 A 
ENDROOT
TORSDOF 0
ENDMDL
