MODEL 1
REMARK minimizedAffinity -0.79126817
REMARK minimizedRMSD -1
REMARK  0 active torsions:
REMARK  status: ('A' for Active; 'I' for Inactive)
ROOT
ATOM      1  C1  DEN d   1       5.161  -1.466  -3.366  0.00  0.00     0.130 A 
ATOM      2  C2  DEN d   1       3.858  -1.632  -2.727  0.00  0.00    -0.031 A 
ATOM      3  C3  DEN d   1       2.930  -0.648  -3.322  0.00  0.00     0.027 A 
ATOM      4  C4  DEN d   1       3.381   1.102  -5.162  0.00  0.00     0.027 A 
ATOM      5  C5  DEN d   1       4.339   1.628  -6.000  0.00  0.00    -0.003 A 
ATOM      6  C6  DEN d   1       5.636   1.186  -5.995  0.00  0.00     0.001 A 
ATOM      7  C7  DEN d   1       5.999   0.158  -5.166  0.00  0.00     0.017 A 
ATOM      8  C8  DEN d   1       5.041  -0.372  -4.313  0.00  0.00    -0.094 A 
ATOM      9  C9  DEN d   1       3.732   0.080  -4.341  0.00  0.00    -0.072 A 
ENDROOT
TORSDOF 0
ENDMDL
