MODEL 1
REMARK minimizedAffinity 1.96726954
REMARK minimizedRMSD -1
REMARK  0 active torsions:
REMARK  status: ('A' for Active; 'I' for Inactive)
ROOT
ATOM      1  C1  DEN d   1       2.601   1.956   0.617  0.00  0.00     0.130 A 
ATOM      2  C2  DEN d   1       2.214   0.655   1.154  0.00  0.00    -0.031 A 
ATOM      3  C3  DEN d   1       0.768   0.473   0.912  0.00  0.00     0.027 A 
ATOM      4  C4  DEN d   1      -0.897   2.071  -0.239  0.00  0.00     0.027 A 
ATOM      5  C5  DEN d   1      -1.037   3.298  -0.848  0.00  0.00    -0.003 A 
ATOM      6  C6  DEN d   1       0.010   4.172  -0.980  0.00  0.00     0.001 A 
ATOM      7  C7  DEN d   1       1.254   3.811  -0.536  0.00  0.00     0.017 A 
ATOM      8  C8  DEN d   1       1.402   2.578   0.086  0.00  0.00    -0.094 A 
ATOM      9  C9  DEN d   1       0.334   1.704   0.198  0.00  0.00    -0.072 A 
ENDROOT
TORSDOF 0
ENDMDL
