MODEL 1
REMARK minimizedAffinity 0.941601217
REMARK minimizedRMSD -1
REMARK  0 active torsions:
REMARK  status: ('A' for Active; 'I' for Inactive)
ROOT
ATOM      1  C1  DEN d   1      -5.999  -3.712  -5.216  0.00  0.00     0.130 A 
ATOM      2  C2  DEN d   1      -5.961  -4.943  -6.000  0.00  0.00    -0.031 A 
ATOM      3  C3  DEN d   1      -5.359  -5.999  -5.161  0.00  0.00     0.027 A 
ATOM      4  C4  DEN d   1      -4.494  -5.850  -2.736  0.00  0.00     0.027 A 
ATOM      5  C5  DEN d   1      -4.305  -5.009  -1.662  0.00  0.00    -0.003 A 
ATOM      6  C6  DEN d   1      -4.634  -3.680  -1.707  0.00  0.00     0.001 A 
ATOM      7  C7  DEN d   1      -5.211  -3.162  -2.837  0.00  0.00     0.017 A 
ATOM      8  C8  DEN d   1      -5.397  -4.002  -3.927  0.00  0.00    -0.094 A 
ATOM      9  C9  DEN d   1      -5.070  -5.345  -3.857  0.00  0.00    -0.072 A 
ENDROOT
TORSDOF 0
ENDMDL
