MODEL 1
REMARK minimizedAffinity 3.44728041
REMARK minimizedRMSD -1
REMARK  0 active torsions:
REMARK  status: ('A' for Active; 'I' for Inactive)
ROOT
ATOM      1  C1  DEN d   1      -5.810  -5.998  -4.733  0.00  0.00     0.130 A 
ATOM      2  C2  DEN d   1      -5.779  -5.271  -6.000  0.00  0.00    -0.031 A 
ATOM      3  C3  DEN d   1      -5.812  -3.826  -5.697  0.00  0.00     0.027 A 
ATOM      4  C4  DEN d   1      -5.902  -2.650  -3.404  0.00  0.00     0.027 A 
ATOM      5  C5  DEN d   1      -5.955  -2.848  -2.042  0.00  0.00    -0.003 A 
ATOM      6  C6  DEN d   1      -5.997  -4.100  -1.487  0.00  0.00     0.001 A 
ATOM      7  C7  DEN d   1      -5.942  -5.204  -2.297  0.00  0.00     0.017 A 
ATOM      8  C8  DEN d   1      -5.896  -5.011  -3.672  0.00  0.00    -0.094 A 
ATOM      9  C9  DEN d   1      -5.841  -3.738  -4.212  0.00  0.00    -0.072 A 
ENDROOT
TORSDOF 0
ENDMDL
