MODEL 1
REMARK minimizedAffinity 7.39366436
REMARK minimizedRMSD -1
REMARK  0 active torsions:
REMARK  status: ('A' for Active; 'I' for Inactive)
ROOT
ATOM      1  C   UNL d   1       2.340   2.341   0.232  0.00  0.00     0.023 A 
ATOM      2  C1  UNL d   1       2.860   1.295  -0.531  0.00  0.00     0.003 A 
ATOM      3  C2  UNL d   1       3.898   0.509  -0.026  0.00  0.00     0.048 A 
ATOM      4  C3  UNL d   1       4.410   0.774   1.244  0.00  0.00     0.023 A 
ATOM      5  C4  UNL d   1       3.892   1.818   2.011  0.00  0.00     0.048 A 
ATOM      6  C5  UNL d   1       2.856   2.602   1.501  0.00  0.00     0.003 A 
ATOM      7  I   UNL d   1       5.954  -0.395   1.998  0.00  0.00    -0.146 I 
ENDROOT
TORSDOF 0
ENDMDL
