MODEL 1
REMARK minimizedAffinity -0.0412236005
REMARK minimizedRMSD -1
REMARK  0 active torsions:
REMARK  status: ('A' for Active; 'I' for Inactive)
ROOT
ATOM      1  C   UNL d   1      -5.119   5.305   5.686  0.00  0.00     0.023 A 
ATOM      2  C1  UNL d   1      -4.042   5.998   5.134  0.00  0.00     0.003 A 
ATOM      3  C2  UNL d   1      -3.841   5.994   3.752  0.00  0.00     0.048 A 
ATOM      4  C3  UNL d   1      -4.724   5.296   2.928  0.00  0.00     0.023 A 
ATOM      5  C4  UNL d   1      -5.804   4.602   3.476  0.00  0.00     0.048 A 
ATOM      6  C5  UNL d   1      -5.999   4.608   4.858  0.00  0.00     0.003 A 
ATOM      7  I   UNL d   1      -4.428   5.289   0.871  0.00  0.00    -0.146 I 
ENDROOT
TORSDOF 0
ENDMDL
