MODEL 1
REMARK minimizedAffinity 5.13706589
REMARK minimizedRMSD -1
REMARK  0 active torsions:
REMARK  status: ('A' for Active; 'I' for Inactive)
ROOT
ATOM      1  C   UNL d   1      -6.000   5.846   4.546  0.00  0.00     0.023 A 
ATOM      2  C1  UNL d   1      -5.667   5.865   3.191  0.00  0.00     0.003 A 
ATOM      3  C2  UNL d   1      -4.327   5.908   2.801  0.00  0.00     0.048 A 
ATOM      4  C3  UNL d   1      -3.325   5.932   3.771  0.00  0.00     0.023 A 
ATOM      5  C4  UNL d   1      -3.653   5.913   5.127  0.00  0.00     0.048 A 
ATOM      6  C5  UNL d   1      -4.995   5.870   5.512  0.00  0.00     0.003 A 
ATOM      7  I   UNL d   1      -1.329   5.996   3.192  0.00  0.00    -0.146 I 
ENDROOT
TORSDOF 0
ENDMDL
