MODEL 1
REMARK minimizedAffinity 7.18213463
REMARK minimizedRMSD -1
REMARK  0 active torsions:
REMARK  status: ('A' for Active; 'I' for Inactive)
ROOT
ATOM      1  C   UNL d   1       0.209  -5.850   5.730  0.00  0.00     0.023 A 
ATOM      2  C1  UNL d   1      -0.758  -5.500   4.788  0.00  0.00     0.003 A 
ATOM      3  C2  UNL d   1      -0.670  -4.281   4.114  0.00  0.00     0.048 A 
ATOM      4  C3  UNL d   1       0.389  -3.415   4.386  0.00  0.00     0.023 A 
ATOM      5  C4  UNL d   1       1.360  -3.761   5.328  0.00  0.00     0.048 A 
ATOM      6  C5  UNL d   1       1.267  -4.981   6.000  0.00  0.00     0.003 A 
ATOM      7  I   UNL d   1       0.522  -1.599   3.384  0.00  0.00    -0.146 I 
ENDROOT
TORSDOF 0
ENDMDL
