MODEL 1
REMARK minimizedAffinity -1.48615468
REMARK minimizedRMSD -1
REMARK  0 active torsions:
REMARK  status: ('A' for Active; 'I' for Inactive)
ROOT
ATOM      1  C   UNL d   1      -3.832   5.951   1.427  0.00  0.00     0.023 A 
ATOM      2  C1  UNL d   1      -5.224   5.961   1.515  0.00  0.00     0.003 A 
ATOM      3  C2  UNL d   1      -5.846   5.974   2.766  0.00  0.00     0.048 A 
ATOM      4  C3  UNL d   1      -5.070   5.979   3.924  0.00  0.00     0.023 A 
ATOM      5  C4  UNL d   1      -3.676   5.971   3.841  0.00  0.00     0.048 A 
ATOM      6  C5  UNL d   1      -3.059   5.956   2.588  0.00  0.00     0.003 A 
ATOM      7  I   UNL d   1      -5.993   5.999   5.786  0.00  0.00    -0.146 I 
ENDROOT
TORSDOF 0
ENDMDL
