MODEL 1
REMARK minimizedAffinity 0.965661645
REMARK minimizedRMSD -1
REMARK  0 active torsions:
REMARK  status: ('A' for Active; 'I' for Inactive)
ROOT
ATOM      1  C   UNL d   1      -3.471   5.883   1.438  0.00  0.00     0.023 A 
ATOM      2  C1  UNL d   1      -4.865   5.832   1.420  0.00  0.00     0.003 A 
ATOM      3  C2  UNL d   1      -5.581   5.863   2.618  0.00  0.00     0.048 A 
ATOM      4  C3  UNL d   1      -4.897   5.946   3.830  0.00  0.00     0.023 A 
ATOM      5  C4  UNL d   1      -3.503   5.998   3.853  0.00  0.00     0.048 A 
ATOM      6  C5  UNL d   1      -2.791   5.966   2.653  0.00  0.00     0.003 A 
ATOM      7  I   UNL d   1      -5.961   5.993   5.615  0.00  0.00    -0.146 I 
ENDROOT
TORSDOF 0
ENDMDL
