MODEL 1
REMARK minimizedAffinity 0.636218607
REMARK minimizedRMSD -1
REMARK  0 active torsions:
REMARK  status: ('A' for Active; 'I' for Inactive)
ROOT
ATOM      1  C   UNL d   1      -4.793   5.887   5.534  0.00  0.00     0.023 A 
ATOM      2  C1  UNL d   1      -5.999   5.836   4.834  0.00  0.00     0.003 A 
ATOM      3  C2  UNL d   1      -6.000   5.869   3.438  0.00  0.00     0.048 A 
ATOM      4  C3  UNL d   1      -4.791   5.950   2.748  0.00  0.00     0.023 A 
ATOM      5  C4  UNL d   1      -3.582   6.000   3.444  0.00  0.00     0.048 A 
ATOM      6  C5  UNL d   1      -3.586   5.968   4.840  0.00  0.00     0.003 A 
ATOM      7  I   UNL d   1      -4.789   5.998   0.670  0.00  0.00    -0.146 I 
ENDROOT
TORSDOF 0
ENDMDL
