MODEL 1
REMARK minimizedAffinity -2.98635316
REMARK minimizedRMSD -1
REMARK  0 active torsions:
REMARK  status: ('A' for Active; 'I' for Inactive)
ROOT
ATOM      1  C   UNL d   1      -3.521   5.993   1.750  0.00  0.00     0.023 A 
ATOM      2  C1  UNL d   1      -2.820   6.000   2.956  0.00  0.00     0.003 A 
ATOM      3  C2  UNL d   1      -3.508   5.883   4.166  0.00  0.00     0.048 A 
ATOM      4  C3  UNL d   1      -4.897   5.759   4.162  0.00  0.00     0.023 A 
ATOM      5  C4  UNL d   1      -5.602   5.750   2.957  0.00  0.00     0.048 A 
ATOM      6  C5  UNL d   1      -4.910   5.868   1.750  0.00  0.00     0.003 A 
ATOM      7  I   UNL d   1      -5.923   5.585   5.960  0.00  0.00    -0.146 I 
ENDROOT
TORSDOF 0
ENDMDL
