MODEL 1
REMARK minimizedAffinity -1.1103965
REMARK minimizedRMSD -1
REMARK  0 active torsions:
REMARK  status: ('A' for Active; 'I' for Inactive)
ROOT
ATOM      1  C   UNL d   1      -2.533   5.945   2.542  0.00  0.00     0.023 A 
ATOM      2  C1  UNL d   1      -2.182   5.946   3.892  0.00  0.00     0.003 A 
ATOM      3  C2  UNL d   1      -3.175   5.962   4.873  0.00  0.00     0.048 A 
ATOM      4  C3  UNL d   1      -4.518   5.976   4.498  0.00  0.00     0.023 A 
ATOM      5  C4  UNL d   1      -4.874   5.974   3.148  0.00  0.00     0.048 A 
ATOM      6  C5  UNL d   1      -3.877   5.959   2.171  0.00  0.00     0.003 A 
ATOM      7  I   UNL d   1      -5.998   5.999   5.956  0.00  0.00    -0.146 I 
ENDROOT
TORSDOF 0
ENDMDL
