MODEL 1
REMARK minimizedAffinity -3.51990485
REMARK minimizedRMSD -1
REMARK  1 active torsions:
REMARK  status: ('A' for Active; 'I' for Inactive)
REMARK    1  A    between atoms: C1_2  and  C2_3 
ROOT
ATOM      1  C2  UNL d   1       0.374   0.016   0.352  0.00  0.00    -0.081 A 
ATOM      2  C3  UNL d   1      -0.308  -0.521   1.451  0.00  0.00     0.006 A 
ATOM      3  C4  UNL d   1       0.396  -1.135   2.489  0.00  0.00     0.002 A 
ATOM      4  C5  UNL d   1       1.792  -1.216   2.450  0.00  0.00    -0.080 A 
ATOM      5  C6  UNL d   1       2.562  -1.846   3.573  0.00  0.00     0.076 C 
ATOM      6  C7  UNL d   1       2.472  -0.696   1.343  0.00  0.00     0.002 A 
ATOM      7  C8  UNL d   1       1.769  -0.082   0.304  0.00  0.00     0.006 A 
ENDROOT
BRANCH   1   8
ATOM      8  C1  UNL d   1      -0.378   0.736  -0.739  0.00  0.00     0.054 C 
ATOM      9  C   UNL d   1      -0.248   2.245  -0.596  0.00  0.00     0.018 C 
ENDBRANCH   1   8
TORSDOF 1
ENDMDL
