MODEL 1
REMARK minimizedAffinity -0.586417317
REMARK minimizedRMSD -1
REMARK  1 active torsions:
REMARK  status: ('A' for Active; 'I' for Inactive)
REMARK    1  A    between atoms: C1_2  and  C2_3 
ROOT
ATOM      1  C2  UNL d   1      -0.679  -0.709   0.853  0.00  0.00    -0.081 A 
ATOM      2  C3  UNL d   1       0.534  -0.127   0.465  0.00  0.00     0.006 A 
ATOM      3  C4  UNL d   1       1.672  -0.263   1.263  0.00  0.00     0.002 A 
ATOM      4  C5  UNL d   1       1.618  -0.989   2.458  0.00  0.00    -0.080 A 
ATOM      5  C6  UNL d   1       2.840  -1.168   3.309  0.00  0.00     0.076 C 
ATOM      6  C7  UNL d   1       0.402  -1.555   2.854  0.00  0.00     0.002 A 
ATOM      7  C8  UNL d   1      -0.736  -1.419   2.057  0.00  0.00     0.006 A 
ENDROOT
BRANCH   1   8
ATOM      8  C1  UNL d   1      -1.892  -0.619  -0.038  0.00  0.00     0.054 C 
ATOM      9  C   UNL d   1      -3.130  -1.169   0.656  0.00  0.00     0.018 C 
ENDBRANCH   1   8
TORSDOF 1
ENDMDL
