MODEL 1
REMARK minimizedAffinity -1.55500078
REMARK minimizedRMSD -1
REMARK  1 active torsions:
REMARK  status: ('A' for Active; 'I' for Inactive)
REMARK    1  A    between atoms: C1_2  and  C2_3 
ROOT
ATOM      1  C2  UNL d   1       0.459  -0.833  -0.609  0.00  0.00    -0.081 A 
ATOM      2  C3  UNL d   1      -0.701  -0.581  -1.353  0.00  0.00     0.006 A 
ATOM      3  C4  UNL d   1      -1.908  -0.301  -0.709  0.00  0.00     0.002 A 
ATOM      4  C5  UNL d   1      -1.975  -0.260   0.688  0.00  0.00    -0.080 A 
ATOM      5  C6  UNL d   1      -3.258   0.069   1.391  0.00  0.00     0.076 C 
ATOM      6  C7  UNL d   1      -0.821  -0.529   1.431  0.00  0.00     0.002 A 
ATOM      7  C8  UNL d   1       0.387  -0.810   0.788  0.00  0.00     0.006 A 
ENDROOT
BRANCH   1   8
ATOM      8  C1  UNL d   1       1.776  -1.071  -1.301  0.00  0.00     0.054 C 
ATOM      9  C   UNL d   1       2.821  -0.052  -0.869  0.00  0.00     0.018 C 
ENDBRANCH   1   8
TORSDOF 1
ENDMDL
