MODEL 1
REMARK minimizedAffinity 0.993253469
REMARK minimizedRMSD -1
REMARK  1 active torsions:
REMARK  status: ('A' for Active; 'I' for Inactive)
REMARK    1  A    between atoms: C1_2  and  C2_3 
ROOT
ATOM      1  C2  UNL d   1       0.936  -2.527   1.679  0.00  0.00    -0.081 A 
ATOM      2  C3  UNL d   1      -0.338  -2.538   2.259  0.00  0.00     0.006 A 
ATOM      3  C4  UNL d   1      -1.359  -1.735   1.743  0.00  0.00     0.002 A 
ATOM      4  C5  UNL d   1      -1.124  -0.916   0.634  0.00  0.00    -0.080 A 
ATOM      5  C6  UNL d   1      -2.219  -0.072   0.051  0.00  0.00     0.076 C 
ATOM      6  C7  UNL d   1       0.154  -0.892   0.064  0.00  0.00     0.002 A 
ATOM      7  C8  UNL d   1       1.174  -1.693   0.581  0.00  0.00     0.006 A 
ENDROOT
BRANCH   1   8
ATOM      8  C1  UNL d   1       2.020  -3.440   2.193  0.00  0.00     0.054 C 
ATOM      9  C   UNL d   1       2.405  -4.482   1.153  0.00  0.00     0.018 C 
ENDBRANCH   1   8
TORSDOF 1
ENDMDL
