MODEL 1
REMARK minimizedAffinity 3.62416983
REMARK minimizedRMSD -1
REMARK  1 active torsions:
REMARK  status: ('A' for Active; 'I' for Inactive)
REMARK    1  A    between atoms: C1_2  and  C2_3 
ROOT
ATOM      1  C2  UNL d   1       0.216  -0.263   1.692  0.00  0.00    -0.081 A 
ATOM      2  C3  UNL d   1      -1.147   0.041   1.591  0.00  0.00     0.006 A 
ATOM      3  C4  UNL d   1      -1.795  -0.015   0.355  0.00  0.00     0.002 A 
ATOM      4  C5  UNL d   1      -1.095  -0.384  -0.798  0.00  0.00    -0.080 A 
ATOM      5  C6  UNL d   1      -1.787  -0.478  -2.126  0.00  0.00     0.076 C 
ATOM      6  C7  UNL d   1       0.271  -0.672  -0.701  0.00  0.00     0.002 A 
ATOM      7  C8  UNL d   1       0.920  -0.615   0.534  0.00  0.00     0.006 A 
ENDROOT
BRANCH   1   8
ATOM      8  C1  UNL d   1       0.904  -0.266   3.033  0.00  0.00     0.054 C 
ATOM      9  C   UNL d   1       1.666   1.030   3.267  0.00  0.00     0.018 C 
ENDBRANCH   1   8
TORSDOF 1
ENDMDL
