MODEL 1
REMARK minimizedAffinity -3.95318818
REMARK minimizedRMSD -1
REMARK  1 active torsions:
REMARK  status: ('A' for Active; 'I' for Inactive)
REMARK    1  A    between atoms: C1_2  and  C2_3 
ROOT
ATOM      1  C2  UNL d   1      -1.671  -0.507   1.435  0.00  0.00    -0.081 A 
ATOM      2  C3  UNL d   1      -1.049  -0.650   0.189  0.00  0.00     0.006 A 
ATOM      3  C4  UNL d   1       0.101  -1.431   0.056  0.00  0.00     0.002 A 
ATOM      4  C5  UNL d   1       0.644  -2.089   1.165  0.00  0.00    -0.080 A 
ATOM      5  C6  UNL d   1       1.861  -2.956   1.031  0.00  0.00     0.076 C 
ATOM      6  C7  UNL d   1       0.033  -1.933   2.414  0.00  0.00     0.002 A 
ATOM      7  C8  UNL d   1      -1.117  -1.151   2.547  0.00  0.00     0.006 A 
ENDROOT
BRANCH   1   8
ATOM      8  C1  UNL d   1      -2.948   0.282   1.568  0.00  0.00     0.054 C 
ATOM      9  C   UNL d   1      -4.151  -0.529   1.107  0.00  0.00     0.018 C 
ENDBRANCH   1   8
TORSDOF 1
ENDMDL
