MODEL 1
REMARK minimizedAffinity -1.67553627
REMARK minimizedRMSD -1
REMARK  1 active torsions:
REMARK  status: ('A' for Active; 'I' for Inactive)
REMARK    1  A    between atoms: C1_2  and  C2_3 
ROOT
ATOM      1  C2  UNL d   1       1.599  -0.260  -0.232  0.00  0.00    -0.081 A 
ATOM      2  C3  UNL d   1       1.772   0.155   1.094  0.00  0.00     0.006 A 
ATOM      3  C4  UNL d   1       0.682   0.215   1.966  0.00  0.00     0.002 A 
ATOM      4  C5  UNL d   1      -0.596  -0.148   1.529  0.00  0.00    -0.080 A 
ATOM      5  C6  UNL d   1      -1.770  -0.118   2.463  0.00  0.00     0.076 C 
ATOM      6  C7  UNL d   1      -0.773  -0.546   0.200  0.00  0.00     0.002 A 
ATOM      7  C8  UNL d   1       0.316  -0.604  -0.673  0.00  0.00     0.006 A 
ENDROOT
BRANCH   1   8
ATOM      8  C1  UNL d   1       2.783  -0.387  -1.156  0.00  0.00     0.054 C 
ATOM      9  C   UNL d   1       2.424  -1.172  -2.410  0.00  0.00     0.018 C 
ENDBRANCH   1   8
TORSDOF 1
ENDMDL
