MODEL 1
REMARK minimizedAffinity 2.42057776
REMARK minimizedRMSD -1
REMARK  0 active torsions:
REMARK  status: ('A' for Active; 'I' for Inactive)
ROOT
ATOM      1  C   UNL d   1      -0.425   2.319   2.481  0.00  0.00     0.078 C 
ATOM      2  C1  UNL d   1      -0.353   2.691   1.030  0.00  0.00    -0.077 A 
ATOM      3  C2  UNL d   1      -0.102   4.010   0.634  0.00  0.00    -0.001 A 
ATOM      4  C3  UNL d   1      -0.047   4.343  -0.720  0.00  0.00     0.003 A 
ATOM      5  C4  UNL d   1      -0.244   3.363  -1.690  0.00  0.00    -0.005 A 
ATOM      6  C5  UNL d   1      -0.497   2.047  -1.307  0.00  0.00     0.003 A 
ATOM      7  C6  UNL d   1      -0.552   1.712   0.047  0.00  0.00    -0.001 A 
ENDROOT
TORSDOF 0
ENDMDL
