MODEL 1
REMARK minimizedAffinity -0.703662872
REMARK minimizedRMSD -1
REMARK  0 active torsions:
REMARK  status: ('A' for Active; 'I' for Inactive)
ROOT
ATOM      1  C   UNL d   1       3.580  -1.780  -0.431  0.00  0.00     0.078 C 
ATOM      2  C1  UNL d   1       3.880  -2.827  -1.463  0.00  0.00    -0.077 A 
ATOM      3  C2  UNL d   1       3.401  -2.705  -2.773  0.00  0.00    -0.001 A 
ATOM      4  C3  UNL d   1       3.679  -3.691  -3.721  0.00  0.00     0.003 A 
ATOM      5  C4  UNL d   1       4.436  -4.807  -3.368  0.00  0.00    -0.005 A 
ATOM      6  C5  UNL d   1       4.915  -4.938  -2.066  0.00  0.00     0.003 A 
ATOM      7  C6  UNL d   1       4.637  -3.952  -1.117  0.00  0.00    -0.001 A 
ENDROOT
TORSDOF 0
ENDMDL
