MODEL 1
REMARK minimizedAffinity 1.9651556
REMARK minimizedRMSD -1
REMARK  0 active torsions:
REMARK  status: ('A' for Active; 'I' for Inactive)
ROOT
ATOM      1  C   UNL d   1      -0.507   4.072  -1.447  0.00  0.00     0.078 C 
ATOM      2  C1  UNL d   1      -1.347   2.839  -1.592  0.00  0.00    -0.077 A 
ATOM      3  C2  UNL d   1      -2.455   2.818  -2.448  0.00  0.00    -0.001 A 
ATOM      4  C3  UNL d   1      -3.235   1.666  -2.566  0.00  0.00     0.003 A 
ATOM      5  C4  UNL d   1      -2.915   0.527  -1.830  0.00  0.00    -0.005 A 
ATOM      6  C5  UNL d   1      -1.816   0.539  -0.973  0.00  0.00     0.003 A 
ATOM      7  C6  UNL d   1      -1.036   1.690  -0.854  0.00  0.00    -0.001 A 
ENDROOT
TORSDOF 0
ENDMDL
