MODEL 1
REMARK minimizedAffinity -1.80936658
REMARK minimizedRMSD -1
REMARK  0 active torsions:
REMARK  status: ('A' for Active; 'I' for Inactive)
ROOT
ATOM      1  C   UNL d   1       5.997  -5.983  -0.051  0.00  0.00     0.078 C 
ATOM      2  C1  UNL d   1       5.258  -5.204  -1.099  0.00  0.00    -0.077 A 
ATOM      3  C2  UNL d   1       4.605  -5.853  -2.154  0.00  0.00    -0.001 A 
ATOM      4  C3  UNL d   1       3.930  -5.114  -3.127  0.00  0.00     0.003 A 
ATOM      5  C4  UNL d   1       3.902  -3.723  -3.055  0.00  0.00    -0.005 A 
ATOM      6  C5  UNL d   1       4.551  -3.068  -2.011  0.00  0.00     0.003 A 
ATOM      7  C6  UNL d   1       5.227  -3.805  -1.037  0.00  0.00    -0.001 A 
ENDROOT
TORSDOF 0
ENDMDL
