MODEL 1
REMARK minimizedAffinity -2.5660255
REMARK minimizedRMSD -1
REMARK  0 active torsions:
REMARK  status: ('A' for Active; 'I' for Inactive)
ROOT
ATOM      1  C   UNL d   1       2.622  -5.386  -1.755  0.00  0.00     0.078 C 
ATOM      2  C1  UNL d   1       3.487  -4.259  -1.276  0.00  0.00    -0.077 A 
ATOM      3  C2  UNL d   1       4.883  -4.340  -1.348  0.00  0.00    -0.001 A 
ATOM      4  C3  UNL d   1       5.676  -3.287  -0.889  0.00  0.00     0.003 A 
ATOM      5  C4  UNL d   1       5.083  -2.146  -0.354  0.00  0.00    -0.005 A 
ATOM      6  C5  UNL d   1       3.694  -2.056  -0.276  0.00  0.00     0.003 A 
ATOM      7  C6  UNL d   1       2.900  -3.108  -0.735  0.00  0.00    -0.001 A 
ENDROOT
TORSDOF 0
ENDMDL
