MODEL 1
REMARK minimizedAffinity -2.90083861
REMARK minimizedRMSD -1
REMARK  0 active torsions:
REMARK  status: ('A' for Active; 'I' for Inactive)
ROOT
ATOM      1  C   UNL d   1       2.393  -4.261   0.803  0.00  0.00     0.078 C 
ATOM      2  C1  UNL d   1       3.276  -3.785  -0.311  0.00  0.00    -0.077 A 
ATOM      3  C2  UNL d   1       3.435  -2.418  -0.572  0.00  0.00    -0.001 A 
ATOM      4  C3  UNL d   1       4.253  -1.990  -1.618  0.00  0.00     0.003 A 
ATOM      5  C4  UNL d   1       4.916  -2.921  -2.414  0.00  0.00    -0.005 A 
ATOM      6  C5  UNL d   1       4.762  -4.283  -2.165  0.00  0.00     0.003 A 
ATOM      7  C6  UNL d   1       3.945  -4.714  -1.118  0.00  0.00    -0.001 A 
ENDROOT
TORSDOF 0
ENDMDL
