MODEL 1
REMARK minimizedAffinity -2.06364727
REMARK minimizedRMSD -1
REMARK  0 active torsions:
REMARK  status: ('A' for Active; 'I' for Inactive)
ROOT
ATOM      1  C   UNL d   1       2.987  -4.506  -4.138  0.00  0.00     0.078 C 
ATOM      2  C1  UNL d   1       3.758  -4.059  -2.932  0.00  0.00    -0.077 A 
ATOM      3  C2  UNL d   1       3.671  -2.741  -2.468  0.00  0.00    -0.001 A 
ATOM      4  C3  UNL d   1       4.402  -2.336  -1.350  0.00  0.00     0.003 A 
ATOM      5  C4  UNL d   1       5.226  -3.243  -0.688  0.00  0.00    -0.005 A 
ATOM      6  C5  UNL d   1       5.321  -4.556  -1.143  0.00  0.00     0.003 A 
ATOM      7  C6  UNL d   1       4.591  -4.963  -2.261  0.00  0.00    -0.001 A 
ENDROOT
TORSDOF 0
ENDMDL
