MODEL 1
REMARK minimizedAffinity -4.93936157
REMARK minimizedRMSD -1
REMARK  0 active torsions:
REMARK  status: ('A' for Active; 'I' for Inactive)
ROOT
ATOM      1  C   UNL d   1       4.452  -1.777  -0.073  0.00  0.00     0.078 C 
ATOM      2  C1  UNL d   1       4.184  -2.734  -1.195  0.00  0.00    -0.077 A 
ATOM      3  C2  UNL d   1       4.457  -4.101  -1.059  0.00  0.00    -0.001 A 
ATOM      4  C3  UNL d   1       4.211  -4.979  -2.115  0.00  0.00     0.003 A 
ATOM      5  C4  UNL d   1       3.691  -4.501  -3.316  0.00  0.00    -0.005 A 
ATOM      6  C5  UNL d   1       3.419  -3.142  -3.463  0.00  0.00     0.003 A 
ATOM      7  C6  UNL d   1       3.664  -2.262  -2.407  0.00  0.00    -0.001 A 
ENDROOT
TORSDOF 0
ENDMDL
