MODEL 1
REMARK minimizedAffinity 4.6947732
REMARK minimizedRMSD -1
REMARK  2 active torsions:
REMARK  status: ('A' for Active; 'I' for Inactive)
REMARK    1  A    between atoms: C2'_3  and  C1'_4 
REMARK    2  A    between atoms: C1'_4  and  C1_5 
ROOT
ATOM      1  C1  I4B d   1      -0.545   0.905   1.259  0.00  0.00    -0.075 A 
ATOM      2  C2  I4B d   1      -0.858   1.416   0.023  0.00  0.00     0.003 A 
ATOM      3  C3  I4B d   1       0.155   1.602  -0.948  0.00  0.00     0.002 A 
ATOM      4  C4  I4B d   1       1.466   1.313  -0.628  0.00  0.00    -0.004 A 
ATOM      5  C5  I4B d   1       1.778   0.774   0.617  0.00  0.00     0.002 A 
ATOM      6  C6  I4B d   1       0.765   0.557   1.562  0.00  0.00     0.003 A 
ENDROOT
BRANCH   1   7
ATOM      7  C1' I4B d   1      -1.634   0.753   2.272  0.00  0.00     0.060 C 
BRANCH   7   8
ATOM      8  C2' I4B d   1      -2.897   1.359   1.695  0.00  0.00    -0.013 C 
ATOM      9  C4' I4B d   1      -4.006   0.342   1.622  0.00  0.00     0.013 C 
ATOM     10  C3' I4B d   1      -3.287   2.524   2.555  0.00  0.00     0.013 C 
ENDBRANCH   7   8
ENDBRANCH   1   7
TORSDOF 2
ENDMDL
