MODEL 1
REMARK minimizedAffinity -5.33573055
REMARK minimizedRMSD -1
REMARK  2 active torsions:
REMARK  status: ('A' for Active; 'I' for Inactive)
REMARK    1  A    between atoms: C2'_3  and  C1'_4 
REMARK    2  A    between atoms: C1'_4  and  C1_5 
ROOT
ATOM      1  C1  I4B d   1       0.911   0.160  -1.652  0.00  0.00    -0.075 A 
ATOM      2  C2  I4B d   1       1.524   1.341  -1.313  0.00  0.00     0.003 A 
ATOM      3  C3  I4B d   1       1.328   1.902  -0.028  0.00  0.00     0.002 A 
ATOM      4  C4  I4B d   1       0.476   1.280   0.862  0.00  0.00    -0.004 A 
ATOM      5  C5  I4B d   1      -0.126   0.072   0.525  0.00  0.00     0.002 A 
ATOM      6  C6  I4B d   1       0.102  -0.499  -0.736  0.00  0.00     0.003 A 
ENDROOT
BRANCH   1   7
ATOM      7  C1' I4B d   1       1.115  -0.387  -3.030  0.00  0.00     0.060 C 
BRANCH   7   8
ATOM      8  C2' I4B d   1       2.263  -1.374  -2.975  0.00  0.00    -0.013 C 
ATOM      9  C4' I4B d   1       1.882  -2.612  -2.207  0.00  0.00     0.013 C 
ATOM     10  C3' I4B d   1       2.653  -1.709  -4.383  0.00  0.00     0.013 C 
ENDBRANCH   7   8
ENDBRANCH   1   7
TORSDOF 2
ENDMDL
