MODEL 1
REMARK minimizedAffinity -2.89941287
REMARK minimizedRMSD -1
REMARK  2 active torsions:
REMARK  status: ('A' for Active; 'I' for Inactive)
REMARK    1  A    between atoms: C2'_3  and  C1'_4 
REMARK    2  A    between atoms: C1'_4  and  C1_5 
ROOT
ATOM      1  C1  I4B d   1      -1.124   0.141   0.807  0.00  0.00    -0.075 A 
ATOM      2  C2  I4B d   1      -1.154   0.526   2.124  0.00  0.00     0.003 A 
ATOM      3  C3  I4B d   1      -2.387   0.839   2.747  0.00  0.00     0.002 A 
ATOM      4  C4  I4B d   1      -3.551   0.803   2.007  0.00  0.00    -0.004 A 
ATOM      5  C5  I4B d   1      -3.521   0.390   0.678  0.00  0.00     0.002 A 
ATOM      6  C6  I4B d   1      -2.302   0.044   0.077  0.00  0.00     0.003 A 
ENDROOT
BRANCH   1   7
ATOM      7  C1' I4B d   1       0.199  -0.151   0.172  0.00  0.00     0.060 C 
BRANCH   7   8
ATOM      8  C2' I4B d   1       0.597   1.056  -0.652  0.00  0.00    -0.013 C 
ATOM      9  C4' I4B d   1       0.946   2.227   0.230  0.00  0.00     0.013 C 
ATOM     10  C3' I4B d   1       1.759   0.665  -1.515  0.00  0.00     0.013 C 
ENDBRANCH   7   8
ENDBRANCH   1   7
TORSDOF 2
ENDMDL
