MODEL 1
REMARK minimizedAffinity -3.26077032
REMARK minimizedRMSD -1
REMARK  2 active torsions:
REMARK  status: ('A' for Active; 'I' for Inactive)
REMARK    1  A    between atoms: C2'_3  and  C1'_4 
REMARK    2  A    between atoms: C1'_4  and  C1_5 
ROOT
ATOM      1  C1  I4B d   1       1.156  -1.309  -1.693  0.00  0.00    -0.075 A 
ATOM      2  C2  I4B d   1       1.938  -0.703  -2.644  0.00  0.00     0.003 A 
ATOM      3  C3  I4B d   1       2.033   0.709  -2.695  0.00  0.00     0.002 A 
ATOM      4  C4  I4B d   1       1.293   1.472  -1.815  0.00  0.00    -0.004 A 
ATOM      5  C5  I4B d   1       0.518   0.856  -0.837  0.00  0.00     0.002 A 
ATOM      6  C6  I4B d   1       0.458  -0.544  -0.767  0.00  0.00     0.003 A 
ENDROOT
BRANCH   1   7
ATOM      7  C1' I4B d   1       1.053  -2.801  -1.688  0.00  0.00     0.060 C 
BRANCH   7   8
ATOM      8  C2' I4B d   1       1.657  -3.307  -0.394  0.00  0.00    -0.013 C 
ATOM      9  C4' I4B d   1       0.603  -3.896   0.506  0.00  0.00     0.013 C 
ATOM     10  C3' I4B d   1       2.705  -4.322  -0.738  0.00  0.00     0.013 C 
ENDBRANCH   7   8
ENDBRANCH   1   7
TORSDOF 2
ENDMDL
