MODEL 1
REMARK minimizedAffinity -6.5667057
REMARK minimizedRMSD -1
REMARK  2 active torsions:
REMARK  status: ('A' for Active; 'I' for Inactive)
REMARK    1  A    between atoms: C2'_3  and  C1'_4 
REMARK    2  A    between atoms: C1'_4  and  C1_5 
ROOT
ATOM      1  C1  I4B d   1       0.234   0.133  -0.057  0.00  0.00    -0.075 A 
ATOM      2  C2  I4B d   1       0.769   1.320  -0.491  0.00  0.00     0.003 A 
ATOM      3  C3  I4B d   1       1.567   1.357  -1.660  0.00  0.00     0.002 A 
ATOM      4  C4  I4B d   1       1.844   0.183  -2.331  0.00  0.00    -0.004 A 
ATOM      5  C5  I4B d   1       1.281  -1.016  -1.902  0.00  0.00     0.002 A 
ATOM      6  C6  I4B d   1       0.461  -1.039  -0.765  0.00  0.00     0.003 A 
ENDROOT
BRANCH   1   7
ATOM      7  C1' I4B d   1      -0.577   0.126   1.200  0.00  0.00     0.060 C 
BRANCH   7   8
ATOM      8  C2' I4B d   1      -1.451  -1.112   1.184  0.00  0.00    -0.013 C 
ATOM      9  C4' I4B d   1      -1.004  -2.108   2.222  0.00  0.00     0.013 C 
ATOM     10  C3' I4B d   1      -2.868  -0.682   1.422  0.00  0.00     0.013 C 
ENDBRANCH   7   8
ENDBRANCH   1   7
TORSDOF 2
ENDMDL
