MODEL 1
REMARK minimizedAffinity -5.22196293
REMARK minimizedRMSD -1
REMARK  2 active torsions:
REMARK  status: ('A' for Active; 'I' for Inactive)
REMARK    1  A    between atoms: C2'_3  and  C1'_4 
REMARK    2  A    between atoms: C1'_4  and  C1_5 
ROOT
ATOM      1  C1  I4B d   1       0.275  -0.191   0.165  0.00  0.00    -0.075 A 
ATOM      2  C2  I4B d   1       0.721   1.106   0.220  0.00  0.00     0.003 A 
ATOM      3  C3  I4B d   1       1.533   1.624  -0.818  0.00  0.00     0.002 A 
ATOM      4  C4  I4B d   1       1.914   0.802  -1.858  0.00  0.00    -0.004 A 
ATOM      5  C5  I4B d   1       1.441  -0.505  -1.924  0.00  0.00     0.002 A 
ATOM      6  C6  I4B d   1       0.606  -1.002  -0.913  0.00  0.00     0.003 A 
ENDROOT
BRANCH   1   7
ATOM      7  C1' I4B d   1      -0.554  -0.716   1.294  0.00  0.00     0.060 C 
BRANCH   7   8
ATOM      8  C2' I4B d   1      -1.899  -0.020   1.249  0.00  0.00    -0.013 C 
ATOM      9  C4' I4B d   1      -2.994  -0.974   0.852  0.00  0.00     0.013 C 
ATOM     10  C3' I4B d   1      -2.160   0.571   2.603  0.00  0.00     0.013 C 
ENDBRANCH   7   8
ENDBRANCH   1   7
TORSDOF 2
ENDMDL
