MODEL 1
REMARK minimizedAffinity -3.6601193
REMARK minimizedRMSD -1
REMARK  2 active torsions:
REMARK  status: ('A' for Active; 'I' for Inactive)
REMARK    1  A    between atoms: C2'_3  and  C1'_4 
REMARK    2  A    between atoms: C1'_4  and  C1_5 
ROOT
ATOM      1  C1  I4B d   1       0.783   0.365  -0.614  0.00  0.00    -0.075 A 
ATOM      2  C2  I4B d   1       1.581   1.168   0.162  0.00  0.00     0.003 A 
ATOM      3  C3  I4B d   1       2.932   1.392  -0.199  0.00  0.00     0.002 A 
ATOM      4  C4  I4B d   1       3.453   0.758  -1.308  0.00  0.00    -0.004 A 
ATOM      5  C5  I4B d   1       2.637  -0.037  -2.106  0.00  0.00     0.002 A 
ATOM      6  C6  I4B d   1       1.289  -0.225  -1.765  0.00  0.00     0.003 A 
ENDROOT
BRANCH   1   7
ATOM      7  C1' I4B d   1      -0.630   0.123  -0.186  0.00  0.00     0.060 C 
BRANCH   7   8
ATOM      8  C2' I4B d   1      -0.623  -0.175   1.300  0.00  0.00    -0.013 C 
ATOM      9  C4' I4B d   1      -1.811   0.445   1.986  0.00  0.00     0.013 C 
ATOM     10  C3' I4B d   1      -0.613  -1.664   1.473  0.00  0.00     0.013 C 
ENDBRANCH   7   8
ENDBRANCH   1   7
TORSDOF 2
ENDMDL
