MODEL 1
REMARK minimizedAffinity -1.35126638
REMARK minimizedRMSD -1
REMARK  2 active torsions:
REMARK  status: ('A' for Active; 'I' for Inactive)
REMARK    1  A    between atoms: C2'_3  and  C1'_4 
REMARK    2  A    between atoms: C1'_4  and  C1_5 
ROOT
ATOM      1  C1  I4B d   1      -2.086   0.356   1.616  0.00  0.00    -0.075 A 
ATOM      2  C2  I4B d   1      -2.399   1.523   2.267  0.00  0.00     0.003 A 
ATOM      3  C3  I4B d   1      -3.721   2.029   2.227  0.00  0.00     0.002 A 
ATOM      4  C4  I4B d   1      -4.680   1.366   1.488  0.00  0.00    -0.004 A 
ATOM      5  C5  I4B d   1      -4.366   0.170   0.848  0.00  0.00     0.002 A 
ATOM      6  C6  I4B d   1      -3.064  -0.345   0.923  0.00  0.00     0.003 A 
ENDROOT
BRANCH   1   7
ATOM      7  C1' I4B d   1      -0.672  -0.132   1.652  0.00  0.00     0.060 C 
BRANCH   7   8
ATOM      8  C2' I4B d   1      -0.224  -0.370   0.224  0.00  0.00    -0.013 C 
ATOM      9  C4' I4B d   1       0.827   0.625  -0.191  0.00  0.00     0.013 C 
ATOM     10  C3' I4B d   1       0.292  -1.775   0.130  0.00  0.00     0.013 C 
ENDBRANCH   7   8
ENDBRANCH   1   7
TORSDOF 2
ENDMDL
