MODEL 1
REMARK minimizedAffinity -5.1409049
REMARK minimizedRMSD -1
REMARK  2 active torsions:
REMARK  status: ('A' for Active; 'I' for Inactive)
REMARK    1  A    between atoms: C2'_3  and  C1'_4 
REMARK    2  A    between atoms: C1'_4  and  C1_5 
ROOT
ATOM      1  C1  I4B d   1       0.568  -0.307  -0.793  0.00  0.00    -0.075 A 
ATOM      2  C2  I4B d   1       1.448   0.353  -1.614  0.00  0.00     0.003 A 
ATOM      3  C3  I4B d   1       2.029  -0.316  -2.719  0.00  0.00     0.002 A 
ATOM      4  C4  I4B d   1       1.744  -1.649  -2.934  0.00  0.00    -0.004 A 
ATOM      5  C5  I4B d   1       0.834  -2.309  -2.113  0.00  0.00     0.002 A 
ATOM      6  C6  I4B d   1       0.232  -1.631  -1.043  0.00  0.00     0.003 A 
ENDROOT
BRANCH   1   7
ATOM      7  C1' I4B d   1      -0.002   0.420   0.384  0.00  0.00     0.060 C 
BRANCH   7   8
ATOM      8  C2' I4B d   1      -0.955  -0.519   1.096  0.00  0.00    -0.013 C 
ATOM      9  C4' I4B d   1      -0.231  -1.370   2.105  0.00  0.00     0.013 C 
ATOM     10  C3' I4B d   1      -2.019   0.311   1.751  0.00  0.00     0.013 C 
ENDBRANCH   7   8
ENDBRANCH   1   7
TORSDOF 2
ENDMDL
