MODEL 1
REMARK minimizedAffinity -4.33933878
REMARK minimizedRMSD -1
REMARK  2 active torsions:
REMARK  status: ('A' for Active; 'I' for Inactive)
REMARK    1  A    between atoms: C2'_3  and  C1'_4 
REMARK    2  A    between atoms: C1'_4  and  C1_5 
ROOT
ATOM      1  C1  I4B d   1       0.473  -0.421  -1.450  0.00  0.00    -0.075 A 
ATOM      2  C2  I4B d   1       1.020  -1.573  -0.945  0.00  0.00     0.003 A 
ATOM      3  C3  I4B d   1       2.004  -2.277  -1.680  0.00  0.00     0.002 A 
ATOM      4  C4  I4B d   1       2.372  -1.824  -2.931  0.00  0.00    -0.004 A 
ATOM      5  C5  I4B d   1       1.833  -0.643  -3.432  0.00  0.00     0.002 A 
ATOM      6  C6  I4B d   1       0.886   0.070  -2.682  0.00  0.00     0.003 A 
ENDROOT
BRANCH   1   7
ATOM      7  C1' I4B d   1      -0.588   0.280  -0.662  0.00  0.00     0.060 C 
BRANCH   7   8
ATOM      8  C2' I4B d   1      -0.264   0.111   0.809  0.00  0.00    -0.013 C 
ATOM      9  C4' I4B d   1       0.510   1.290   1.336  0.00  0.00     0.013 C 
ATOM     10  C3' I4B d   1      -1.556  -0.064   1.550  0.00  0.00     0.013 C 
ENDBRANCH   7   8
ENDBRANCH   1   7
TORSDOF 2
ENDMDL
