MODEL 1
REMARK minimizedAffinity -5.01362467
REMARK minimizedRMSD -1
REMARK  2 active torsions:
REMARK  status: ('A' for Active; 'I' for Inactive)
REMARK    1  A    between atoms: C2'_3  and  C1'_4 
REMARK    2  A    between atoms: C1'_4  and  C1_5 
ROOT
ATOM      1  C1  I4B d   1       0.203  -0.528   0.162  0.00  0.00    -0.075 A 
ATOM      2  C2  I4B d   1       0.524   0.706  -0.346  0.00  0.00     0.003 A 
ATOM      3  C3  I4B d   1       1.151   0.815  -1.611  0.00  0.00     0.002 A 
ATOM      4  C4  I4B d   1       1.483  -0.330  -2.306  0.00  0.00    -0.004 A 
ATOM      5  C5  I4B d   1       1.136  -1.579  -1.799  0.00  0.00     0.002 A 
ATOM      6  C6  I4B d   1       0.481  -1.679  -0.563  0.00  0.00     0.003 A 
ENDROOT
BRANCH   1   7
ATOM      7  C1' I4B d   1      -0.428  -0.608   1.516  0.00  0.00     0.060 C 
BRANCH   7   8
ATOM      8  C2' I4B d   1      -1.664   0.269   1.507  0.00  0.00    -0.013 C 
ATOM      9  C4' I4B d   1      -2.913  -0.550   1.315  0.00  0.00     0.013 C 
ATOM     10  C3' I4B d   1      -1.705   1.024   2.803  0.00  0.00     0.013 C 
ENDBRANCH   7   8
ENDBRANCH   1   7
TORSDOF 2
ENDMDL
