MODEL 1
REMARK minimizedAffinity -1.286762
REMARK minimizedRMSD -1
REMARK  2 active torsions:
REMARK  status: ('A' for Active; 'I' for Inactive)
REMARK    1  A    between atoms: C2'_3  and  C1'_4 
REMARK    2  A    between atoms: C1'_4  and  C1_5 
ROOT
ATOM      1  C1  I4B d   1      -1.090   0.237   0.183  0.00  0.00    -0.075 A 
ATOM      2  C2  I4B d   1       0.016  -0.270   0.819  0.00  0.00     0.003 A 
ATOM      3  C3  I4B d   1       1.308   0.209   0.491  0.00  0.00     0.002 A 
ATOM      4  C4  I4B d   1       1.451   1.151  -0.507  0.00  0.00    -0.004 A 
ATOM      5  C5  I4B d   1       0.326   1.680  -1.134  0.00  0.00     0.002 A 
ATOM      6  C6  I4B d   1      -0.953   1.230  -0.778  0.00  0.00     0.003 A 
ENDROOT
BRANCH   1   7
ATOM      7  C1' I4B d   1      -2.436  -0.314   0.531  0.00  0.00     0.060 C 
BRANCH   7   8
ATOM      8  C2' I4B d   1      -3.339   0.849   0.889  0.00  0.00    -0.013 C 
ATOM      9  C4' I4B d   1      -4.772   0.556   0.532  0.00  0.00     0.013 C 
ATOM     10  C3' I4B d   1      -3.190   1.115   2.358  0.00  0.00     0.013 C 
ENDBRANCH   7   8
ENDBRANCH   1   7
TORSDOF 2
ENDMDL
