MODEL 1
REMARK minimizedAffinity -6.29893541
REMARK minimizedRMSD -1
REMARK  2 active torsions:
REMARK  status: ('A' for Active; 'I' for Inactive)
REMARK    1  A    between atoms: C2'_3  and  C1'_4 
REMARK    2  A    between atoms: C1'_4  and  C1_5 
ROOT
ATOM      1  C1  I4B d   1       0.768   0.021  -0.925  0.00  0.00    -0.075 A 
ATOM      2  C2  I4B d   1       1.526   0.903  -1.655  0.00  0.00     0.003 A 
ATOM      3  C3  I4B d   1       2.253   0.453  -2.783  0.00  0.00     0.002 A 
ATOM      4  C4  I4B d   1       2.234  -0.887  -3.114  0.00  0.00    -0.004 A 
ATOM      5  C5  I4B d   1       1.446  -1.775  -2.387  0.00  0.00     0.002 A 
ATOM      6  C6  I4B d   1       0.699  -1.316  -1.293  0.00  0.00     0.003 A 
ENDROOT
BRANCH   1   7
ATOM      7  C1' I4B d   1       0.039   0.524   0.281  0.00  0.00     0.060 C 
BRANCH   7   8
ATOM      8  C2' I4B d   1      -0.821  -0.606   0.811  0.00  0.00    -0.013 C 
ATOM      9  C4' I4B d   1      -0.018  -1.542   1.676  0.00  0.00     0.013 C 
ATOM     10  C3' I4B d   1      -1.958  -0.001   1.579  0.00  0.00     0.013 C 
ENDBRANCH   7   8
ENDBRANCH   1   7
TORSDOF 2
ENDMDL
