MODEL 1
REMARK minimizedAffinity -4.27198696
REMARK minimizedRMSD -1
REMARK  2 active torsions:
REMARK  status: ('A' for Active; 'I' for Inactive)
REMARK    1  A    between atoms: C2'_3  and  C1'_4 
REMARK    2  A    between atoms: C1'_4  and  C1_5 
ROOT
ATOM      1  C1  I4B d   1       0.066  -0.481  -0.215  0.00  0.00    -0.075 A 
ATOM      2  C2  I4B d   1       0.401  -1.621  -0.903  0.00  0.00     0.003 A 
ATOM      3  C3  I4B d   1       1.134  -1.534  -2.112  0.00  0.00     0.002 A 
ATOM      4  C4  I4B d   1       1.464  -0.294  -2.619  0.00  0.00    -0.004 A 
ATOM      5  C5  I4B d   1       1.143   0.859  -1.908  0.00  0.00     0.002 A 
ATOM      6  C6  I4B d   1       0.450   0.765  -0.692  0.00  0.00     0.003 A 
ENDROOT
BRANCH   1   7
ATOM      7  C1' I4B d   1      -0.737  -0.608   1.041  0.00  0.00     0.060 C 
BRANCH   7   8
ATOM      8  C2' I4B d   1      -1.732   0.534   1.076  0.00  0.00    -0.013 C 
ATOM      9  C4' I4B d   1      -3.075   0.103   0.547  0.00  0.00     0.013 C 
ATOM     10  C3' I4B d   1      -1.836   1.014   2.493  0.00  0.00     0.013 C 
ENDBRANCH   7   8
ENDBRANCH   1   7
TORSDOF 2
ENDMDL
