MODEL 1
REMARK minimizedAffinity -3.44458294
REMARK minimizedRMSD -1
REMARK  0 active torsions:
REMARK  status: ('A' for Active; 'I' for Inactive)
ROOT
ATOM      1  C   UNL d   1      -0.056   0.320   0.766  0.00  0.00     0.172 C 
ATOM      2  N   UNL d   1       1.101  -0.466   1.124  0.00  0.00    -0.070 N 
ATOM      3  C1  UNL d   1       2.089  -0.871   0.267  0.00  0.00    -0.004 A 
ATOM      4  C2  UNL d   1       3.009  -1.596   0.993  0.00  0.00    -0.047 A 
ATOM      5  C3  UNL d   1       2.558  -1.629   2.334  0.00  0.00    -0.047 A 
ATOM      6  C4  UNL d   1       1.375  -0.922   2.387  0.00  0.00    -0.004 A 
ENDROOT
TORSDOF 0
ENDMDL
