MODEL 1
REMARK minimizedAffinity -2.33465433
REMARK minimizedRMSD -1
REMARK  0 active torsions:
REMARK  status: ('A' for Active; 'I' for Inactive)
ROOT
ATOM      1  C   UNL d   1      -0.693   0.835  -1.534  0.00  0.00     0.172 C 
ATOM      2  N   UNL d   1      -0.291   0.469  -0.196  0.00  0.00    -0.070 N 
ATOM      3  C1  UNL d   1       0.969   0.598   0.323  0.00  0.00    -0.004 A 
ATOM      4  C2  UNL d   1       0.940   0.140   1.622  0.00  0.00    -0.047 A 
ATOM      5  C3  UNL d   1      -0.383  -0.280   1.894  0.00  0.00    -0.047 A 
ATOM      6  C4  UNL d   1      -1.125  -0.065   0.751  0.00  0.00    -0.004 A 
ENDROOT
TORSDOF 0
ENDMDL
