MODEL 1
REMARK minimizedAffinity -3.664361
REMARK minimizedRMSD -1
REMARK  0 active torsions:
REMARK  status: ('A' for Active; 'I' for Inactive)
ROOT
ATOM      1  C   UNL d   1      -0.429   0.296  -1.155  0.00  0.00     0.172 C 
ATOM      2  N   UNL d   1      -0.088  -0.057   0.203  0.00  0.00    -0.070 N 
ATOM      3  C1  UNL d   1      -0.957  -0.540   1.145  0.00  0.00    -0.004 A 
ATOM      4  C2  UNL d   1      -0.245  -0.752   2.306  0.00  0.00    -0.047 A 
ATOM      5  C3  UNL d   1       1.097  -0.383   2.053  0.00  0.00    -0.047 A 
ATOM      6  C4  UNL d   1       1.167   0.044   0.744  0.00  0.00    -0.004 A 
ENDROOT
TORSDOF 0
ENDMDL
