MODEL 1
REMARK minimizedAffinity -1.1529206
REMARK minimizedRMSD -1
REMARK  0 active torsions:
REMARK  status: ('A' for Active; 'I' for Inactive)
ROOT
ATOM      1  C   UNL d   1       0.029  -0.426  -1.961  0.00  0.00     0.172 C 
ATOM      2  N   UNL d   1       0.321  -0.451  -0.547  0.00  0.00    -0.070 N 
ATOM      3  C1  UNL d   1      -0.606  -0.441   0.460  0.00  0.00    -0.004 A 
ATOM      4  C2  UNL d   1       0.073  -0.473   1.659  0.00  0.00    -0.047 A 
ATOM      5  C3  UNL d   1       1.456  -0.502   1.362  0.00  0.00    -0.047 A 
ATOM      6  C4  UNL d   1       1.582  -0.487  -0.011  0.00  0.00    -0.004 A 
ENDROOT
TORSDOF 0
ENDMDL
