MODEL 1
REMARK minimizedAffinity -3.7380228
REMARK minimizedRMSD -1
REMARK  0 active torsions:
REMARK  status: ('A' for Active; 'I' for Inactive)
ROOT
ATOM      1  C   UNL d   1      -0.240   0.646  -1.161  0.00  0.00     0.172 C 
ATOM      2  N   UNL d   1       0.031   0.109   0.152  0.00  0.00    -0.070 N 
ATOM      3  C1  UNL d   1       1.125   0.399   0.923  0.00  0.00    -0.004 A 
ATOM      4  C2  UNL d   1       1.013  -0.311   2.098  0.00  0.00    -0.047 A 
ATOM      5  C3  UNL d   1      -0.189  -1.055   2.031  0.00  0.00    -0.047 A 
ATOM      6  C4  UNL d   1      -0.777  -0.776   0.816  0.00  0.00    -0.004 A 
ENDROOT
TORSDOF 0
ENDMDL
