MODEL 1
REMARK minimizedAffinity -3.80362272
REMARK minimizedRMSD -1
REMARK  0 active torsions:
REMARK  status: ('A' for Active; 'I' for Inactive)
ROOT
ATOM      1  C   UNL d   1      -0.310   0.363  -1.056  0.00  0.00     0.172 C 
ATOM      2  N   UNL d   1       0.265  -0.052   0.202  0.00  0.00    -0.070 N 
ATOM      3  C1  UNL d   1       1.558  -0.463   0.392  0.00  0.00    -0.004 A 
ATOM      4  C2  UNL d   1       1.711  -0.771   1.726  0.00  0.00    -0.047 A 
ATOM      5  C3  UNL d   1       0.467  -0.537   2.360  0.00  0.00    -0.047 A 
ATOM      6  C4  UNL d   1      -0.409  -0.093   1.393  0.00  0.00    -0.004 A 
ENDROOT
TORSDOF 0
ENDMDL
