MODEL 1
REMARK minimizedAffinity 12.970892
REMARK minimizedRMSD -1
REMARK  2 active torsions:
REMARK  status: ('A' for Active; 'I' for Inactive)
REMARK    1  A    between atoms: C1_2  and  C2_3 
REMARK    2  A    between atoms: C2_3  and  C3_4 
ROOT
ATOM      1  C3  UNL d   1       5.067   3.849   4.059  0.00  0.00    -0.075 A 
ATOM      2  C4  UNL d   1       3.935   3.839   4.888  0.00  0.00     0.002 A 
ATOM      3  C5  UNL d   1       3.679   4.906   5.750  0.00  0.00     0.002 A 
ATOM      4  C6  UNL d   1       4.555   5.988   5.804  0.00  0.00    -0.004 A 
ATOM      5  C7  UNL d   1       5.692   6.000   4.998  0.00  0.00     0.002 A 
ATOM      6  C8  UNL d   1       5.947   4.936   4.130  0.00  0.00     0.002 A 
ENDROOT
BRANCH   1   7
ATOM      7  C2  UNL d   1       5.333   2.712   3.102  0.00  0.00     0.056 C 
BRANCH   7   8
ATOM      8  C1  UNL d   1       5.999   1.494   3.751  0.00  0.00     0.007 C 
ATOM      9  C   UNL d   1       5.018   0.376   4.078  0.00  0.00     0.009 C 
ENDBRANCH   7   8
ENDBRANCH   1   7
TORSDOF 2
ENDMDL
