MODEL 1
REMARK minimizedAffinity 10.718709
REMARK minimizedRMSD -1
REMARK  2 active torsions:
REMARK  status: ('A' for Active; 'I' for Inactive)
REMARK    1  A    between atoms: C1_2  and  C2_3 
REMARK    2  A    between atoms: C2_3  and  C3_4 
ROOT
ATOM      1  C3  UNL d   1      -1.386  -3.122   2.075  0.00  0.00    -0.075 A 
ATOM      2  C4  UNL d   1      -0.533  -3.856   1.238  0.00  0.00     0.002 A 
ATOM      3  C5  UNL d   1      -0.428  -3.541  -0.117  0.00  0.00     0.002 A 
ATOM      4  C6  UNL d   1      -1.180  -2.498  -0.654  0.00  0.00    -0.004 A 
ATOM      5  C7  UNL d   1      -2.042  -1.773   0.166  0.00  0.00     0.002 A 
ATOM      6  C8  UNL d   1      -2.146  -2.083   1.523  0.00  0.00     0.002 A 
ENDROOT
BRANCH   1   7
ATOM      7  C2  UNL d   1      -1.482  -3.439   3.548  0.00  0.00     0.056 C 
BRANCH   7   8
ATOM      8  C1  UNL d   1      -1.990  -2.275   4.405  0.00  0.00     0.007 C 
ATOM      9  C   UNL d   1      -1.071  -1.943   5.573  0.00  0.00     0.009 C 
ENDBRANCH   7   8
ENDBRANCH   1   7
TORSDOF 2
ENDMDL
