MODEL 1
REMARK minimizedAffinity 6.08451271
REMARK minimizedRMSD -1
REMARK  2 active torsions:
REMARK  status: ('A' for Active; 'I' for Inactive)
REMARK    1  A    between atoms: C1_2  and  C2_3 
REMARK    2  A    between atoms: C2_3  and  C3_4 
ROOT
ATOM      1  C3  UNL d   1      -1.615  -2.757   1.525  0.00  0.00    -0.075 A 
ATOM      2  C4  UNL d   1      -1.830  -1.533   0.873  0.00  0.00     0.002 A 
ATOM      3  C5  UNL d   1      -1.791  -1.456  -0.519  0.00  0.00     0.002 A 
ATOM      4  C6  UNL d   1      -1.527  -2.596  -1.276  0.00  0.00    -0.004 A 
ATOM      5  C7  UNL d   1      -1.295  -3.813  -0.639  0.00  0.00     0.002 A 
ATOM      6  C8  UNL d   1      -1.338  -3.894   0.754  0.00  0.00     0.002 A 
ENDROOT
BRANCH   1   7
ATOM      7  C2  UNL d   1      -1.685  -2.853   3.030  0.00  0.00     0.056 C 
BRANCH   7   8
ATOM      8  C1  UNL d   1      -1.394  -1.534   3.754  0.00  0.00     0.007 C 
ATOM      9  C   UNL d   1      -0.843  -1.729   5.160  0.00  0.00     0.009 C 
ENDBRANCH   7   8
ENDBRANCH   1   7
TORSDOF 2
ENDMDL
