MODEL 1
REMARK minimizedAffinity 12.9164438
REMARK minimizedRMSD -1
REMARK  2 active torsions:
REMARK  status: ('A' for Active; 'I' for Inactive)
REMARK    1  A    between atoms: C1_2  and  C2_3 
REMARK    2  A    between atoms: C2_3  and  C3_4 
ROOT
ATOM      1  C3  UNL d   1       4.066   2.038   2.124  0.00  0.00    -0.075 A 
ATOM      2  C4  UNL d   1       5.339   1.545   1.803  0.00  0.00     0.002 A 
ATOM      3  C5  UNL d   1       5.899   1.792   0.549  0.00  0.00     0.002 A 
ATOM      4  C6  UNL d   1       5.191   2.525  -0.401  0.00  0.00    -0.004 A 
ATOM      5  C7  UNL d   1       3.919   3.005  -0.099  0.00  0.00     0.002 A 
ATOM      6  C8  UNL d   1       3.358   2.763   1.157  0.00  0.00     0.002 A 
ENDROOT
BRANCH   1   7
ATOM      7  C2  UNL d   1       3.467   1.799   3.489  0.00  0.00     0.056 C 
BRANCH   7   8
ATOM      8  C1  UNL d   1       2.978   3.072   4.188  0.00  0.00     0.007 C 
ATOM      9  C   UNL d   1       3.699   3.353   5.499  0.00  0.00     0.009 C 
ENDBRANCH   7   8
ENDBRANCH   1   7
TORSDOF 2
ENDMDL
