MODEL 1
REMARK minimizedAffinity 13.3806238
REMARK minimizedRMSD -1
REMARK  2 active torsions:
REMARK  status: ('A' for Active; 'I' for Inactive)
REMARK    1  A    between atoms: C1_2  and  C2_3 
REMARK    2  A    between atoms: C2_3  and  C3_4 
ROOT
ATOM      1  C3  UNL d   1      -2.285  -1.412  -1.182  0.00  0.00    -0.075 A 
ATOM      2  C4  UNL d   1      -3.144  -0.976  -0.162  0.00  0.00     0.002 A 
ATOM      3  C5  UNL d   1      -3.088  -1.553   1.106  0.00  0.00     0.002 A 
ATOM      4  C6  UNL d   1      -2.182  -2.579   1.369  0.00  0.00    -0.004 A 
ATOM      5  C7  UNL d   1      -1.336  -3.031   0.359  0.00  0.00     0.002 A 
ATOM      6  C8  UNL d   1      -1.386  -2.452  -0.910  0.00  0.00     0.002 A 
ENDROOT
BRANCH   1   7
ATOM      7  C2  UNL d   1      -2.320  -0.770  -2.548  0.00  0.00     0.056 C 
BRANCH   7   8
ATOM      8  C1  UNL d   1      -1.459  -1.485  -3.595  0.00  0.00     0.007 C 
ATOM      9  C   UNL d   1      -2.278  -2.154  -4.691  0.00  0.00     0.009 C 
ENDBRANCH   7   8
ENDBRANCH   1   7
TORSDOF 2
ENDMDL
