MODEL 1
REMARK minimizedAffinity 6.02457571
REMARK minimizedRMSD -1
REMARK  2 active torsions:
REMARK  status: ('A' for Active; 'I' for Inactive)
REMARK    1  A    between atoms: C1_2  and  C2_3 
REMARK    2  A    between atoms: C2_3  and  C3_4 
ROOT
ATOM      1  C3  UNL d   1      -1.653  -2.398   0.289  0.00  0.00    -0.075 A 
ATOM      2  C4  UNL d   1      -1.374  -2.591  -1.072  0.00  0.00     0.002 A 
ATOM      3  C5  UNL d   1      -0.717  -3.743  -1.504  0.00  0.00     0.002 A 
ATOM      4  C6  UNL d   1      -0.323  -4.711  -0.582  0.00  0.00    -0.004 A 
ATOM      5  C7  UNL d   1      -0.581  -4.522   0.774  0.00  0.00     0.002 A 
ATOM      6  C8  UNL d   1      -1.242  -3.372   1.208  0.00  0.00     0.002 A 
ENDROOT
BRANCH   1   7
ATOM      7  C2  UNL d   1      -2.390  -1.167   0.759  0.00  0.00     0.056 C 
BRANCH   7   8
ATOM      8  C1  UNL d   1      -3.835  -1.074   0.257  0.00  0.00     0.007 C 
ATOM      9  C   UNL d   1      -4.750  -2.130   0.863  0.00  0.00     0.009 C 
ENDBRANCH   7   8
ENDBRANCH   1   7
TORSDOF 2
ENDMDL
