MODEL 1
REMARK minimizedAffinity 10.433341
REMARK minimizedRMSD -1
REMARK  2 active torsions:
REMARK  status: ('A' for Active; 'I' for Inactive)
REMARK    1  A    between atoms: C1_2  and  C2_3 
REMARK    2  A    between atoms: C2_3  and  C3_4 
ROOT
ATOM      1  C3  UNL d   1      -3.037  -1.002   5.646  0.00  0.00    -0.075 A 
ATOM      2  C4  UNL d   1      -1.690  -0.837   6.000  0.00  0.00     0.002 A 
ATOM      3  C5  UNL d   1      -0.742  -1.798   5.647  0.00  0.00     0.002 A 
ATOM      4  C6  UNL d   1      -1.128  -2.939   4.948  0.00  0.00    -0.004 A 
ATOM      5  C7  UNL d   1      -2.466  -3.121   4.606  0.00  0.00     0.002 A 
ATOM      6  C8  UNL d   1      -3.417  -2.159   4.953  0.00  0.00     0.002 A 
ENDROOT
BRANCH   1   7
ATOM      7  C2  UNL d   1      -4.063   0.048   5.998  0.00  0.00     0.056 C 
BRANCH   7   8
ATOM      8  C1  UNL d   1      -3.618   1.482   5.691  0.00  0.00     0.007 C 
ATOM      9  C   UNL d   1      -4.688   2.521   6.000  0.00  0.00     0.009 C 
ENDBRANCH   7   8
ENDBRANCH   1   7
TORSDOF 2
ENDMDL
