MODEL 1
REMARK minimizedAffinity 10.0843878
REMARK minimizedRMSD -1
REMARK  2 active torsions:
REMARK  status: ('A' for Active; 'I' for Inactive)
REMARK    1  A    between atoms: C1_2  and  C2_3 
REMARK    2  A    between atoms: C2_3  and  C3_4 
ROOT
ATOM      1  C3  UNL d   1       3.581   2.456   0.263  0.00  0.00    -0.075 A 
ATOM      2  C4  UNL d   1       3.500   1.135   0.725  0.00  0.00     0.002 A 
ATOM      3  C5  UNL d   1       2.790   0.174   0.003  0.00  0.00     0.002 A 
ATOM      4  C6  UNL d   1       2.146   0.524  -1.182  0.00  0.00    -0.004 A 
ATOM      5  C7  UNL d   1       2.207   1.838  -1.642  0.00  0.00     0.002 A 
ATOM      6  C8  UNL d   1       2.919   2.800  -0.924  0.00  0.00     0.002 A 
ENDROOT
BRANCH   1   7
ATOM      7  C2  UNL d   1       4.372   3.494   1.024  0.00  0.00     0.056 C 
BRANCH   7   8
ATOM      8  C1  UNL d   1       4.845   4.671   0.165  0.00  0.00     0.007 C 
ATOM      9  C   UNL d   1       4.841   5.999   0.912  0.00  0.00     0.009 C 
ENDBRANCH   7   8
ENDBRANCH   1   7
TORSDOF 2
ENDMDL
