MODEL 1
REMARK minimizedAffinity 7.69658422
REMARK minimizedRMSD -1
REMARK  2 active torsions:
REMARK  status: ('A' for Active; 'I' for Inactive)
REMARK    1  A    between atoms: C1_2  and  C2_3 
REMARK    2  A    between atoms: C2_3  and  C3_4 
ROOT
ATOM      1  C3  UNL d   1       3.737   0.380  -2.569  0.00  0.00    -0.075 A 
ATOM      2  C4  UNL d   1       3.906   0.033  -1.220  0.00  0.00     0.002 A 
ATOM      3  C5  UNL d   1       3.094   0.598  -0.236  0.00  0.00     0.002 A 
ATOM      4  C6  UNL d   1       2.112   1.521  -0.585  0.00  0.00    -0.004 A 
ATOM      5  C7  UNL d   1       1.945   1.886  -1.920  0.00  0.00     0.002 A 
ATOM      6  C8  UNL d   1       2.754   1.319  -2.907  0.00  0.00     0.002 A 
ENDROOT
BRANCH   1   7
ATOM      7  C2  UNL d   1       4.593  -0.250  -3.642  0.00  0.00     0.056 C 
BRANCH   7   8
ATOM      8  C1  UNL d   1       6.000   0.347  -3.747  0.00  0.00     0.007 C 
ATOM      9  C   UNL d   1       6.000   1.822  -4.123  0.00  0.00     0.009 C 
ENDBRANCH   7   8
ENDBRANCH   1   7
TORSDOF 2
ENDMDL
