MODEL 1
REMARK minimizedAffinity 6.12045145
REMARK minimizedRMSD -1
REMARK  2 active torsions:
REMARK  status: ('A' for Active; 'I' for Inactive)
REMARK    1  A    between atoms: C1_2  and  C2_3 
REMARK    2  A    between atoms: C2_3  and  C3_4 
ROOT
ATOM      1  C3  UNL d   1      -3.705  -0.195   5.682  0.00  0.00    -0.075 A 
ATOM      2  C4  UNL d   1      -2.999   1.017   5.666  0.00  0.00     0.002 A 
ATOM      3  C5  UNL d   1      -3.669   2.230   5.827  0.00  0.00     0.002 A 
ATOM      4  C6  UNL d   1      -5.051   2.248   5.996  0.00  0.00    -0.004 A 
ATOM      5  C7  UNL d   1      -5.765   1.052   5.998  0.00  0.00     0.002 A 
ATOM      6  C8  UNL d   1      -5.097  -0.164   5.841  0.00  0.00     0.002 A 
ENDROOT
BRANCH   1   7
ATOM      7  C2  UNL d   1      -2.982  -1.512   5.538  0.00  0.00     0.056 C 
BRANCH   7   8
ATOM      8  C1  UNL d   1      -1.522  -1.477   6.000  0.00  0.00     0.007 C 
ATOM      9  C   UNL d   1      -0.740  -2.726   5.616  0.00  0.00     0.009 C 
ENDBRANCH   7   8
ENDBRANCH   1   7
TORSDOF 2
ENDMDL
