MODEL 1
REMARK minimizedAffinity 9.11105156
REMARK minimizedRMSD -1
REMARK  2 active torsions:
REMARK  status: ('A' for Active; 'I' for Inactive)
REMARK    1  A    between atoms: C1_2  and  C2_3 
REMARK    2  A    between atoms: C2_3  and  C3_4 
ROOT
ATOM      1  C3  UNL d   1      -1.902  -3.250   2.457  0.00  0.00    -0.075 A 
ATOM      2  C4  UNL d   1      -1.341  -4.453   2.004  0.00  0.00     0.002 A 
ATOM      3  C5  UNL d   1      -0.861  -4.562   0.699  0.00  0.00     0.002 A 
ATOM      4  C6  UNL d   1      -0.945  -3.477  -0.171  0.00  0.00    -0.004 A 
ATOM      5  C7  UNL d   1      -1.516  -2.283   0.263  0.00  0.00     0.002 A 
ATOM      6  C8  UNL d   1      -1.993  -2.169   1.570  0.00  0.00     0.002 A 
ENDROOT
BRANCH   1   7
ATOM      7  C2  UNL d   1      -2.397  -3.116   3.878  0.00  0.00     0.056 C 
BRANCH   7   8
ATOM      8  C1  UNL d   1      -1.957  -1.822   4.572  0.00  0.00     0.007 C 
ATOM      9  C   UNL d   1      -1.438  -2.045   5.986  0.00  0.00     0.009 C 
ENDBRANCH   7   8
ENDBRANCH   1   7
TORSDOF 2
ENDMDL
