MODEL 1
REMARK minimizedAffinity 4.4274168
REMARK minimizedRMSD -1
REMARK  2 active torsions:
REMARK  status: ('A' for Active; 'I' for Inactive)
REMARK    1  A    between atoms: C1_2  and  C2_3 
REMARK    2  A    between atoms: C2_3  and  C3_4 
ROOT
ATOM      1  C3  UNL d   1      -3.776   3.948  -4.973  0.00  0.00    -0.075 A 
ATOM      2  C4  UNL d   1      -3.848   5.156  -4.263  0.00  0.00     0.002 A 
ATOM      3  C5  UNL d   1      -4.949   6.000  -4.411  0.00  0.00     0.002 A 
ATOM      4  C6  UNL d   1      -5.985   5.654  -5.277  0.00  0.00    -0.004 A 
ATOM      5  C7  UNL d   1      -5.916   4.465  -6.000  0.00  0.00     0.002 A 
ATOM      6  C8  UNL d   1      -4.818   3.616  -5.850  0.00  0.00     0.002 A 
ENDROOT
BRANCH   1   7
ATOM      7  C2  UNL d   1      -2.602   3.016  -4.795  0.00  0.00     0.056 C 
BRANCH   7   8
ATOM      8  C1  UNL d   1      -1.253   3.731  -4.659  0.00  0.00     0.007 C 
ATOM      9  C   UNL d   1      -0.546   3.939  -5.992  0.00  0.00     0.009 C 
ENDBRANCH   7   8
ENDBRANCH   1   7
TORSDOF 2
ENDMDL
