MODEL 1
REMARK minimizedAffinity 8.08772087
REMARK minimizedRMSD -1
REMARK  2 active torsions:
REMARK  status: ('A' for Active; 'I' for Inactive)
REMARK    1  A    between atoms: C1_2  and  C2_3 
REMARK    2  A    between atoms: C2_3  and  C3_4 
ROOT
ATOM      1  C3  UNL d   1      -3.460  -1.082   5.534  0.00  0.00    -0.075 A 
ATOM      2  C4  UNL d   1      -3.855  -2.306   4.975  0.00  0.00     0.002 A 
ATOM      3  C5  UNL d   1      -2.902  -3.244   4.580  0.00  0.00     0.002 A 
ATOM      4  C6  UNL d   1      -1.545  -2.968   4.728  0.00  0.00    -0.004 A 
ATOM      5  C7  UNL d   1      -1.141  -1.748   5.267  0.00  0.00     0.002 A 
ATOM      6  C8  UNL d   1      -2.092  -0.809   5.668  0.00  0.00     0.002 A 
ENDROOT
BRANCH   1   7
ATOM      7  C2  UNL d   1      -4.488  -0.074   5.991  0.00  0.00     0.056 C 
BRANCH   7   8
ATOM      8  C1  UNL d   1      -4.002   1.379   5.943  0.00  0.00     0.007 C 
ATOM      9  C   UNL d   1      -5.136   2.394   5.996  0.00  0.00     0.009 C 
ENDBRANCH   7   8
ENDBRANCH   1   7
TORSDOF 2
ENDMDL
