MODEL 1
REMARK minimizedAffinity 3.17769885
REMARK minimizedRMSD -1
REMARK  2 active torsions:
REMARK  status: ('A' for Active; 'I' for Inactive)
REMARK    1  A    between atoms: C1_2  and  C2_3 
REMARK    2  A    between atoms: C2_3  and  C3_4 
ROOT
ATOM      1  C3  UNL d   1      -3.541   4.242  -4.740  0.00  0.00    -0.075 A 
ATOM      2  C4  UNL d   1      -3.967   5.562  -4.533  0.00  0.00     0.002 A 
ATOM      3  C5  UNL d   1      -5.190   6.000  -5.042  0.00  0.00     0.002 A 
ATOM      4  C6  UNL d   1      -5.996   5.129  -5.772  0.00  0.00    -0.004 A 
ATOM      5  C7  UNL d   1      -5.575   3.820  -5.997  0.00  0.00     0.002 A 
ATOM      6  C8  UNL d   1      -4.354   3.378  -5.485  0.00  0.00     0.002 A 
ENDROOT
BRANCH   1   7
ATOM      7  C2  UNL d   1      -2.232   3.754  -4.167  0.00  0.00     0.056 C 
BRANCH   7   8
ATOM      8  C1  UNL d   1      -1.501   2.742  -5.055  0.00  0.00     0.007 C 
ATOM      9  C   UNL d   1      -0.068   3.147  -5.374  0.00  0.00     0.009 C 
ENDBRANCH   7   8
ENDBRANCH   1   7
TORSDOF 2
ENDMDL
