MODEL 1
REMARK minimizedAffinity 5.50200367
REMARK minimizedRMSD -1
REMARK  2 active torsions:
REMARK  status: ('A' for Active; 'I' for Inactive)
REMARK    1  A    between atoms: C1_2  and  C2_3 
REMARK    2  A    between atoms: C2_3  and  C3_4 
ROOT
ATOM      1  C3  UNL d   1      -0.011  -0.663  -2.053  0.00  0.00    -0.075 A 
ATOM      2  C4  UNL d   1      -0.948  -0.333  -3.043  0.00  0.00     0.002 A 
ATOM      3  C5  UNL d   1      -2.314  -0.474  -2.801  0.00  0.00     0.002 A 
ATOM      4  C6  UNL d   1      -2.761  -0.955  -1.572  0.00  0.00    -0.004 A 
ATOM      5  C7  UNL d   1      -1.839  -1.302  -0.587  0.00  0.00     0.002 A 
ATOM      6  C8  UNL d   1      -0.471  -1.158  -0.825  0.00  0.00     0.002 A 
ENDROOT
BRANCH   1   7
ATOM      7  C2  UNL d   1       1.468  -0.485  -2.298  0.00  0.00     0.056 C 
BRANCH   7   8
ATOM      8  C1  UNL d   1       2.041   0.820  -1.736  0.00  0.00     0.007 C 
ATOM      9  C   UNL d   1       2.990   1.523  -2.698  0.00  0.00     0.009 C 
ENDBRANCH   7   8
ENDBRANCH   1   7
TORSDOF 2
ENDMDL
