MODEL 1
REMARK minimizedAffinity 17.1489105
REMARK minimizedRMSD -1
REMARK  2 active torsions:
REMARK  status: ('A' for Active; 'I' for Inactive)
REMARK    1  A    between atoms: C1_2  and  C2_3 
REMARK    2  A    between atoms: C2_3  and  C3_4 
ROOT
ATOM      1  C3  UNL d   1      -2.537  -1.136  -0.341  0.00  0.00    -0.075 A 
ATOM      2  C4  UNL d   1      -2.779  -0.769  -1.672  0.00  0.00     0.002 A 
ATOM      3  C5  UNL d   1      -1.894  -1.147  -2.683  0.00  0.00     0.002 A 
ATOM      4  C6  UNL d   1      -0.755  -1.886  -2.375  0.00  0.00    -0.004 A 
ATOM      5  C7  UNL d   1      -0.496  -2.242  -1.053  0.00  0.00     0.002 A 
ATOM      6  C8  UNL d   1      -1.381  -1.869  -0.040  0.00  0.00     0.002 A 
ENDROOT
BRANCH   1   7
ATOM      7  C2  UNL d   1      -3.505  -0.755   0.754  0.00  0.00     0.056 C 
BRANCH   7   8
ATOM      8  C1  UNL d   1      -4.686  -1.720   0.906  0.00  0.00     0.007 C 
ATOM      9  C   UNL d   1      -6.000  -1.146   0.392  0.00  0.00     0.009 C 
ENDBRANCH   7   8
ENDBRANCH   1   7
TORSDOF 2
ENDMDL
