MODEL 1
REMARK minimizedAffinity 3.98372436
REMARK minimizedRMSD -1
REMARK  0 active torsions:
REMARK  status: ('A' for Active; 'I' for Inactive)
ROOT
ATOM      1  C   UNL d   1       5.004   5.853  -1.505  0.00  0.00     0.077 C 
ATOM      2  C1  UNL d   1       4.979   5.449  -2.949  0.00  0.00    -0.074 A 
ATOM      3  C2  UNL d   1       5.978   4.627  -3.483  0.00  0.00    -0.005 A 
ATOM      4  C3  UNL d   1       5.936   4.252  -4.826  0.00  0.00     0.006 A 
ATOM      5  C4  UNL d   1       4.899   4.694  -5.647  0.00  0.00    -0.005 A 
ATOM      6  C5  UNL d   1       3.891   5.515  -5.131  0.00  0.00    -0.074 A 
ATOM      7  C6  UNL d   1       2.763   5.990  -5.998  0.00  0.00     0.077 C 
ATOM      8  C7  UNL d   1       3.936   5.882  -3.779  0.00  0.00    -0.001 A 
ENDROOT
TORSDOF 0
ENDMDL
