MODEL 1
REMARK minimizedAffinity 0.448480815
REMARK minimizedRMSD -1
REMARK  0 active torsions:
REMARK  status: ('A' for Active; 'I' for Inactive)
ROOT
ATOM      1  C   UNL d   1       1.722   4.124  -2.614  0.00  0.00     0.077 C 
ATOM      2  C1  UNL d   1       3.214   4.256  -2.691  0.00  0.00    -0.074 A 
ATOM      3  C2  UNL d   1       3.939   3.633  -3.712  0.00  0.00    -0.005 A 
ATOM      4  C3  UNL d   1       5.325   3.773  -3.776  0.00  0.00     0.006 A 
ATOM      5  C4  UNL d   1       6.000   4.536  -2.822  0.00  0.00    -0.005 A 
ATOM      6  C5  UNL d   1       5.292   5.168  -1.795  0.00  0.00    -0.074 A 
ATOM      7  C6  UNL d   1       6.000   6.000  -0.767  0.00  0.00     0.077 C 
ATOM      8  C7  UNL d   1       3.898   5.028  -1.741  0.00  0.00    -0.001 A 
ENDROOT
TORSDOF 0
ENDMDL
