MODEL 1
REMARK minimizedAffinity 5.25400925
REMARK minimizedRMSD -1
REMARK  0 active torsions:
REMARK  status: ('A' for Active; 'I' for Inactive)
ROOT
ATOM      1  C   UNL d   1       5.520   5.963  -1.345  0.00  0.00     0.077 C 
ATOM      2  C1  UNL d   1       5.216   5.532  -2.749  0.00  0.00    -0.074 A 
ATOM      3  C2  UNL d   1       5.983   5.993  -3.824  0.00  0.00    -0.005 A 
ATOM      4  C3  UNL d   1       5.695   5.576  -5.124  0.00  0.00     0.006 A 
ATOM      5  C4  UNL d   1       4.638   4.696  -5.361  0.00  0.00    -0.005 A 
ATOM      6  C5  UNL d   1       3.861   4.224  -4.299  0.00  0.00    -0.074 A 
ATOM      7  C6  UNL d   1       2.728   3.270  -4.535  0.00  0.00     0.077 C 
ATOM      8  C7  UNL d   1       4.162   4.642  -2.995  0.00  0.00    -0.001 A 
ENDROOT
TORSDOF 0
ENDMDL
