MODEL 1
REMARK minimizedAffinity 2.30664563
REMARK minimizedRMSD -1
REMARK  0 active torsions:
REMARK  status: ('A' for Active; 'I' for Inactive)
ROOT
ATOM      1  C   UNL d   1       1.986   6.000  -3.377  0.00  0.00     0.077 C 
ATOM      2  C1  UNL d   1       3.388   5.473  -3.298  0.00  0.00    -0.074 A 
ATOM      3  C2  UNL d   1       4.130   5.578  -2.116  0.00  0.00    -0.005 A 
ATOM      4  C3  UNL d   1       5.429   5.075  -2.054  0.00  0.00     0.006 A 
ATOM      5  C4  UNL d   1       6.000   4.463  -3.172  0.00  0.00    -0.005 A 
ATOM      6  C5  UNL d   1       5.273   4.349  -4.361  0.00  0.00    -0.074 A 
ATOM      7  C6  UNL d   1       5.868   3.686  -5.568  0.00  0.00     0.077 C 
ATOM      8  C7  UNL d   1       3.966   4.850  -4.413  0.00  0.00    -0.001 A 
ENDROOT
TORSDOF 0
ENDMDL
