MODEL 1
REMARK minimizedAffinity 8.22459221
REMARK minimizedRMSD -1
REMARK  0 active torsions:
REMARK  status: ('A' for Active; 'I' for Inactive)
ROOT
ATOM      1  C   UNL d   1      -0.032  -2.643   0.048  0.00  0.00     0.077 C 
ATOM      2  C1  UNL d   1       0.245  -2.352  -1.397  0.00  0.00    -0.074 A 
ATOM      3  C2  UNL d   1      -0.774  -1.921  -2.251  0.00  0.00    -0.005 A 
ATOM      4  C3  UNL d   1      -0.499  -1.645  -3.591  0.00  0.00     0.006 A 
ATOM      5  C4  UNL d   1       0.795  -1.798  -4.088  0.00  0.00    -0.005 A 
ATOM      6  C5  UNL d   1       1.828  -2.227  -3.248  0.00  0.00    -0.074 A 
ATOM      7  C6  UNL d   1       3.227  -2.386  -3.764  0.00  0.00     0.077 C 
ATOM      8  C7  UNL d   1       1.545  -2.496  -1.902  0.00  0.00    -0.001 A 
ENDROOT
TORSDOF 0
ENDMDL
