MODEL 1
REMARK minimizedAffinity 6.35905361
REMARK minimizedRMSD -1
REMARK  0 active torsions:
REMARK  status: ('A' for Active; 'I' for Inactive)
ROOT
ATOM      1  C   UNL d   1       6.000   5.935  -1.057  0.00  0.00     0.077 C 
ATOM      2  C1  UNL d   1       5.287   5.098  -2.077  0.00  0.00    -0.074 A 
ATOM      3  C2  UNL d   1       6.000   4.300  -2.977  0.00  0.00    -0.005 A 
ATOM      4  C3  UNL d   1       5.322   3.519  -3.915  0.00  0.00     0.006 A 
ATOM      5  C4  UNL d   1       3.928   3.529  -3.961  0.00  0.00    -0.005 A 
ATOM      6  C5  UNL d   1       3.198   4.321  -3.068  0.00  0.00    -0.074 A 
ATOM      7  C6  UNL d   1       1.699   4.336  -3.098  0.00  0.00     0.077 C 
ATOM      8  C7  UNL d   1       3.886   5.097  -2.125  0.00  0.00    -0.001 A 
ENDROOT
TORSDOF 0
ENDMDL
