MODEL 1
REMARK minimizedAffinity -2.14126897
REMARK minimizedRMSD -1
REMARK  0 active torsions:
REMARK  status: ('A' for Active; 'I' for Inactive)
ROOT
ATOM      1  C   UNL d   1       5.999   5.896  -5.998  0.00  0.00     0.077 C 
ATOM      2  C1  UNL d   1       5.283   5.460  -4.754  0.00  0.00    -0.074 A 
ATOM      3  C2  UNL d   1       3.979   4.960  -4.813  0.00  0.00    -0.005 A 
ATOM      4  C3  UNL d   1       3.330   4.549  -3.648  0.00  0.00     0.006 A 
ATOM      5  C4  UNL d   1       3.978   4.633  -2.416  0.00  0.00    -0.005 A 
ATOM      6  C5  UNL d   1       5.283   5.130  -2.337  0.00  0.00    -0.074 A 
ATOM      7  C6  UNL d   1       5.997   5.219  -1.022  0.00  0.00     0.077 C 
ATOM      8  C7  UNL d   1       5.931   5.534  -3.513  0.00  0.00    -0.001 A 
ENDROOT
TORSDOF 0
ENDMDL
