MODEL 1
REMARK minimizedAffinity -0.83249104
REMARK minimizedRMSD -1
REMARK  0 active torsions:
REMARK  status: ('A' for Active; 'I' for Inactive)
ROOT
ATOM      1  C   UNL d   1       5.999   5.644  -1.146  0.00  0.00     0.077 C 
ATOM      2  C1  UNL d   1       5.122   4.985  -2.169  0.00  0.00    -0.074 A 
ATOM      3  C2  UNL d   1       3.737   5.180  -2.162  0.00  0.00    -0.005 A 
ATOM      4  C3  UNL d   1       2.935   4.568  -3.125  0.00  0.00     0.006 A 
ATOM      5  C4  UNL d   1       3.509   3.756  -4.104  0.00  0.00    -0.005 A 
ATOM      6  C5  UNL d   1       4.892   3.549  -4.127  0.00  0.00    -0.074 A 
ATOM      7  C6  UNL d   1       5.526   2.687  -5.178  0.00  0.00     0.077 C 
ATOM      8  C7  UNL d   1       5.692   4.174  -3.160  0.00  0.00    -0.001 A 
ENDROOT
TORSDOF 0
ENDMDL
