MODEL 1
REMARK minimizedAffinity -3.9759562
REMARK minimizedRMSD -1
REMARK  0 active torsions:
REMARK  status: ('A' for Active; 'I' for Inactive)
ROOT
ATOM      1  C   UNL d   1       5.979   2.613  -5.537  0.00  0.00     0.077 C 
ATOM      2  C1  UNL d   1       5.296   3.723  -4.796  0.00  0.00    -0.074 A 
ATOM      3  C2  UNL d   1       4.024   4.166  -5.176  0.00  0.00    -0.005 A 
ATOM      4  C3  UNL d   1       3.397   5.193  -4.472  0.00  0.00     0.006 A 
ATOM      5  C4  UNL d   1       4.034   5.788  -3.382  0.00  0.00    -0.005 A 
ATOM      6  C5  UNL d   1       5.305   5.359  -2.986  0.00  0.00    -0.074 A 
ATOM      7  C6  UNL d   1       5.999   5.980  -1.811  0.00  0.00     0.077 C 
ATOM      8  C7  UNL d   1       5.925   4.321  -3.695  0.00  0.00    -0.001 A 
ENDROOT
TORSDOF 0
ENDMDL
