MODEL 1
REMARK minimizedAffinity 18.6533051
REMARK minimizedRMSD -1
REMARK  0 active torsions:
REMARK  status: ('A' for Active; 'I' for Inactive)
ROOT
ATOM      1  C   UNL d   1       1.966   5.275  -3.564  0.00  0.00     0.077 C 
ATOM      2  C1  UNL d   1       3.344   4.860  -3.140  0.00  0.00    -0.074 A 
ATOM      3  C2  UNL d   1       3.983   3.771  -3.742  0.00  0.00    -0.005 A 
ATOM      4  C3  UNL d   1       5.269   3.403  -3.344  0.00  0.00     0.006 A 
ATOM      5  C4  UNL d   1       5.926   4.119  -2.343  0.00  0.00    -0.005 A 
ATOM      6  C5  UNL d   1       5.303   5.211  -1.731  0.00  0.00    -0.074 A 
ATOM      7  C6  UNL d   1       6.000   5.997  -0.660  0.00  0.00     0.077 C 
ATOM      8  C7  UNL d   1       4.014   5.579  -2.141  0.00  0.00    -0.001 A 
ENDROOT
TORSDOF 0
ENDMDL
