MODEL 1
REMARK minimizedAffinity -3.61278725
REMARK minimizedRMSD -1
REMARK  0 active torsions:
REMARK  status: ('A' for Active; 'I' for Inactive)
ROOT
ATOM      1  C   UNL d   1       5.719  -4.075   5.997  0.00  0.00     0.077 C 
ATOM      2  C1  UNL d   1       4.872  -3.062   5.286  0.00  0.00    -0.074 A 
ATOM      3  C2  UNL d   1       4.158  -2.094   5.999  0.00  0.00    -0.005 A 
ATOM      4  C3  UNL d   1       3.382  -1.153   5.323  0.00  0.00     0.006 A 
ATOM      5  C4  UNL d   1       3.311  -1.170   3.930  0.00  0.00    -0.005 A 
ATOM      6  C5  UNL d   1       4.019  -2.130   3.200  0.00  0.00    -0.074 A 
ATOM      7  C6  UNL d   1       3.962  -2.156   1.701  0.00  0.00     0.077 C 
ATOM      8  C7  UNL d   1       4.802  -3.068   3.885  0.00  0.00    -0.001 A 
ENDROOT
TORSDOF 0
ENDMDL
