MODEL 1
REMARK minimizedAffinity -3.64757466
REMARK minimizedRMSD -1
REMARK  0 active torsions:
REMARK  status: ('A' for Active; 'I' for Inactive)
ROOT
ATOM      1  C   UNL d   1       5.996   5.642  -1.976  0.00  0.00     0.077 C 
ATOM      2  C1  UNL d   1       5.291   4.868  -3.050  0.00  0.00    -0.074 A 
ATOM      3  C2  UNL d   1       4.005   5.224  -3.467  0.00  0.00    -0.005 A 
ATOM      4  C3  UNL d   1       3.366   4.501  -4.474  0.00  0.00     0.006 A 
ATOM      5  C4  UNL d   1       4.006   3.415  -5.073  0.00  0.00    -0.005 A 
ATOM      6  C5  UNL d   1       5.293   3.045  -4.671  0.00  0.00    -0.074 A 
ATOM      7  C6  UNL d   1       5.999   1.887  -5.312  0.00  0.00     0.077 C 
ATOM      8  C7  UNL d   1       5.931   3.781  -3.663  0.00  0.00    -0.001 A 
ENDROOT
TORSDOF 0
ENDMDL
