MODEL 1
REMARK minimizedAffinity -4.87049532
REMARK minimizedRMSD -1
REMARK  0 active torsions:
REMARK  status: ('A' for Active; 'I' for Inactive)
ROOT
ATOM      1  C   UNL d   1       5.999   2.380  -5.653  0.00  0.00     0.077 C 
ATOM      2  C1  UNL d   1       5.211   3.386  -4.868  0.00  0.00    -0.074 A 
ATOM      3  C2  UNL d   1       3.842   3.559  -5.091  0.00  0.00    -0.005 A 
ATOM      4  C3  UNL d   1       3.120   4.492  -4.346  0.00  0.00     0.006 A 
ATOM      5  C4  UNL d   1       3.760   5.260  -3.373  0.00  0.00    -0.005 A 
ATOM      6  C5  UNL d   1       5.129   5.101  -3.136  0.00  0.00    -0.074 A 
ATOM      7  C6  UNL d   1       5.831   5.912  -2.087  0.00  0.00     0.077 C 
ATOM      8  C7  UNL d   1       5.846   4.156  -3.883  0.00  0.00    -0.001 A 
ENDROOT
TORSDOF 0
ENDMDL
