MODEL 1
REMARK minimizedAffinity -1.77149618
REMARK minimizedRMSD -1
REMARK  0 active torsions:
REMARK  status: ('A' for Active; 'I' for Inactive)
ROOT
ATOM      1  C   UNL d   1       5.998   1.760  -5.148  0.00  0.00     0.077 C 
ATOM      2  C1  UNL d   1       5.885   3.240  -4.928  0.00  0.00    -0.074 A 
ATOM      3  C2  UNL d   1       5.660   4.110  -5.999  0.00  0.00    -0.005 A 
ATOM      4  C3  UNL d   1       5.548   5.483  -5.778  0.00  0.00     0.006 A 
ATOM      5  C4  UNL d   1       5.661   5.998  -4.486  0.00  0.00    -0.005 A 
ATOM      6  C5  UNL d   1       5.885   5.143  -3.403  0.00  0.00    -0.074 A 
ATOM      7  C6  UNL d   1       5.998   5.679  -2.007  0.00  0.00     0.077 C 
ATOM      8  C7  UNL d   1       5.989   3.764  -3.632  0.00  0.00    -0.001 A 
ENDROOT
TORSDOF 0
ENDMDL
