MODEL 1
REMARK minimizedAffinity -0.632055759
REMARK minimizedRMSD -1
REMARK  0 active torsions:
REMARK  status: ('A' for Active; 'I' for Inactive)
ROOT
ATOM      1  C   UNL d   1       5.982   5.827  -1.475  0.00  0.00     0.077 C 
ATOM      2  C1  UNL d   1       5.344   5.387  -2.759  0.00  0.00    -0.074 A 
ATOM      3  C2  UNL d   1       4.177   5.999  -3.228  0.00  0.00    -0.005 A 
ATOM      4  C3  UNL d   1       3.600   5.585  -4.429  0.00  0.00     0.006 A 
ATOM      5  C4  UNL d   1       4.183   4.557  -5.171  0.00  0.00    -0.005 A 
ATOM      6  C5  UNL d   1       5.350   3.934  -4.718  0.00  0.00    -0.074 A 
ATOM      7  C6  UNL d   1       5.995   2.835  -5.508  0.00  0.00     0.077 C 
ATOM      8  C7  UNL d   1       5.928   4.361  -3.514  0.00  0.00    -0.001 A 
ENDROOT
TORSDOF 0
ENDMDL
