MODEL 1
REMARK minimizedAffinity -4.67531729
REMARK minimizedRMSD -1
REMARK  0 active torsions:
REMARK  status: ('A' for Active; 'I' for Inactive)
ROOT
ATOM      1  C   UNL d   1       5.247   5.250  -1.962  0.00  0.00     0.077 C 
ATOM      2  C1  UNL d   1       4.931   4.829  -3.366  0.00  0.00    -0.074 A 
ATOM      3  C2  UNL d   1       4.067   5.583  -4.166  0.00  0.00    -0.005 A 
ATOM      4  C3  UNL d   1       3.791   5.184  -5.474  0.00  0.00     0.006 A 
ATOM      5  C4  UNL d   1       4.374   4.028  -5.994  0.00  0.00    -0.005 A 
ATOM      6  C5  UNL d   1       5.242   3.262  -5.209  0.00  0.00    -0.074 A 
ATOM      7  C6  UNL d   1       5.886   2.022  -5.756  0.00  0.00     0.077 C 
ATOM      8  C7  UNL d   1       5.520   3.673  -3.898  0.00  0.00    -0.001 A 
ENDROOT
TORSDOF 0
ENDMDL
