MODEL 1
REMARK minimizedAffinity -4.10123014
REMARK minimizedRMSD -1
REMARK  0 active torsions:
REMARK  status: ('A' for Active; 'I' for Inactive)
ROOT
ATOM      1  C   UNL d   1       5.653   1.885  -5.622  0.00  0.00     0.077 C 
ATOM      2  C1  UNL d   1       5.360   3.321  -5.306  0.00  0.00    -0.074 A 
ATOM      3  C2  UNL d   1       5.999   4.354  -5.999  0.00  0.00    -0.005 A 
ATOM      4  C3  UNL d   1       5.710   5.686  -5.701  0.00  0.00     0.006 A 
ATOM      5  C4  UNL d   1       4.780   5.997  -4.708  0.00  0.00    -0.005 A 
ATOM      6  C5  UNL d   1       4.131   4.978  -4.004  0.00  0.00    -0.074 A 
ATOM      7  C6  UNL d   1       3.123   5.295  -2.940  0.00  0.00     0.077 C 
ATOM      8  C7  UNL d   1       4.422   3.642  -4.315  0.00  0.00    -0.001 A 
ENDROOT
TORSDOF 0
ENDMDL
