MODEL 1
REMARK minimizedAffinity -5.81786871
REMARK minimizedRMSD -1
REMARK  1 active torsions:
REMARK  status: ('A' for Active; 'I' for Inactive)
REMARK    1  A    between atoms: C1_2  and  C2_3 
ROOT
ATOM      1  C2  UNL d   1       0.167   0.555  -1.141  0.00  0.00    -0.077 A 
ATOM      2  C3  UNL d   1       0.743   1.541  -1.955  0.00  0.00     0.002 A 
ATOM      3  C4  UNL d   1       1.998   1.336  -2.531  0.00  0.00     0.002 A 
ATOM      4  C5  UNL d   1       2.685   0.145  -2.305  0.00  0.00    -0.004 A 
ATOM      5  C6  UNL d   1       2.121  -0.841  -1.496  0.00  0.00     0.002 A 
ATOM      6  C7  UNL d   1       0.867  -0.637  -0.918  0.00  0.00     0.002 A 
ENDROOT
BRANCH   1   7
ATOM      7  C1  UNL d   1      -1.208   0.754  -0.558  0.00  0.00     0.055 C 
ATOM      8  C   UNL d   1      -1.188   0.638   0.959  0.00  0.00     0.019 C 
ENDBRANCH   1   7
TORSDOF 1
ENDMDL
