MODEL 1
REMARK minimizedAffinity -2.34156418
REMARK minimizedRMSD -1
REMARK  1 active torsions:
REMARK  status: ('A' for Active; 'I' for Inactive)
REMARK    1  A    between atoms: C1_2  and  C2_3 
ROOT
ATOM      1  C2  UNL d   1       0.667  -0.528  -0.226  0.00  0.00    -0.077 A 
ATOM      2  C3  UNL d   1       0.488   0.586  -1.058  0.00  0.00     0.002 A 
ATOM      3  C4  UNL d   1      -0.094   1.753  -0.560  0.00  0.00     0.002 A 
ATOM      4  C5  UNL d   1      -0.497   1.819   0.772  0.00  0.00    -0.004 A 
ATOM      5  C6  UNL d   1      -0.325   0.716   1.607  0.00  0.00     0.002 A 
ATOM      6  C7  UNL d   1       0.255  -0.452   1.110  0.00  0.00     0.002 A 
ENDROOT
BRANCH   1   7
ATOM      7  C1  UNL d   1       1.339  -1.771  -0.749  0.00  0.00     0.055 C 
ATOM      8  C   UNL d   1       2.387  -1.433  -1.800  0.00  0.00     0.019 C 
ENDBRANCH   1   7
TORSDOF 1
ENDMDL
