MODEL 1
REMARK minimizedAffinity -3.46883273
REMARK minimizedRMSD -1
REMARK  1 active torsions:
REMARK  status: ('A' for Active; 'I' for Inactive)
REMARK    1  A    between atoms: C1_2  and  C2_3 
ROOT
ATOM      1  C2  UNL d   1      -0.241   0.104  -0.354  0.00  0.00    -0.077 A 
ATOM      2  C3  UNL d   1       0.687   0.582  -1.290  0.00  0.00     0.002 A 
ATOM      3  C4  UNL d   1       1.752  -0.221  -1.702  0.00  0.00     0.002 A 
ATOM      4  C5  UNL d   1       1.896  -1.508  -1.186  0.00  0.00    -0.004 A 
ATOM      5  C6  UNL d   1       0.980  -1.991  -0.253  0.00  0.00     0.002 A 
ATOM      6  C7  UNL d   1      -0.084  -1.189   0.161  0.00  0.00     0.002 A 
ENDROOT
BRANCH   1   7
ATOM      7  C1  UNL d   1      -1.418   0.951   0.055  0.00  0.00     0.055 C 
ATOM      8  C   UNL d   1      -2.121   0.371   1.274  0.00  0.00     0.019 C 
ENDBRANCH   1   7
TORSDOF 1
ENDMDL
