MODEL 1
REMARK minimizedAffinity -4.37721443
REMARK minimizedRMSD -1
REMARK  1 active torsions:
REMARK  status: ('A' for Active; 'I' for Inactive)
REMARK    1  A    between atoms: C1_2  and  C2_3 
ROOT
ATOM      1  C2  UNL d   1      -0.537   0.391   1.550  0.00  0.00    -0.077 A 
ATOM      2  C3  UNL d   1      -0.996   0.097   0.258  0.00  0.00     0.002 A 
ATOM      3  C4  UNL d   1      -0.288  -0.788  -0.558  0.00  0.00     0.002 A 
ATOM      4  C5  UNL d   1       0.879  -1.389  -0.090  0.00  0.00    -0.004 A 
ATOM      5  C6  UNL d   1       1.344  -1.101   1.193  0.00  0.00     0.002 A 
ATOM      6  C7  UNL d   1       0.639  -0.217   2.009  0.00  0.00     0.002 A 
ENDROOT
BRANCH   1   7
ATOM      7  C1  UNL d   1      -1.325   1.306   2.450  0.00  0.00     0.055 C 
ATOM      8  C   UNL d   1      -1.689   0.619   3.758  0.00  0.00     0.019 C 
ENDBRANCH   1   7
TORSDOF 1
ENDMDL
