MODEL 1
REMARK minimizedAffinity -4.15383959
REMARK minimizedRMSD -1
REMARK  1 active torsions:
REMARK  status: ('A' for Active; 'I' for Inactive)
REMARK    1  A    between atoms: C1_2  and  C2_3 
ROOT
ATOM      1  C2  UNL d   1       0.341  -0.968   0.460  0.00  0.00    -0.077 A 
ATOM      2  C3  UNL d   1       0.683  -0.183   1.570  0.00  0.00     0.002 A 
ATOM      3  C4  UNL d   1      -0.153   0.854   1.987  0.00  0.00     0.002 A 
ATOM      4  C5  UNL d   1      -1.340   1.112   1.303  0.00  0.00    -0.004 A 
ATOM      5  C6  UNL d   1      -1.689   0.338   0.197  0.00  0.00     0.002 A 
ATOM      6  C7  UNL d   1      -0.853  -0.698  -0.222  0.00  0.00     0.002 A 
ENDROOT
BRANCH   1   7
ATOM      7  C1  UNL d   1       1.217  -2.118   0.039  0.00  0.00     0.055 C 
ATOM      8  C   UNL d   1       2.236  -1.684  -1.005  0.00  0.00     0.019 C 
ENDBRANCH   1   7
TORSDOF 1
ENDMDL
