MODEL 1
REMARK minimizedAffinity 0.018493291
REMARK minimizedRMSD -1
REMARK  1 active torsions:
REMARK  status: ('A' for Active; 'I' for Inactive)
REMARK    1  A    between atoms: C1_2  and  C2_3 
ROOT
ATOM      1  C2  UNL d   1      -0.086   0.582   2.032  0.00  0.00    -0.077 A 
ATOM      2  C3  UNL d   1      -1.370   1.009   2.400  0.00  0.00     0.002 A 
ATOM      3  C4  UNL d   1      -1.604   1.523   3.677  0.00  0.00     0.002 A 
ATOM      4  C5  UNL d   1      -0.559   1.620   4.593  0.00  0.00    -0.004 A 
ATOM      5  C6  UNL d   1       0.721   1.197   4.237  0.00  0.00     0.002 A 
ATOM      6  C7  UNL d   1       0.957   0.681   2.962  0.00  0.00     0.002 A 
ENDROOT
BRANCH   1   7
ATOM      7  C1  UNL d   1       0.179   0.073   0.639  0.00  0.00     0.055 C 
ATOM      8  C   UNL d   1      -0.516  -1.260   0.396  0.00  0.00     0.019 C 
ENDBRANCH   1   7
TORSDOF 1
ENDMDL
