MODEL 1
REMARK minimizedAffinity -4.67146635
REMARK minimizedRMSD -1
REMARK  1 active torsions:
REMARK  status: ('A' for Active; 'I' for Inactive)
REMARK    1  A    between atoms: C1_2  and  C2_3 
ROOT
ATOM      1  C2  UNL d   1       0.384   0.035  -0.237  0.00  0.00    -0.077 A 
ATOM      2  C3  UNL d   1       1.461   0.825  -0.663  0.00  0.00     0.002 A 
ATOM      3  C4  UNL d   1       2.615   0.230  -1.176  0.00  0.00     0.002 A 
ATOM      4  C5  UNL d   1       2.701  -1.158  -1.273  0.00  0.00    -0.004 A 
ATOM      5  C6  UNL d   1       1.636  -1.953  -0.850  0.00  0.00     0.002 A 
ATOM      6  C7  UNL d   1       0.483  -1.359  -0.335  0.00  0.00     0.002 A 
ENDROOT
BRANCH   1   7
ATOM      7  C1  UNL d   1      -0.880   0.677   0.271  0.00  0.00     0.055 C 
ATOM      8  C   UNL d   1      -1.374  -0.002   1.541  0.00  0.00     0.019 C 
ENDBRANCH   1   7
TORSDOF 1
ENDMDL
