MODEL 1
REMARK minimizedAffinity -5.01850176
REMARK minimizedRMSD -1
REMARK  1 active torsions:
REMARK  status: ('A' for Active; 'I' for Inactive)
REMARK    1  A    between atoms: C1_2  and  C2_3 
ROOT
ATOM      1  C2  UNL d   1      -1.419   0.703   0.854  0.00  0.00    -0.077 A 
ATOM      2  C3  UNL d   1      -0.264  -0.066   1.054  0.00  0.00     0.002 A 
ATOM      3  C4  UNL d   1       0.807   0.023   0.162  0.00  0.00     0.002 A 
ATOM      4  C5  UNL d   1       0.735   0.883  -0.932  0.00  0.00    -0.004 A 
ATOM      5  C6  UNL d   1      -0.411   1.650  -1.140  0.00  0.00     0.002 A 
ATOM      6  C7  UNL d   1      -1.482   1.562  -0.251  0.00  0.00     0.002 A 
ENDROOT
BRANCH   1   7
ATOM      7  C1  UNL d   1      -2.555   0.645   1.842  0.00  0.00     0.055 C 
ATOM      8  C   UNL d   1      -2.196   1.351   3.141  0.00  0.00     0.019 C 
ENDBRANCH   1   7
TORSDOF 1
ENDMDL
