MODEL 1
REMARK minimizedAffinity -5.68516159
REMARK minimizedRMSD -1
REMARK  1 active torsions:
REMARK  status: ('A' for Active; 'I' for Inactive)
REMARK    1  A    between atoms: C1_2  and  C2_3 
ROOT
ATOM      1  C2  UNL d   1       1.765   0.057  -0.371  0.00  0.00    -0.077 A 
ATOM      2  C3  UNL d   1       0.903   1.119  -0.680  0.00  0.00     0.002 A 
ATOM      3  C4  UNL d   1       0.989   1.762  -1.916  0.00  0.00     0.002 A 
ATOM      4  C5  UNL d   1       1.934   1.349  -2.854  0.00  0.00    -0.004 A 
ATOM      5  C6  UNL d   1       2.797   0.296  -2.555  0.00  0.00     0.002 A 
ATOM      6  C7  UNL d   1       2.713  -0.348  -1.320  0.00  0.00     0.002 A 
ENDROOT
BRANCH   1   7
ATOM      7  C1  UNL d   1       1.640  -0.670   0.942  0.00  0.00     0.055 C 
ATOM      8  C   UNL d   1       0.655  -1.826   0.844  0.00  0.00     0.019 C 
ENDBRANCH   1   7
TORSDOF 1
ENDMDL
