MODEL 1
REMARK minimizedAffinity -3.81430316
REMARK minimizedRMSD -1
REMARK  1 active torsions:
REMARK  status: ('A' for Active; 'I' for Inactive)
REMARK    1  A    between atoms: C1_2  and  C2_3 
ROOT
ATOM      1  C2  UNL d   1      -0.735   0.409   1.213  0.00  0.00    -0.077 A 
ATOM      2  C3  UNL d   1      -0.762   0.563  -0.180  0.00  0.00     0.002 A 
ATOM      3  C4  UNL d   1      -0.136  -0.373  -1.006  0.00  0.00     0.002 A 
ATOM      4  C5  UNL d   1       0.517  -1.470  -0.448  0.00  0.00    -0.004 A 
ATOM      5  C6  UNL d   1       0.551  -1.631   0.936  0.00  0.00     0.002 A 
ATOM      6  C7  UNL d   1      -0.073  -0.696   1.763  0.00  0.00     0.002 A 
ENDROOT
BRANCH   1   7
ATOM      7  C1  UNL d   1      -1.452   1.390   2.104  0.00  0.00     0.055 C 
ATOM      8  C   UNL d   1      -2.372   0.678   3.085  0.00  0.00     0.019 C 
ENDBRANCH   1   7
TORSDOF 1
ENDMDL
