MODEL 1
REMARK minimizedAffinity -1.31763601
REMARK minimizedRMSD -1
REMARK  1 active torsions:
REMARK  status: ('A' for Active; 'I' for Inactive)
REMARK    1  A    between atoms: C1_2  and  C2_3 
ROOT
ATOM      1  C2  UNL d   1       1.326  -0.613  -1.823  0.00  0.00    -0.077 A 
ATOM      2  C3  UNL d   1       0.333   0.284  -1.403  0.00  0.00     0.002 A 
ATOM      3  C4  UNL d   1      -0.340   0.078  -0.198  0.00  0.00     0.002 A 
ATOM      4  C5  UNL d   1      -0.026  -1.020   0.600  0.00  0.00    -0.004 A 
ATOM      5  C6  UNL d   1       0.959  -1.918   0.190  0.00  0.00     0.002 A 
ATOM      6  C7  UNL d   1       1.632  -1.715  -1.015  0.00  0.00     0.002 A 
ENDROOT
BRANCH   1   7
ATOM      7  C1  UNL d   1       2.088  -0.366  -3.098  0.00  0.00     0.055 C 
ATOM      8  C   UNL d   1       1.696   0.962  -3.729  0.00  0.00     0.019 C 
ENDBRANCH   1   7
TORSDOF 1
ENDMDL
