MODEL 1
REMARK minimizedAffinity -5.44373608
REMARK minimizedRMSD -1
REMARK  1 active torsions:
REMARK  status: ('A' for Active; 'I' for Inactive)
REMARK    1  A    between atoms: C1_2  and  C2_3 
ROOT
ATOM      1  C2  UNL d   1      -0.076   0.226  -0.868  0.00  0.00    -0.077 A 
ATOM      2  C3  UNL d   1       0.101   1.269  -1.788  0.00  0.00     0.002 A 
ATOM      3  C4  UNL d   1       1.139   1.219  -2.720  0.00  0.00     0.002 A 
ATOM      4  C5  UNL d   1       2.004   0.128  -2.746  0.00  0.00    -0.004 A 
ATOM      5  C6  UNL d   1       1.837  -0.914  -1.834  0.00  0.00     0.002 A 
ATOM      6  C7  UNL d   1       0.801  -0.866  -0.900  0.00  0.00     0.002 A 
ENDROOT
BRANCH   1   7
ATOM      7  C1  UNL d   1      -1.224   0.254   0.107  0.00  0.00     0.055 C 
ATOM      8  C   UNL d   1      -0.743   0.541   1.521  0.00  0.00     0.019 C 
ENDBRANCH   1   7
TORSDOF 1
ENDMDL
