MODEL 1
REMARK minimizedAffinity 2.18984532
REMARK minimizedRMSD -1
REMARK  1 active torsions:
REMARK  status: ('A' for Active; 'I' for Inactive)
REMARK    1  A    between atoms: C1_2  and  C2_3 
ROOT
ATOM      1  C2  UNL d   1      -4.954  -0.463   2.292  0.00  0.00    -0.077 A 
ATOM      2  C3  UNL d   1      -3.621  -0.898   2.316  0.00  0.00     0.002 A 
ATOM      3  C4  UNL d   1      -2.662  -0.197   3.049  0.00  0.00     0.002 A 
ATOM      4  C5  UNL d   1      -3.026   0.940   3.767  0.00  0.00    -0.004 A 
ATOM      5  C6  UNL d   1      -4.348   1.382   3.748  0.00  0.00     0.002 A 
ATOM      6  C7  UNL d   1      -5.308   0.683   3.015  0.00  0.00     0.002 A 
ENDROOT
BRANCH   1   7
ATOM      7  C1  UNL d   1      -5.999  -1.246   1.542  0.00  0.00     0.055 C 
ATOM      8  C   UNL d   1      -5.915  -0.989   0.044  0.00  0.00     0.019 C 
ENDBRANCH   1   7
TORSDOF 1
ENDMDL
