MODEL 1
REMARK minimizedAffinity 10.8505917
REMARK minimizedRMSD -1
REMARK  0 active torsions:
REMARK  status: ('A' for Active; 'I' for Inactive)
ROOT
ATOM      1  C   UNL d   1       5.244   2.276   3.373  0.00  0.00     0.077 C 
ATOM      2  C1  UNL d   1       4.995   3.574   4.083  0.00  0.00    -0.074 A 
ATOM      3  C2  UNL d   1       5.998   4.543   4.183  0.00  0.00    -0.005 A 
ATOM      4  C3  UNL d   1       5.748   5.749   4.837  0.00  0.00     0.006 A 
ATOM      5  C4  UNL d   1       4.495   5.998   5.398  0.00  0.00    -0.005 A 
ATOM      6  C5  UNL d   1       3.479   5.041   5.306  0.00  0.00    -0.074 A 
ATOM      7  C6  UNL d   1       2.123   5.297   5.894  0.00  0.00     0.077 C 
ATOM      8  C7  UNL d   1       3.736   3.835   4.641  0.00  0.00    -0.001 A 
ENDROOT
TORSDOF 0
ENDMDL
