MODEL 1
REMARK minimizedAffinity 13.5166197
REMARK minimizedRMSD -1
REMARK  0 active torsions:
REMARK  status: ('A' for Active; 'I' for Inactive)
ROOT
ATOM      1  C   UNL d   1       2.113   0.577  -1.400  0.00  0.00     0.077 C 
ATOM      2  C1  UNL d   1       2.848   1.371  -0.361  0.00  0.00    -0.074 A 
ATOM      3  C2  UNL d   1       3.144   0.818   0.890  0.00  0.00    -0.005 A 
ATOM      4  C3  UNL d   1       3.836   1.564   1.843  0.00  0.00     0.006 A 
ATOM      5  C4  UNL d   1       4.240   2.869   1.556  0.00  0.00    -0.005 A 
ATOM      6  C5  UNL d   1       3.954   3.438   0.311  0.00  0.00    -0.074 A 
ATOM      7  C6  UNL d   1       4.389   4.836  -0.018  0.00  0.00     0.077 C 
ATOM      8  C7  UNL d   1       3.263   2.679  -0.644  0.00  0.00    -0.001 A 
ENDROOT
TORSDOF 0
ENDMDL
