MODEL 1
REMARK minimizedAffinity 14.36028
REMARK minimizedRMSD -1
REMARK  0 active torsions:
REMARK  status: ('A' for Active; 'I' for Inactive)
ROOT
ATOM      1  C   UNL d   1      -1.164  -3.509   0.834  0.00  0.00     0.077 C 
ATOM      2  C1  UNL d   1      -1.758  -2.480  -0.083  0.00  0.00    -0.074 A 
ATOM      3  C2  UNL d   1      -2.590  -1.471   0.412  0.00  0.00    -0.005 A 
ATOM      4  C3  UNL d   1      -3.127  -0.516  -0.451  0.00  0.00     0.006 A 
ATOM      5  C4  UNL d   1      -2.839  -0.561  -1.815  0.00  0.00    -0.005 A 
ATOM      6  C5  UNL d   1      -2.008  -1.562  -2.328  0.00  0.00    -0.074 A 
ATOM      7  C6  UNL d   1      -1.681  -1.619  -3.791  0.00  0.00     0.077 C 
ATOM      8  C7  UNL d   1      -1.467  -2.514  -1.454  0.00  0.00    -0.001 A 
ENDROOT
TORSDOF 0
ENDMDL
