MODEL 1
REMARK minimizedAffinity 5.49611807
REMARK minimizedRMSD -1
REMARK  0 active torsions:
REMARK  status: ('A' for Active; 'I' for Inactive)
ROOT
ATOM      1  C   UNL d   1      -2.325  -1.157  -0.039  0.00  0.00     0.077 C 
ATOM      2  C1  UNL d   1      -1.829  -2.415   0.610  0.00  0.00    -0.074 A 
ATOM      3  C2  UNL d   1      -0.983  -3.292  -0.076  0.00  0.00    -0.005 A 
ATOM      4  C3  UNL d   1      -0.522  -4.454   0.544  0.00  0.00     0.006 A 
ATOM      5  C4  UNL d   1      -0.902  -4.749   1.854  0.00  0.00    -0.005 A 
ATOM      6  C5  UNL d   1      -1.747  -3.884   2.556  0.00  0.00    -0.074 A 
ATOM      7  C6  UNL d   1      -2.157  -4.181   3.967  0.00  0.00     0.077 C 
ATOM      8  C7  UNL d   1      -2.200  -2.715   1.928  0.00  0.00    -0.001 A 
ENDROOT
TORSDOF 0
ENDMDL
