MODEL 1
REMARK minimizedAffinity 5.09936905
REMARK minimizedRMSD -1
REMARK  0 active torsions:
REMARK  status: ('A' for Active; 'I' for Inactive)
ROOT
ATOM      1  C   UNL d   1      -3.069  -0.638   0.035  0.00  0.00     0.077 C 
ATOM      2  C1  UNL d   1      -2.207  -1.832   0.318  0.00  0.00    -0.074 A 
ATOM      3  C2  UNL d   1      -1.937  -2.228   1.632  0.00  0.00    -0.005 A 
ATOM      4  C3  UNL d   1      -1.141  -3.347   1.880  0.00  0.00     0.006 A 
ATOM      5  C4  UNL d   1      -0.609  -4.080   0.818  0.00  0.00    -0.005 A 
ATOM      6  C5  UNL d   1      -0.870  -3.700  -0.502  0.00  0.00    -0.074 A 
ATOM      7  C6  UNL d   1      -0.314  -4.482  -1.655  0.00  0.00     0.077 C 
ATOM      8  C7  UNL d   1      -1.676  -2.579  -0.743  0.00  0.00    -0.001 A 
ENDROOT
TORSDOF 0
ENDMDL
