MODEL 1
REMARK minimizedAffinity 11.9329767
REMARK minimizedRMSD -1
REMARK  0 active torsions:
REMARK  status: ('A' for Active; 'I' for Inactive)
ROOT
ATOM      1  C   UNL d   1      -3.746   0.310   6.000  0.00  0.00     0.077 C 
ATOM      2  C1  UNL d   1      -2.884  -0.860   5.629  0.00  0.00    -0.074 A 
ATOM      3  C2  UNL d   1      -3.429  -1.983   4.998  0.00  0.00    -0.005 A 
ATOM      4  C3  UNL d   1      -2.614  -3.060   4.650  0.00  0.00     0.006 A 
ATOM      5  C4  UNL d   1      -1.247  -3.024   4.928  0.00  0.00    -0.005 A 
ATOM      6  C5  UNL d   1      -0.684  -1.910   5.558  0.00  0.00    -0.074 A 
ATOM      7  C6  UNL d   1       0.785  -1.852   5.855  0.00  0.00     0.077 C 
ATOM      8  C7  UNL d   1      -1.509  -0.829   5.898  0.00  0.00    -0.001 A 
ENDROOT
TORSDOF 0
ENDMDL
