MODEL 1
REMARK minimizedAffinity 9.99339199
REMARK minimizedRMSD -1
REMARK  0 active torsions:
REMARK  status: ('A' for Active; 'I' for Inactive)
ROOT
ATOM      1  C   UNL d   1      -4.060   4.568   5.976  0.00  0.00     0.077 C 
ATOM      2  C1  UNL d   1      -4.320   3.091   5.990  0.00  0.00    -0.074 A 
ATOM      3  C2  UNL d   1      -5.626   2.591   5.989  0.00  0.00    -0.005 A 
ATOM      4  C3  UNL d   1      -5.853   1.215   5.993  0.00  0.00     0.006 A 
ATOM      5  C4  UNL d   1      -4.777   0.326   5.998  0.00  0.00    -0.005 A 
ATOM      6  C5  UNL d   1      -3.464   0.807   5.998  0.00  0.00    -0.074 A 
ATOM      7  C6  UNL d   1      -2.297  -0.134   5.994  0.00  0.00     0.077 C 
ATOM      8  C7  UNL d   1      -3.245   2.192   5.987  0.00  0.00    -0.001 A 
ENDROOT
TORSDOF 0
ENDMDL
