MODEL 1
REMARK minimizedAffinity 6.00992203
REMARK minimizedRMSD -1
REMARK  0 active torsions:
REMARK  status: ('A' for Active; 'I' for Inactive)
ROOT
ATOM      1  C   UNL d   1      -6.000   3.979  -5.999  0.00  0.00     0.077 C 
ATOM      2  C1  UNL d   1      -4.809   4.440  -5.212  0.00  0.00    -0.074 A 
ATOM      3  C2  UNL d   1      -4.875   5.588  -4.416  0.00  0.00    -0.005 A 
ATOM      4  C3  UNL d   1      -3.762   6.000  -3.682  0.00  0.00     0.006 A 
ATOM      5  C4  UNL d   1      -2.575   5.269  -3.737  0.00  0.00    -0.005 A 
ATOM      6  C5  UNL d   1      -2.491   4.118  -4.527  0.00  0.00    -0.074 A 
ATOM      7  C6  UNL d   1      -1.225   3.315  -4.589  0.00  0.00     0.077 C 
ATOM      8  C7  UNL d   1      -3.615   3.707  -5.256  0.00  0.00    -0.001 A 
ENDROOT
TORSDOF 0
ENDMDL
