MODEL 1
REMARK minimizedAffinity 10.0259781
REMARK minimizedRMSD -1
REMARK  0 active torsions:
REMARK  status: ('A' for Active; 'I' for Inactive)
ROOT
ATOM      1  C   UNL d   1       4.845   4.620   0.279  0.00  0.00     0.077 C 
ATOM      2  C1  UNL d   1       4.121   3.307   0.271  0.00  0.00    -0.074 A 
ATOM      3  C2  UNL d   1       4.149   2.465   1.388  0.00  0.00    -0.005 A 
ATOM      4  C3  UNL d   1       3.463   1.250   1.370  0.00  0.00     0.006 A 
ATOM      5  C4  UNL d   1       2.744   0.866   0.238  0.00  0.00    -0.005 A 
ATOM      6  C5  UNL d   1       2.704   1.695  -0.888  0.00  0.00    -0.074 A 
ATOM      7  C6  UNL d   1       1.928   1.302  -2.110  0.00  0.00     0.077 C 
ATOM      8  C7  UNL d   1       3.390   2.917  -0.860  0.00  0.00    -0.001 A 
ENDROOT
TORSDOF 0
ENDMDL
