MODEL 1
REMARK minimizedAffinity 10.2702427
REMARK minimizedRMSD -1
REMARK  0 active torsions:
REMARK  status: ('A' for Active; 'I' for Inactive)
ROOT
ATOM      1  C   UNL d   1      -0.932  -1.823  -1.563  0.00  0.00     0.077 C 
ATOM      2  C1  UNL d   1      -1.195  -2.541  -0.273  0.00  0.00    -0.074 A 
ATOM      3  C2  UNL d   1      -1.858  -1.906   0.781  0.00  0.00    -0.005 A 
ATOM      4  C3  UNL d   1      -2.105  -2.590   1.972  0.00  0.00     0.006 A 
ATOM      5  C4  UNL d   1      -1.691  -3.914   2.120  0.00  0.00    -0.005 A 
ATOM      6  C5  UNL d   1      -1.027  -4.567   1.076  0.00  0.00    -0.074 A 
ATOM      7  C6  UNL d   1      -0.584  -5.993   1.215  0.00  0.00     0.077 C 
ATOM      8  C7  UNL d   1      -0.790  -3.875  -0.120  0.00  0.00    -0.001 A 
ENDROOT
TORSDOF 0
ENDMDL
