MODEL 1
REMARK minimizedAffinity 8.1626749
REMARK minimizedRMSD -1
REMARK  0 active torsions:
REMARK  status: ('A' for Active; 'I' for Inactive)
ROOT
ATOM      1  C   UNL d   1      -3.768   2.466   5.743  0.00  0.00     0.077 C 
ATOM      2  C1  UNL d   1      -3.809   0.967   5.752  0.00  0.00    -0.074 A 
ATOM      3  C2  UNL d   1      -5.003   0.282   5.999  0.00  0.00    -0.005 A 
ATOM      4  C3  UNL d   1      -5.027  -1.113   5.995  0.00  0.00     0.006 A 
ATOM      5  C4  UNL d   1      -3.860  -1.835   5.744  0.00  0.00    -0.005 A 
ATOM      6  C5  UNL d   1      -2.657  -1.167   5.495  0.00  0.00    -0.074 A 
ATOM      7  C6  UNL d   1      -1.395  -1.929   5.215  0.00  0.00     0.077 C 
ATOM      8  C7  UNL d   1      -2.642   0.234   5.494  0.00  0.00    -0.001 A 
ENDROOT
TORSDOF 0
ENDMDL
