MODEL 1
REMARK minimizedAffinity 5.55420828
REMARK minimizedRMSD -1
REMARK  0 active torsions:
REMARK  status: ('A' for Active; 'I' for Inactive)
ROOT
ATOM      1  C   UNL d   1      -6.000   5.997  -5.126  0.00  0.00     0.077 C 
ATOM      2  C1  UNL d   1      -5.103   4.802  -5.249  0.00  0.00    -0.074 A 
ATOM      3  C2  UNL d   1      -5.543   3.635  -5.883  0.00  0.00    -0.005 A 
ATOM      4  C3  UNL d   1      -4.695   2.535  -5.999  0.00  0.00     0.006 A 
ATOM      5  C4  UNL d   1      -3.399   2.589  -5.483  0.00  0.00    -0.005 A 
ATOM      6  C5  UNL d   1      -2.941   3.747  -4.846  0.00  0.00    -0.074 A 
ATOM      7  C6  UNL d   1      -1.549   3.825  -4.294  0.00  0.00     0.077 C 
ATOM      8  C7  UNL d   1      -3.798   4.851  -4.740  0.00  0.00    -0.001 A 
ENDROOT
TORSDOF 0
ENDMDL
