MODEL 1
REMARK minimizedAffinity 6.50284672
REMARK minimizedRMSD -1
REMARK  0 active torsions:
REMARK  status: ('A' for Active; 'I' for Inactive)
ROOT
ATOM      1  C   UNL d   1      -3.053  -1.270   0.351  0.00  0.00     0.077 C 
ATOM      2  C1  UNL d   1      -2.272  -0.922  -0.881  0.00  0.00    -0.074 A 
ATOM      3  C2  UNL d   1      -2.921  -0.544  -2.060  0.00  0.00    -0.005 A 
ATOM      4  C3  UNL d   1      -2.180  -0.214  -3.195  0.00  0.00     0.006 A 
ATOM      5  C4  UNL d   1      -0.786  -0.258  -3.162  0.00  0.00    -0.005 A 
ATOM      6  C5  UNL d   1      -0.120  -0.633  -1.991  0.00  0.00    -0.074 A 
ATOM      7  C6  UNL d   1       1.378  -0.676  -1.936  0.00  0.00     0.077 C 
ATOM      8  C7  UNL d   1      -0.871  -0.956  -0.853  0.00  0.00    -0.001 A 
ENDROOT
TORSDOF 0
ENDMDL
