MODEL 1
REMARK minimizedAffinity 2.58040547
REMARK minimizedRMSD -1
REMARK  0 active torsions:
REMARK  status: ('A' for Active; 'I' for Inactive)
ROOT
ATOM      1  C   UNL d   1       1.139   0.112  -2.447  0.00  0.00     0.077 C 
ATOM      2  C1  UNL d   1      -0.358   0.046  -2.368  0.00  0.00    -0.074 A 
ATOM      3  C2  UNL d   1      -0.993  -0.678  -1.355  0.00  0.00    -0.005 A 
ATOM      4  C3  UNL d   1      -2.386  -0.723  -1.289  0.00  0.00     0.006 A 
ATOM      5  C4  UNL d   1      -3.156  -0.045  -2.235  0.00  0.00    -0.005 A 
ATOM      6  C5  UNL d   1      -2.538   0.685  -3.256  0.00  0.00    -0.074 A 
ATOM      7  C6  UNL d   1      -3.351   1.427  -4.275  0.00  0.00     0.077 C 
ATOM      8  C7  UNL d   1      -1.138   0.731  -3.311  0.00  0.00    -0.001 A 
ENDROOT
TORSDOF 0
ENDMDL
