MODEL 1
REMARK minimizedAffinity 18.0677109
REMARK minimizedRMSD -1
REMARK  0 active torsions:
REMARK  status: ('A' for Active; 'I' for Inactive)
ROOT
ATOM      1  C   UNL d   1      -1.252  -1.512  -1.207  0.00  0.00     0.077 C 
ATOM      2  C1  UNL d   1      -2.223  -1.352  -0.076  0.00  0.00    -0.074 A 
ATOM      3  C2  UNL d   1      -1.774  -1.175   1.237  0.00  0.00    -0.005 A 
ATOM      4  C3  UNL d   1      -2.689  -1.017   2.278  0.00  0.00     0.006 A 
ATOM      5  C4  UNL d   1      -4.060  -1.035   2.017  0.00  0.00    -0.005 A 
ATOM      6  C5  UNL d   1      -4.527  -1.210   0.711  0.00  0.00    -0.074 A 
ATOM      7  C6  UNL d   1      -5.997  -1.222   0.412  0.00  0.00     0.077 C 
ATOM      8  C7  UNL d   1      -3.601  -1.361  -0.331  0.00  0.00    -0.001 A 
ENDROOT
TORSDOF 0
ENDMDL
