MODEL 1
REMARK minimizedAffinity -2.93190956
REMARK minimizedRMSD -1
REMARK  0 active torsions:
REMARK  status: ('A' for Active; 'I' for Inactive)
ROOT
ATOM      1  C1  BNZ d   1      -1.957   0.893   1.724  0.00  0.00     0.000 A 
ATOM      2  C2  BNZ d   1      -1.684   0.954   0.383  0.00  0.00     0.000 A 
ATOM      3  C3  BNZ d   1      -0.477   0.538  -0.105  0.00  0.00     0.000 A 
ATOM      4  C4  BNZ d   1       0.469   0.100   0.751  0.00  0.00     0.000 A 
ATOM      5  C5  BNZ d   1       0.212   0.042   2.106  0.00  0.00     0.000 A 
ATOM      6  C6  BNZ d   1      -1.018   0.424   2.590  0.00  0.00     0.000 A 
ENDROOT
TORSDOF 0
ENDMDL
