MODEL 1
REMARK minimizedAffinity -3.1978569
REMARK minimizedRMSD -1
REMARK  0 active torsions:
REMARK  status: ('A' for Active; 'I' for Inactive)
ROOT
ATOM      1  C1  BNZ d   1      -0.847   0.230  -0.620  0.00  0.00     0.000 A 
ATOM      2  C2  BNZ d   1      -1.887   0.628   0.177  0.00  0.00     0.000 A 
ATOM      3  C3  BNZ d   1      -1.728   0.742   1.530  0.00  0.00     0.000 A 
ATOM      4  C4  BNZ d   1      -0.543   0.420   2.088  0.00  0.00     0.000 A 
ATOM      5  C5  BNZ d   1       0.512   0.008   1.299  0.00  0.00     0.000 A 
ATOM      6  C6  BNZ d   1       0.360  -0.068  -0.066  0.00  0.00     0.000 A 
ENDROOT
TORSDOF 0
ENDMDL
