MODEL 1
REMARK minimizedAffinity -3.54363394
REMARK minimizedRMSD -1
REMARK  0 active torsions:
REMARK  status: ('A' for Active; 'I' for Inactive)
ROOT
ATOM      1  C1  BNZ d   1      -0.761   0.620   1.650  0.00  0.00     0.000 A 
ATOM      2  C2  BNZ d   1       0.490   0.303   1.192  0.00  0.00     0.000 A 
ATOM      3  C3  BNZ d   1       0.653  -0.386   0.022  0.00  0.00     0.000 A 
ATOM      4  C4  BNZ d   1      -0.435  -0.790  -0.666  0.00  0.00     0.000 A 
ATOM      5  C5  BNZ d   1      -1.702  -0.486  -0.211  0.00  0.00     0.000 A 
ATOM      6  C6  BNZ d   1      -1.861   0.241   0.946  0.00  0.00     0.000 A 
ENDROOT
TORSDOF 0
ENDMDL
