MODEL 1
REMARK minimizedAffinity -3.48728609
REMARK minimizedRMSD -1
REMARK  0 active torsions:
REMARK  status: ('A' for Active; 'I' for Inactive)
ROOT
ATOM      1  C1  BNZ d   1      -0.034   1.212  -1.529  0.00  0.00     0.000 A 
ATOM      2  C2  BNZ d   1       0.616   1.240  -2.734  0.00  0.00     0.000 A 
ATOM      3  C3  BNZ d   1       1.077   0.088  -3.308  0.00  0.00     0.000 A 
ATOM      4  C4  BNZ d   1       0.924  -1.084  -2.658  0.00  0.00     0.000 A 
ATOM      5  C5  BNZ d   1       0.279  -1.127  -1.438  0.00  0.00     0.000 A 
ATOM      6  C6  BNZ d   1      -0.218   0.029  -0.882  0.00  0.00     0.000 A 
ENDROOT
TORSDOF 0
ENDMDL
