MODEL 1
REMARK minimizedAffinity -2.13751173
REMARK minimizedRMSD -1
REMARK  0 active torsions:
REMARK  status: ('A' for Active; 'I' for Inactive)
ROOT
ATOM      1  C1  BNZ d   1       0.246  -1.027  -0.759  0.00  0.00     0.000 A 
ATOM      2  C2  BNZ d   1      -0.769  -1.013   0.161  0.00  0.00     0.000 A 
ATOM      3  C3  BNZ d   1      -1.405   0.153   0.482  0.00  0.00     0.000 A 
ATOM      4  C4  BNZ d   1      -1.001   1.308  -0.086  0.00  0.00     0.000 A 
ATOM      5  C5  BNZ d   1       0.026   1.311  -1.008  0.00  0.00     0.000 A 
ATOM      6  C6  BNZ d   1       0.639   0.130  -1.358  0.00  0.00     0.000 A 
ENDROOT
TORSDOF 0
ENDMDL
