MODEL 1
REMARK minimizedAffinity -2.22467923
REMARK minimizedRMSD -1
REMARK  0 active torsions:
REMARK  status: ('A' for Active; 'I' for Inactive)
ROOT
ATOM      1  C1  BNZ d   1       2.049   0.365  -2.691  0.00  0.00     0.000 A 
ATOM      2  C2  BNZ d   1       2.039   1.233  -3.750  0.00  0.00     0.000 A 
ATOM      3  C3  BNZ d   1       0.895   1.452  -4.465  0.00  0.00     0.000 A 
ATOM      4  C4  BNZ d   1      -0.226   0.773  -4.145  0.00  0.00     0.000 A 
ATOM      5  C5  BNZ d   1      -0.230  -0.113  -3.086  0.00  0.00     0.000 A 
ATOM      6  C6  BNZ d   1       0.914  -0.301  -2.345  0.00  0.00     0.000 A 
ENDROOT
TORSDOF 0
ENDMDL
