MODEL 1
REMARK minimizedAffinity -2.21055865
REMARK minimizedRMSD -1
REMARK  0 active torsions:
REMARK  status: ('A' for Active; 'I' for Inactive)
ROOT
ATOM      1  C1  BNZ d   1       1.019  -0.499   0.657  0.00  0.00     0.000 A 
ATOM      2  C2  BNZ d   1       0.230  -0.066   1.689  0.00  0.00     0.000 A 
ATOM      3  C3  BNZ d   1      -1.070   0.296   1.471  0.00  0.00     0.000 A 
ATOM      4  C4  BNZ d   1      -1.567   0.263   0.218  0.00  0.00     0.000 A 
ATOM      5  C5  BNZ d   1      -0.781  -0.162  -0.835  0.00  0.00     0.000 A 
ATOM      6  C6  BNZ d   1       0.516  -0.563  -0.606  0.00  0.00     0.000 A 
ENDROOT
TORSDOF 0
ENDMDL
