MODEL 1
REMARK minimizedAffinity -4.45628166
REMARK minimizedRMSD -1
REMARK  0 active torsions:
REMARK  status: ('A' for Active; 'I' for Inactive)
ROOT
ATOM      1  C1  BNZ d   1      -1.481   0.526   0.537  0.00  0.00     0.000 A 
ATOM      2  C2  BNZ d   1      -1.656   0.967   1.822  0.00  0.00     0.000 A 
ATOM      3  C3  BNZ d   1      -0.581   1.226   2.625  0.00  0.00     0.000 A 
ATOM      4  C4  BNZ d   1       0.665   1.006   2.157  0.00  0.00     0.000 A 
ATOM      5  C5  BNZ d   1       0.857   0.553   0.867  0.00  0.00     0.000 A 
ATOM      6  C6  BNZ d   1      -0.226   0.331   0.048  0.00  0.00     0.000 A 
ENDROOT
TORSDOF 0
ENDMDL
