MODEL 1
REMARK minimizedAffinity 1.15809202
REMARK minimizedRMSD -1
REMARK  0 active torsions:
REMARK  status: ('A' for Active; 'I' for Inactive)
ROOT
ATOM      1  C1  BNZ d   1       1.973  -3.373  -6.000  0.00  0.00     0.000 A 
ATOM      2  C2  BNZ d   1       0.737  -2.962  -5.575  0.00  0.00     0.000 A 
ATOM      3  C3  BNZ d   1      -0.104  -3.825  -4.930  0.00  0.00     0.000 A 
ATOM      4  C4  BNZ d   1       0.275  -5.107  -4.746  0.00  0.00     0.000 A 
ATOM      5  C5  BNZ d   1       1.514  -5.538  -5.177  0.00  0.00     0.000 A 
ATOM      6  C6  BNZ d   1       2.373  -4.657  -5.791  0.00  0.00     0.000 A 
ENDROOT
TORSDOF 0
ENDMDL
