MODEL 1
REMARK minimizedAffinity -0.284589797
REMARK minimizedRMSD -1
REMARK  0 active torsions:
REMARK  status: ('A' for Active; 'I' for Inactive)
ROOT
ATOM      1  O1  BZF d   1       5.496   5.272  -0.011  0.00  0.00    -0.204 OA
ATOM      2  C2  BZF d   1       4.642   4.552  -0.824  0.00  0.00     0.174 A 
ATOM      3  C3  BZF d   1       3.984   3.613  -0.114  0.00  0.00    -0.012 A 
ATOM      4  C3A BZF d   1       4.388   3.815   1.243  0.00  0.00    -0.107 A 
ATOM      5  C4  BZF d   1       4.064   3.204   2.420  0.00  0.00     0.055 A 
ATOM      6  C5  BZF d   1       4.691   3.593   3.561  0.00  0.00    -0.016 A 
ATOM      7  C6  BZF d   1       5.648   4.586   3.561  0.00  0.00     0.022 A 
ATOM      8  C7  BZF d   1       5.999   5.226   2.419  0.00  0.00     0.029 A 
ATOM      9  C7A BZF d   1       5.344   4.857   1.269  0.00  0.00     0.058 A 
ENDROOT
TORSDOF 0
ENDMDL
