MODEL 1
REMARK minimizedAffinity -4.48927498
REMARK minimizedRMSD -1
REMARK  0 active torsions:
REMARK  status: ('A' for Active; 'I' for Inactive)
ROOT
ATOM      1  O1  BZF d   1      -2.050  -2.217   0.047  0.00  0.00    -0.204 OA
ATOM      2  C2  BZF d   1      -2.840  -1.489  -0.821  0.00  0.00     0.174 A 
ATOM      3  C3  BZF d   1      -2.317  -0.264  -1.032  0.00  0.00    -0.012 A 
ATOM      4  C3A BZF d   1      -1.076  -0.257  -0.319  0.00  0.00    -0.107 A 
ATOM      5  C4  BZF d   1      -0.091   0.675  -0.158  0.00  0.00     0.055 A 
ATOM      6  C5  BZF d   1       0.956   0.394   0.662  0.00  0.00    -0.016 A 
ATOM      7  C6  BZF d   1       1.047  -0.804   1.339  0.00  0.00     0.022 A 
ATOM      8  C7  BZF d   1       0.097  -1.761   1.207  0.00  0.00     0.029 A 
ATOM      9  C7A BZF d   1      -0.946  -1.494   0.354  0.00  0.00     0.058 A 
ENDROOT
TORSDOF 0
ENDMDL
