MODEL 1
REMARK minimizedAffinity -6.21045351
REMARK minimizedRMSD -1
REMARK  0 active torsions:
REMARK  status: ('A' for Active; 'I' for Inactive)
ROOT
ATOM      1  O1  BZF d   1       0.863  -0.200   1.655  0.00  0.00    -0.204 OA
ATOM      2  C2  BZF d   1       1.473   0.924   1.134  0.00  0.00     0.174 A 
ATOM      3  C3  BZF d   1       0.840   1.337   0.017  0.00  0.00    -0.012 A 
ATOM      4  C3A BZF d   1      -0.288   0.467  -0.120  0.00  0.00    -0.107 A 
ATOM      5  C4  BZF d   1      -1.305   0.384  -1.027  0.00  0.00     0.055 A 
ATOM      6  C5  BZF d   1      -2.207  -0.627  -0.918  0.00  0.00    -0.016 A 
ATOM      7  C6  BZF d   1      -2.118  -1.574   0.081  0.00  0.00     0.022 A 
ATOM      8  C7  BZF d   1      -1.129  -1.530   1.007  0.00  0.00     0.029 A 
ATOM      9  C7A BZF d   1      -0.236  -0.491   0.919  0.00  0.00     0.058 A 
ENDROOT
TORSDOF 0
ENDMDL
