MODEL 1
REMARK minimizedAffinity 4.96402073
REMARK minimizedRMSD -1
REMARK  0 active torsions:
REMARK  status: ('A' for Active; 'I' for Inactive)
ROOT
ATOM      1  O1  BZF d   1       0.543   1.544   3.149  0.00  0.00    -0.204 OA
ATOM      2  C2  BZF d   1       1.866   1.699   2.783  0.00  0.00     0.174 A 
ATOM      3  C3  BZF d   1       2.318   0.599   2.147  0.00  0.00    -0.012 A 
ATOM      4  C3A BZF d   1       1.182  -0.263   2.032  0.00  0.00    -0.107 A 
ATOM      5  C4  BZF d   1       0.992  -1.498   1.481  0.00  0.00     0.055 A 
ATOM      6  C5  BZF d   1      -0.222  -2.095   1.601  0.00  0.00    -0.016 A 
ATOM      7  C6  BZF d   1      -1.266  -1.490   2.270  0.00  0.00     0.022 A 
ATOM      8  C7  BZF d   1      -1.128  -0.263   2.829  0.00  0.00     0.029 A 
ATOM      9  C7A BZF d   1       0.089   0.357   2.680  0.00  0.00     0.058 A 
ENDROOT
TORSDOF 0
ENDMDL
