MODEL 1
REMARK minimizedAffinity 8.64160156
REMARK minimizedRMSD -1
REMARK  0 active torsions:
REMARK  status: ('A' for Active; 'I' for Inactive)
ROOT
ATOM      1  O1  BZF d   1      -0.790   1.074  -2.930  0.00  0.00    -0.204 OA
ATOM      2  C2  BZF d   1      -1.572   2.162  -3.268  0.00  0.00     0.174 A 
ATOM      3  C3  BZF d   1      -2.807   2.047  -2.736  0.00  0.00    -0.012 A 
ATOM      4  C3A BZF d   1      -2.766   0.855  -1.945  0.00  0.00    -0.107 A 
ATOM      5  C4  BZF d   1      -3.684   0.219  -1.159  0.00  0.00     0.055 A 
ATOM      6  C5  BZF d   1      -3.351  -0.965  -0.582  0.00  0.00    -0.016 A 
ATOM      7  C6  BZF d   1      -2.113  -1.544  -0.773  0.00  0.00     0.022 A 
ATOM      8  C7  BZF d   1      -1.168  -0.947  -1.540  0.00  0.00     0.029 A 
ATOM      9  C7A BZF d   1      -1.490   0.266  -2.099  0.00  0.00     0.058 A 
ENDROOT
TORSDOF 0
ENDMDL
