MODEL 1
REMARK minimizedAffinity 8.50227165
REMARK minimizedRMSD -1
REMARK  0 active torsions:
REMARK  status: ('A' for Active; 'I' for Inactive)
ROOT
ATOM      1  O1  BZF d   1      -0.261   1.234   3.786  0.00  0.00    -0.204 OA
ATOM      2  C2  BZF d   1      -1.634   1.094   3.838  0.00  0.00     0.174 A 
ATOM      3  C3  BZF d   1      -2.008  -0.125   3.400  0.00  0.00    -0.012 A 
ATOM      4  C3A BZF d   1      -0.786  -0.822   3.138  0.00  0.00    -0.107 A 
ATOM      5  C4  BZF d   1      -0.499  -2.082   2.696  0.00  0.00     0.055 A 
ATOM      6  C5  BZF d   1       0.797  -2.427   2.477  0.00  0.00    -0.016 A 
ATOM      7  C6  BZF d   1       1.830  -1.536   2.685  0.00  0.00     0.022 A 
ATOM      8  C7  BZF d   1       1.596  -0.277   3.129  0.00  0.00     0.029 A 
ATOM      9  C7A BZF d   1       0.289   0.063   3.382  0.00  0.00     0.058 A 
ENDROOT
TORSDOF 0
ENDMDL
