MODEL 1
REMARK minimizedAffinity -3.58372235
REMARK minimizedRMSD -1
REMARK  0 active torsions:
REMARK  status: ('A' for Active; 'I' for Inactive)
ROOT
ATOM      1  O1  BZF d   1      -0.555   0.523  -2.568  0.00  0.00    -0.204 OA
ATOM      2  C2  BZF d   1      -1.199   1.586  -3.171  0.00  0.00     0.174 A 
ATOM      3  C3  BZF d   1      -2.419   1.776  -2.629  0.00  0.00    -0.012 A 
ATOM      4  C3A BZF d   1      -2.508   0.827  -1.561  0.00  0.00    -0.107 A 
ATOM      5  C4  BZF d   1      -3.474   0.539  -0.640  0.00  0.00     0.055 A 
ATOM      6  C5  BZF d   1      -3.279  -0.496   0.219  0.00  0.00    -0.016 A 
ATOM      7  C6  BZF d   1      -2.134  -1.265   0.182  0.00  0.00     0.022 A 
ATOM      8  C7  BZF d   1      -1.146  -1.014  -0.711  0.00  0.00     0.029 A 
ATOM      9  C7A BZF d   1      -1.326   0.052  -1.559  0.00  0.00     0.058 A 
ENDROOT
TORSDOF 0
ENDMDL
