MODEL 1
REMARK minimizedAffinity 7.30710411
REMARK minimizedRMSD -1
REMARK  0 active torsions:
REMARK  status: ('A' for Active; 'I' for Inactive)
ROOT
ATOM      1  O1  BZF d   1      -2.808   0.783  -3.272  0.00  0.00    -0.204 OA
ATOM      2  C2  BZF d   1      -1.631   1.383  -3.677  0.00  0.00     0.174 A 
ATOM      3  C3  BZF d   1      -0.603   0.993  -2.896  0.00  0.00    -0.012 A 
ATOM      4  C3A BZF d   1      -1.156   0.022  -2.002  0.00  0.00    -0.107 A 
ATOM      5  C4  BZF d   1      -0.627  -0.739  -0.999  0.00  0.00     0.055 A 
ATOM      6  C5  BZF d   1      -1.452  -1.535  -0.269  0.00  0.00    -0.016 A 
ATOM      7  C6  BZF d   1      -2.809  -1.590  -0.511  0.00  0.00     0.022 A 
ATOM      8  C7  BZF d   1      -3.379  -0.857  -1.499  0.00  0.00     0.029 A 
ATOM      9  C7A BZF d   1      -2.543  -0.077  -2.259  0.00  0.00     0.058 A 
ENDROOT
TORSDOF 0
ENDMDL
