MODEL 1
REMARK minimizedAffinity -6.0988183
REMARK minimizedRMSD -1
REMARK  0 active torsions:
REMARK  status: ('A' for Active; 'I' for Inactive)
ROOT
ATOM      1  O1  BZF d   1       0.430  -0.128   1.823  0.00  0.00    -0.204 OA
ATOM      2  C2  BZF d   1       1.447   0.624   1.266  0.00  0.00     0.174 A 
ATOM      3  C3  BZF d   1       1.194   0.883  -0.033  0.00  0.00    -0.012 A 
ATOM      4  C3A BZF d   1      -0.104   0.333  -0.281  0.00  0.00    -0.107 A 
ATOM      5  C4  BZF d   1      -0.909   0.287  -1.383  0.00  0.00     0.055 A 
ATOM      6  C5  BZF d   1      -2.085  -0.390  -1.313  0.00  0.00    -0.016 A 
ATOM      7  C6  BZF d   1      -2.485  -1.035  -0.161  0.00  0.00     0.022 A 
ATOM      8  C7  BZF d   1      -1.722  -1.013   0.959  0.00  0.00     0.029 A 
ATOM      9  C7A BZF d   1      -0.548  -0.302   0.902  0.00  0.00     0.058 A 
ENDROOT
TORSDOF 0
ENDMDL
