MODEL 1
REMARK minimizedAffinity -0.668824375
REMARK minimizedRMSD -1
REMARK  0 active torsions:
REMARK  status: ('A' for Active; 'I' for Inactive)
ROOT
ATOM      1  O1  BZF d   1      -2.966  -1.806  -3.041  0.00  0.00    -0.204 OA
ATOM      2  C2  BZF d   1      -2.761  -2.189  -4.352  0.00  0.00     0.174 A 
ATOM      3  C3  BZF d   1      -1.604  -1.683  -4.824  0.00  0.00    -0.012 A 
ATOM      4  C3A BZF d   1      -1.005  -1.012  -3.710  0.00  0.00    -0.107 A 
ATOM      5  C4  BZF d   1       0.164  -0.325  -3.546  0.00  0.00     0.055 A 
ATOM      6  C5  BZF d   1       0.417   0.270  -2.351  0.00  0.00    -0.016 A 
ATOM      7  C6  BZF d   1      -0.477   0.204  -1.303  0.00  0.00     0.022 A 
ATOM      8  C7  BZF d   1      -1.647  -0.470  -1.417  0.00  0.00     0.029 A 
ATOM      9  C7A BZF d   1      -1.891  -1.101  -2.612  0.00  0.00     0.058 A 
ENDROOT
TORSDOF 0
ENDMDL
