MODEL 1
REMARK minimizedAffinity 4.78947687
REMARK minimizedRMSD -1
REMARK  0 active torsions:
REMARK  status: ('A' for Active; 'I' for Inactive)
ROOT
ATOM      1  O1  BZF d   1      -3.246  -3.138   3.758  0.00  0.00    -0.204 OA
ATOM      2  C2  BZF d   1      -3.377  -3.840   4.940  0.00  0.00     0.174 A 
ATOM      3  C3  BZF d   1      -3.131  -3.043   6.000  0.00  0.00    -0.012 A 
ATOM      4  C3A BZF d   1      -2.916  -1.740   5.449  0.00  0.00    -0.107 A 
ATOM      5  C4  BZF d   1      -2.642  -0.521   6.000  0.00  0.00     0.055 A 
ATOM      6  C5  BZF d   1      -2.416   0.539   5.179  0.00  0.00    -0.016 A 
ATOM      7  C6  BZF d   1      -2.451   0.415   3.806  0.00  0.00     0.022 A 
ATOM      8  C7  BZF d   1      -2.724  -0.773   3.213  0.00  0.00     0.029 A 
ATOM      9  C7A BZF d   1      -2.985  -1.839   4.040  0.00  0.00     0.058 A 
ENDROOT
TORSDOF 0
ENDMDL
