MODEL 1
REMARK minimizedAffinity 6.92601061
REMARK minimizedRMSD -1
REMARK  0 active torsions:
REMARK  status: ('A' for Active; 'I' for Inactive)
ROOT
ATOM      1  O1  BZF d   1      -2.131  -0.843   0.336  0.00  0.00    -0.204 OA
ATOM      2  C2  BZF d   1      -1.304  -0.494   1.386  0.00  0.00     0.174 A 
ATOM      3  C3  BZF d   1      -0.139   0.010   0.931  0.00  0.00    -0.012 A 
ATOM      4  C3A BZF d   1      -0.281   0.059  -0.492  0.00  0.00    -0.107 A 
ATOM      5  C4  BZF d   1       0.535   0.480  -1.503  0.00  0.00     0.055 A 
ATOM      6  C5  BZF d   1       0.126   0.326  -2.790  0.00  0.00    -0.016 A 
ATOM      7  C6  BZF d   1      -1.089  -0.249  -3.101  0.00  0.00     0.022 A 
ATOM      8  C7  BZF d   1      -1.935  -0.677  -2.133  0.00  0.00     0.029 A 
ATOM      9  C7A BZF d   1      -1.538  -0.492  -0.831  0.00  0.00     0.058 A 
ENDROOT
TORSDOF 0
ENDMDL
