MODEL 1
REMARK minimizedAffinity 13.3078728
REMARK minimizedRMSD -1
REMARK  0 active torsions:
REMARK  status: ('A' for Active; 'I' for Inactive)
ROOT
ATOM      1  O1  BZF d   1      -4.296   4.615   2.111  0.00  0.00    -0.204 OA
ATOM      2  C2  BZF d   1      -5.214   5.535   2.579  0.00  0.00     0.174 A 
ATOM      3  C3  BZF d   1      -5.986   5.994   1.574  0.00  0.00    -0.012 A 
ATOM      4  C3A BZF d   1      -5.583   5.252   0.419  0.00  0.00    -0.107 A 
ATOM      5  C4  BZF d   1      -5.992   5.244  -0.883  0.00  0.00     0.055 A 
ATOM      6  C5  BZF d   1      -5.343   4.452  -1.776  0.00  0.00    -0.016 A 
ATOM      7  C6  BZF d   1      -4.277   3.659  -1.402  0.00  0.00     0.022 A 
ATOM      8  C7  BZF d   1      -3.838   3.629  -0.120  0.00  0.00     0.029 A 
ATOM      9  C7A BZF d   1      -4.514   4.404   0.791  0.00  0.00     0.058 A 
ENDROOT
TORSDOF 0
ENDMDL
