MODEL 1
REMARK minimizedAffinity -1.19934154
REMARK minimizedRMSD -1
REMARK  0 active torsions:
REMARK  status: ('A' for Active; 'I' for Inactive)
ROOT
ATOM      1  O1  BZF d   1      -5.999   3.763   4.063  0.00  0.00    -0.204 OA
ATOM      2  C2  BZF d   1      -5.976   4.933   4.798  0.00  0.00     0.174 A 
ATOM      3  C3  BZF d   1      -5.645   5.982   4.017  0.00  0.00    -0.012 A 
ATOM      4  C3A BZF d   1      -5.538   5.448   2.694  0.00  0.00    -0.107 A 
ATOM      5  C4  BZF d   1      -5.250   6.000   1.479  0.00  0.00     0.055 A 
ATOM      6  C5  BZF d   1      -5.153   5.190   0.392  0.00  0.00    -0.016 A 
ATOM      7  C6  BZF d   1      -5.333   3.826   0.485  0.00  0.00     0.022 A 
ATOM      8  C7  BZF d   1      -5.626   3.233   1.668  0.00  0.00     0.029 A 
ATOM      9  C7A BZF d   1      -5.757   4.052   2.762  0.00  0.00     0.058 A 
ENDROOT
TORSDOF 0
ENDMDL
