MODEL 1
REMARK minimizedAffinity -1.43251944
REMARK minimizedRMSD -1
REMARK  0 active torsions:
REMARK  status: ('A' for Active; 'I' for Inactive)
ROOT
ATOM      1  O1  BZF d   1      -0.265  -2.493   1.315  0.00  0.00    -0.204 OA
ATOM      2  C2  BZF d   1       0.689  -1.500   1.427  0.00  0.00     0.174 A 
ATOM      3  C3  BZF d   1       0.596  -0.629   0.401  0.00  0.00    -0.012 A 
ATOM      4  C3A BZF d   1      -0.543  -1.055  -0.352  0.00  0.00    -0.107 A 
ATOM      5  C4  BZF d   1      -1.155  -0.582  -1.478  0.00  0.00     0.055 A 
ATOM      6  C5  BZF d   1      -2.204  -1.271  -1.999  0.00  0.00    -0.016 A 
ATOM      7  C6  BZF d   1      -2.663  -2.439  -1.424  0.00  0.00     0.022 A 
ATOM      8  C7  BZF d   1      -2.091  -2.945  -0.305  0.00  0.00     0.029 A 
ATOM      9  C7A BZF d   1      -1.052  -2.233   0.243  0.00  0.00     0.058 A 
ENDROOT
TORSDOF 0
ENDMDL
