MODEL 1
REMARK minimizedAffinity -5.17773485
REMARK minimizedRMSD -1
REMARK  0 active torsions:
REMARK  status: ('A' for Active; 'I' for Inactive)
ROOT
ATOM      1  O1  BZF d   1       0.535  -0.266   2.188  0.00  0.00    -0.204 OA
ATOM      2  C2  BZF d   1       0.223  -0.888   0.995  0.00  0.00     0.174 A 
ATOM      3  C3  BZF d   1       0.780  -0.234  -0.045  0.00  0.00    -0.012 A 
ATOM      4  C3A BZF d   1       1.560   0.812   0.542  0.00  0.00    -0.107 A 
ATOM      5  C4  BZF d   1       2.361   1.790   0.025  0.00  0.00     0.055 A 
ATOM      6  C5  BZF d   1       2.922   2.698   0.866  0.00  0.00    -0.016 A 
ATOM      7  C6  BZF d   1       2.700   2.661   2.227  0.00  0.00     0.022 A 
ATOM      8  C7  BZF d   1       1.917   1.707   2.787  0.00  0.00     0.029 A 
ATOM      9  C7A BZF d   1       1.375   0.768   1.944  0.00  0.00     0.058 A 
ENDROOT
TORSDOF 0
ENDMDL
