MODEL 1
REMARK minimizedAffinity 1.28138268
REMARK minimizedRMSD -1
REMARK  2 active torsions:
REMARK  status: ('A' for Active; 'I' for Inactive)
REMARK    1  A    between atoms: C2'_3  and  C1'_4 
REMARK    2  A    between atoms: C1'_4  and  C1_5 
ROOT
ATOM      1  C1  I4B d   1       3.047  -1.075  -0.533  0.00  0.00    -0.075 A 
ATOM      2  C2  I4B d   1       2.112  -0.103  -0.279  0.00  0.00     0.003 A 
ATOM      3  C3  I4B d   1       0.734  -0.427  -0.258  0.00  0.00     0.002 A 
ATOM      4  C4  I4B d   1       0.335  -1.717  -0.545  0.00  0.00    -0.004 A 
ATOM      5  C5  I4B d   1       1.285  -2.706  -0.781  0.00  0.00     0.002 A 
ATOM      6  C6  I4B d   1       2.651  -2.386  -0.763  0.00  0.00     0.003 A 
ENDROOT
BRANCH   1   7
ATOM      7  C1' I4B d   1       4.492  -0.691  -0.580  0.00  0.00     0.060 C 
BRANCH   7   8
ATOM      8  C2' I4B d   1       4.609   0.587  -1.387  0.00  0.00    -0.013 C 
ATOM      9  C4' I4B d   1       5.181   1.705  -0.557  0.00  0.00     0.013 C 
ATOM     10  C3' I4B d   1       5.471   0.302  -2.581  0.00  0.00     0.013 C 
ENDBRANCH   7   8
ENDBRANCH   1   7
TORSDOF 2
ENDMDL
