MODEL 1
REMARK minimizedAffinity -2.47064376
REMARK minimizedRMSD -1
REMARK  2 active torsions:
REMARK  status: ('A' for Active; 'I' for Inactive)
REMARK    1  A    between atoms: C2'_3  and  C1'_4 
REMARK    2  A    between atoms: C1'_4  and  C1_5 
ROOT
ATOM      1  C1  I4B d   1       1.131   0.030   0.251  0.00  0.00    -0.075 A 
ATOM      2  C2  I4B d   1       2.342   0.582  -0.083  0.00  0.00     0.003 A 
ATOM      3  C3  I4B d   1       3.378  -0.232  -0.601  0.00  0.00     0.002 A 
ATOM      4  C4  I4B d   1       3.178  -1.593  -0.720  0.00  0.00    -0.004 A 
ATOM      5  C5  I4B d   1       1.942  -2.147  -0.402  0.00  0.00     0.002 A 
ATOM      6  C6  I4B d   1       0.907  -1.329   0.075  0.00  0.00     0.003 A 
ENDROOT
BRANCH   1   7
ATOM      7  C1' I4B d   1       0.070   0.915   0.825  0.00  0.00     0.060 C 
BRANCH   7   8
ATOM      8  C2' I4B d   1      -1.188   0.732  -0.000  0.00  0.00    -0.013 C 
ATOM      9  C4' I4B d   1      -2.414   1.125   0.780  0.00  0.00     0.013 C 
ATOM     10  C3' I4B d   1      -1.049   1.559  -1.243  0.00  0.00     0.013 C 
ENDBRANCH   7   8
ENDBRANCH   1   7
TORSDOF 2
ENDMDL
