MODEL 1
REMARK minimizedAffinity -2.29810572
REMARK minimizedRMSD -1
REMARK  2 active torsions:
REMARK  status: ('A' for Active; 'I' for Inactive)
REMARK    1  A    between atoms: C2'_3  and  C1'_4 
REMARK    2  A    between atoms: C1'_4  and  C1_5 
ROOT
ATOM      1  C1  I4B d   1      -0.521   0.235  -0.317  0.00  0.00    -0.075 A 
ATOM      2  C2  I4B d   1       0.606   0.826   0.197  0.00  0.00     0.003 A 
ATOM      3  C3  I4B d   1       1.802   0.081   0.334  0.00  0.00     0.002 A 
ATOM      4  C4  I4B d   1       1.813  -1.256  -0.006  0.00  0.00    -0.004 A 
ATOM      5  C5  I4B d   1       0.676  -1.848  -0.549  0.00  0.00     0.002 A 
ATOM      6  C6  I4B d   1      -0.495  -1.095  -0.717  0.00  0.00     0.003 A 
ENDROOT
BRANCH   1   7
ATOM      7  C1' I4B d   1      -1.776   1.042  -0.418  0.00  0.00     0.060 C 
BRANCH   7   8
ATOM      8  C2' I4B d   1      -2.576   0.821   0.850  0.00  0.00    -0.013 C 
ATOM      9  C4' I4B d   1      -2.495   2.017   1.761  0.00  0.00     0.013 C 
ATOM     10  C3' I4B d   1      -3.995   0.533   0.459  0.00  0.00     0.013 C 
ENDBRANCH   7   8
ENDBRANCH   1   7
TORSDOF 2
ENDMDL
