MODEL 1
REMARK minimizedAffinity 6.93345785
REMARK minimizedRMSD -1
REMARK  2 active torsions:
REMARK  status: ('A' for Active; 'I' for Inactive)
REMARK    1  A    between atoms: C2'_3  and  C1'_4 
REMARK    2  A    between atoms: C1'_4  and  C1_5 
ROOT
ATOM      1  C1  I4B d   1       2.050  -1.457  -0.648  0.00  0.00    -0.075 A 
ATOM      2  C2  I4B d   1       1.137  -0.433  -0.639  0.00  0.00     0.003 A 
ATOM      3  C3  I4B d   1      -0.250  -0.713  -0.707  0.00  0.00     0.002 A 
ATOM      4  C4  I4B d   1      -0.674  -2.020  -0.832  0.00  0.00    -0.004 A 
ATOM      5  C5  I4B d   1       0.252  -3.059  -0.817  0.00  0.00     0.002 A 
ATOM      6  C6  I4B d   1       1.622  -2.777  -0.712  0.00  0.00     0.003 A 
ENDROOT
BRANCH   1   7
ATOM      7  C1' I4B d   1       3.507  -1.124  -0.608  0.00  0.00     0.060 C 
BRANCH   7   8
ATOM      8  C2' I4B d   1       3.688   0.252  -1.215  0.00  0.00    -0.013 C 
ATOM      9  C4' I4B d   1       3.388   1.335  -0.212  0.00  0.00     0.013 C 
ATOM     10  C3' I4B d   1       5.098   0.355  -1.717  0.00  0.00     0.013 C 
ENDBRANCH   7   8
ENDBRANCH   1   7
TORSDOF 2
ENDMDL
