MODEL 1
REMARK minimizedAffinity 10.5232744
REMARK minimizedRMSD -1
REMARK  2 active torsions:
REMARK  status: ('A' for Active; 'I' for Inactive)
REMARK    1  A    between atoms: C2'_3  and  C1'_4 
REMARK    2  A    between atoms: C1'_4  and  C1_5 
ROOT
ATOM      1  C1  I4B d   1       1.248   0.064   1.313  0.00  0.00    -0.075 A 
ATOM      2  C2  I4B d   1       2.194  -0.905   1.090  0.00  0.00     0.003 A 
ATOM      3  C3  I4B d   1       3.024  -0.840  -0.055  0.00  0.00     0.002 A 
ATOM      4  C4  I4B d   1       2.840   0.175  -0.971  0.00  0.00    -0.004 A 
ATOM      5  C5  I4B d   1       1.896   1.169  -0.732  0.00  0.00     0.002 A 
ATOM      6  C6  I4B d   1       1.103   1.120   0.424  0.00  0.00     0.003 A 
ENDROOT
BRANCH   1   7
ATOM      7  C1' I4B d   1       0.366  -0.053   2.516  0.00  0.00     0.060 C 
BRANCH   7   8
ATOM      8  C2' I4B d   1      -1.073  -0.004   2.046  0.00  0.00    -0.013 C 
ATOM      9  C4' I4B d   1      -1.833  -1.227   2.489  0.00  0.00     0.013 C 
ATOM     10  C3' I4B d   1      -1.696   1.246   2.591  0.00  0.00     0.013 C 
ENDBRANCH   7   8
ENDBRANCH   1   7
TORSDOF 2
ENDMDL
