MODEL 1
REMARK minimizedAffinity 11.6605806
REMARK minimizedRMSD -1
REMARK  2 active torsions:
REMARK  status: ('A' for Active; 'I' for Inactive)
REMARK    1  A    between atoms: C2'_3  and  C1'_4 
REMARK    2  A    between atoms: C1'_4  and  C1_5 
ROOT
ATOM      1  C1  I4B d   1       1.608  -0.001   1.407  0.00  0.00    -0.075 A 
ATOM      2  C2  I4B d   1       1.790   0.893   2.433  0.00  0.00     0.003 A 
ATOM      3  C3  I4B d   1       0.675   1.401   3.143  0.00  0.00     0.002 A 
ATOM      4  C4  I4B d   1      -0.599   1.029   2.764  0.00  0.00    -0.004 A 
ATOM      5  C5  I4B d   1      -0.781   0.106   1.738  0.00  0.00     0.002 A 
ATOM      6  C6  I4B d   1       0.330  -0.422   1.064  0.00  0.00     0.003 A 
ENDROOT
BRANCH   1   7
ATOM      7  C1' I4B d   1       2.805  -0.491   0.657  0.00  0.00     0.060 C 
BRANCH   7   8
ATOM      8  C2' I4B d   1       2.790   0.148  -0.716  0.00  0.00    -0.013 C 
ATOM      9  C4' I4B d   1       2.453   1.614  -0.632  0.00  0.00     0.013 C 
ATOM     10  C3' I4B d   1       4.137  -0.063  -1.340  0.00  0.00     0.013 C 
ENDBRANCH   7   8
ENDBRANCH   1   7
TORSDOF 2
ENDMDL
