MODEL 1
REMARK minimizedAffinity 13.1246347
REMARK minimizedRMSD -1
REMARK  2 active torsions:
REMARK  status: ('A' for Active; 'I' for Inactive)
REMARK    1  A    between atoms: C2'_3  and  C1'_4 
REMARK    2  A    between atoms: C1'_4  and  C1_5 
ROOT
ATOM      1  C1  I4B d   1       1.402  -0.070   4.029  0.00  0.00    -0.075 A 
ATOM      2  C2  I4B d   1       1.001  -1.208   3.375  0.00  0.00     0.003 A 
ATOM      3  C3  I4B d   1      -0.037  -1.150   2.414  0.00  0.00     0.002 A 
ATOM      4  C4  I4B d   1      -0.677   0.050   2.177  0.00  0.00    -0.004 A 
ATOM      5  C5  I4B d   1      -0.254   1.207   2.825  0.00  0.00     0.002 A 
ATOM      6  C6  I4B d   1       0.801   1.149   3.748  0.00  0.00     0.003 A 
ENDROOT
BRANCH   1   7
ATOM      7  C1' I4B d   1       2.480  -0.174   5.061  0.00  0.00     0.060 C 
BRANCH   7   8
ATOM      8  C2' I4B d   1       2.799  -1.642   5.257  0.00  0.00    -0.013 C 
ATOM      9  C4' I4B d   1       4.096  -1.824   5.999  0.00  0.00     0.013 C 
ATOM     10  C3' I4B d   1       1.657  -2.270   6.000  0.00  0.00     0.013 C 
ENDBRANCH   7   8
ENDBRANCH   1   7
TORSDOF 2
ENDMDL
