MODEL 1
REMARK minimizedAffinity 11.3465462
REMARK minimizedRMSD -1
REMARK  2 active torsions:
REMARK  status: ('A' for Active; 'I' for Inactive)
REMARK    1  A    between atoms: C2'_3  and  C1'_4 
REMARK    2  A    between atoms: C1'_4  and  C1_5 
ROOT
ATOM      1  C1  I4B d   1       2.265   1.377  -0.279  0.00  0.00    -0.075 A 
ATOM      2  C2  I4B d   1       3.309   0.939  -1.056  0.00  0.00     0.003 A 
ATOM      3  C3  I4B d   1       3.922  -0.309  -0.788  0.00  0.00     0.002 A 
ATOM      4  C4  I4B d   1       3.496  -1.057   0.290  0.00  0.00    -0.004 A 
ATOM      5  C5  I4B d   1       2.423  -0.622   1.062  0.00  0.00     0.002 A 
ATOM      6  C6  I4B d   1       1.795   0.597   0.769  0.00  0.00     0.003 A 
ENDROOT
BRANCH   1   7
ATOM      7  C1' I4B d   1       1.662   2.715  -0.570  0.00  0.00     0.060 C 
BRANCH   7   8
ATOM      8  C2' I4B d   1       1.347   3.383   0.753  0.00  0.00    -0.013 C 
ATOM      9  C4' I4B d   1       2.526   4.170   1.262  0.00  0.00     0.013 C 
ATOM     10  C3' I4B d   1       0.152   4.266   0.553  0.00  0.00     0.013 C 
ENDBRANCH   7   8
ENDBRANCH   1   7
TORSDOF 2
ENDMDL
