MODEL 1
REMARK minimizedAffinity 13.7239771
REMARK minimizedRMSD -1
REMARK  2 active torsions:
REMARK  status: ('A' for Active; 'I' for Inactive)
REMARK    1  A    between atoms: C2'_3  and  C1'_4 
REMARK    2  A    between atoms: C1'_4  and  C1_5 
ROOT
ATOM      1  C1  I4B d   1       3.202  -0.195   2.803  0.00  0.00    -0.075 A 
ATOM      2  C2  I4B d   1       1.862   0.090   2.711  0.00  0.00     0.003 A 
ATOM      3  C3  I4B d   1       1.199   0.002   1.463  0.00  0.00     0.002 A 
ATOM      4  C4  I4B d   1       1.920  -0.323   0.332  0.00  0.00    -0.004 A 
ATOM      5  C5  I4B d   1       3.273  -0.634   0.431  0.00  0.00     0.002 A 
ATOM      6  C6  I4B d   1       3.916  -0.581   1.676  0.00  0.00     0.003 A 
ENDROOT
BRANCH   1   7
ATOM      7  C1' I4B d   1       3.878  -0.060   4.131  0.00  0.00     0.060 C 
BRANCH   7   8
ATOM      8  C2' I4B d   1       4.202   1.405   4.342  0.00  0.00    -0.013 C 
ATOM      9  C4' I4B d   1       3.174   2.069   5.221  0.00  0.00     0.013 C 
ATOM     10  C3' I4B d   1       5.571   1.494   4.948  0.00  0.00     0.013 C 
ENDBRANCH   7   8
ENDBRANCH   1   7
TORSDOF 2
ENDMDL
