MODEL 1
REMARK minimizedAffinity 18.6960163
REMARK minimizedRMSD -1
REMARK  2 active torsions:
REMARK  status: ('A' for Active; 'I' for Inactive)
REMARK    1  A    between atoms: C2'_3  and  C1'_4 
REMARK    2  A    between atoms: C1'_4  and  C1_5 
ROOT
ATOM      1  C1  I4B d   1       0.691  -0.574   1.547  0.00  0.00    -0.075 A 
ATOM      2  C2  I4B d   1       1.911  -0.601   2.175  0.00  0.00     0.003 A 
ATOM      3  C3  I4B d   1       3.101  -0.710   1.416  0.00  0.00     0.002 A 
ATOM      4  C4  I4B d   1       3.023  -0.841   0.044  0.00  0.00    -0.004 A 
ATOM      5  C5  I4B d   1       1.786  -0.790  -0.593  0.00  0.00     0.002 A 
ATOM      6  C6  I4B d   1       0.613  -0.644   0.162  0.00  0.00     0.003 A 
ENDROOT
BRANCH   1   7
ATOM      7  C1' I4B d   1      -0.548  -0.490   2.381  0.00  0.00     0.060 C 
BRANCH   7   8
ATOM      8  C2' I4B d   1      -1.741  -0.672   1.465  0.00  0.00    -0.013 C 
ATOM      9  C4' I4B d   1      -2.373  -2.026   1.656  0.00  0.00     0.013 C 
ATOM     10  C3' I4B d   1      -2.719   0.427   1.755  0.00  0.00     0.013 C 
ENDBRANCH   7   8
ENDBRANCH   1   7
TORSDOF 2
ENDMDL
