MODEL 1
REMARK minimizedAffinity 10.1252108
REMARK minimizedRMSD -1
REMARK  2 active torsions:
REMARK  status: ('A' for Active; 'I' for Inactive)
REMARK    1  A    between atoms: C2'_3  and  C1'_4 
REMARK    2  A    between atoms: C1'_4  and  C1_5 
ROOT
ATOM      1  C1  I4B d   1      -5.867   3.194  -0.184  0.00  0.00    -0.075 A 
ATOM      2  C2  I4B d   1      -5.998   3.862   1.008  0.00  0.00     0.003 A 
ATOM      3  C3  I4B d   1      -5.997   5.278   1.036  0.00  0.00     0.002 A 
ATOM      4  C4  I4B d   1      -5.813   5.980  -0.137  0.00  0.00    -0.004 A 
ATOM      5  C5  I4B d   1      -5.704   5.302  -1.348  0.00  0.00     0.002 A 
ATOM      6  C6  I4B d   1      -5.743   3.901  -1.374  0.00  0.00     0.003 A 
ENDROOT
BRANCH   1   7
ATOM      7  C1' I4B d   1      -5.839   1.699  -0.174  0.00  0.00     0.060 C 
BRANCH   7   8
ATOM      8  C2' I4B d   1      -4.555   1.251  -0.842  0.00  0.00    -0.013 C 
ATOM      9  C4' I4B d   1      -3.710   0.430   0.096  0.00  0.00     0.013 C 
ATOM     10  C3' I4B d   1      -4.920   0.468  -2.068  0.00  0.00     0.013 C 
ENDBRANCH   7   8
ENDBRANCH   1   7
TORSDOF 2
ENDMDL
