MODEL 1
REMARK minimizedAffinity 20.8914642
REMARK minimizedRMSD -1
REMARK  0 active torsions:
REMARK  status: ('A' for Active; 'I' for Inactive)
ROOT
ATOM      1  C   UNL d   1       0.102   3.414  -0.291  0.00  0.00     0.020 A 
ATOM      2  C1  UNL d   1       0.167   4.792  -0.092  0.00  0.00     0.020 A 
ATOM      3  C2  UNL d   1       1.328   5.368   0.429  0.00  0.00     0.034 A 
ATOM      4  C3  UNL d   1       2.428   4.566   0.753  0.00  0.00     0.017 A 
ATOM      5  C4  UNL d   1       2.361   3.182   0.553  0.00  0.00     0.017 A 
ATOM      6  C5  UNL d   1       1.197   2.611   0.031  0.00  0.00     0.034 A 
ATOM      7 Cl   UNL d   1       3.677   2.127   0.928  0.00  0.00    -0.070 Cl
ATOM      8 Cl1  UNL d   1       3.831   5.345   1.392  0.00  0.00    -0.070 Cl
ENDROOT
TORSDOF 0
ENDMDL
