MODEL 1
REMARK minimizedAffinity 16.811388
REMARK minimizedRMSD -1
REMARK  0 active torsions:
REMARK  status: ('A' for Active; 'I' for Inactive)
ROOT
ATOM      1  C   UNL d   1      -1.933   6.000  -3.203  0.00  0.00     0.020 A 
ATOM      2  C1  UNL d   1      -2.251   5.356  -2.008  0.00  0.00     0.020 A 
ATOM      3  C2  UNL d   1      -2.850   4.095  -2.033  0.00  0.00     0.034 A 
ATOM      4  C3  UNL d   1      -3.132   3.473  -3.254  0.00  0.00     0.017 A 
ATOM      5  C4  UNL d   1      -2.812   4.120  -4.454  0.00  0.00     0.017 A 
ATOM      6  C5  UNL d   1      -2.213   5.383  -4.423  0.00  0.00     0.034 A 
ATOM      7 Cl   UNL d   1      -3.130   3.416  -6.000  0.00  0.00    -0.070 Cl
ATOM      8 Cl1  UNL d   1      -3.873   1.913  -3.210  0.00  0.00    -0.070 Cl
ENDROOT
TORSDOF 0
ENDMDL
