MODEL 1
REMARK minimizedAffinity 19.1407032
REMARK minimizedRMSD -1
REMARK  0 active torsions:
REMARK  status: ('A' for Active; 'I' for Inactive)
ROOT
ATOM      1  C   UNL d   1      -2.230   5.999  -5.227  0.00  0.00     0.020 A 
ATOM      2  C1  UNL d   1      -1.708   4.835  -5.789  0.00  0.00     0.020 A 
ATOM      3  C2  UNL d   1      -1.616   3.670  -5.024  0.00  0.00     0.034 A 
ATOM      4  C3  UNL d   1      -2.045   3.667  -3.692  0.00  0.00     0.017 A 
ATOM      5  C4  UNL d   1      -2.569   4.837  -3.128  0.00  0.00     0.017 A 
ATOM      6  C5  UNL d   1      -2.659   6.000  -3.899  0.00  0.00     0.034 A 
ATOM      7 Cl   UNL d   1      -3.119   4.910  -1.491  0.00  0.00    -0.070 Cl
ATOM      8 Cl1  UNL d   1      -1.901   2.192  -2.805  0.00  0.00    -0.070 Cl
ENDROOT
TORSDOF 0
ENDMDL
