MODEL 1
REMARK minimizedAffinity 5.84279346
REMARK minimizedRMSD -1
REMARK  0 active torsions:
REMARK  status: ('A' for Active; 'I' for Inactive)
ROOT
ATOM      1  C   UNL d   1      -1.171  -2.492   1.710  0.00  0.00     0.020 A 
ATOM      2  C1  UNL d   1      -1.686  -2.042   2.925  0.00  0.00     0.020 A 
ATOM      3  C2  UNL d   1      -0.881  -1.301   3.793  0.00  0.00     0.034 A 
ATOM      4  C3  UNL d   1       0.443  -1.008   3.447  0.00  0.00     0.017 A 
ATOM      5  C4  UNL d   1       0.959  -1.460   2.228  0.00  0.00     0.017 A 
ATOM      6  C5  UNL d   1       0.149  -2.202   1.362  0.00  0.00     0.034 A 
ATOM      7 Cl   UNL d   1       2.583  -1.138   1.732  0.00  0.00    -0.070 Cl
ATOM      8 Cl1  UNL d   1       1.381  -0.087   4.569  0.00  0.00    -0.070 Cl
ENDROOT
TORSDOF 0
ENDMDL
