MODEL 1
REMARK minimizedAffinity 14.1175966
REMARK minimizedRMSD -1
REMARK  0 active torsions:
REMARK  status: ('A' for Active; 'I' for Inactive)
ROOT
ATOM      1  C   UNL d   1       5.994  -2.888  -5.274  0.00  0.00     0.020 A 
ATOM      2  C1  UNL d   1       5.447  -1.830  -5.999  0.00  0.00     0.020 A 
ATOM      3  C2  UNL d   1       4.905  -0.731  -5.330  0.00  0.00     0.034 A 
ATOM      4  C3  UNL d   1       4.909  -0.688  -3.931  0.00  0.00     0.017 A 
ATOM      5  C4  UNL d   1       5.458  -1.750  -3.204  0.00  0.00     0.017 A 
ATOM      6  C5  UNL d   1       6.000  -2.848  -3.879  0.00  0.00     0.034 A 
ATOM      7 Cl   UNL d   1       5.499  -1.768  -1.476  0.00  0.00    -0.070 Cl
ATOM      8 Cl1  UNL d   1       4.222   0.702  -3.168  0.00  0.00    -0.070 Cl
ENDROOT
TORSDOF 0
ENDMDL
