MODEL 1
REMARK minimizedAffinity 21.1451683
REMARK minimizedRMSD -1
REMARK  0 active torsions:
REMARK  status: ('A' for Active; 'I' for Inactive)
ROOT
ATOM      1  C   UNL d   1       1.952  -5.279  -5.814  0.00  0.00     0.020 A 
ATOM      2  C1  UNL d   1       0.753  -5.968  -5.994  0.00  0.00     0.020 A 
ATOM      3  C2  UNL d   1      -0.195  -5.999  -4.970  0.00  0.00     0.034 A 
ATOM      4  C3  UNL d   1       0.054  -5.341  -3.760  0.00  0.00     0.017 A 
ATOM      5  C4  UNL d   1       1.257  -4.650  -3.580  0.00  0.00     0.017 A 
ATOM      6  C5  UNL d   1       2.203  -4.621  -4.609  0.00  0.00     0.034 A 
ATOM      7 Cl   UNL d   1       1.635  -3.813  -2.115  0.00  0.00    -0.070 Cl
ATOM      8 Cl1  UNL d   1      -1.164  -5.421  -2.537  0.00  0.00    -0.070 Cl
ENDROOT
TORSDOF 0
ENDMDL
