MODEL 1
REMARK minimizedAffinity 22.597599
REMARK minimizedRMSD -1
REMARK  0 active torsions:
REMARK  status: ('A' for Active; 'I' for Inactive)
ROOT
ATOM      1  C   UNL d   1       4.675   0.674   2.100  0.00  0.00     0.020 A 
ATOM      2  C1  UNL d   1       4.735   1.850   1.353  0.00  0.00     0.020 A 
ATOM      3  C2  UNL d   1       3.602   2.304   0.674  0.00  0.00     0.034 A 
ATOM      4  C3  UNL d   1       2.405   1.582   0.739  0.00  0.00     0.017 A 
ATOM      5  C4  UNL d   1       2.346   0.401   1.489  0.00  0.00     0.017 A 
ATOM      6  C5  UNL d   1       3.483  -0.049   2.167  0.00  0.00     0.034 A 
ATOM      7 Cl   UNL d   1       0.905  -0.544   1.617  0.00  0.00    -0.070 Cl
ATOM      8 Cl1  UNL d   1       1.044   2.202  -0.125  0.00  0.00    -0.070 Cl
ENDROOT
TORSDOF 0
ENDMDL
