MODEL 1
REMARK minimizedAffinity 13.4923344
REMARK minimizedRMSD -1
REMARK  0 active torsions:
REMARK  status: ('A' for Active; 'I' for Inactive)
ROOT
ATOM      1  C   UNL d   1       2.331  -1.531   1.153  0.00  0.00     0.020 A 
ATOM      2  C1  UNL d   1       2.597  -0.451   1.994  0.00  0.00     0.020 A 
ATOM      3  C2  UNL d   1       1.684  -0.102   2.992  0.00  0.00     0.034 A 
ATOM      4  C3  UNL d   1       0.502  -0.834   3.152  0.00  0.00     0.017 A 
ATOM      5  C4  UNL d   1       0.236  -1.918   2.307  0.00  0.00     0.017 A 
ATOM      6  C5  UNL d   1       1.154  -2.263   1.309  0.00  0.00     0.034 A 
ATOM      7 Cl   UNL d   1      -1.201  -2.869   2.443  0.00  0.00    -0.070 Cl
ATOM      8 Cl1  UNL d   1      -0.582  -0.347   4.407  0.00  0.00    -0.070 Cl
ENDROOT
TORSDOF 0
ENDMDL
