MODEL 1
REMARK minimizedAffinity 16.2180977
REMARK minimizedRMSD -1
REMARK  0 active torsions:
REMARK  status: ('A' for Active; 'I' for Inactive)
ROOT
ATOM      1  C   UNL d   1       4.433   0.945  -3.636  0.00  0.00     0.020 A 
ATOM      2  C1  UNL d   1       4.838  -0.389  -3.627  0.00  0.00     0.020 A 
ATOM      3  C2  UNL d   1       4.613  -1.180  -2.499  0.00  0.00     0.034 A 
ATOM      4  C3  UNL d   1       3.980  -0.638  -1.374  0.00  0.00     0.017 A 
ATOM      5  C4  UNL d   1       3.573   0.702  -1.384  0.00  0.00     0.017 A 
ATOM      6  C5  UNL d   1       3.802   1.489  -2.517  0.00  0.00     0.034 A 
ATOM      7 Cl   UNL d   1       2.787   1.441  -0.035  0.00  0.00    -0.070 Cl
ATOM      8 Cl1  UNL d   1       3.733  -1.673  -0.013  0.00  0.00    -0.070 Cl
ENDROOT
TORSDOF 0
ENDMDL
