MODEL 1
REMARK minimizedAffinity 8.13858604
REMARK minimizedRMSD -1
REMARK  0 active torsions:
REMARK  status: ('A' for Active; 'I' for Inactive)
ROOT
ATOM      1  C   UNL d   1       3.471  -0.653   2.279  0.00  0.00     0.020 A 
ATOM      2  C1  UNL d   1       3.187   0.078   3.432  0.00  0.00     0.020 A 
ATOM      3  C2  UNL d   1       1.878   0.140   3.914  0.00  0.00     0.034 A 
ATOM      4  C3  UNL d   1       0.848  -0.530   3.244  0.00  0.00     0.017 A 
ATOM      5  C4  UNL d   1       1.135  -1.263   2.086  0.00  0.00     0.017 A 
ATOM      6  C5  UNL d   1       2.447  -1.322   1.608  0.00  0.00     0.034 A 
ATOM      7 Cl   UNL d   1      -0.083  -2.116   1.204  0.00  0.00    -0.070 Cl
ATOM      8 Cl1  UNL d   1      -0.747  -0.411   3.896  0.00  0.00    -0.070 Cl
ENDROOT
TORSDOF 0
ENDMDL
