MODEL 1
REMARK minimizedAffinity 13.7862978
REMARK minimizedRMSD -1
REMARK  0 active torsions:
REMARK  status: ('A' for Active; 'I' for Inactive)
ROOT
ATOM      1  C   UNL d   1       1.612  -2.615   0.484  0.00  0.00     0.020 A 
ATOM      2  C1  UNL d   1       2.810  -2.077   0.017  0.00  0.00     0.020 A 
ATOM      3  C2  UNL d   1       3.419  -1.027   0.708  0.00  0.00     0.034 A 
ATOM      4  C3  UNL d   1       2.830  -0.512   1.868  0.00  0.00     0.017 A 
ATOM      5  C4  UNL d   1       1.628  -1.053   2.336  0.00  0.00     0.017 A 
ATOM      6  C5  UNL d   1       1.022  -2.105   1.641  0.00  0.00     0.034 A 
ATOM      7 Cl   UNL d   1       0.841  -0.471   3.761  0.00  0.00    -0.070 Cl
ATOM      8 Cl1  UNL d   1       3.639   0.787   2.672  0.00  0.00    -0.070 Cl
ENDROOT
TORSDOF 0
ENDMDL
