MODEL 1
REMARK minimizedAffinity 12.0598526
REMARK minimizedRMSD -1
REMARK  0 active torsions:
REMARK  status: ('A' for Active; 'I' for Inactive)
ROOT
ATOM      1  C   UNL d   1       1.632  -0.519   1.927  0.00  0.00     0.020 A 
ATOM      2  C1  UNL d   1       1.301  -1.652   1.185  0.00  0.00     0.020 A 
ATOM      3  C2  UNL d   1       0.258  -2.481   1.604  0.00  0.00     0.034 A 
ATOM      4  C3  UNL d   1      -0.456  -2.179   2.770  0.00  0.00     0.017 A 
ATOM      5  C4  UNL d   1      -0.122  -1.042   3.514  0.00  0.00     0.017 A 
ATOM      6  C5  UNL d   1       0.922  -0.215   3.089  0.00  0.00     0.034 A 
ATOM      7 Cl   UNL d   1      -0.958  -0.604   4.962  0.00  0.00    -0.070 Cl
ATOM      8 Cl1  UNL d   1      -1.733  -3.249   3.229  0.00  0.00    -0.070 Cl
ENDROOT
TORSDOF 0
ENDMDL
