MODEL 1
REMARK minimizedAffinity 21.1605492
REMARK minimizedRMSD -1
REMARK  0 active torsions:
REMARK  status: ('A' for Active; 'I' for Inactive)
ROOT
ATOM      1  C   UNL d   1      -4.818   4.025  -1.104  0.00  0.00     0.020 A 
ATOM      2  C1  UNL d   1      -4.666   5.411  -1.109  0.00  0.00     0.020 A 
ATOM      3  C2  UNL d   1      -3.641   5.999  -1.854  0.00  0.00     0.034 A 
ATOM      4  C3  UNL d   1      -2.765   5.201  -2.597  0.00  0.00     0.017 A 
ATOM      5  C4  UNL d   1      -2.918   3.809  -2.592  0.00  0.00     0.017 A 
ATOM      6  C5  UNL d   1      -3.945   3.226  -1.845  0.00  0.00     0.034 A 
ATOM      7 Cl   UNL d   1      -1.875   2.759  -3.485  0.00  0.00    -0.070 Cl
ATOM      8 Cl1  UNL d   1      -1.521   5.995  -3.496  0.00  0.00    -0.070 Cl
ENDROOT
TORSDOF 0
ENDMDL
