MODEL 1
REMARK minimizedAffinity 23.5448513
REMARK minimizedRMSD -1
REMARK  0 active torsions:
REMARK  status: ('A' for Active; 'I' for Inactive)
ROOT
ATOM      1  C   UNL d   1       3.550   1.132   2.705  0.00  0.00     0.020 A 
ATOM      2  C1  UNL d   1       3.722   0.389   1.538  0.00  0.00     0.020 A 
ATOM      3  C2  UNL d   1       2.724  -0.493   1.118  0.00  0.00     0.034 A 
ATOM      4  C3  UNL d   1       1.550  -0.635   1.867  0.00  0.00     0.017 A 
ATOM      5  C4  UNL d   1       1.378   0.111   3.038  0.00  0.00     0.017 A 
ATOM      6  C5  UNL d   1       2.380   0.994   3.453  0.00  0.00     0.034 A 
ATOM      7 Cl   UNL d   1      -0.043  -0.009   4.014  0.00  0.00    -0.070 Cl
ATOM      8 Cl1  UNL d   1       0.357  -1.744   1.289  0.00  0.00    -0.070 Cl
ENDROOT
TORSDOF 0
ENDMDL
