MODEL 1
REMARK minimizedAffinity 13.9318762
REMARK minimizedRMSD -1
REMARK  0 active torsions:
REMARK  status: ('A' for Active; 'I' for Inactive)
ROOT
ATOM      1  C   UNL d   1       0.391  -1.344   1.875  0.00  0.00     0.020 A 
ATOM      2  C1  UNL d   1      -0.275  -1.068   3.068  0.00  0.00     0.020 A 
ATOM      3  C2  UNL d   1       0.428  -0.546   4.156  0.00  0.00     0.034 A 
ATOM      4  C3  UNL d   1       1.802  -0.299   4.053  0.00  0.00     0.017 A 
ATOM      5  C4  UNL d   1       2.470  -0.577   2.855  0.00  0.00     0.017 A 
ATOM      6  C5  UNL d   1       1.761  -1.099   1.768  0.00  0.00     0.034 A 
ATOM      7 Cl   UNL d   1       4.164  -0.298   2.652  0.00  0.00    -0.070 Cl
ATOM      8 Cl1  UNL d   1       2.608   0.347   5.438  0.00  0.00    -0.070 Cl
ENDROOT
TORSDOF 0
ENDMDL
