MODEL 1
REMARK minimizedAffinity 6.87315989
REMARK minimizedRMSD -1
REMARK  0 active torsions:
REMARK  status: ('A' for Active; 'I' for Inactive)
ROOT
ATOM      1  C   UNL d   1       1.619  -2.276   0.918  0.00  0.00     0.020 A 
ATOM      2  C1  UNL d   1       2.090  -1.125   1.548  0.00  0.00     0.020 A 
ATOM      3  C2  UNL d   1       1.406  -0.600   2.646  0.00  0.00     0.034 A 
ATOM      4  C3  UNL d   1       0.247  -1.227   3.118  0.00  0.00     0.017 A 
ATOM      5  C4  UNL d   1      -0.225  -2.382   2.486  0.00  0.00     0.017 A 
ATOM      6  C5  UNL d   1       0.464  -2.903   1.386  0.00  0.00     0.034 A 
ATOM      7 Cl   UNL d   1      -1.648  -3.211   3.011  0.00  0.00    -0.070 Cl
ATOM      8 Cl1  UNL d   1      -0.548  -0.523   4.482  0.00  0.00    -0.070 Cl
ENDROOT
TORSDOF 0
ENDMDL
