MODEL 1
REMARK minimizedAffinity 9.05183125
REMARK minimizedRMSD -1
REMARK  0 active torsions:
REMARK  status: ('A' for Active; 'I' for Inactive)
ROOT
ATOM      1  C   UNL d   1       1.784   0.261   5.472  0.00  0.00     0.020 A 
ATOM      2  C1  UNL d   1       0.547  -0.335   5.231  0.00  0.00     0.020 A 
ATOM      3  C2  UNL d   1       0.254  -0.851   3.967  0.00  0.00     0.034 A 
ATOM      4  C3  UNL d   1       1.200  -0.772   2.938  0.00  0.00     0.017 A 
ATOM      5  C4  UNL d   1       2.442  -0.173   3.181  0.00  0.00     0.017 A 
ATOM      6  C5  UNL d   1       2.729   0.341   4.449  0.00  0.00     0.034 A 
ATOM      7 Cl   UNL d   1       3.660  -0.038   1.962  0.00  0.00    -0.070 Cl
ATOM      8 Cl1  UNL d   1       0.771  -1.430   1.400  0.00  0.00    -0.070 Cl
ENDROOT
TORSDOF 0
ENDMDL
