MODEL 1
REMARK minimizedAffinity 5.7353735
REMARK minimizedRMSD -1
REMARK  0 active torsions:
REMARK  status: ('A' for Active; 'I' for Inactive)
ROOT
ATOM      1  C   UNL d   1       1.677  -0.711   2.280  0.00  0.00     0.020 A 
ATOM      2  C1  UNL d   1       1.169  -1.688   1.424  0.00  0.00     0.020 A 
ATOM      3  C2  UNL d   1       0.043  -2.425   1.797  0.00  0.00     0.034 A 
ATOM      4  C3  UNL d   1      -0.579  -2.188   3.028  0.00  0.00     0.017 A 
ATOM      5  C4  UNL d   1      -0.068  -1.207   3.887  0.00  0.00     0.017 A 
ATOM      6  C5  UNL d   1       1.060  -0.472   3.509  0.00  0.00     0.034 A 
ATOM      7 Cl   UNL d   1      -0.780  -0.858   5.422  0.00  0.00    -0.070 Cl
ATOM      8 Cl1  UNL d   1      -1.967  -3.137   3.423  0.00  0.00    -0.070 Cl
ENDROOT
TORSDOF 0
ENDMDL
