MODEL 1
REMARK minimizedAffinity 7.3728981
REMARK minimizedRMSD -1
REMARK  0 active torsions:
REMARK  status: ('A' for Active; 'I' for Inactive)
ROOT
ATOM      1  C   UNL d   1       2.119  -1.883   1.380  0.00  0.00     0.020 A 
ATOM      2  C1  UNL d   1       2.422  -0.762   2.153  0.00  0.00     0.020 A 
ATOM      3  C2  UNL d   1       1.533  -0.335   3.141  0.00  0.00     0.034 A 
ATOM      4  C3  UNL d   1       0.337  -1.028   3.360  0.00  0.00     0.017 A 
ATOM      5  C4  UNL d   1       0.034  -2.153   2.585  0.00  0.00     0.017 A 
ATOM      6  C5  UNL d   1       0.927  -2.577   1.596  0.00  0.00     0.034 A 
ATOM      7 Cl   UNL d   1      -1.423  -3.059   2.796  0.00  0.00    -0.070 Cl
ATOM      8 Cl1  UNL d   1      -0.715  -0.443   4.600  0.00  0.00    -0.070 Cl
ENDROOT
TORSDOF 0
ENDMDL
