MODEL 1
REMARK minimizedAffinity -2.75133586
REMARK minimizedRMSD -1
REMARK  0 active torsions:
REMARK  status: ('A' for Active; 'I' for Inactive)
ROOT
ATOM      1  N1  IND d   1       0.254   4.865  -5.979  0.00  0.00    -0.196 N 
ATOM      2  C2  IND d   1       1.082   3.778  -5.946  0.00  0.00     0.054 A 
ATOM      3  C3  IND d   1       0.359   2.636  -5.908  0.00  0.00    -0.031 A 
ATOM      4  C4  IND d   1      -2.193   2.313  -5.997  0.00  0.00     0.051 A 
ATOM      5  C5  IND d   1      -3.368   3.011  -5.996  0.00  0.00    -0.031 A 
ATOM      6  C6  IND d   1      -3.396   4.391  -5.992  0.00  0.00     0.015 A 
ATOM      7  C7  IND d   1      -2.245   5.127  -6.000  0.00  0.00    -0.016 A 
ATOM      8  C8  IND d   1      -1.050   4.421  -5.994  0.00  0.00    -0.047 A 
ATOM      9  C9  IND d   1      -1.015   3.022  -5.956  0.00  0.00    -0.096 A 
ATOM     10  HN1 IND d   1       0.505   5.687  -5.989  0.00  0.00     0.298 HD
ENDROOT
TORSDOF 0
ENDMDL
