MODEL 1
REMARK minimizedAffinity -1.35538495
REMARK minimizedRMSD -1
REMARK  0 active torsions:
REMARK  status: ('A' for Active; 'I' for Inactive)
ROOT
ATOM      1  N1  IND d   1       0.937   5.899  -6.000  0.00  0.00    -0.196 N 
ATOM      2  C2  IND d   1       0.038   4.869  -5.994  0.00  0.00     0.054 A 
ATOM      3  C3  IND d   1       0.683   3.681  -5.999  0.00  0.00    -0.031 A 
ATOM      4  C4  IND d   1       3.209   3.191  -5.912  0.00  0.00     0.051 A 
ATOM      5  C5  IND d   1       4.427   3.809  -5.941  0.00  0.00    -0.031 A 
ATOM      6  C6  IND d   1       4.547   5.183  -5.990  0.00  0.00     0.015 A 
ATOM      7  C7  IND d   1       3.448   5.994  -5.999  0.00  0.00    -0.016 A 
ATOM      8  C8  IND d   1       2.209   5.370  -5.977  0.00  0.00    -0.047 A 
ATOM      9  C9  IND d   1       2.080   3.975  -5.971  0.00  0.00    -0.096 A 
ATOM     10  HN1 IND d   1       0.741   6.736  -6.014  0.00  0.00     0.298 HD
ENDROOT
TORSDOF 0
ENDMDL
