MODEL 1
REMARK minimizedAffinity 1.37759829
REMARK minimizedRMSD -1
REMARK  0 active torsions:
REMARK  status: ('A' for Active; 'I' for Inactive)
ROOT
ATOM      1  N1  IND d   1       0.478   3.372  -5.998  0.00  0.00    -0.196 N 
ATOM      2  C2  IND d   1      -0.374   4.442  -5.987  0.00  0.00     0.054 A 
ATOM      3  C3  IND d   1       0.324   5.599  -5.946  0.00  0.00    -0.031 A 
ATOM      4  C4  IND d   1       2.871   5.974  -5.992  0.00  0.00     0.051 A 
ATOM      5  C5  IND d   1       4.060   5.301  -5.965  0.00  0.00    -0.031 A 
ATOM      6  C6  IND d   1       4.117   3.922  -5.950  0.00  0.00     0.015 A 
ATOM      7  C7  IND d   1       2.981   3.162  -5.973  0.00  0.00    -0.016 A 
ATOM      8  C8  IND d   1       1.772   3.843  -5.994  0.00  0.00    -0.047 A 
ATOM      9  C9  IND d   1       1.708   5.242  -5.966  0.00  0.00    -0.096 A 
ATOM     10  HN1 IND d   1       0.244   2.545  -6.007  0.00  0.00     0.298 HD
ENDROOT
TORSDOF 0
ENDMDL
