MODEL 1
REMARK minimizedAffinity 4.76521635
REMARK minimizedRMSD -1
REMARK  0 active torsions:
REMARK  status: ('A' for Active; 'I' for Inactive)
ROOT
ATOM      1  N1  IND d   1      -1.782  -1.895  -1.815  0.00  0.00    -0.196 N 
ATOM      2  C2  IND d   1      -2.462  -3.014  -1.422  0.00  0.00     0.054 A 
ATOM      3  C3  IND d   1      -1.879  -4.122  -1.932  0.00  0.00    -0.031 A 
ATOM      4  C4  IND d   1       0.258  -4.340  -3.351  0.00  0.00     0.051 A 
ATOM      5  C5  IND d   1       1.205  -3.593  -3.994  0.00  0.00    -0.031 A 
ATOM      6  C6  IND d   1       1.207  -2.214  -3.939  0.00  0.00     0.015 A 
ATOM      7  C7  IND d   1       0.263  -1.528  -3.228  0.00  0.00    -0.016 A 
ATOM      8  C8  IND d   1      -0.704  -2.283  -2.580  0.00  0.00    -0.047 A 
ATOM      9  C9  IND d   1      -0.736  -3.681  -2.667  0.00  0.00    -0.096 A 
ATOM     10  HN1 IND d   1      -1.992  -1.085  -1.618  0.00  0.00     0.298 HD
ENDROOT
TORSDOF 0
ENDMDL
