MODEL 1
REMARK minimizedAffinity 2.09485793
REMARK minimizedRMSD -1
REMARK  0 active torsions:
REMARK  status: ('A' for Active; 'I' for Inactive)
ROOT
ATOM      1  N1  IND d   1      -1.967   5.425  -5.919  0.00  0.00    -0.196 N 
ATOM      2  C2  IND d   1      -2.884   4.412  -5.931  0.00  0.00     0.054 A 
ATOM      3  C3  IND d   1      -2.261   3.214  -5.986  0.00  0.00    -0.031 A 
ATOM      4  C4  IND d   1       0.257   2.677  -5.961  0.00  0.00     0.051 A 
ATOM      5  C5  IND d   1       1.486   3.274  -5.992  0.00  0.00    -0.031 A 
ATOM      6  C6  IND d   1       1.630   4.647  -5.998  0.00  0.00     0.015 A 
ATOM      7  C7  IND d   1       0.545   5.477  -5.961  0.00  0.00    -0.016 A 
ATOM      8  C8  IND d   1      -0.705   4.874  -5.937  0.00  0.00    -0.047 A 
ATOM      9  C9  IND d   1      -0.858   3.482  -5.973  0.00  0.00    -0.096 A 
ATOM     10  HN1 IND d   1      -2.148   6.266  -5.904  0.00  0.00     0.298 HD
ENDROOT
TORSDOF 0
ENDMDL
