MODEL 1
REMARK minimizedAffinity -1.57536983
REMARK minimizedRMSD -1
REMARK  0 active torsions:
REMARK  status: ('A' for Active; 'I' for Inactive)
ROOT
ATOM      1  N1  IND d   1       0.710   5.251  -6.000  0.00  0.00    -0.196 N 
ATOM      2  C2  IND d   1       1.402   4.072  -5.986  0.00  0.00     0.054 A 
ATOM      3  C3  IND d   1       0.548   3.025  -5.943  0.00  0.00    -0.031 A 
ATOM      4  C4  IND d   1      -2.026   3.013  -5.992  0.00  0.00     0.051 A 
ATOM      5  C5  IND d   1      -3.108   3.847  -5.968  0.00  0.00    -0.031 A 
ATOM      6  C6  IND d   1      -2.970   5.220  -5.955  0.00  0.00     0.015 A 
ATOM      7  C7  IND d   1      -1.739   5.812  -5.978  0.00  0.00    -0.016 A 
ATOM      8  C8  IND d   1      -0.638   4.968  -5.996  0.00  0.00    -0.047 A 
ATOM      9  C9  IND d   1      -0.771   3.574  -5.966  0.00  0.00    -0.096 A 
ATOM     10  HN1 IND d   1       1.059   6.037  -6.009  0.00  0.00     0.298 HD
ENDROOT
TORSDOF 0
ENDMDL
