MODEL 1
REMARK minimizedAffinity 3.36364293
REMARK minimizedRMSD -1
REMARK  0 active torsions:
REMARK  status: ('A' for Active; 'I' for Inactive)
ROOT
ATOM      1  N1  IND d   1       5.273   4.620  -0.052  0.00  0.00    -0.196 N 
ATOM      2  C2  IND d   1       4.547   5.477   0.728  0.00  0.00     0.054 A 
ATOM      3  C3  IND d   1       3.228   5.357   0.456  0.00  0.00    -0.031 A 
ATOM      4  C4  IND d   1       2.030   3.746  -1.156  0.00  0.00     0.051 A 
ATOM      5  C5  IND d   1       2.273   2.801  -2.112  0.00  0.00    -0.031 A 
ATOM      6  C6  IND d   1       3.555   2.403  -2.435  0.00  0.00     0.015 A 
ATOM      7  C7  IND d   1       4.645   2.931  -1.803  0.00  0.00    -0.016 A 
ATOM      8  C8  IND d   1       4.402   3.897  -0.837  0.00  0.00    -0.047 A 
ATOM      9  C9  IND d   1       3.106   4.335  -0.534  0.00  0.00    -0.096 A 
ATOM     10  HN1 IND d   1       6.130   4.546  -0.053  0.00  0.00     0.298 HD
ENDROOT
TORSDOF 0
ENDMDL
