MODEL 1
REMARK minimizedAffinity 2.07174563
REMARK minimizedRMSD -1
REMARK  0 active torsions:
REMARK  status: ('A' for Active; 'I' for Inactive)
ROOT
ATOM      1  N1  IND d   1      -2.081   3.538  -5.989  0.00  0.00    -0.196 N 
ATOM      2  C2  IND d   1      -2.841   4.674  -5.964  0.00  0.00     0.054 A 
ATOM      3  C3  IND d   1      -2.048   5.769  -5.923  0.00  0.00    -0.031 A 
ATOM      4  C4  IND d   1       0.520   5.933  -5.990  0.00  0.00     0.051 A 
ATOM      5  C5  IND d   1       1.649   5.163  -5.977  0.00  0.00    -0.031 A 
ATOM      6  C6  IND d   1       1.592   3.785  -5.970  0.00  0.00     0.015 A 
ATOM      7  C7  IND d   1       0.397   3.121  -5.987  0.00  0.00    -0.016 A 
ATOM      8  C8  IND d   1      -0.751   3.900  -5.993  0.00  0.00    -0.047 A 
ATOM      9  C9  IND d   1      -0.700   5.299  -5.957  0.00  0.00    -0.096 A 
ATOM     10  HN1 IND d   1      -2.382   2.733  -6.000  0.00  0.00     0.298 HD
ENDROOT
TORSDOF 0
ENDMDL
