MODEL 1
REMARK minimizedAffinity -3.44208455
REMARK minimizedRMSD -1
REMARK  0 active torsions:
REMARK  status: ('A' for Active; 'I' for Inactive)
ROOT
ATOM      1  N1  IND d   1       1.134   1.910  -5.978  0.00  0.00    -0.196 N 
ATOM      2  C2  IND d   1       2.057   2.918  -5.978  0.00  0.00     0.054 A 
ATOM      3  C3  IND d   1       1.441   4.121  -6.000  0.00  0.00    -0.031 A 
ATOM      4  C4  IND d   1      -1.073   4.672  -5.935  0.00  0.00     0.051 A 
ATOM      5  C5  IND d   1      -2.306   4.083  -5.966  0.00  0.00    -0.031 A 
ATOM      6  C6  IND d   1      -2.458   2.711  -6.000  0.00  0.00     0.015 A 
ATOM      7  C7  IND d   1      -1.379   1.874  -5.993  0.00  0.00    -0.016 A 
ATOM      8  C8  IND d   1      -0.125   2.469  -5.969  0.00  0.00    -0.047 A 
ATOM      9  C9  IND d   1       0.036   3.861  -5.978  0.00  0.00    -0.096 A 
ATOM     10  HN1 IND d   1       1.310   1.068  -5.982  0.00  0.00     0.298 HD
ENDROOT
TORSDOF 0
ENDMDL
