MODEL 1
REMARK minimizedAffinity -2.00329208
REMARK minimizedRMSD -1
REMARK  0 active torsions:
REMARK  status: ('A' for Active; 'I' for Inactive)
ROOT
ATOM      1  N1  IND d   1       0.674   3.534  -5.918  0.00  0.00    -0.196 N 
ATOM      2  C2  IND d   1      -0.115   4.649  -5.860  0.00  0.00     0.054 A 
ATOM      3  C3  IND d   1       0.648   5.764  -5.828  0.00  0.00    -0.031 A 
ATOM      4  C4  IND d   1       3.208   6.000  -5.965  0.00  0.00     0.051 A 
ATOM      5  C5  IND d   1       4.358   5.261  -5.992  0.00  0.00    -0.031 A 
ATOM      6  C6  IND d   1       4.338   3.881  -5.999  0.00  0.00     0.015 A 
ATOM      7  C7  IND d   1       3.162   3.186  -5.990  0.00  0.00    -0.016 A 
ATOM      8  C8  IND d   1       1.993   3.932  -5.956  0.00  0.00    -0.047 A 
ATOM      9  C9  IND d   1       2.007   5.332  -5.906  0.00  0.00    -0.096 A 
ATOM     10  HN1 IND d   1       0.395   2.721  -5.929  0.00  0.00     0.298 HD
ENDROOT
TORSDOF 0
ENDMDL
