MODEL 1
REMARK minimizedAffinity 5.808002
REMARK minimizedRMSD -1
REMARK  0 active torsions:
REMARK  status: ('A' for Active; 'I' for Inactive)
ROOT
ATOM      1  N1  IND d   1      -1.934   3.603  -5.680  0.00  0.00    -0.196 N 
ATOM      2  C2  IND d   1      -2.548   4.807  -5.886  0.00  0.00     0.054 A 
ATOM      3  C3  IND d   1      -1.628   5.792  -5.986  0.00  0.00    -0.031 A 
ATOM      4  C4  IND d   1       0.941   5.642  -5.943  0.00  0.00     0.051 A 
ATOM      5  C5  IND d   1       1.966   4.760  -5.742  0.00  0.00    -0.031 A 
ATOM      6  C6  IND d   1       1.738   3.420  -5.508  0.00  0.00     0.015 A 
ATOM      7  C7  IND d   1       0.472   2.907  -5.477  0.00  0.00    -0.016 A 
ATOM      8  C8  IND d   1      -0.571   3.801  -5.674  0.00  0.00    -0.047 A 
ATOM      9  C9  IND d   1      -0.348   5.170  -5.870  0.00  0.00    -0.096 A 
ATOM     10  HN1 IND d   1      -2.333   2.848  -5.572  0.00  0.00     0.298 HD
ENDROOT
TORSDOF 0
ENDMDL
