MODEL 1
REMARK minimizedAffinity -1.95502543
REMARK minimizedRMSD -1
REMARK  0 active torsions:
REMARK  status: ('A' for Active; 'I' for Inactive)
ROOT
ATOM      1  N1  IND d   1      -0.658   2.273  -5.994  0.00  0.00    -0.196 N 
ATOM      2  C2  IND d   1      -1.517   3.336  -5.973  0.00  0.00     0.054 A 
ATOM      3  C3  IND d   1      -0.826   4.498  -5.934  0.00  0.00    -0.031 A 
ATOM      4  C4  IND d   1       1.717   4.891  -5.999  0.00  0.00     0.051 A 
ATOM      5  C5  IND d   1       2.911   4.226  -5.984  0.00  0.00    -0.031 A 
ATOM      6  C6  IND d   1       2.977   2.848  -5.973  0.00  0.00     0.015 A 
ATOM      7  C7  IND d   1       1.847   2.080  -5.989  0.00  0.00    -0.016 A 
ATOM      8  C8  IND d   1       0.633   2.752  -5.998  0.00  0.00    -0.047 A 
ATOM      9  C9  IND d   1       0.559   4.151  -5.966  0.00  0.00    -0.096 A 
ATOM     10  HN1 IND d   1      -0.886   1.444  -6.003  0.00  0.00     0.298 HD
ENDROOT
TORSDOF 0
ENDMDL
