MODEL 1
REMARK minimizedAffinity -3.95067954
REMARK minimizedRMSD -1
REMARK  0 active torsions:
REMARK  status: ('A' for Active; 'I' for Inactive)
ROOT
ATOM      1  N1  IND d   1       0.639   4.859  -5.992  0.00  0.00    -0.196 N 
ATOM      2  C2  IND d   1       1.455   3.763  -5.987  0.00  0.00     0.054 A 
ATOM      3  C3  IND d   1       0.720   2.629  -5.951  0.00  0.00    -0.031 A 
ATOM      4  C4  IND d   1      -1.837   2.336  -5.997  0.00  0.00     0.051 A 
ATOM      5  C5  IND d   1      -3.004   3.047  -5.965  0.00  0.00    -0.031 A 
ATOM      6  C6  IND d   1      -3.016   4.427  -5.943  0.00  0.00     0.015 A 
ATOM      7  C7  IND d   1      -1.857   5.150  -5.964  0.00  0.00    -0.016 A 
ATOM      8  C8  IND d   1      -0.670   4.431  -5.989  0.00  0.00    -0.047 A 
ATOM      9  C9  IND d   1      -0.651   3.030  -5.968  0.00  0.00    -0.096 A 
ATOM     10  HN1 IND d   1       0.900   5.678  -5.997  0.00  0.00     0.298 HD
ENDROOT
TORSDOF 0
ENDMDL
