MODEL 1
REMARK minimizedAffinity 0.887389779
REMARK minimizedRMSD -1
REMARK  0 active torsions:
REMARK  status: ('A' for Active; 'I' for Inactive)
ROOT
ATOM      1  N1  IND d   1      -0.698   4.495  -5.994  0.00  0.00    -0.196 N 
ATOM      2  C2  IND d   1      -0.540   3.137  -5.997  0.00  0.00     0.054 A 
ATOM      3  C3  IND d   1      -1.744   2.523  -5.962  0.00  0.00    -0.031 A 
ATOM      4  C4  IND d   1      -4.105   3.550  -5.999  0.00  0.00     0.051 A 
ATOM      5  C5  IND d   1      -4.759   4.749  -5.959  0.00  0.00    -0.031 A 
ATOM      6  C6  IND d   1      -4.079   5.950  -5.932  0.00  0.00     0.015 A 
ATOM      7  C7  IND d   1      -2.714   5.996  -5.954  0.00  0.00    -0.016 A 
ATOM      8  C8  IND d   1      -2.046   4.779  -5.987  0.00  0.00    -0.047 A 
ATOM      9  C9  IND d   1      -2.730   3.557  -5.972  0.00  0.00    -0.096 A 
ATOM     10  HN1 IND d   1      -0.063   5.074  -5.996  0.00  0.00     0.298 HD
ENDROOT
TORSDOF 0
ENDMDL
