MODEL 1
REMARK minimizedAffinity -2.71489763
REMARK minimizedRMSD -1
REMARK  0 active torsions:
REMARK  status: ('A' for Active; 'I' for Inactive)
ROOT
ATOM      1  N1  IND d   1       0.999   4.497  -5.994  0.00  0.00    -0.196 N 
ATOM      2  C2  IND d   1       1.660   3.300  -5.971  0.00  0.00     0.054 A 
ATOM      3  C3  IND d   1       0.778   2.276  -5.932  0.00  0.00    -0.031 A 
ATOM      4  C4  IND d   1      -1.795   2.331  -6.000  0.00  0.00     0.051 A 
ATOM      5  C5  IND d   1      -2.855   3.194  -5.986  0.00  0.00    -0.031 A 
ATOM      6  C6  IND d   1      -2.681   4.563  -5.977  0.00  0.00     0.015 A 
ATOM      7  C7  IND d   1      -1.434   5.122  -5.993  0.00  0.00    -0.016 A 
ATOM      8  C8  IND d   1      -0.356   4.249  -6.000  0.00  0.00    -0.047 A 
ATOM      9  C9  IND d   1      -0.526   2.859  -5.966  0.00  0.00    -0.096 A 
ATOM     10  HN1 IND d   1       1.368   5.273  -6.004  0.00  0.00     0.298 HD
ENDROOT
TORSDOF 0
ENDMDL
