MODEL 1
REMARK minimizedAffinity -1.39046657
REMARK minimizedRMSD -1
REMARK  0 active torsions:
REMARK  status: ('A' for Active; 'I' for Inactive)
ROOT
ATOM      1  N1  IND d   1      -0.267   5.643  -5.988  0.00  0.00    -0.196 N 
ATOM      2  C2  IND d   1      -1.189   4.633  -5.985  0.00  0.00     0.054 A 
ATOM      3  C3  IND d   1      -0.570   3.431  -5.999  0.00  0.00    -0.031 A 
ATOM      4  C4  IND d   1       1.945   2.886  -5.926  0.00  0.00     0.051 A 
ATOM      5  C5  IND d   1       3.177   3.477  -5.958  0.00  0.00    -0.031 A 
ATOM      6  C6  IND d   1       3.326   4.848  -5.999  0.00  0.00     0.015 A 
ATOM      7  C7  IND d   1       2.245   5.683  -5.999  0.00  0.00    -0.016 A 
ATOM      8  C8  IND d   1       0.993   5.086  -5.974  0.00  0.00    -0.047 A 
ATOM      9  C9  IND d   1       0.834   3.694  -5.975  0.00  0.00    -0.096 A 
ATOM     10  HN1 IND d   1      -0.445   6.484  -5.998  0.00  0.00     0.298 HD
ENDROOT
TORSDOF 0
ENDMDL
