MODEL 1
REMARK minimizedAffinity 14.0016499
REMARK minimizedRMSD -1
REMARK  0 active torsions:
REMARK  status: ('A' for Active; 'I' for Inactive)
ROOT
ATOM      1  C1  DEN d   1      -1.361   3.527   1.048  0.00  0.00     0.130 A 
ATOM      2  C2  DEN d   1      -0.144   2.983   1.644  0.00  0.00    -0.031 A 
ATOM      3  C3  DEN d   1       1.012   3.566   0.935  0.00  0.00     0.027 A 
ATOM      4  C4  DEN d   1       1.037   5.256  -1.014  0.00  0.00     0.027 A 
ATOM      5  C5  DEN d   1       0.250   5.997  -1.866  0.00  0.00    -0.003 A 
ATOM      6  C6  DEN d   1      -1.118   5.942  -1.831  0.00  0.00     0.001 A 
ATOM      7  C7  DEN d   1      -1.742   5.162  -0.893  0.00  0.00     0.017 A 
ATOM      8  C8  DEN d   1      -0.955   4.406  -0.034  0.00  0.00    -0.094 A 
ATOM      9  C9  DEN d   1       0.427   4.485  -0.078  0.00  0.00    -0.072 A 
ENDROOT
TORSDOF 0
ENDMDL
