MODEL 1
REMARK minimizedAffinity 1.91983426
REMARK minimizedRMSD -1
REMARK  0 active torsions:
REMARK  status: ('A' for Active; 'I' for Inactive)
ROOT
ATOM      1  C1  DEN d   1      -0.452   5.986  -0.522  0.00  0.00     0.130 A 
ATOM      2  C2  DEN d   1       0.447   5.008  -1.129  0.00  0.00    -0.031 A 
ATOM      3  C3  DEN d   1       0.546   3.851  -0.217  0.00  0.00     0.027 A 
ATOM      4  C4  DEN d   1      -0.605   3.477   2.061  0.00  0.00     0.027 A 
ATOM      5  C5  DEN d   1      -1.451   4.032   2.996  0.00  0.00    -0.003 A 
ATOM      6  C6  DEN d   1      -1.992   5.281   2.841  0.00  0.00     0.001 A 
ATOM      7  C7  DEN d   1      -1.728   5.999   1.704  0.00  0.00     0.017 A 
ATOM      8  C8  DEN d   1      -0.870   5.449   0.760  0.00  0.00    -0.094 A 
ATOM      9  C9  DEN d   1      -0.343   4.180   0.930  0.00  0.00    -0.072 A 
ENDROOT
TORSDOF 0
ENDMDL
