MODEL 1
REMARK minimizedAffinity 6.22830439
REMARK minimizedRMSD -1
REMARK  0 active torsions:
REMARK  status: ('A' for Active; 'I' for Inactive)
ROOT
ATOM      1  C1  DEN d   1       1.114   5.096  -0.021  0.00  0.00     0.130 A 
ATOM      2  C2  DEN d   1      -0.195   4.656  -0.496  0.00  0.00    -0.031 A 
ATOM      3  C3  DEN d   1      -0.658   3.565   0.386  0.00  0.00     0.027 A 
ATOM      4  C4  DEN d   1       0.518   2.524   2.432  0.00  0.00     0.027 A 
ATOM      5  C5  DEN d   1       1.651   2.559   3.214  0.00  0.00    -0.003 A 
ATOM      6  C6  DEN d   1       2.692   3.411   2.953  0.00  0.00     0.001 A 
ATOM      7  C7  DEN d   1       2.600   4.296   1.912  0.00  0.00     0.017 A 
ATOM      8  C8  DEN d   1       1.463   4.262   1.115  0.00  0.00    -0.094 A 
ATOM      9  C9  DEN d   1       0.417   3.401   1.402  0.00  0.00    -0.072 A 
ENDROOT
TORSDOF 0
ENDMDL
