MODEL 1
REMARK minimizedAffinity 7.32707167
REMARK minimizedRMSD -1
REMARK  0 active torsions:
REMARK  status: ('A' for Active; 'I' for Inactive)
ROOT
ATOM      1  C1  DEN d   1      -1.377   3.807   2.340  0.00  0.00     0.130 A 
ATOM      2  C2  DEN d   1      -2.238   4.938   2.674  0.00  0.00    -0.031 A 
ATOM      3  C3  DEN d   1      -2.005   6.000   1.674  0.00  0.00     0.027 A 
ATOM      4  C4  DEN d   1      -0.406   6.000  -0.350  0.00  0.00     0.027 A 
ATOM      5  C5  DEN d   1       0.538   5.267  -1.035  0.00  0.00    -0.003 A 
ATOM      6  C6  DEN d   1       0.931   4.020  -0.627  0.00  0.00     0.001 A 
ATOM      7  C7  DEN d   1       0.345   3.449   0.472  0.00  0.00     0.017 A 
ATOM      8  C8  DEN d   1      -0.602   4.185   1.172  0.00  0.00    -0.094 A 
ATOM      9  C9  DEN d   1      -0.995   5.439   0.736  0.00  0.00    -0.072 A 
ENDROOT
TORSDOF 0
ENDMDL
