MODEL 1
REMARK minimizedAffinity 11.3090363
REMARK minimizedRMSD -1
REMARK  0 active torsions:
REMARK  status: ('A' for Active; 'I' for Inactive)
ROOT
ATOM      1  C1  DEN d   1       0.707   2.353   0.758  0.00  0.00     0.130 A 
ATOM      2  C2  DEN d   1      -0.260   2.251   1.847  0.00  0.00    -0.031 A 
ATOM      3  C3  DEN d   1      -1.113   3.456   1.815  0.00  0.00     0.027 A 
ATOM      4  C4  DEN d   1      -1.032   5.458   0.192  0.00  0.00     0.027 A 
ATOM      5  C5  DEN d   1      -0.375   6.000  -0.891  0.00  0.00    -0.003 A 
ATOM      6  C6  DEN d   1       0.701   5.385  -1.474  0.00  0.00     0.001 A 
ATOM      7  C7  DEN d   1       1.125   4.170  -1.005  0.00  0.00     0.017 A 
ATOM      8  C8  DEN d   1       0.472   3.621   0.091  0.00  0.00    -0.094 A 
ATOM      9  C9  DEN d   1      -0.622   4.252   0.658  0.00  0.00    -0.072 A 
ENDROOT
TORSDOF 0
ENDMDL
