MODEL 1
REMARK minimizedAffinity 6.92907429
REMARK minimizedRMSD -1
REMARK  0 active torsions:
REMARK  status: ('A' for Active; 'I' for Inactive)
ROOT
ATOM      1  C1  DEN d   1      -3.064   1.255   1.489  0.00  0.00     0.130 A 
ATOM      2  C2  DEN d   1      -3.750   1.328   0.202  0.00  0.00    -0.031 A 
ATOM      3  C3  DEN d   1      -2.892   2.086  -0.731  0.00  0.00     0.027 A 
ATOM      4  C4  DEN d   1      -0.578   3.145  -0.310  0.00  0.00     0.027 A 
ATOM      5  C5  DEN d   1       0.405   3.356   0.631  0.00  0.00    -0.003 A 
ATOM      6  C6  DEN d   1       0.287   2.915   1.923  0.00  0.00     0.001 A 
ATOM      7  C7  DEN d   1      -0.820   2.200   2.297  0.00  0.00     0.017 A 
ATOM      8  C8  DEN d   1      -1.819   1.990   1.356  0.00  0.00    -0.094 A 
ATOM      9  C9  DEN d   1      -1.675   2.433   0.052  0.00  0.00    -0.072 A 
ENDROOT
TORSDOF 0
ENDMDL
