MODEL 1
REMARK minimizedAffinity 11.5911198
REMARK minimizedRMSD -1
REMARK  0 active torsions:
REMARK  status: ('A' for Active; 'I' for Inactive)
ROOT
ATOM      1  C1  DEN d   1      -2.212  -1.506   3.005  0.00  0.00     0.130 A 
ATOM      2  C2  DEN d   1      -1.715  -0.522   2.048  0.00  0.00    -0.031 A 
ATOM      3  C3  DEN d   1      -2.774   0.485   1.836  0.00  0.00     0.027 A 
ATOM      4  C4  DEN d   1      -5.121   0.619   2.897  0.00  0.00     0.027 A 
ATOM      5  C5  DEN d   1      -5.999   0.002   3.761  0.00  0.00    -0.003 A 
ATOM      6  C6  DEN d   1      -5.693  -1.169   4.401  0.00  0.00     0.001 A 
ATOM      7  C7  DEN d   1      -4.459  -1.737   4.223  0.00  0.00     0.017 A 
ATOM      8  C8  DEN d   1      -3.571  -1.125   3.348  0.00  0.00    -0.094 A 
ATOM      9  C9  DEN d   1      -3.895   0.065   2.720  0.00  0.00    -0.072 A 
ENDROOT
TORSDOF 0
ENDMDL
