MODEL 1
REMARK minimizedAffinity -3.60091043
REMARK minimizedRMSD -1
REMARK  0 active torsions:
REMARK  status: ('A' for Active; 'I' for Inactive)
ROOT
ATOM      1  C   UNL d   1      -1.533  -2.131   1.107  0.00  0.00     0.172 C 
ATOM      2  N   UNL d   1      -0.957  -0.830   0.861  0.00  0.00    -0.070 N 
ATOM      3  C1  UNL d   1       0.320  -0.590   0.430  0.00  0.00    -0.004 A 
ATOM      4  C2  UNL d   1       0.479   0.774   0.318  0.00  0.00    -0.047 A 
ATOM      5  C3  UNL d   1      -0.745   1.375   0.694  0.00  0.00    -0.047 A 
ATOM      6  C4  UNL d   1      -1.617   0.360   1.026  0.00  0.00    -0.004 A 
ENDROOT
TORSDOF 0
ENDMDL
