MODEL 1
REMARK minimizedAffinity -3.97336674
REMARK minimizedRMSD -1
REMARK  0 active torsions:
REMARK  status: ('A' for Active; 'I' for Inactive)
ROOT
ATOM      1  C   UNL d   1      -0.088   0.555  -0.010  0.00  0.00     0.172 C 
ATOM      2  N   UNL d   1      -1.120  -0.259   0.588  0.00  0.00    -0.070 N 
ATOM      3  C1  UNL d   1      -1.075  -1.619   0.741  0.00  0.00    -0.004 A 
ATOM      4  C2  UNL d   1      -2.246  -2.014   1.351  0.00  0.00    -0.047 A 
ATOM      5  C3  UNL d   1      -3.021  -0.851   1.572  0.00  0.00    -0.047 A 
ATOM      6  C4  UNL d   1      -2.300   0.221   1.090  0.00  0.00    -0.004 A 
ENDROOT
TORSDOF 0
ENDMDL
