MODEL 1
REMARK minimizedAffinity -3.1028645
REMARK minimizedRMSD -1
REMARK  0 active torsions:
REMARK  status: ('A' for Active; 'I' for Inactive)
ROOT
ATOM      1  C   UNL d   1      -0.276   0.884  -0.037  0.00  0.00     0.172 C 
ATOM      2  N   UNL d   1      -0.625  -0.455   0.377  0.00  0.00    -0.070 N 
ATOM      3  C1  UNL d   1       0.255  -1.487   0.566  0.00  0.00    -0.004 A 
ATOM      4  C2  UNL d   1      -0.469  -2.592   0.958  0.00  0.00    -0.047 A 
ATOM      5  C3  UNL d   1      -1.831  -2.212   1.005  0.00  0.00    -0.047 A 
ATOM      6  C4  UNL d   1      -1.899  -0.884   0.641  0.00  0.00    -0.004 A 
ENDROOT
TORSDOF 0
ENDMDL
