MODEL 1
REMARK minimizedAffinity -3.46441722
REMARK minimizedRMSD -1
REMARK  0 active torsions:
REMARK  status: ('A' for Active; 'I' for Inactive)
ROOT
ATOM      1  C   UNL d   1      -0.734  -1.849   0.618  0.00  0.00     0.172 C 
ATOM      2  N   UNL d   1      -0.394  -0.466   0.380  0.00  0.00    -0.070 N 
ATOM      3  C1  UNL d   1      -1.252   0.596   0.481  0.00  0.00    -0.004 A 
ATOM      4  C2  UNL d   1      -0.546   1.740   0.178  0.00  0.00    -0.047 A 
ATOM      5  C3  UNL d   1       0.782   1.352  -0.118  0.00  0.00    -0.047 A 
ATOM      6  C4  UNL d   1       0.849  -0.019   0.015  0.00  0.00    -0.004 A 
ENDROOT
TORSDOF 0
ENDMDL
