MODEL 1
REMARK minimizedAffinity -3.85949564
REMARK minimizedRMSD -1
REMARK  0 active torsions:
REMARK  status: ('A' for Active; 'I' for Inactive)
ROOT
ATOM      1  C   UNL d   1      -0.258  -0.554   0.018  0.00  0.00     0.172 C 
ATOM      2  N   UNL d   1      -1.416  -1.074   0.705  0.00  0.00    -0.070 N 
ATOM      3  C1  UNL d   1      -2.338  -0.330   1.392  0.00  0.00    -0.004 A 
ATOM      4  C2  UNL d   1      -3.284  -1.193   1.900  0.00  0.00    -0.047 A 
ATOM      5  C3  UNL d   1      -2.918  -2.502   1.505  0.00  0.00    -0.047 A 
ATOM      6  C4  UNL d   1      -1.758  -2.399   0.766  0.00  0.00    -0.004 A 
ENDROOT
TORSDOF 0
ENDMDL
