MODEL 1
REMARK minimizedAffinity -1.67448926
REMARK minimizedRMSD -1
REMARK  0 active torsions:
REMARK  status: ('A' for Active; 'I' for Inactive)
ROOT
ATOM      1  C   UNL d   1      -0.942  -2.077   1.096  0.00  0.00     0.172 C 
ATOM      2  N   UNL d   1      -0.782  -0.705   0.676  0.00  0.00    -0.070 N 
ATOM      3  C1  UNL d   1      -1.611   0.334   1.008  0.00  0.00    -0.004 A 
ATOM      4  C2  UNL d   1      -1.117   1.474   0.413  0.00  0.00    -0.047 A 
ATOM      5  C3  UNL d   1       0.048   1.109  -0.301  0.00  0.00    -0.047 A 
ATOM      6  C4  UNL d   1       0.232  -0.246  -0.122  0.00  0.00    -0.004 A 
ENDROOT
TORSDOF 0
ENDMDL
