MODEL 1
REMARK minimizedAffinity -3.10175443
REMARK minimizedRMSD -1
REMARK  0 active torsions:
REMARK  status: ('A' for Active; 'I' for Inactive)
ROOT
ATOM      1  C   UNL d   1       1.222   1.720  -0.352  0.00  0.00     0.172 C 
ATOM      2  N   UNL d   1       0.186   0.783   0.013  0.00  0.00    -0.070 N 
ATOM      3  C1  UNL d   1      -1.051   1.111   0.501  0.00  0.00    -0.004 A 
ATOM      4  C2  UNL d   1      -1.741  -0.062   0.724  0.00  0.00    -0.047 A 
ATOM      5  C3  UNL d   1      -0.889  -1.131   0.357  0.00  0.00    -0.047 A 
ATOM      6  C4  UNL d   1       0.297  -0.579  -0.079  0.00  0.00    -0.004 A 
ENDROOT
TORSDOF 0
ENDMDL
