MODEL 1
REMARK minimizedAffinity -0.856957495
REMARK minimizedRMSD -1
REMARK  0 active torsions:
REMARK  status: ('A' for Active; 'I' for Inactive)
ROOT
ATOM      1  C   UNL d   1      -0.530  -1.840   1.193  0.00  0.00     0.172 C 
ATOM      2  N   UNL d   1      -0.371  -0.514   0.644  0.00  0.00    -0.070 N 
ATOM      3  C1  UNL d   1      -1.310   0.482   0.677  0.00  0.00    -0.004 A 
ATOM      4  C2  UNL d   1      -0.776   1.587   0.051  0.00  0.00    -0.047 A 
ATOM      5  C3  UNL d   1       0.530   1.243  -0.374  0.00  0.00    -0.047 A 
ATOM      6  C4  UNL d   1       0.754  -0.063   0.006  0.00  0.00    -0.004 A 
ENDROOT
TORSDOF 0
ENDMDL
