MODEL 1
REMARK minimizedAffinity -4.11786604
REMARK minimizedRMSD -1
REMARK  0 active torsions:
REMARK  status: ('A' for Active; 'I' for Inactive)
ROOT
ATOM      1  C   UNL d   1       0.103   0.530  -0.352  0.00  0.00     0.172 C 
ATOM      2  N   UNL d   1      -0.446  -0.623   0.324  0.00  0.00    -0.070 N 
ATOM      3  C1  UNL d   1       0.183  -1.828   0.485  0.00  0.00    -0.004 A 
ATOM      4  C2  UNL d   1      -0.669  -2.659   1.180  0.00  0.00    -0.047 A 
ATOM      5  C3  UNL d   1      -1.851  -1.928   1.445  0.00  0.00    -0.047 A 
ATOM      6  C4  UNL d   1      -1.686  -0.670   0.904  0.00  0.00    -0.004 A 
ENDROOT
TORSDOF 0
ENDMDL
