MODEL 1
REMARK minimizedAffinity -3.09629416
REMARK minimizedRMSD -1
REMARK  0 active torsions:
REMARK  status: ('A' for Active; 'I' for Inactive)
ROOT
ATOM      1  C   UNL d   1       0.132   0.849  -0.267  0.00  0.00     0.172 C 
ATOM      2  N   UNL d   1      -0.303  -0.451   0.186  0.00  0.00    -0.070 N 
ATOM      3  C1  UNL d   1      -1.591  -0.798   0.495  0.00  0.00    -0.004 A 
ATOM      4  C2  UNL d   1      -1.590  -2.120   0.885  0.00  0.00    -0.047 A 
ATOM      5  C3  UNL d   1      -0.254  -2.583   0.808  0.00  0.00    -0.047 A 
ATOM      6  C4  UNL d   1       0.521  -1.529   0.373  0.00  0.00    -0.004 A 
ENDROOT
TORSDOF 0
ENDMDL
