MODEL 1
REMARK minimizedAffinity -2.71884799
REMARK minimizedRMSD -1
REMARK  0 active torsions:
REMARK  status: ('A' for Active; 'I' for Inactive)
ROOT
ATOM      1  C   UNL d   1      -2.009  -2.219   0.787  0.00  0.00     0.172 C 
ATOM      2  N   UNL d   1      -1.121  -1.085   0.685  0.00  0.00    -0.070 N 
ATOM      3  C1  UNL d   1       0.211  -1.140   0.373  0.00  0.00    -0.004 A 
ATOM      4  C2  UNL d   1       0.698   0.150   0.377  0.00  0.00    -0.047 A 
ATOM      5  C3  UNL d   1      -0.378   1.008   0.703  0.00  0.00    -0.047 A 
ATOM      6  C4  UNL d   1      -1.492   0.218   0.889  0.00  0.00    -0.004 A 
ENDROOT
TORSDOF 0
ENDMDL
