MODEL 1
REMARK minimizedAffinity -4.21925402
REMARK minimizedRMSD -1
REMARK  0 active torsions:
REMARK  status: ('A' for Active; 'I' for Inactive)
ROOT
ATOM      1  C   UNL d   1       0.011   0.898  -0.164  0.00  0.00     0.172 C 
ATOM      2  N   UNL d   1      -0.290  -0.452   0.252  0.00  0.00    -0.070 N 
ATOM      3  C1  UNL d   1      -1.527  -0.922   0.604  0.00  0.00    -0.004 A 
ATOM      4  C2  UNL d   1      -1.394  -2.253   0.936  0.00  0.00    -0.047 A 
ATOM      5  C3  UNL d   1      -0.029  -2.594   0.779  0.00  0.00    -0.047 A 
ATOM      6  C4  UNL d   1       0.631  -1.461   0.355  0.00  0.00    -0.004 A 
ENDROOT
TORSDOF 0
ENDMDL
