MODEL 1
REMARK minimizedAffinity -3.72804379
REMARK minimizedRMSD -1
REMARK  0 active torsions:
REMARK  status: ('A' for Active; 'I' for Inactive)
ROOT
ATOM      1  C   UNL d   1       0.423   1.367   0.038  0.00  0.00     0.172 C 
ATOM      2  N   UNL d   1       0.087   0.003   0.375  0.00  0.00    -0.070 N 
ATOM      3  C1  UNL d   1      -1.166  -0.458   0.679  0.00  0.00    -0.004 A 
ATOM      4  C2  UNL d   1      -1.067  -1.808   0.939  0.00  0.00    -0.047 A 
ATOM      5  C3  UNL d   1       0.293  -2.170   0.786  0.00  0.00    -0.047 A 
ATOM      6  C4  UNL d   1       0.985  -1.029   0.436  0.00  0.00    -0.004 A 
ENDROOT
TORSDOF 0
ENDMDL
