MODEL 1
REMARK minimizedAffinity -3.55123925
REMARK minimizedRMSD -1
REMARK  0 active torsions:
REMARK  status: ('A' for Active; 'I' for Inactive)
ROOT
ATOM      1  C   UNL d   1       0.407   1.045  -0.115  0.00  0.00     0.172 C 
ATOM      2  N   UNL d   1      -0.242  -0.157   0.355  0.00  0.00    -0.070 N 
ATOM      3  C1  UNL d   1      -1.574  -0.284   0.644  0.00  0.00    -0.004 A 
ATOM      4  C2  UNL d   1      -1.794  -1.579   1.059  0.00  0.00    -0.047 A 
ATOM      5  C3  UNL d   1      -0.551  -2.254   1.020  0.00  0.00    -0.047 A 
ATOM      6  C4  UNL d   1       0.393  -1.349   0.581  0.00  0.00    -0.004 A 
ENDROOT
TORSDOF 0
ENDMDL
