MODEL 1
REMARK minimizedAffinity -1.60821366
REMARK minimizedRMSD -1
REMARK  0 active torsions:
REMARK  status: ('A' for Active; 'I' for Inactive)
ROOT
ATOM      1  C   UNL d   1       0.512   0.720  -0.032  0.00  0.00     0.172 C 
ATOM      2  N   UNL d   1       0.379  -0.646   0.417  0.00  0.00    -0.070 N 
ATOM      3  C1  UNL d   1       1.150  -1.701   0.007  0.00  0.00    -0.004 A 
ATOM      4  C2  UNL d   1       0.708  -2.828   0.665  0.00  0.00    -0.047 A 
ATOM      5  C3  UNL d   1      -0.366  -2.437   1.500  0.00  0.00    -0.047 A 
ATOM      6  C4  UNL d   1      -0.549  -1.082   1.326  0.00  0.00    -0.004 A 
ENDROOT
TORSDOF 0
ENDMDL
