MODEL 1
REMARK minimizedAffinity 4.07722044
REMARK minimizedRMSD -1
REMARK  1 active torsions:
REMARK  status: ('A' for Active; 'I' for Inactive)
REMARK    1  A    between atoms: N_2  and  C1_3 
ROOT
ATOM      1  C1  UNL d   1       3.174  -5.404  -2.299  0.00  0.00     0.143 A 
ATOM      2  C2  UNL d   1       3.551  -4.642  -1.187  0.00  0.00    -0.057 A 
ATOM      3  C3  UNL d   1       2.712  -4.519  -0.073  0.00  0.00     0.033 A 
ATOM      4  C4  UNL d   1       1.464  -5.134  -0.064  0.00  0.00    -0.042 A 
ATOM      5  C5  UNL d   1       1.058  -5.875  -1.168  0.00  0.00     0.033 A 
ATOM      6  C6  UNL d   1       1.903  -6.000  -2.274  0.00  0.00    -0.057 A 
ENDROOT
BRANCH   1   7
ATOM      7  N   UNL d   1       3.922  -5.484  -3.476  0.00  0.00    -0.732 N 
ATOM      8  C   UNL d   1       3.502  -4.775  -4.666  0.00  0.00     0.284 C 
ATOM      9  H3  UNL d   1       4.924  -5.449  -3.303  0.00  0.00     0.395 HD
ENDBRANCH   1   7
TORSDOF 1
ENDMDL
