MODEL 1
REMARK minimizedAffinity 14.6040459
REMARK minimizedRMSD -1
REMARK  1 active torsions:
REMARK  status: ('A' for Active; 'I' for Inactive)
REMARK    1  A    between atoms: N_2  and  C1_3 
ROOT
ATOM      1  C1  UNL d   1       5.047  -3.914  -3.184  0.00  0.00     0.143 A 
ATOM      2  C2  UNL d   1       4.056  -4.867  -2.923  0.00  0.00    -0.057 A 
ATOM      3  C3  UNL d   1       3.797  -5.908  -3.822  0.00  0.00     0.033 A 
ATOM      4  C4  UNL d   1       4.506  -5.998  -5.016  0.00  0.00    -0.042 A 
ATOM      5  C5  UNL d   1       5.478  -5.048  -5.307  0.00  0.00     0.033 A 
ATOM      6  C6  UNL d   1       5.737  -4.014  -4.402  0.00  0.00    -0.057 A 
ENDROOT
BRANCH   1   7
ATOM      7  N   UNL d   1       5.285  -2.799  -2.376  0.00  0.00    -0.732 N 
ATOM      8  C   UNL d   1       5.943  -2.943  -1.095  0.00  0.00     0.284 C 
ATOM      9  H3  UNL d   1       5.590  -1.989  -2.912  0.00  0.00     0.395 HD
ENDBRANCH   1   7
TORSDOF 1
ENDMDL
