MODEL 1
REMARK minimizedAffinity 8.44538212
REMARK minimizedRMSD -1
REMARK  1 active torsions:
REMARK  status: ('A' for Active; 'I' for Inactive)
REMARK    1  A    between atoms: N_2  and  C1_3 
ROOT
ATOM      1  C1  UNL d   1       4.749  -4.149  -2.185  0.00  0.00     0.143 A 
ATOM      2  C2  UNL d   1       5.265  -4.194  -3.485  0.00  0.00    -0.057 A 
ATOM      3  C3  UNL d   1       4.754  -5.084  -4.438  0.00  0.00     0.033 A 
ATOM      4  C4  UNL d   1       3.735  -5.967  -4.098  0.00  0.00    -0.042 A 
ATOM      5  C5  UNL d   1       3.224  -5.957  -2.805  0.00  0.00     0.033 A 
ATOM      6  C6  UNL d   1       3.734  -5.062  -1.859  0.00  0.00    -0.057 A 
ENDROOT
BRANCH   1   7
ATOM      7  N   UNL d   1       5.281  -3.357  -1.165  0.00  0.00    -0.732 N 
ATOM      8  C   UNL d   1       4.819  -1.999  -0.969  0.00  0.00     0.284 C 
ATOM      9  H3  UNL d   1       5.420  -3.877  -0.301  0.00  0.00     0.395 HD
ENDBRANCH   1   7
TORSDOF 1
ENDMDL
