MODEL 1
REMARK minimizedAffinity 6.38984013
REMARK minimizedRMSD -1
REMARK  1 active torsions:
REMARK  status: ('A' for Active; 'I' for Inactive)
REMARK    1  A    between atoms: N_2  and  C1_3 
ROOT
ATOM      1  C1  UNL d   1      -0.099   3.762   1.640  0.00  0.00     0.143 A 
ATOM      2  C2  UNL d   1       0.249   3.424   0.328  0.00  0.00    -0.057 A 
ATOM      3  C3  UNL d   1       0.140   4.352  -0.715  0.00  0.00     0.033 A 
ATOM      4  C4  UNL d   1      -0.347   5.631  -0.467  0.00  0.00    -0.042 A 
ATOM      5  C5  UNL d   1      -0.722   5.982   0.825  0.00  0.00     0.033 A 
ATOM      6  C6  UNL d   1      -0.605   5.053   1.863  0.00  0.00    -0.057 A 
ENDROOT
BRANCH   1   7
ATOM      7  N   UNL d   1      -0.107   2.854   2.701  0.00  0.00    -0.732 N 
ATOM      8  C   UNL d   1       1.121   2.508   3.384  0.00  0.00     0.284 C 
ATOM      9  H3  UNL d   1      -0.903   2.987   3.320  0.00  0.00     0.395 HD
ENDBRANCH   1   7
TORSDOF 1
ENDMDL
