MODEL 1
REMARK minimizedAffinity 10.2995996
REMARK minimizedRMSD -1
REMARK  1 active torsions:
REMARK  status: ('A' for Active; 'I' for Inactive)
REMARK    1  A    between atoms: N_2  and  C1_3 
ROOT
ATOM      1  C1  UNL d   1       0.275   3.436   1.184  0.00  0.00     0.143 A 
ATOM      2  C2  UNL d   1      -0.908   2.740   1.452  0.00  0.00    -0.057 A 
ATOM      3  C3  UNL d   1      -1.002   1.857   2.534  0.00  0.00     0.033 A 
ATOM      4  C4  UNL d   1       0.099   1.632   3.354  0.00  0.00    -0.042 A 
ATOM      5  C5  UNL d   1       1.293   2.295   3.092  0.00  0.00     0.033 A 
ATOM      6  C6  UNL d   1       1.379   3.180   2.013  0.00  0.00    -0.057 A 
ENDROOT
BRANCH   1   7
ATOM      7  N   UNL d   1       0.461   4.252   0.065  0.00  0.00    -0.732 N 
ATOM      8  C   UNL d   1      -0.238   5.514  -0.052  0.00  0.00     0.284 C 
ATOM      9  H3  UNL d   1       1.434   4.287  -0.233  0.00  0.00     0.395 HD
ENDBRANCH   1   7
TORSDOF 1
ENDMDL
