MODEL 1
REMARK minimizedAffinity 6.51157904
REMARK minimizedRMSD -1
REMARK  1 active torsions:
REMARK  status: ('A' for Active; 'I' for Inactive)
REMARK    1  A    between atoms: N_2  and  C1_3 
ROOT
ATOM      1  C1  UNL d   1       4.741  -2.231  -2.329  0.00  0.00     0.143 A 
ATOM      2  C2  UNL d   1       5.669  -2.464  -1.308  0.00  0.00    -0.057 A 
ATOM      3  C3  UNL d   1       5.384  -2.134   0.022  0.00  0.00     0.033 A 
ATOM      4  C4  UNL d   1       4.172  -1.535   0.352  0.00  0.00    -0.042 A 
ATOM      5  C5  UNL d   1       3.245  -1.271  -0.650  0.00  0.00     0.033 A 
ATOM      6  C6  UNL d   1       3.533  -1.609  -1.976  0.00  0.00    -0.057 A 
ENDROOT
BRANCH   1   7
ATOM      7  N   UNL d   1       5.005  -2.446  -3.684  0.00  0.00    -0.732 N 
ATOM      8  C   UNL d   1       4.802  -3.751  -4.276  0.00  0.00     0.284 C 
ATOM      9  H3  UNL d   1       4.696  -1.672  -4.268  0.00  0.00     0.395 HD
ENDBRANCH   1   7
TORSDOF 1
ENDMDL
