MODEL 1
REMARK minimizedAffinity 8.06742573
REMARK minimizedRMSD -1
REMARK  3 active torsions:
REMARK  status: ('A' for Active; 'I' for Inactive)
REMARK    1  A    between atoms: C3'_2  and  C2'_3 
REMARK    2  A    between atoms: C2'_3  and  C1'_4 
REMARK    3  A    between atoms: C1'_4  and  C1_5 
ROOT
ATOM      1  C1  N4B d   1       4.311   0.011   3.559  0.00  0.00    -0.075 A 
ATOM      2  C2  N4B d   1       3.775  -1.161   4.137  0.00  0.00     0.002 A 
ATOM      3  C3  N4B d   1       4.368  -1.712   5.247  0.00  0.00     0.002 A 
ATOM      4  C4  N4B d   1       5.504  -1.122   5.781  0.00  0.00    -0.004 A 
ATOM      5  C5  N4B d   1       6.000   0.024   5.232  0.00  0.00     0.002 A 
ATOM      6  C6  N4B d   1       5.411   0.591   4.119  0.00  0.00     0.002 A 
ENDROOT
BRANCH   1   7
ATOM      7  C1' N4B d   1       3.748   0.601   2.295  0.00  0.00     0.057 C 
BRANCH   7   8
ATOM      8  C2' N4B d   1       3.649   2.116   2.450  0.00  0.00     0.009 C 
BRANCH   8   9
ATOM      9  C3' N4B d   1       2.239   2.622   2.198  0.00  0.00     0.004 C 
ATOM     10  C4' N4B d   1       1.997   2.974   0.760  0.00  0.00     0.003 C 
ENDBRANCH   8   9
ENDBRANCH   7   8
ENDBRANCH   1   7
TORSDOF 3
ENDMDL
