MODEL 1
REMARK minimizedAffinity 10.6393452
REMARK minimizedRMSD -1
REMARK  3 active torsions:
REMARK  status: ('A' for Active; 'I' for Inactive)
REMARK    1  A    between atoms: C3'_2  and  C2'_3 
REMARK    2  A    between atoms: C2'_3  and  C1'_4 
REMARK    3  A    between atoms: C1'_4  and  C1_5 
ROOT
ATOM      1  C1  N4B d   1       0.663   2.659  -0.374  0.00  0.00    -0.075 A 
ATOM      2  C2  N4B d   1       0.445   4.032  -0.124  0.00  0.00     0.002 A 
ATOM      3  C3  N4B d   1       0.939   4.607   1.021  0.00  0.00     0.002 A 
ATOM      4  C4  N4B d   1       1.633   3.830   1.935  0.00  0.00    -0.004 A 
ATOM      5  C5  N4B d   1       1.861   2.510   1.674  0.00  0.00     0.002 A 
ATOM      6  C6  N4B d   1       1.374   1.919   0.525  0.00  0.00     0.002 A 
ENDROOT
BRANCH   1   7
ATOM      7  C1' N4B d   1       0.069   1.966  -1.570  0.00  0.00     0.057 C 
BRANCH   7   8
ATOM      8  C2' N4B d   1       0.774   0.629  -1.776  0.00  0.00     0.009 C 
BRANCH   8   9
ATOM      9  C3' N4B d   1       1.828   0.704  -2.867  0.00  0.00     0.004 C 
ATOM     10  C4' N4B d   1       1.348   1.428  -4.089  0.00  0.00     0.003 C 
ENDBRANCH   8   9
ENDBRANCH   7   8
ENDBRANCH   1   7
TORSDOF 3
ENDMDL
