MODEL 1
REMARK minimizedAffinity -2.60755897
REMARK minimizedRMSD -1
REMARK  3 active torsions:
REMARK  status: ('A' for Active; 'I' for Inactive)
REMARK    1  A    between atoms: C3'_2  and  C2'_3 
REMARK    2  A    between atoms: C2'_3  and  C1'_4 
REMARK    3  A    between atoms: C1'_4  and  C1_5 
ROOT
ATOM      1  C1  N4B d   1       1.649  -1.230  -2.086  0.00  0.00    -0.075 A 
ATOM      2  C2  N4B d   1       0.728  -0.223  -1.721  0.00  0.00     0.002 A 
ATOM      3  C3  N4B d   1      -0.244  -0.488  -0.788  0.00  0.00     0.002 A 
ATOM      4  C4  N4B d   1      -0.327  -1.752  -0.224  0.00  0.00    -0.004 A 
ATOM      5  C5  N4B d   1       0.582  -2.711  -0.562  0.00  0.00     0.002 A 
ATOM      6  C6  N4B d   1       1.568  -2.458  -1.495  0.00  0.00     0.002 A 
ENDROOT
BRANCH   1   7
ATOM      7  C1' N4B d   1       2.676  -1.014  -3.163  0.00  0.00     0.057 C 
BRANCH   7   8
ATOM      8  C2' N4B d   1       1.996  -0.412  -4.390  0.00  0.00     0.009 C 
BRANCH   8   9
ATOM      9  C3' N4B d   1       1.076  -1.408  -5.075  0.00  0.00     0.004 C 
ATOM     10  C4' N4B d   1       1.561  -2.823  -4.958  0.00  0.00     0.003 C 
ENDBRANCH   8   9
ENDBRANCH   7   8
ENDBRANCH   1   7
TORSDOF 3
ENDMDL
