MODEL 1
REMARK minimizedAffinity -1.39429355
REMARK minimizedRMSD -1
REMARK  3 active torsions:
REMARK  status: ('A' for Active; 'I' for Inactive)
REMARK    1  A    between atoms: C3'_2  and  C2'_3 
REMARK    2  A    between atoms: C2'_3  and  C1'_4 
REMARK    3  A    between atoms: C1'_4  and  C1_5 
ROOT
ATOM      1  C1  N4B d   1       0.053   0.311  -1.031  0.00  0.00    -0.075 A 
ATOM      2  C2  N4B d   1       0.726   0.403  -2.269  0.00  0.00     0.002 A 
ATOM      3  C3  N4B d   1       1.441  -0.670  -2.742  0.00  0.00     0.002 A 
ATOM      4  C4  N4B d   1       1.513  -1.832  -1.990  0.00  0.00    -0.004 A 
ATOM      5  C5  N4B d   1       0.839  -1.921  -0.807  0.00  0.00     0.002 A 
ATOM      6  C6  N4B d   1       0.113  -0.853  -0.321  0.00  0.00     0.002 A 
ENDROOT
BRANCH   1   7
ATOM      7  C1' N4B d   1      -0.671   1.486  -0.431  0.00  0.00     0.057 C 
BRANCH   7   8
ATOM      8  C2' N4B d   1       0.349   2.537  -0.002  0.00  0.00     0.009 C 
BRANCH   8   9
ATOM      9  C3' N4B d   1      -0.260   3.577   0.922  0.00  0.00     0.004 C 
ATOM     10  C4' N4B d   1      -0.649   4.835   0.205  0.00  0.00     0.003 C 
ENDBRANCH   8   9
ENDBRANCH   7   8
ENDBRANCH   1   7
TORSDOF 3
ENDMDL
