MODEL 1
REMARK minimizedAffinity -4.45673323
REMARK minimizedRMSD -1
REMARK  3 active torsions:
REMARK  status: ('A' for Active; 'I' for Inactive)
REMARK    1  A    between atoms: C3'_2  and  C2'_3 
REMARK    2  A    between atoms: C2'_3  and  C1'_4 
REMARK    3  A    between atoms: C1'_4  and  C1_5 
ROOT
ATOM      1  C1  N4B d   1       0.207  -0.239   0.063  0.00  0.00    -0.075 A 
ATOM      2  C2  N4B d   1       0.065   0.272  -1.246  0.00  0.00     0.002 A 
ATOM      3  C3  N4B d   1       0.492  -0.467  -2.322  0.00  0.00     0.002 A 
ATOM      4  C4  N4B d   1       1.079  -1.707  -2.113  0.00  0.00    -0.004 A 
ATOM      5  C5  N4B d   1       1.189  -2.204  -0.847  0.00  0.00     0.002 A 
ATOM      6  C6  N4B d   1       0.761  -1.473   0.243  0.00  0.00     0.002 A 
ENDROOT
BRANCH   1   7
ATOM      7  C1' N4B d   1      -0.166   0.570   1.275  0.00  0.00     0.057 C 
BRANCH   7   8
ATOM      8  C2' N4B d   1       0.219   2.028   1.043  0.00  0.00     0.009 C 
BRANCH   8   9
ATOM      9  C3' N4B d   1      -0.506   2.965   1.993  0.00  0.00     0.004 C 
ATOM     10  C4' N4B d   1      -1.384   2.239   2.969  0.00  0.00     0.003 C 
ENDBRANCH   8   9
ENDBRANCH   7   8
ENDBRANCH   1   7
TORSDOF 3
ENDMDL
