MODEL 1
REMARK minimizedAffinity -1.8036201
REMARK minimizedRMSD -1
REMARK  3 active torsions:
REMARK  status: ('A' for Active; 'I' for Inactive)
REMARK    1  A    between atoms: C3'_2  and  C2'_3 
REMARK    2  A    between atoms: C2'_3  and  C1'_4 
REMARK    3  A    between atoms: C1'_4  and  C1_5 
ROOT
ATOM      1  C1  N4B d   1      -1.331   0.267   0.182  0.00  0.00    -0.075 A 
ATOM      2  C2  N4B d   1      -0.143  -0.368  -0.241  0.00  0.00     0.002 A 
ATOM      3  C3  N4B d   1       0.671   0.244  -1.163  0.00  0.00     0.002 A 
ATOM      4  C4  N4B d   1       0.310   1.476  -1.686  0.00  0.00    -0.004 A 
ATOM      5  C5  N4B d   1      -0.826   2.094  -1.253  0.00  0.00     0.002 A 
ATOM      6  C6  N4B d   1      -1.652   1.493  -0.325  0.00  0.00     0.002 A 
ENDROOT
BRANCH   1   7
ATOM      7  C1' N4B d   1      -2.297  -0.401   1.123  0.00  0.00     0.057 C 
BRANCH   7   8
ATOM      8  C2' N4B d   1      -2.910   0.652   2.041  0.00  0.00     0.009 C 
BRANCH   8   9
ATOM      9  C3' N4B d   1      -3.066   0.143   3.464  0.00  0.00     0.004 C 
ATOM     10  C4' N4B d   1      -3.514  -1.288   3.523  0.00  0.00     0.003 C 
ENDBRANCH   8   9
ENDBRANCH   7   8
ENDBRANCH   1   7
TORSDOF 3
ENDMDL
