MODEL 1
REMARK minimizedAffinity -2.90569115
REMARK minimizedRMSD -1
REMARK  3 active torsions:
REMARK  status: ('A' for Active; 'I' for Inactive)
REMARK    1  A    between atoms: C3'_2  and  C2'_3 
REMARK    2  A    between atoms: C2'_3  and  C1'_4 
REMARK    3  A    between atoms: C1'_4  and  C1_5 
ROOT
ATOM      1  C1  N4B d   1       5.720   1.160   4.789  0.00  0.00    -0.075 A 
ATOM      2  C2  N4B d   1       5.869   0.399   3.609  0.00  0.00     0.002 A 
ATOM      3  C3  N4B d   1       5.681  -0.961   3.641  0.00  0.00     0.002 A 
ATOM      4  C4  N4B d   1       5.363  -1.582   4.840  0.00  0.00    -0.004 A 
ATOM      5  C5  N4B d   1       5.196  -0.836   5.970  0.00  0.00     0.002 A 
ATOM      6  C6  N4B d   1       5.378   0.532   5.952  0.00  0.00     0.002 A 
ENDROOT
BRANCH   1   7
ATOM      7  C1' N4B d   1       5.999   2.638   4.822  0.00  0.00     0.057 C 
BRANCH   7   8
ATOM      8  C2' N4B d   1       5.149   3.332   3.762  0.00  0.00     0.009 C 
BRANCH   8   9
ATOM      9  C3' N4B d   1       5.999   4.105   2.768  0.00  0.00     0.004 C 
ATOM     10  C4' N4B d   1       5.765   3.680   1.349  0.00  0.00     0.003 C 
ENDBRANCH   8   9
ENDBRANCH   7   8
ENDBRANCH   1   7
TORSDOF 3
ENDMDL
