MODEL 1
REMARK minimizedAffinity -3.9785583
REMARK minimizedRMSD -1
REMARK  3 active torsions:
REMARK  status: ('A' for Active; 'I' for Inactive)
REMARK    1  A    between atoms: C3'_2  and  C2'_3 
REMARK    2  A    between atoms: C2'_3  and  C1'_4 
REMARK    3  A    between atoms: C1'_4  and  C1_5 
ROOT
ATOM      1  C1  N4B d   1      -0.758   0.041   0.015  0.00  0.00    -0.075 A 
ATOM      2  C2  N4B d   1       0.155   0.697   0.870  0.00  0.00     0.002 A 
ATOM      3  C3  N4B d   1       0.670   1.920   0.516  0.00  0.00     0.002 A 
ATOM      4  C4  N4B d   1       0.302   2.495  -0.691  0.00  0.00    -0.004 A 
ATOM      5  C5  N4B d   1      -0.601   1.867  -1.499  0.00  0.00     0.002 A 
ATOM      6  C6  N4B d   1      -1.129   0.640  -1.154  0.00  0.00     0.002 A 
ENDROOT
BRANCH   1   7
ATOM      7  C1' N4B d   1      -1.282  -1.336   0.319  0.00  0.00     0.057 C 
BRANCH   7   8
ATOM      8  C2' N4B d   1      -0.582  -2.348  -0.584  0.00  0.00     0.009 C 
BRANCH   8   9
ATOM      9  C3' N4B d   1       0.929  -2.292  -0.436  0.00  0.00     0.004 C 
ATOM     10  C4' N4B d   1       1.633  -2.076  -1.742  0.00  0.00     0.003 C 
ENDBRANCH   8   9
ENDBRANCH   7   8
ENDBRANCH   1   7
TORSDOF 3
ENDMDL
