MODEL 1
REMARK minimizedAffinity 1.45117581
REMARK minimizedRMSD -1
REMARK  3 active torsions:
REMARK  status: ('A' for Active; 'I' for Inactive)
REMARK    1  A    between atoms: C3'_2  and  C2'_3 
REMARK    2  A    between atoms: C2'_3  and  C1'_4 
REMARK    3  A    between atoms: C1'_4  and  C1_5 
ROOT
ATOM      1  C1  N4B d   1       1.327  -1.191  -1.980  0.00  0.00    -0.075 A 
ATOM      2  C2  N4B d   1       0.390  -0.396  -1.283  0.00  0.00     0.002 A 
ATOM      3  C3  N4B d   1      -0.191  -0.870  -0.133  0.00  0.00     0.002 A 
ATOM      4  C4  N4B d   1       0.133  -2.138   0.327  0.00  0.00    -0.004 A 
ATOM      5  C5  N4B d   1       1.058  -2.889  -0.337  0.00  0.00     0.002 A 
ATOM      6  C6  N4B d   1       1.653  -2.423  -1.492  0.00  0.00     0.002 A 
ENDROOT
BRANCH   1   7
ATOM      7  C1' N4B d   1       1.925  -0.750  -3.288  0.00  0.00     0.057 C 
BRANCH   7   8
ATOM      8  C2' N4B d   1       1.258   0.548  -3.732  0.00  0.00     0.009 C 
BRANCH   8   9
ATOM      9  C3' N4B d   1       1.432   0.797  -5.220  0.00  0.00     0.004 C 
ATOM     10  C4' N4B d   1       1.810   2.214  -5.532  0.00  0.00     0.003 C 
ENDBRANCH   8   9
ENDBRANCH   7   8
ENDBRANCH   1   7
TORSDOF 3
ENDMDL
