MODEL 1
REMARK minimizedAffinity -3.71124458
REMARK minimizedRMSD -1
REMARK  3 active torsions:
REMARK  status: ('A' for Active; 'I' for Inactive)
REMARK    1  A    between atoms: C3'_2  and  C2'_3 
REMARK    2  A    between atoms: C2'_3  and  C1'_4 
REMARK    3  A    between atoms: C1'_4  and  C1_5 
ROOT
ATOM      1  C1  N4B d   1      -0.426   2.540  -0.380  0.00  0.00    -0.075 A 
ATOM      2  C2  N4B d   1      -0.702   3.784  -0.988  0.00  0.00     0.002 A 
ATOM      3  C3  N4B d   1      -0.753   4.925  -0.225  0.00  0.00     0.002 A 
ATOM      4  C4  N4B d   1      -0.550   4.844   1.144  0.00  0.00    -0.004 A 
ATOM      5  C5  N4B d   1      -0.259   3.642   1.720  0.00  0.00     0.002 A 
ATOM      6  C6  N4B d   1      -0.201   2.488   0.965  0.00  0.00     0.002 A 
ENDROOT
BRANCH   1   7
ATOM      7  C1' N4B d   1      -0.445   1.253  -1.159  0.00  0.00     0.057 C 
BRANCH   7   8
ATOM      8  C2' N4B d   1      -1.046   0.151  -0.292  0.00  0.00     0.009 C 
BRANCH   8   9
ATOM      9  C3' N4B d   1      -0.580  -1.229  -0.723  0.00  0.00     0.004 C 
ATOM     10  C4' N4B d   1       0.873  -1.262  -1.094  0.00  0.00     0.003 C 
ENDBRANCH   8   9
ENDBRANCH   7   8
ENDBRANCH   1   7
TORSDOF 3
ENDMDL
