MODEL 1
REMARK minimizedAffinity 0.8482669
REMARK minimizedRMSD -1
REMARK  3 active torsions:
REMARK  status: ('A' for Active; 'I' for Inactive)
REMARK    1  A    between atoms: C3'_2  and  C2'_3 
REMARK    2  A    between atoms: C2'_3  and  C1'_4 
REMARK    3  A    between atoms: C1'_4  and  C1_5 
ROOT
ATOM      1  C1  N4B d   1      -0.203   0.142   0.357  0.00  0.00    -0.075 A 
ATOM      2  C2  N4B d   1       0.709   1.077  -0.180  0.00  0.00     0.002 A 
ATOM      3  C3  N4B d   1       0.968   2.247   0.492  0.00  0.00     0.002 A 
ATOM      4  C4  N4B d   1       0.316   2.510   1.687  0.00  0.00    -0.004 A 
ATOM      5  C5  N4B d   1      -0.544   1.590   2.211  0.00  0.00     0.002 A 
ATOM      6  C6  N4B d   1      -0.811   0.409   1.549  0.00  0.00     0.002 A 
ENDROOT
BRANCH   1   7
ATOM      7  C1' N4B d   1      -0.583  -1.111  -0.384  0.00  0.00     0.057 C 
BRANCH   7   8
ATOM      8  C2' N4B d   1       0.612  -1.590  -1.204  0.00  0.00     0.009 C 
BRANCH   8   9
ATOM      9  C3' N4B d   1       1.469  -2.580  -0.434  0.00  0.00     0.004 C 
ATOM     10  C4' N4B d   1       0.691  -3.343   0.597  0.00  0.00     0.003 C 
ENDBRANCH   8   9
ENDBRANCH   7   8
ENDBRANCH   1   7
TORSDOF 3
ENDMDL
