MODEL 1
REMARK minimizedAffinity 7.78941154
REMARK minimizedRMSD -1
REMARK  1 active torsions:
REMARK  status: ('A' for Active; 'I' for Inactive)
REMARK    1  A    between atoms: C1_2  and  C2_3 
ROOT
ATOM      1  C2  UNL d   1       2.830   1.541   3.679  0.00  0.00    -0.073 A 
ATOM      2  C3  UNL d   1       3.348   1.305   4.957  0.00  0.00    -0.002 A 
ATOM      3  C4  UNL d   1       4.556   1.886   5.347  0.00  0.00     0.004 A 
ATOM      4  C5  UNL d   1       5.253   2.713   4.466  0.00  0.00    -0.004 A 
ATOM      5  C6  UNL d   1       4.746   2.970   3.189  0.00  0.00    -0.075 A 
ATOM      6  C7  UNL d   1       5.485   3.855   2.229  0.00  0.00     0.076 C 
ATOM      7  C8  UNL d   1       3.534   2.381   2.804  0.00  0.00     0.001 A 
ENDROOT
BRANCH   1   8
ATOM      8  C1  UNL d   1       1.524   0.920   3.256  0.00  0.00     0.053 C 
ATOM      9  C   UNL d   1       0.441   1.965   3.039  0.00  0.00     0.018 C 
ENDBRANCH   1   8
TORSDOF 1
ENDMDL
