MODEL 1
REMARK minimizedAffinity -0.130492076
REMARK minimizedRMSD -1
REMARK  1 active torsions:
REMARK  status: ('A' for Active; 'I' for Inactive)
REMARK    1  A    between atoms: C1_2  and  C2_3 
ROOT
ATOM      1  C2  UNL d   1      -0.459  -2.237  -3.369  0.00  0.00    -0.073 A 
ATOM      2  C3  UNL d   1      -1.253  -1.393  -2.585  0.00  0.00    -0.002 A 
ATOM      3  C4  UNL d   1      -0.787  -0.929  -1.354  0.00  0.00     0.004 A 
ATOM      4  C5  UNL d   1       0.479  -1.298  -0.899  0.00  0.00    -0.004 A 
ATOM      5  C6  UNL d   1       1.293  -2.131  -1.674  0.00  0.00    -0.075 A 
ATOM      6  C7  UNL d   1       2.656  -2.538  -1.198  0.00  0.00     0.076 C 
ATOM      7  C8  UNL d   1       0.816  -2.595  -2.908  0.00  0.00     0.001 A 
ENDROOT
BRANCH   1   8
ATOM      8  C1  UNL d   1      -0.956  -2.735  -4.702  0.00  0.00     0.053 C 
ATOM      9  C   UNL d   1      -1.978  -3.850  -4.548  0.00  0.00     0.018 C 
ENDBRANCH   1   8
TORSDOF 1
ENDMDL
