MODEL 1
REMARK minimizedAffinity 0.842011929
REMARK minimizedRMSD -1
REMARK  1 active torsions:
REMARK  status: ('A' for Active; 'I' for Inactive)
REMARK    1  A    between atoms: C1_2  and  C2_3 
ROOT
ATOM      1  C2  UNL d   1       2.031  -0.178  -1.266  0.00  0.00    -0.073 A 
ATOM      2  C3  UNL d   1       3.017   0.807  -1.138  0.00  0.00    -0.002 A 
ATOM      3  C4  UNL d   1       4.301   0.589  -1.638  0.00  0.00     0.004 A 
ATOM      4  C5  UNL d   1       4.611  -0.612  -2.276  0.00  0.00    -0.004 A 
ATOM      5  C6  UNL d   1       3.637  -1.604  -2.424  0.00  0.00    -0.075 A 
ATOM      6  C7  UNL d   1       3.955  -2.903  -3.106  0.00  0.00     0.076 C 
ATOM      7  C8  UNL d   1       2.350  -1.379  -1.917  0.00  0.00     0.001 A 
ENDROOT
BRANCH   1   8
ATOM      8  C1  UNL d   1       0.641   0.055  -0.733  0.00  0.00     0.053 C 
ATOM      9  C   UNL d   1      -0.426  -0.512  -1.656  0.00  0.00     0.018 C 
ENDBRANCH   1   8
TORSDOF 1
ENDMDL
