MODEL 1
REMARK minimizedAffinity -4.83450174
REMARK minimizedRMSD -1
REMARK  1 active torsions:
REMARK  status: ('A' for Active; 'I' for Inactive)
REMARK    1  A    between atoms: C1_2  and  C2_3 
ROOT
ATOM      1  C2  UNL d   1       2.440  -1.221  -1.260  0.00  0.00    -0.073 A 
ATOM      2  C3  UNL d   1       1.579  -0.130  -1.101  0.00  0.00    -0.002 A 
ATOM      3  C4  UNL d   1       0.196  -0.318  -1.096  0.00  0.00     0.004 A 
ATOM      4  C5  UNL d   1      -0.339  -1.597  -1.243  0.00  0.00    -0.004 A 
ATOM      5  C6  UNL d   1       0.506  -2.702  -1.391  0.00  0.00    -0.075 A 
ATOM      6  C7  UNL d   1      -0.054  -4.085  -1.552  0.00  0.00     0.076 C 
ATOM      7  C8  UNL d   1       1.893  -2.505  -1.398  0.00  0.00     0.001 A 
ENDROOT
BRANCH   1   8
ATOM      8  C1  UNL d   1       3.934  -1.024  -1.259  0.00  0.00     0.053 C 
ATOM      9  C   UNL d   1       4.318   0.426  -1.507  0.00  0.00     0.018 C 
ENDBRANCH   1   8
TORSDOF 1
ENDMDL
