MODEL 1
REMARK minimizedAffinity 3.97599959
REMARK minimizedRMSD -1
REMARK  1 active torsions:
REMARK  status: ('A' for Active; 'I' for Inactive)
REMARK    1  A    between atoms: C1_2  and  C2_3 
ROOT
ATOM      1  C2  UNL d   1       2.356  -0.044  -0.885  0.00  0.00    -0.073 A 
ATOM      2  C3  UNL d   1       2.682  -1.336  -1.311  0.00  0.00    -0.002 A 
ATOM      3  C4  UNL d   1       1.705  -2.332  -1.353  0.00  0.00     0.004 A 
ATOM      4  C5  UNL d   1       0.393  -2.045  -0.977  0.00  0.00    -0.004 A 
ATOM      5  C6  UNL d   1       0.045  -0.757  -0.559  0.00  0.00    -0.075 A 
ATOM      6  C7  UNL d   1      -1.361  -0.433  -0.148  0.00  0.00     0.076 C 
ATOM      7  C8  UNL d   1       1.032   0.237  -0.517  0.00  0.00     0.001 A 
ENDROOT
BRANCH   1   8
ATOM      8  C1  UNL d   1       3.405   1.036  -0.844  0.00  0.00     0.053 C 
ATOM      9  C   UNL d   1       4.686   0.613  -1.545  0.00  0.00     0.018 C 
ENDBRANCH   1   8
TORSDOF 1
ENDMDL
