MODEL 1
REMARK minimizedAffinity 1.35742378
REMARK minimizedRMSD -1
REMARK  1 active torsions:
REMARK  status: ('A' for Active; 'I' for Inactive)
REMARK    1  A    between atoms: C1_2  and  C2_3 
ROOT
ATOM      1  C2  UNL d   1       3.246  -0.151  -1.482  0.00  0.00    -0.073 A 
ATOM      2  C3  UNL d   1       3.332  -1.525  -1.731  0.00  0.00    -0.002 A 
ATOM      3  C4  UNL d   1       2.248  -2.360  -1.456  0.00  0.00     0.004 A 
ATOM      4  C5  UNL d   1       1.067  -1.829  -0.937  0.00  0.00    -0.004 A 
ATOM      5  C6  UNL d   1       0.958  -0.456  -0.693  0.00  0.00    -0.075 A 
ATOM      6  C7  UNL d   1      -0.305   0.130  -0.134  0.00  0.00     0.076 C 
ATOM      7  C8  UNL d   1       2.052   0.375  -0.970  0.00  0.00     0.001 A 
ENDROOT
BRANCH   1   8
ATOM      8  C1  UNL d   1       4.412   0.756  -1.784  0.00  0.00     0.053 C 
ATOM      9  C   UNL d   1       5.679   0.311  -1.071  0.00  0.00     0.018 C 
ENDBRANCH   1   8
TORSDOF 1
ENDMDL
