MODEL 1
REMARK minimizedAffinity -0.291051626
REMARK minimizedRMSD -1
REMARK  1 active torsions:
REMARK  status: ('A' for Active; 'I' for Inactive)
REMARK    1  A    between atoms: C1_2  and  C2_3 
ROOT
ATOM      1  C2  UNL d   1       0.037   0.020   0.927  0.00  0.00    -0.073 A 
ATOM      2  C3  UNL d   1      -1.087  -0.281   0.149  0.00  0.00    -0.002 A 
ATOM      3  C4  UNL d   1      -0.936  -0.856  -1.113  0.00  0.00     0.004 A 
ATOM      4  C5  UNL d   1       0.336  -1.143  -1.607  0.00  0.00    -0.004 A 
ATOM      5  C6  UNL d   1       1.471  -0.861  -0.839  0.00  0.00    -0.075 A 
ATOM      6  C7  UNL d   1       2.847  -1.161  -1.357  0.00  0.00     0.076 C 
ATOM      7  C8  UNL d   1       1.312  -0.280   0.426  0.00  0.00     0.001 A 
ENDROOT
BRANCH   1   8
ATOM      8  C1  UNL d   1      -0.120   0.636   2.294  0.00  0.00     0.053 C 
ATOM      9  C   UNL d   1       0.823   0.014   3.311  0.00  0.00     0.018 C 
ENDBRANCH   1   8
TORSDOF 1
ENDMDL
