MODEL 1
REMARK minimizedAffinity -2.72180343
REMARK minimizedRMSD -1
REMARK  0 active torsions:
REMARK  status: ('A' for Active; 'I' for Inactive)
ROOT
ATOM      1  C   UNL d   1      -0.373   0.069   2.390  0.00  0.00     0.023 A 
ATOM      2  C1  UNL d   1      -1.369  -0.373   1.519  0.00  0.00     0.003 A 
ATOM      3  C2  UNL d   1      -1.100  -0.495   0.154  0.00  0.00     0.048 A 
ATOM      4  C3  UNL d   1       0.167  -0.175  -0.332  0.00  0.00     0.023 A 
ATOM      5  C4  UNL d   1       1.167   0.266   0.536  0.00  0.00     0.048 A 
ATOM      6  C5  UNL d   1       0.893   0.389   1.899  0.00  0.00     0.003 A 
ATOM      7  I   UNL d   1       0.570  -0.357  -2.363  0.00  0.00    -0.146 I 
ENDROOT
TORSDOF 0
ENDMDL
