MODEL 1
REMARK minimizedAffinity -3.19845366
REMARK minimizedRMSD -1
REMARK  0 active torsions:
REMARK  status: ('A' for Active; 'I' for Inactive)
ROOT
ATOM      1  C   UNL d   1      -1.731  -0.603   3.045  0.00  0.00     0.023 A 
ATOM      2  C1  UNL d   1      -0.368  -0.325   2.945  0.00  0.00     0.003 A 
ATOM      3  C2  UNL d   1       0.204  -0.068   1.698  0.00  0.00     0.048 A 
ATOM      4  C3  UNL d   1      -0.593  -0.090   0.554  0.00  0.00     0.023 A 
ATOM      5  C4  UNL d   1      -1.958  -0.368   0.649  0.00  0.00     0.048 A 
ATOM      6  C5  UNL d   1      -2.525  -0.625   1.899  0.00  0.00     0.003 A 
ATOM      7  I   UNL d   1       0.255   0.292  -1.304  0.00  0.00    -0.146 I 
ENDROOT
TORSDOF 0
ENDMDL
