MODEL 1
REMARK minimizedAffinity -4.17613411
REMARK minimizedRMSD -1
REMARK  0 active torsions:
REMARK  status: ('A' for Active; 'I' for Inactive)
ROOT
ATOM      1  C   UNL d   1      -1.272  -0.739   3.302  0.00  0.00     0.023 A 
ATOM      2  C1  UNL d   1       0.091  -0.889   3.045  0.00  0.00     0.003 A 
ATOM      3  C2  UNL d   1       0.614  -0.517   1.806  0.00  0.00     0.048 A 
ATOM      4  C3  UNL d   1      -0.231   0.007   0.827  0.00  0.00     0.023 A 
ATOM      5  C4  UNL d   1      -1.595   0.160   1.080  0.00  0.00     0.048 A 
ATOM      6  C5  UNL d   1      -2.114  -0.215   2.321  0.00  0.00     0.003 A 
ATOM      7  I   UNL d   1       0.546   0.562  -1.019  0.00  0.00    -0.146 I 
ENDROOT
TORSDOF 0
ENDMDL
