MODEL 1
REMARK minimizedAffinity -3.04211068
REMARK minimizedRMSD -1
REMARK  0 active torsions:
REMARK  status: ('A' for Active; 'I' for Inactive)
ROOT
ATOM      1  C   UNL d   1      -0.057   0.524  -1.528  0.00  0.00     0.023 A 
ATOM      2  C1  UNL d   1      -1.336   0.461  -0.976  0.00  0.00     0.003 A 
ATOM      3  C2  UNL d   1      -1.504   0.089   0.359  0.00  0.00     0.048 A 
ATOM      4  C3  UNL d   1      -0.388  -0.219   1.137  0.00  0.00     0.023 A 
ATOM      5  C4  UNL d   1       0.894  -0.157   0.588  0.00  0.00     0.048 A 
ATOM      6  C5  UNL d   1       1.057   0.215  -0.747  0.00  0.00     0.003 A 
ATOM      7  I   UNL d   1      -0.636  -0.774   3.124  0.00  0.00    -0.146 I 
ENDROOT
TORSDOF 0
ENDMDL
