MODEL 1
REMARK minimizedAffinity -3.96752191
REMARK minimizedRMSD -1
REMARK  0 active torsions:
REMARK  status: ('A' for Active; 'I' for Inactive)
ROOT
ATOM      1  C   UNL d   1      -0.339  -0.280   2.986  0.00  0.00     0.023 A 
ATOM      2  C1  UNL d   1      -1.314  -0.732   2.096  0.00  0.00     0.003 A 
ATOM      3  C2  UNL d   1      -1.075  -0.695   0.721  0.00  0.00     0.048 A 
ATOM      4  C3  UNL d   1       0.140  -0.207   0.243  0.00  0.00     0.023 A 
ATOM      5  C4  UNL d   1       1.119   0.245   1.130  0.00  0.00     0.048 A 
ATOM      6  C5  UNL d   1       0.875   0.207   2.504  0.00  0.00     0.003 A 
ATOM      7  I   UNL d   1       0.498  -0.151  -1.804  0.00  0.00    -0.146 I 
ENDROOT
TORSDOF 0
ENDMDL
