MODEL 1
REMARK minimizedAffinity -1.88073182
REMARK minimizedRMSD -1
REMARK  0 active torsions:
REMARK  status: ('A' for Active; 'I' for Inactive)
ROOT
ATOM      1  C   UNL d   1      -0.792  -0.435   2.969  0.00  0.00     0.023 A 
ATOM      2  C1  UNL d   1      -1.584  -0.714   1.856  0.00  0.00     0.003 A 
ATOM      3  C2  UNL d   1      -1.022  -0.710   0.578  0.00  0.00     0.048 A 
ATOM      4  C3  UNL d   1       0.335  -0.427   0.421  0.00  0.00     0.023 A 
ATOM      5  C4  UNL d   1       1.132  -0.149   1.532  0.00  0.00     0.048 A 
ATOM      6  C5  UNL d   1       0.565  -0.153   2.808  0.00  0.00     0.003 A 
ATOM      7  I   UNL d   1       1.175  -0.421  -1.480  0.00  0.00    -0.146 I 
ENDROOT
TORSDOF 0
ENDMDL
