MODEL 1
REMARK minimizedAffinity -2.10439396
REMARK minimizedRMSD -1
REMARK  0 active torsions:
REMARK  status: ('A' for Active; 'I' for Inactive)
ROOT
ATOM      1  C   UNL d   1      -1.164   0.695   2.388  0.00  0.00     0.023 A 
ATOM      2  C1  UNL d   1       0.214   0.509   2.278  0.00  0.00     0.003 A 
ATOM      3  C2  UNL d   1       0.794   0.298   1.026  0.00  0.00     0.048 A 
ATOM      4  C3  UNL d   1      -0.010   0.275  -0.113  0.00  0.00     0.023 A 
ATOM      5  C4  UNL d   1      -1.390   0.461  -0.008  0.00  0.00     0.048 A 
ATOM      6  C5  UNL d   1      -1.965   0.671   1.247  0.00  0.00     0.003 A 
ATOM      7  I   UNL d   1       0.850  -0.039  -1.979  0.00  0.00    -0.146 I 
ENDROOT
TORSDOF 0
ENDMDL
