MODEL 1
REMARK minimizedAffinity -1.33219922
REMARK minimizedRMSD -1
REMARK  0 active torsions:
REMARK  status: ('A' for Active; 'I' for Inactive)
ROOT
ATOM      1  C   UNL d   1      -0.450  -0.206   1.942  0.00  0.00     0.023 A 
ATOM      2  C1  UNL d   1      -1.356  -0.619   0.965  0.00  0.00     0.003 A 
ATOM      3  C2  UNL d   1      -1.015  -0.531  -0.387  0.00  0.00     0.048 A 
ATOM      4  C3  UNL d   1       0.234  -0.030  -0.753  0.00  0.00     0.023 A 
ATOM      5  C4  UNL d   1       1.144   0.383   0.221  0.00  0.00     0.048 A 
ATOM      6  C5  UNL d   1       0.798   0.294   1.571  0.00  0.00     0.003 A 
ATOM      7  I   UNL d   1       0.744   0.102  -2.764  0.00  0.00    -0.146 I 
ENDROOT
TORSDOF 0
ENDMDL
