MODEL 1
REMARK minimizedAffinity -4.74504662
REMARK minimizedRMSD -1
REMARK  0 active torsions:
REMARK  status: ('A' for Active; 'I' for Inactive)
ROOT
ATOM      1  C   UNL d   1       0.180  -0.266   2.576  0.00  0.00     0.023 A 
ATOM      2  C1  UNL d   1       1.439  -0.249   1.975  0.00  0.00     0.003 A 
ATOM      3  C2  UNL d   1       1.554  -0.377   0.589  0.00  0.00     0.048 A 
ATOM      4  C3  UNL d   1       0.406  -0.521  -0.189  0.00  0.00     0.023 A 
ATOM      5  C4  UNL d   1      -0.856  -0.538   0.408  0.00  0.00     0.048 A 
ATOM      6  C5  UNL d   1      -0.966  -0.410   1.794  0.00  0.00     0.003 A 
ATOM      7  I   UNL d   1       0.575  -0.712  -2.252  0.00  0.00    -0.146 I 
ENDROOT
TORSDOF 0
ENDMDL
