MODEL 1
REMARK minimizedAffinity -3.40369177
REMARK minimizedRMSD -1
REMARK  0 active torsions:
REMARK  status: ('A' for Active; 'I' for Inactive)
ROOT
ATOM      1  C   UNL d   1       1.168  -0.257   2.663  0.00  0.00     0.023 A 
ATOM      2  C1  UNL d   1      -0.172  -0.576   2.882  0.00  0.00     0.003 A 
ATOM      3  C2  UNL d   1      -1.113  -0.377   1.869  0.00  0.00     0.048 A 
ATOM      4  C3  UNL d   1      -0.706   0.142   0.640  0.00  0.00     0.023 A 
ATOM      5  C4  UNL d   1       0.634   0.462   0.417  0.00  0.00     0.048 A 
ATOM      6  C5  UNL d   1       1.571   0.261   1.433  0.00  0.00     0.003 A 
ATOM      7  I   UNL d   1      -2.104   0.440  -0.869  0.00  0.00    -0.146 I 
ENDROOT
TORSDOF 0
ENDMDL
