MODEL 1
REMARK minimizedAffinity -4.09048843
REMARK minimizedRMSD -1
REMARK  0 active torsions:
REMARK  status: ('A' for Active; 'I' for Inactive)
ROOT
ATOM      1  C   UNL d   1      -0.066  -0.209   2.691  0.00  0.00     0.023 A 
ATOM      2  C1  UNL d   1      -0.800  -1.067   1.871  0.00  0.00     0.003 A 
ATOM      3  C2  UNL d   1      -0.684  -0.977   0.482  0.00  0.00     0.048 A 
ATOM      4  C3  UNL d   1       0.168  -0.027  -0.080  0.00  0.00     0.023 A 
ATOM      5  C4  UNL d   1       0.904   0.833   0.736  0.00  0.00     0.048 A 
ATOM      6  C5  UNL d   1       0.785   0.739   2.124  0.00  0.00     0.003 A 
ATOM      7  I   UNL d   1       0.341   0.109  -2.147  0.00  0.00    -0.146 I 
ENDROOT
TORSDOF 0
ENDMDL
