MODEL 1
REMARK minimizedAffinity 2.28678608
REMARK minimizedRMSD -1
REMARK  1 active torsions:
REMARK  status: ('A' for Active; 'I' for Inactive)
REMARK    1  A    between atoms: C3_4  and  O_7 
ROOT
ATOM      1  C   UNL d   1       1.309   3.993  -4.114  0.00  0.00    -0.033 A 
ATOM      2  C1  UNL d   1       0.359   4.530  -3.241  0.00  0.00     0.039 A 
ATOM      3  C2  UNL d   1      -0.751   5.208  -3.747  0.00  0.00    -0.080 A 
ATOM      4  C3  UNL d   1      -0.901   5.342  -5.124  0.00  0.00     0.150 A 
ATOM      5  C4  UNL d   1       0.039   4.807  -5.999  0.00  0.00    -0.007 A 
ATOM      6  C5  UNL d   1       1.148   4.131  -5.493  0.00  0.00     0.039 A 
ENDROOT
BRANCH   4   7
ATOM      7  O   UNL d   1      -1.966   6.000  -5.665  0.00  0.00    -0.526 OA
ATOM      8  H5  UNL d   1      -2.517   6.340  -4.940  0.00  0.00     0.418 HD
ENDBRANCH   4   7
TORSDOF 1
ENDMDL
