MODEL 1
REMARK minimizedAffinity 4.41675711
REMARK minimizedRMSD -1
REMARK  1 active torsions:
REMARK  status: ('A' for Active; 'I' for Inactive)
REMARK    1  A    between atoms: C3_4  and  O_7 
ROOT
ATOM      1  C   UNL d   1      -4.766  -1.033   2.615  0.00  0.00    -0.033 A 
ATOM      2  C1  UNL d   1      -5.194  -1.199   3.934  0.00  0.00     0.039 A 
ATOM      3  C2  UNL d   1      -4.565  -0.500   4.967  0.00  0.00    -0.080 A 
ATOM      4  C3  UNL d   1      -3.513   0.360   4.667  0.00  0.00     0.150 A 
ATOM      5  C4  UNL d   1      -3.084   0.533   3.355  0.00  0.00    -0.007 A 
ATOM      6  C5  UNL d   1      -3.713  -0.166   2.325  0.00  0.00     0.039 A 
ENDROOT
BRANCH   4   7
ATOM      7  O   UNL d   1      -2.865   1.060   5.642  0.00  0.00    -0.526 OA
ATOM      8  H5  UNL d   1      -3.249   0.819   6.501  0.00  0.00     0.418 HD
ENDBRANCH   4   7
TORSDOF 1
ENDMDL
