MODEL 1
REMARK minimizedAffinity 1.77120256
REMARK minimizedRMSD -1
REMARK  1 active torsions:
REMARK  status: ('A' for Active; 'I' for Inactive)
REMARK    1  A    between atoms: C3_4  and  O_7 
ROOT
ATOM      1  C   UNL d   1      -2.325   5.409  -4.069  0.00  0.00    -0.033 A 
ATOM      2  C1  UNL d   1      -2.129   5.974  -5.330  0.00  0.00     0.039 A 
ATOM      3  C2  UNL d   1      -0.914   5.796  -5.995  0.00  0.00    -0.080 A 
ATOM      4  C3  UNL d   1       0.093   5.050  -5.390  0.00  0.00     0.150 A 
ATOM      5  C4  UNL d   1      -0.097   4.480  -4.136  0.00  0.00    -0.007 A 
ATOM      6  C5  UNL d   1      -1.310   4.660  -3.472  0.00  0.00     0.039 A 
ENDROOT
BRANCH   4   7
ATOM      7  O   UNL d   1       1.297   4.852  -5.999  0.00  0.00    -0.526 OA
ATOM      8  H5  UNL d   1       1.295   5.328  -6.846  0.00  0.00     0.418 HD
ENDBRANCH   4   7
TORSDOF 1
ENDMDL
