MODEL 1
REMARK minimizedAffinity 3.24860168
REMARK minimizedRMSD -1
REMARK  1 active torsions:
REMARK  status: ('A' for Active; 'I' for Inactive)
REMARK    1  A    between atoms: C3_4  and  O_7 
ROOT
ATOM      1  C   UNL d   1      -1.626  -3.438  -0.147  0.00  0.00    -0.033 A 
ATOM      2  C1  UNL d   1      -2.194  -2.584   0.802  0.00  0.00     0.039 A 
ATOM      3  C2  UNL d   1      -1.395  -2.009   1.792  0.00  0.00    -0.080 A 
ATOM      4  C3  UNL d   1      -0.033  -2.293   1.822  0.00  0.00     0.150 A 
ATOM      5  C4  UNL d   1       0.540  -3.140   0.878  0.00  0.00    -0.007 A 
ATOM      6  C5  UNL d   1      -0.259  -3.714  -0.109  0.00  0.00     0.039 A 
ENDROOT
BRANCH   4   7
ATOM      7  O   UNL d   1       0.786  -1.759   2.772  0.00  0.00    -0.526 OA
ATOM      8  H5  UNL d   1       0.248  -1.218   3.373  0.00  0.00     0.418 HD
ENDBRANCH   4   7
TORSDOF 1
ENDMDL
