MODEL 1
REMARK minimizedAffinity 8.17179298
REMARK minimizedRMSD -1
REMARK  1 active torsions:
REMARK  status: ('A' for Active; 'I' for Inactive)
REMARK    1  A    between atoms: C3_4  and  O_7 
ROOT
ATOM      1  C   UNL d   1      -2.538   5.672  -4.833  0.00  0.00    -0.033 A 
ATOM      2  C1  UNL d   1      -1.899   5.166  -3.699  0.00  0.00     0.039 A 
ATOM      3  C2  UNL d   1      -0.520   4.949  -3.711  0.00  0.00    -0.080 A 
ATOM      4  C3  UNL d   1       0.208   5.243  -4.860  0.00  0.00     0.150 A 
ATOM      5  C4  UNL d   1      -0.420   5.751  -5.992  0.00  0.00    -0.007 A 
ATOM      6  C5  UNL d   1      -1.798   5.966  -5.979  0.00  0.00     0.039 A 
ENDROOT
BRANCH   4   7
ATOM      7  O   UNL d   1       1.556   5.044  -4.921  0.00  0.00    -0.526 OA
ATOM      8  H5  UNL d   1       1.848   4.662  -4.076  0.00  0.00     0.418 HD
ENDBRANCH   4   7
TORSDOF 1
ENDMDL
