MODEL 1
REMARK minimizedAffinity 3.70707059
REMARK minimizedRMSD -1
REMARK  1 active torsions:
REMARK  status: ('A' for Active; 'I' for Inactive)
REMARK    1  A    between atoms: C3_4  and  O_7 
ROOT
ATOM      1  C   UNL d   1       5.770   2.062   3.354  0.00  0.00    -0.033 A 
ATOM      2  C1  UNL d   1       4.475   2.583   3.349  0.00  0.00     0.039 A 
ATOM      3  C2  UNL d   1       3.406   1.798   2.914  0.00  0.00    -0.080 A 
ATOM      4  C3  UNL d   1       3.645   0.495   2.487  0.00  0.00     0.150 A 
ATOM      5  C4  UNL d   1       4.932  -0.033   2.493  0.00  0.00    -0.007 A 
ATOM      6  C5  UNL d   1       5.999   0.753   2.928  0.00  0.00     0.039 A 
ENDROOT
BRANCH   4   7
ATOM      7  O   UNL d   1       2.634  -0.308   2.049  0.00  0.00    -0.526 OA
ATOM      8  H5  UNL d   1       1.805   0.199   2.074  0.00  0.00     0.418 HD
ENDBRANCH   4   7
TORSDOF 1
ENDMDL
