MODEL 1
REMARK minimizedAffinity 4.55281639
REMARK minimizedRMSD -1
REMARK  1 active torsions:
REMARK  status: ('A' for Active; 'I' for Inactive)
REMARK    1  A    between atoms: C3_4  and  O_7 
ROOT
ATOM      1  C   UNL d   1       5.211   0.244   2.298  0.00  0.00    -0.033 A 
ATOM      2  C1  UNL d   1       5.609   1.505   2.747  0.00  0.00     0.039 A 
ATOM      3  C2  UNL d   1       4.752   2.598   2.615  0.00  0.00    -0.080 A 
ATOM      4  C3  UNL d   1       3.499   2.418   2.035  0.00  0.00     0.150 A 
ATOM      5  C4  UNL d   1       3.094   1.165   1.589  0.00  0.00    -0.007 A 
ATOM      6  C5  UNL d   1       3.952   0.074   1.720  0.00  0.00     0.039 A 
ENDROOT
BRANCH   4   7
ATOM      7  O   UNL d   1       2.629   3.457   1.880  0.00  0.00    -0.526 OA
ATOM      8  H5  UNL d   1       3.056   4.266   2.208  0.00  0.00     0.418 HD
ENDBRANCH   4   7
TORSDOF 1
ENDMDL
