MODEL 1
REMARK minimizedAffinity -0.160686165
REMARK minimizedRMSD -1
REMARK  1 active torsions:
REMARK  status: ('A' for Active; 'I' for Inactive)
REMARK    1  A    between atoms: C3_4  and  O_7 
ROOT
ATOM      1  C   UNL d   1      -3.213   5.611  -5.971  0.00  0.00    -0.033 A 
ATOM      2  C1  UNL d   1      -2.616   5.232  -4.767  0.00  0.00     0.039 A 
ATOM      3  C2  UNL d   1      -3.360   5.238  -3.585  0.00  0.00    -0.080 A 
ATOM      4  C3  UNL d   1      -4.697   5.624  -3.621  0.00  0.00     0.150 A 
ATOM      5  C4  UNL d   1      -5.299   5.999  -4.818  0.00  0.00    -0.007 A 
ATOM      6  C5  UNL d   1      -4.554   5.993  -5.997  0.00  0.00     0.039 A 
ENDROOT
BRANCH   4   7
ATOM      7  O   UNL d   1      -5.461   5.650  -2.492  0.00  0.00    -0.526 OA
ATOM      8  H5  UNL d   1      -4.905   5.394  -1.738  0.00  0.00     0.418 HD
ENDBRANCH   4   7
TORSDOF 1
ENDMDL
