MODEL 1
REMARK minimizedAffinity 3.83087659
REMARK minimizedRMSD -1
REMARK  1 active torsions:
REMARK  status: ('A' for Active; 'I' for Inactive)
REMARK    1  A    between atoms: C3_4  and  O_7 
ROOT
ATOM      1  C   UNL d   1      -1.273   5.997  -5.373  0.00  0.00    -0.033 A 
ATOM      2  C1  UNL d   1      -1.188   6.000  -3.979  0.00  0.00     0.039 A 
ATOM      3  C2  UNL d   1      -2.351   5.999  -3.207  0.00  0.00    -0.080 A 
ATOM      4  C3  UNL d   1      -3.591   5.994  -3.839  0.00  0.00     0.150 A 
ATOM      5  C4  UNL d   1      -3.683   5.987  -5.227  0.00  0.00    -0.007 A 
ATOM      6  C5  UNL d   1      -2.521   5.989  -5.997  0.00  0.00     0.039 A 
ENDROOT
BRANCH   4   7
ATOM      7  O   UNL d   1      -4.754   5.998  -3.128  0.00  0.00    -0.526 OA
ATOM      8  H5  UNL d   1      -4.535   6.032  -2.182  0.00  0.00     0.418 HD
ENDBRANCH   4   7
TORSDOF 1
ENDMDL
