MODEL 1
REMARK minimizedAffinity 3.36935282
REMARK minimizedRMSD -1
REMARK  1 active torsions:
REMARK  status: ('A' for Active; 'I' for Inactive)
REMARK    1  A    between atoms: C3_4  and  O_7 
ROOT
ATOM      1  C   UNL d   1      -3.757   5.991  -4.783  0.00  0.00    -0.033 A 
ATOM      2  C1  UNL d   1      -3.124   5.614  -3.598  0.00  0.00     0.039 A 
ATOM      3  C2  UNL d   1      -1.778   5.240  -3.612  0.00  0.00    -0.080 A 
ATOM      4  C3  UNL d   1      -1.079   5.250  -4.815  0.00  0.00     0.150 A 
ATOM      5  C4  UNL d   1      -1.703   5.628  -5.999  0.00  0.00    -0.007 A 
ATOM      6  C5  UNL d   1      -3.047   6.000  -5.984  0.00  0.00     0.039 A 
ENDROOT
BRANCH   4   7
ATOM      7  O   UNL d   1       0.234   4.889  -4.879  0.00  0.00    -0.526 OA
ATOM      8  H5  UNL d   1       0.524   4.624  -3.990  0.00  0.00     0.418 HD
ENDBRANCH   4   7
TORSDOF 1
ENDMDL
