MODEL 1
REMARK minimizedAffinity 7.66225052
REMARK minimizedRMSD -1
REMARK  1 active torsions:
REMARK  status: ('A' for Active; 'I' for Inactive)
REMARK    1  A    between atoms: C3_4  and  O_7 
ROOT
ATOM      1  C   UNL d   1       1.304   5.123  -4.503  0.00  0.00    -0.033 A 
ATOM      2  C1  UNL d   1       0.463   5.816  -3.630  0.00  0.00     0.039 A 
ATOM      3  C2  UNL d   1      -0.888   5.979  -3.942  0.00  0.00    -0.080 A 
ATOM      4  C3  UNL d   1      -1.385   5.444  -5.127  0.00  0.00     0.150 A 
ATOM      5  C4  UNL d   1      -0.554   4.749  -6.000  0.00  0.00    -0.007 A 
ATOM      6  C5  UNL d   1       0.795   4.588  -5.687  0.00  0.00     0.039 A 
ENDROOT
BRANCH   4   7
ATOM      7  O   UNL d   1      -2.696   5.582  -5.476  0.00  0.00    -0.526 OA
ATOM      8  H5  UNL d   1      -3.143   6.109  -4.793  0.00  0.00     0.418 HD
ENDBRANCH   4   7
TORSDOF 1
ENDMDL
