MODEL 1
REMARK minimizedAffinity 5.2721386
REMARK minimizedRMSD -1
REMARK  1 active torsions:
REMARK  status: ('A' for Active; 'I' for Inactive)
REMARK    1  A    between atoms: C3_4  and  O_7 
ROOT
ATOM      1  C   UNL d   1      -1.539  -2.301   1.215  0.00  0.00    -0.033 A 
ATOM      2  C1  UNL d   1      -0.275  -2.254   1.807  0.00  0.00     0.039 A 
ATOM      3  C2  UNL d   1       0.791  -2.952   1.236  0.00  0.00    -0.080 A 
ATOM      4  C3  UNL d   1       0.581  -3.690   0.074  0.00  0.00     0.150 A 
ATOM      5  C4  UNL d   1      -0.675  -3.738  -0.523  0.00  0.00    -0.007 A 
ATOM      6  C5  UNL d   1      -1.739  -3.042   0.049  0.00  0.00     0.039 A 
ENDROOT
BRANCH   4   7
ATOM      7  O   UNL d   1       1.590  -4.391  -0.517  0.00  0.00    -0.526 OA
ATOM      8  H5  UNL d   1       2.392  -4.289   0.022  0.00  0.00     0.418 HD
ENDBRANCH   4   7
TORSDOF 1
ENDMDL
