MODEL 1
REMARK minimizedAffinity 2.99420714
REMARK minimizedRMSD -1
REMARK  1 active torsions:
REMARK  status: ('A' for Active; 'I' for Inactive)
REMARK    1  A    between atoms: C3_4  and  O_7 
ROOT
ATOM      1  C   UNL d   1      -3.009   0.718   1.664  0.00  0.00    -0.033 A 
ATOM      2  C1  UNL d   1      -2.311  -0.302   1.014  0.00  0.00     0.039 A 
ATOM      3  C2  UNL d   1      -2.538  -0.553  -0.341  0.00  0.00    -0.080 A 
ATOM      4  C3  UNL d   1      -3.464   0.223  -1.033  0.00  0.00     0.150 A 
ATOM      5  C4  UNL d   1      -4.160   1.243  -0.393  0.00  0.00    -0.007 A 
ATOM      6  C5  UNL d   1      -3.933   1.491   0.960  0.00  0.00     0.039 A 
ENDROOT
BRANCH   4   7
ATOM      7  O   UNL d   1      -3.723   0.013  -2.355  0.00  0.00    -0.526 OA
ATOM      8  H5  UNL d   1      -3.190  -0.742  -2.657  0.00  0.00     0.418 HD
ENDBRANCH   4   7
TORSDOF 1
ENDMDL
