MODEL 1
REMARK minimizedAffinity 5.71339273
REMARK minimizedRMSD -1
REMARK  1 active torsions:
REMARK  status: ('A' for Active; 'I' for Inactive)
REMARK    1  A    between atoms: C1_2  and  C2_3 
ROOT
ATOM      1  C2  UNL d   1      -1.461  -5.855  -4.605  0.00  0.00    -0.081 A 
ATOM      2  C3  UNL d   1      -0.615  -5.885  -3.489  0.00  0.00     0.006 A 
ATOM      3  C4  UNL d   1      -1.148  -5.919  -2.198  0.00  0.00     0.002 A 
ATOM      4  C5  UNL d   1      -2.533  -5.933  -2.001  0.00  0.00    -0.080 A 
ATOM      5  C6  UNL d   1      -3.117  -6.000  -0.621  0.00  0.00     0.076 C 
ATOM      6  C7  UNL d   1      -3.377  -5.886  -3.115  0.00  0.00     0.002 A 
ATOM      7  C8  UNL d   1      -2.846  -5.851  -4.406  0.00  0.00     0.006 A 
ENDROOT
BRANCH   1   8
ATOM      8  C1  UNL d   1      -0.891  -5.884  -6.000  0.00  0.00     0.054 C 
ATOM      9  C   UNL d   1       0.627  -5.997  -5.975  0.00  0.00     0.018 C 
ENDBRANCH   1   8
TORSDOF 1
ENDMDL
