MODEL 1
REMARK minimizedAffinity 5.76122284
REMARK minimizedRMSD -1
REMARK  1 active torsions:
REMARK  status: ('A' for Active; 'I' for Inactive)
REMARK    1  A    between atoms: C1_2  and  C2_3 
ROOT
ATOM      1  C2  UNL d   1      -2.082  -5.916  -3.307  0.00  0.00    -0.081 A 
ATOM      2  C3  UNL d   1      -1.309  -5.848  -4.472  0.00  0.00     0.006 A 
ATOM      3  C4  UNL d   1       0.086  -5.839  -4.398  0.00  0.00     0.002 A 
ATOM      4  C5  UNL d   1       0.731  -5.907  -3.158  0.00  0.00    -0.080 A 
ATOM      5  C6  UNL d   1       2.228  -5.929  -3.066  0.00  0.00     0.076 C 
ATOM      6  C7  UNL d   1      -0.041  -5.957  -1.993  0.00  0.00     0.002 A 
ATOM      7  C8  UNL d   1      -1.436  -5.965  -2.067  0.00  0.00     0.006 A 
ENDROOT
BRANCH   1   8
ATOM      8  C1  UNL d   1      -3.585  -5.990  -3.387  0.00  0.00     0.054 C 
ATOM      9  C   UNL d   1      -4.214  -5.999  -2.001  0.00  0.00     0.018 C 
ENDBRANCH   1   8
TORSDOF 1
ENDMDL
