MODEL 1
REMARK minimizedAffinity -0.381890714
REMARK minimizedRMSD -1
REMARK  1 active torsions:
REMARK  status: ('A' for Active; 'I' for Inactive)
REMARK    1  A    between atoms: C1_2  and  C2_3 
ROOT
ATOM      1  C2  UNL d   1      -2.847  -5.961  -4.663  0.00  0.00    -0.081 A 
ATOM      2  C3  UNL d   1      -4.245  -5.959  -4.585  0.00  0.00     0.006 A 
ATOM      3  C4  UNL d   1      -4.885  -5.973  -3.344  0.00  0.00     0.002 A 
ATOM      4  C5  UNL d   1      -4.139  -5.981  -2.160  0.00  0.00    -0.080 A 
ATOM      5  C6  UNL d   1      -4.814  -5.965  -0.821  0.00  0.00     0.076 C 
ATOM      6  C7  UNL d   1      -2.743  -6.000  -2.238  0.00  0.00     0.002 A 
ATOM      7  C8  UNL d   1      -2.102  -5.987  -3.479  0.00  0.00     0.006 A 
ENDROOT
BRANCH   1   8
ATOM      8  C1  UNL d   1      -2.153  -5.881  -5.999  0.00  0.00     0.054 C 
ATOM      9  C   UNL d   1      -0.774  -5.250  -5.870  0.00  0.00     0.018 C 
ENDBRANCH   1   8
TORSDOF 1
ENDMDL
