MODEL 1
REMARK minimizedAffinity 8.07880878
REMARK minimizedRMSD -1
REMARK  1 active torsions:
REMARK  status: ('A' for Active; 'I' for Inactive)
REMARK    1  A    between atoms: C1_2  and  C2_3 
ROOT
ATOM      1  C2  UNL d   1      -0.460  -5.882  -3.512  0.00  0.00    -0.081 A 
ATOM      2  C3  UNL d   1      -0.885  -5.862  -2.178  0.00  0.00     0.006 A 
ATOM      3  C4  UNL d   1      -2.247  -5.887  -1.868  0.00  0.00     0.002 A 
ATOM      4  C5  UNL d   1      -3.205  -5.941  -2.886  0.00  0.00    -0.080 A 
ATOM      5  C6  UNL d   1      -4.669  -5.999  -2.566  0.00  0.00     0.076 C 
ATOM      6  C7  UNL d   1      -2.781  -5.943  -4.219  0.00  0.00     0.002 A 
ATOM      7  C8  UNL d   1      -1.420  -5.917  -4.529  0.00  0.00     0.006 A 
ENDROOT
BRANCH   1   8
ATOM      8  C1  UNL d   1       1.009  -5.920  -3.848  0.00  0.00     0.054 C 
ATOM      9  C   UNL d   1       1.866  -5.798  -2.596  0.00  0.00     0.018 C 
ENDBRANCH   1   8
TORSDOF 1
ENDMDL
