MODEL 1
REMARK minimizedAffinity 14.5997362
REMARK minimizedRMSD -1
REMARK  1 active torsions:
REMARK  status: ('A' for Active; 'I' for Inactive)
REMARK    1  A    between atoms: C1_2  and  C2_3 
ROOT
ATOM      1  C2  UNL d   1      -0.953  -5.852  -4.373  0.00  0.00    -0.081 A 
ATOM      2  C3  UNL d   1      -2.296  -5.805  -3.982  0.00  0.00     0.006 A 
ATOM      3  C4  UNL d   1      -2.641  -5.839  -2.629  0.00  0.00     0.002 A 
ATOM      4  C5  UNL d   1      -1.650  -5.912  -1.645  0.00  0.00    -0.080 A 
ATOM      5  C6  UNL d   1      -2.005  -5.919  -0.188  0.00  0.00     0.076 C 
ATOM      6  C7  UNL d   1      -0.308  -5.977  -2.036  0.00  0.00     0.002 A 
ATOM      7  C8  UNL d   1       0.038  -5.944  -3.389  0.00  0.00     0.006 A 
ENDROOT
BRANCH   1   8
ATOM      8  C1  UNL d   1      -0.574  -5.750  -5.829  0.00  0.00     0.054 C 
ATOM      9  C   UNL d   1       0.847  -5.231  -5.996  0.00  0.00     0.018 C 
ENDBRANCH   1   8
TORSDOF 1
ENDMDL
