MODEL 1
REMARK minimizedAffinity -4.09048414
REMARK minimizedRMSD -1
REMARK  1 active torsions:
REMARK  status: ('A' for Active; 'I' for Inactive)
REMARK    1  A    between atoms: C1_2  and  C2_3 
ROOT
ATOM      1  C2  UNL d   1      -0.740  -5.236  -4.526  0.00  0.00    -0.081 A 
ATOM      2  C3  UNL d   1      -2.114  -5.007  -4.662  0.00  0.00     0.006 A 
ATOM      3  C4  UNL d   1      -2.984  -5.264  -3.599  0.00  0.00     0.002 A 
ATOM      4  C5  UNL d   1      -2.492  -5.747  -2.382  0.00  0.00    -0.080 A 
ATOM      5  C6  UNL d   1      -3.411  -5.999  -1.223  0.00  0.00     0.076 C 
ATOM      6  C7  UNL d   1      -1.121  -5.992  -2.252  0.00  0.00     0.002 A 
ATOM      7  C8  UNL d   1      -0.252  -5.736  -3.314  0.00  0.00     0.006 A 
ENDROOT
BRANCH   1   8
ATOM      8  C1  UNL d   1       0.208  -4.898  -5.649  0.00  0.00     0.054 C 
ATOM      9  C   UNL d   1       1.245  -5.995  -5.846  0.00  0.00     0.018 C 
ENDBRANCH   1   8
TORSDOF 1
ENDMDL
