MODEL 1
REMARK minimizedAffinity 3.10904121
REMARK minimizedRMSD -1
REMARK  1 active torsions:
REMARK  status: ('A' for Active; 'I' for Inactive)
REMARK    1  A    between atoms: C1_2  and  C2_3 
ROOT
ATOM      1  C2  UNL d   1      -2.086   2.778  -3.515  0.00  0.00    -0.081 A 
ATOM      2  C3  UNL d   1      -0.898   2.318  -2.932  0.00  0.00     0.006 A 
ATOM      3  C4  UNL d   1       0.331   2.875  -3.296  0.00  0.00     0.002 A 
ATOM      4  C5  UNL d   1       0.392   3.905  -4.240  0.00  0.00    -0.080 A 
ATOM      5  C6  UNL d   1       1.701   4.532  -4.617  0.00  0.00     0.076 C 
ATOM      6  C7  UNL d   1      -0.793   4.352  -4.835  0.00  0.00     0.002 A 
ATOM      7  C8  UNL d   1      -2.022   3.796  -4.473  0.00  0.00     0.006 A 
ENDROOT
BRANCH   1   8
ATOM      8  C1  UNL d   1      -3.418   2.225  -3.078  0.00  0.00     0.054 C 
ATOM      9  C   UNL d   1      -3.441   0.705  -3.164  0.00  0.00     0.018 C 
ENDBRANCH   1   8
TORSDOF 1
ENDMDL
