MODEL 1
REMARK minimizedAffinity 0.160657644
REMARK minimizedRMSD -1
REMARK  1 active torsions:
REMARK  status: ('A' for Active; 'I' for Inactive)
REMARK    1  A    between atoms: C1_2  and  C2_3 
ROOT
ATOM      1  C2  UNL d   1       0.213   1.984  -0.782  0.00  0.00    -0.081 A 
ATOM      2  C3  UNL d   1      -0.183   3.326  -0.719  0.00  0.00     0.006 A 
ATOM      3  C4  UNL d   1      -0.468   4.035  -1.888  0.00  0.00     0.002 A 
ATOM      4  C5  UNL d   1      -0.371   3.414  -3.137  0.00  0.00    -0.080 A 
ATOM      5  C6  UNL d   1      -0.703   4.156  -4.398  0.00  0.00     0.076 C 
ATOM      6  C7  UNL d   1       0.042   2.079  -3.202  0.00  0.00     0.002 A 
ATOM      7  C8  UNL d   1       0.328   1.369  -2.033  0.00  0.00     0.006 A 
ENDROOT
BRANCH   1   8
ATOM      8  C1  UNL d   1       0.459   1.197   0.480  0.00  0.00     0.054 C 
ATOM      9  C   UNL d   1       1.269  -0.060   0.200  0.00  0.00     0.018 C 
ENDBRANCH   1   8
TORSDOF 1
ENDMDL
