MODEL 1
REMARK minimizedAffinity -2.62900949
REMARK minimizedRMSD -1
REMARK  1 active torsions:
REMARK  status: ('A' for Active; 'I' for Inactive)
REMARK    1  A    between atoms: C1_2  and  C2_3 
ROOT
ATOM      1  C2  UNL d   1      -0.042  -6.000  -4.252  0.00  0.00    -0.081 A 
ATOM      2  C3  UNL d   1      -1.202  -5.991  -5.035  0.00  0.00     0.006 A 
ATOM      3  C4  UNL d   1      -2.463  -5.970  -4.433  0.00  0.00     0.002 A 
ATOM      4  C5  UNL d   1      -2.583  -5.951  -3.039  0.00  0.00    -0.080 A 
ATOM      5  C6  UNL d   1      -3.930  -5.899  -2.380  0.00  0.00     0.076 C 
ATOM      6  C7  UNL d   1      -1.424  -5.978  -2.256  0.00  0.00     0.002 A 
ATOM      7  C8  UNL d   1      -0.164  -5.999  -2.858  0.00  0.00     0.006 A 
ENDROOT
BRANCH   1   8
ATOM      8  C1  UNL d   1       1.319  -5.956  -4.898  0.00  0.00     0.054 C 
ATOM      9  C   UNL d   1       1.375  -4.908  -6.000  0.00  0.00     0.018 C 
ENDBRANCH   1   8
TORSDOF 1
ENDMDL
