MODEL 1
REMARK minimizedAffinity 5.61061907
REMARK minimizedRMSD -1
REMARK  1 active torsions:
REMARK  status: ('A' for Active; 'I' for Inactive)
REMARK    1  A    between atoms: C1_2  and  C2_3 
ROOT
ATOM      1  C2  UNL d   1      -1.858   2.779  -4.163  0.00  0.00    -0.081 A 
ATOM      2  C3  UNL d   1      -1.786   3.886  -5.017  0.00  0.00     0.006 A 
ATOM      3  C4  UNL d   1      -0.569   4.537  -5.231  0.00  0.00     0.002 A 
ATOM      4  C5  UNL d   1       0.597   4.087  -4.602  0.00  0.00    -0.080 A 
ATOM      5  C6  UNL d   1       1.916   4.757  -4.847  0.00  0.00     0.076 C 
ATOM      6  C7  UNL d   1       0.522   2.991  -3.735  0.00  0.00     0.002 A 
ATOM      7  C8  UNL d   1      -0.695   2.341  -3.520  0.00  0.00     0.006 A 
ENDROOT
BRANCH   1   8
ATOM      8  C1  UNL d   1      -3.157   2.035  -3.980  0.00  0.00     0.054 C 
ATOM      9  C   UNL d   1      -3.579   2.010  -2.518  0.00  0.00     0.018 C 
ENDBRANCH   1   8
TORSDOF 1
ENDMDL
