MODEL 1
REMARK minimizedAffinity 0.565789402
REMARK minimizedRMSD -1
REMARK  1 active torsions:
REMARK  status: ('A' for Active; 'I' for Inactive)
REMARK    1  A    between atoms: C1_2  and  C2_3 
ROOT
ATOM      1  C2  UNL d   1      -1.481  -5.958  -2.579  0.00  0.00    -0.081 A 
ATOM      2  C3  UNL d   1      -0.098  -5.974  -2.364  0.00  0.00     0.006 A 
ATOM      3  C4  UNL d   1       0.786  -5.998  -3.445  0.00  0.00     0.002 A 
ATOM      4  C5  UNL d   1       0.303  -5.998  -4.758  0.00  0.00    -0.080 A 
ATOM      5  C6  UNL d   1       1.241  -5.993  -5.928  0.00  0.00     0.076 C 
ATOM      6  C7  UNL d   1      -1.080  -6.000  -4.972  0.00  0.00     0.002 A 
ATOM      7  C8  UNL d   1      -1.964  -5.977  -3.892  0.00  0.00     0.006 A 
ENDROOT
BRANCH   1   8
ATOM      8  C1  UNL d   1      -2.436  -5.867  -1.416  0.00  0.00     0.054 C 
ATOM      9  C   UNL d   1      -3.884  -5.888  -1.886  0.00  0.00     0.018 C 
ENDBRANCH   1   8
TORSDOF 1
ENDMDL
