MODEL 1
REMARK minimizedAffinity -1.23412943
REMARK minimizedRMSD -1
REMARK  1 active torsions:
REMARK  status: ('A' for Active; 'I' for Inactive)
REMARK    1  A    between atoms: C1_2  and  C2_3 
ROOT
ATOM      1  C2  UNL d   1      -2.061  -5.897  -4.439  0.00  0.00    -0.081 A 
ATOM      2  C3  UNL d   1      -1.811  -5.956  -3.063  0.00  0.00     0.006 A 
ATOM      3  C4  UNL d   1      -0.500  -6.000  -2.582  0.00  0.00     0.002 A 
ATOM      4  C5  UNL d   1       0.582  -5.978  -3.469  0.00  0.00    -0.080 A 
ATOM      5  C6  UNL d   1       1.994  -5.995  -2.965  0.00  0.00     0.076 C 
ATOM      6  C7  UNL d   1       0.332  -5.938  -4.844  0.00  0.00     0.002 A 
ATOM      7  C8  UNL d   1      -0.978  -5.894  -5.325  0.00  0.00     0.006 A 
ENDROOT
BRANCH   1   8
ATOM      8  C1  UNL d   1      -3.472  -5.784  -4.958  0.00  0.00     0.054 C 
ATOM      9  C   UNL d   1      -4.489  -5.998  -3.846  0.00  0.00     0.018 C 
ENDBRANCH   1   8
TORSDOF 1
ENDMDL
