MODEL 1
REMARK minimizedAffinity 12.0716305
REMARK minimizedRMSD -1
REMARK  1 active torsions:
REMARK  status: ('A' for Active; 'I' for Inactive)
REMARK    1  A    between atoms: C1_2  and  C2_3 
ROOT
ATOM      1  C2  UNL d   1      -2.003   2.644  -3.405  0.00  0.00    -0.081 A 
ATOM      2  C3  UNL d   1      -0.865   1.888  -3.098  0.00  0.00     0.006 A 
ATOM      3  C4  UNL d   1       0.412   2.399  -3.342  0.00  0.00     0.002 A 
ATOM      4  C5  UNL d   1       0.573   3.676  -3.890  0.00  0.00    -0.080 A 
ATOM      5  C6  UNL d   1       1.938   4.248  -4.128  0.00  0.00     0.076 C 
ATOM      6  C7  UNL d   1      -0.564   4.424  -4.213  0.00  0.00     0.002 A 
ATOM      7  C8  UNL d   1      -1.841   3.913  -3.970  0.00  0.00     0.006 A 
ENDROOT
BRANCH   1   8
ATOM      8  C1  UNL d   1      -3.380   2.121  -3.084  0.00  0.00     0.054 C 
ATOM      9  C   UNL d   1      -3.540   0.674  -3.527  0.00  0.00     0.018 C 
ENDBRANCH   1   8
TORSDOF 1
ENDMDL
