MODEL 1
REMARK minimizedAffinity 6.90822268
REMARK minimizedRMSD -1
REMARK  1 active torsions:
REMARK  status: ('A' for Active; 'I' for Inactive)
REMARK    1  A    between atoms: C1_2  and  C2_3 
ROOT
ATOM      1  C2  UNL d   1      -1.319  -5.976  -2.586  0.00  0.00    -0.081 A 
ATOM      2  C3  UNL d   1       0.070  -5.986  -2.405  0.00  0.00     0.006 A 
ATOM      3  C4  UNL d   1       0.928  -5.998  -3.507  0.00  0.00     0.002 A 
ATOM      4  C5  UNL d   1       0.412  -5.992  -4.808  0.00  0.00    -0.080 A 
ATOM      5  C6  UNL d   1       1.323  -5.974  -6.000  0.00  0.00     0.076 C 
ATOM      6  C7  UNL d   1      -0.975  -5.999  -4.989  0.00  0.00     0.002 A 
ATOM      7  C8  UNL d   1      -1.833  -5.988  -3.888  0.00  0.00     0.006 A 
ENDROOT
BRANCH   1   8
ATOM      8  C1  UNL d   1      -2.246  -5.898  -1.400  0.00  0.00     0.054 C 
ATOM      9  C   UNL d   1      -1.918  -4.701  -0.520  0.00  0.00     0.018 C 
ENDBRANCH   1   8
TORSDOF 1
ENDMDL
