MODEL 1
REMARK minimizedAffinity 6.32917118
REMARK minimizedRMSD -1
REMARK  0 active torsions:
REMARK  status: ('A' for Active; 'I' for Inactive)
ROOT
ATOM      1  C   UNL d   1       0.804   1.253   0.260  0.00  0.00     0.172 C 
ATOM      2  N   UNL d   1       1.736   0.153   0.346  0.00  0.00    -0.070 N 
ATOM      3  C1  UNL d   1       1.685  -0.996  -0.397  0.00  0.00    -0.004 A 
ATOM      4  C2  UNL d   1       2.747  -1.790  -0.019  0.00  0.00    -0.047 A 
ATOM      5  C3  UNL d   1       3.459  -1.094   0.987  0.00  0.00    -0.047 A 
ATOM      6  C4  UNL d   1       2.811   0.106   1.193  0.00  0.00    -0.004 A 
ENDROOT
TORSDOF 0
ENDMDL
