MODEL 1
REMARK minimizedAffinity 2.19614649
REMARK minimizedRMSD -1
REMARK  0 active torsions:
REMARK  status: ('A' for Active; 'I' for Inactive)
ROOT
ATOM      1  C   UNL d   1      -0.631  -3.857  -0.536  0.00  0.00     0.172 C 
ATOM      2  N   UNL d   1       0.395  -2.848  -0.416  0.00  0.00    -0.070 N 
ATOM      3  C1  UNL d   1       1.505  -2.930   0.381  0.00  0.00    -0.004 A 
ATOM      4  C2  UNL d   1       2.232  -1.771   0.213  0.00  0.00    -0.047 A 
ATOM      5  C3  UNL d   1       1.533  -0.965  -0.717  0.00  0.00    -0.047 A 
ATOM      6  C4  UNL d   1       0.400  -1.656  -1.090  0.00  0.00    -0.004 A 
ENDROOT
TORSDOF 0
ENDMDL
