MODEL 1
REMARK minimizedAffinity 0.813435078
REMARK minimizedRMSD -1
REMARK  0 active torsions:
REMARK  status: ('A' for Active; 'I' for Inactive)
ROOT
ATOM      1  C   UNL d   1       2.580  -1.823   0.121  0.00  0.00     0.172 C 
ATOM      2  N   UNL d   1       2.715  -0.386   0.181  0.00  0.00    -0.070 N 
ATOM      3  C1  UNL d   1       3.897   0.302   0.240  0.00  0.00    -0.004 A 
ATOM      4  C2  UNL d   1       3.600   1.647   0.283  0.00  0.00    -0.047 A 
ATOM      5  C3  UNL d   1       2.191   1.771   0.250  0.00  0.00    -0.047 A 
ATOM      6  C4  UNL d   1       1.668   0.497   0.187  0.00  0.00    -0.004 A 
ENDROOT
TORSDOF 0
ENDMDL
