MODEL 1
REMARK minimizedAffinity 2.99641943
REMARK minimizedRMSD -1
REMARK  0 active torsions:
REMARK  status: ('A' for Active; 'I' for Inactive)
ROOT
ATOM      1  C   UNL d   1      -2.700  -0.224  -4.982  0.00  0.00     0.172 C 
ATOM      2  N   UNL d   1      -3.882   0.552  -5.274  0.00  0.00    -0.070 N 
ATOM      3  C1  UNL d   1      -3.925   1.910  -5.440  0.00  0.00    -0.004 A 
ATOM      4  C2  UNL d   1      -5.231   2.262  -5.704  0.00  0.00    -0.047 A 
ATOM      5  C3  UNL d   1      -6.000   1.074  -5.695  0.00  0.00    -0.047 A 
ATOM      6  C4  UNL d   1      -5.140   0.031  -5.426  0.00  0.00    -0.004 A 
ENDROOT
TORSDOF 0
ENDMDL
