MODEL 1
REMARK minimizedAffinity 3.7669816
REMARK minimizedRMSD -1
REMARK  0 active torsions:
REMARK  status: ('A' for Active; 'I' for Inactive)
ROOT
ATOM      1  C   UNL d   1       3.450  -0.623   0.834  0.00  0.00     0.172 C 
ATOM      2  N   UNL d   1       2.770   0.651   0.829  0.00  0.00    -0.070 N 
ATOM      3  C1  UNL d   1       3.376   1.879   0.829  0.00  0.00    -0.004 A 
ATOM      4  C2  UNL d   1       2.386   2.837   0.822  0.00  0.00    -0.047 A 
ATOM      5  C3  UNL d   1       1.142   2.162   0.819  0.00  0.00    -0.047 A 
ATOM      6  C4  UNL d   1       1.410   0.809   0.823  0.00  0.00    -0.004 A 
ENDROOT
TORSDOF 0
ENDMDL
