MODEL 1
REMARK minimizedAffinity 2.1988492
REMARK minimizedRMSD -1
REMARK  0 active torsions:
REMARK  status: ('A' for Active; 'I' for Inactive)
ROOT
ATOM      1  C   UNL d   1      -1.833  -0.035  -3.393  0.00  0.00     0.172 C 
ATOM      2  N   UNL d   1      -3.147  -0.012  -3.991  0.00  0.00    -0.070 N 
ATOM      3  C1  UNL d   1      -4.205  -0.802  -3.625  0.00  0.00    -0.004 A 
ATOM      4  C2  UNL d   1      -5.274  -0.476  -4.432  0.00  0.00    -0.047 A 
ATOM      5  C3  UNL d   1      -4.843   0.544  -5.314  0.00  0.00    -0.047 A 
ATOM      6  C4  UNL d   1      -3.523   0.812  -5.019  0.00  0.00    -0.004 A 
ENDROOT
TORSDOF 0
ENDMDL
