MODEL 1
REMARK minimizedAffinity -0.297920465
REMARK minimizedRMSD -1
REMARK  0 active torsions:
REMARK  status: ('A' for Active; 'I' for Inactive)
ROOT
ATOM      1  C   UNL d   1       1.295   1.578   0.164  0.00  0.00     0.172 C 
ATOM      2  N   UNL d   1       1.582   0.200  -0.160  0.00  0.00    -0.070 N 
ATOM      3  C1  UNL d   1       0.653  -0.759  -0.461  0.00  0.00    -0.004 A 
ATOM      4  C2  UNL d   1       1.327  -1.936  -0.710  0.00  0.00    -0.047 A 
ATOM      5  C3  UNL d   1       2.709  -1.674  -0.552  0.00  0.00    -0.047 A 
ATOM      6  C4  UNL d   1       2.839  -0.344  -0.212  0.00  0.00    -0.004 A 
ENDROOT
TORSDOF 0
ENDMDL
