MODEL 1
REMARK minimizedAffinity 3.1686666
REMARK minimizedRMSD -1
REMARK  0 active torsions:
REMARK  status: ('A' for Active; 'I' for Inactive)
ROOT
ATOM      1  C   UNL d   1       3.233  -0.557   0.773  0.00  0.00     0.172 C 
ATOM      2  N   UNL d   1       2.461   0.650   0.597  0.00  0.00    -0.070 N 
ATOM      3  C1  UNL d   1       2.931   1.927   0.750  0.00  0.00    -0.004 A 
ATOM      4  C2  UNL d   1       1.890   2.794   0.495  0.00  0.00    -0.047 A 
ATOM      5  C3  UNL d   1       0.755   2.010   0.178  0.00  0.00    -0.047 A 
ATOM      6  C4  UNL d   1       1.137   0.687   0.248  0.00  0.00    -0.004 A 
ENDROOT
TORSDOF 0
ENDMDL
