MODEL 1
REMARK minimizedAffinity 0.771772623
REMARK minimizedRMSD -1
REMARK  2 active torsions:
REMARK  status: ('A' for Active; 'I' for Inactive)
REMARK    1  A    between atoms: C1_2  and  C2_3 
REMARK    2  A    between atoms: C2_3  and  C3_4 
ROOT
ATOM      1  C3  UNL d   1      -1.374  -2.148   1.039  0.00  0.00    -0.075 A 
ATOM      2  C4  UNL d   1      -1.783  -3.052   0.047  0.00  0.00     0.002 A 
ATOM      3  C5  UNL d   1      -1.187  -3.035  -1.214  0.00  0.00     0.002 A 
ATOM      4  C6  UNL d   1      -0.185  -2.112  -1.503  0.00  0.00    -0.004 A 
ATOM      5  C7  UNL d   1       0.217  -1.199  -0.530  0.00  0.00     0.002 A 
ATOM      6  C8  UNL d   1      -0.374  -1.215   0.734  0.00  0.00     0.002 A 
ENDROOT
BRANCH   1   7
ATOM      7  C2  UNL d   1      -1.994  -2.180   2.416  0.00  0.00     0.056 C 
BRANCH   7   8
ATOM      8  C1  UNL d   1      -1.582  -3.392   3.258  0.00  0.00     0.007 C 
ATOM      9  C   UNL d   1      -2.631  -4.496   3.276  0.00  0.00     0.009 C 
ENDBRANCH   7   8
ENDBRANCH   1   7
TORSDOF 2
ENDMDL
