MODEL 1
REMARK minimizedAffinity 6.31585932
REMARK minimizedRMSD -1
REMARK  2 active torsions:
REMARK  status: ('A' for Active; 'I' for Inactive)
REMARK    1  A    between atoms: C1_2  and  C2_3 
REMARK    2  A    between atoms: C2_3  and  C3_4 
ROOT
ATOM      1  C3  UNL d   1       5.181  -3.601  -4.629  0.00  0.00    -0.075 A 
ATOM      2  C4  UNL d   1       3.869  -4.025  -4.377  0.00  0.00     0.002 A 
ATOM      3  C5  UNL d   1       3.393  -5.220  -4.918  0.00  0.00     0.002 A 
ATOM      4  C6  UNL d   1       4.219  -5.999  -5.725  0.00  0.00    -0.004 A 
ATOM      5  C7  UNL d   1       5.519  -5.580  -5.997  0.00  0.00     0.002 A 
ATOM      6  C8  UNL d   1       5.999  -4.387  -5.453  0.00  0.00     0.002 A 
ENDROOT
BRANCH   1   7
ATOM      7  C2  UNL d   1       5.711  -2.324  -4.023  0.00  0.00     0.056 C 
BRANCH   7   8
ATOM      8  C1  UNL d   1       5.997  -2.419  -2.520  0.00  0.00     0.007 C 
ATOM      9  C   UNL d   1       4.946  -1.725  -1.664  0.00  0.00     0.009 C 
ENDBRANCH   7   8
ENDBRANCH   1   7
TORSDOF 2
ENDMDL
