MODEL 1
REMARK minimizedAffinity 8.01302624
REMARK minimizedRMSD -1
REMARK  2 active torsions:
REMARK  status: ('A' for Active; 'I' for Inactive)
REMARK    1  A    between atoms: C1_2  and  C2_3 
REMARK    2  A    between atoms: C2_3  and  C3_4 
ROOT
ATOM      1  C3  UNL d   1       2.834   2.267   0.294  0.00  0.00    -0.075 A 
ATOM      2  C4  UNL d   1       3.253   1.237   1.148  0.00  0.00     0.002 A 
ATOM      3  C5  UNL d   1       2.327   0.345   1.690  0.00  0.00     0.002 A 
ATOM      4  C6  UNL d   1       0.973   0.476   1.393  0.00  0.00    -0.004 A 
ATOM      5  C7  UNL d   1       0.543   1.506   0.559  0.00  0.00     0.002 A 
ATOM      6  C8  UNL d   1       1.467   2.397   0.012  0.00  0.00     0.002 A 
ENDROOT
BRANCH   1   7
ATOM      7  C2  UNL d   1       3.834   3.218  -0.319  0.00  0.00     0.056 C 
BRANCH   7   8
ATOM      8  C1  UNL d   1       4.118   4.459   0.534  0.00  0.00     0.007 C 
ATOM      9  C   UNL d   1       4.711   4.128   1.897  0.00  0.00     0.009 C 
ENDBRANCH   7   8
ENDBRANCH   1   7
TORSDOF 2
ENDMDL
