MODEL 1
REMARK minimizedAffinity 7.33931732
REMARK minimizedRMSD -1
REMARK  2 active torsions:
REMARK  status: ('A' for Active; 'I' for Inactive)
REMARK    1  A    between atoms: C1_2  and  C2_3 
REMARK    2  A    between atoms: C2_3  and  C3_4 
ROOT
ATOM      1  C3  UNL d   1       5.083   1.502  -5.382  0.00  0.00    -0.075 A 
ATOM      2  C4  UNL d   1       3.712   1.798  -5.384  0.00  0.00     0.002 A 
ATOM      3  C5  UNL d   1       3.264   3.082  -5.696  0.00  0.00     0.002 A 
ATOM      4  C6  UNL d   1       4.179   4.087  -5.999  0.00  0.00    -0.004 A 
ATOM      5  C7  UNL d   1       5.545   3.810  -5.984  0.00  0.00     0.002 A 
ATOM      6  C8  UNL d   1       5.995   2.525  -5.677  0.00  0.00     0.002 A 
ENDROOT
BRANCH   1   7
ATOM      7  C2  UNL d   1       5.573   0.107  -5.075  0.00  0.00     0.056 C 
BRANCH   7   8
ATOM      8  C1  UNL d   1       4.752  -0.620  -4.004  0.00  0.00     0.007 C 
ATOM      9  C   UNL d   1       5.551  -0.935  -2.747  0.00  0.00     0.009 C 
ENDBRANCH   7   8
ENDBRANCH   1   7
TORSDOF 2
ENDMDL
