MODEL 1
REMARK minimizedAffinity 5.19110203
REMARK minimizedRMSD -1
REMARK  2 active torsions:
REMARK  status: ('A' for Active; 'I' for Inactive)
REMARK    1  A    between atoms: C1_2  and  C2_3 
REMARK    2  A    between atoms: C2_3  and  C3_4 
ROOT
ATOM      1  C3  UNL d   1      -1.448  -3.700   0.904  0.00  0.00    -0.075 A 
ATOM      2  C4  UNL d   1      -1.137  -2.611   1.731  0.00  0.00     0.002 A 
ATOM      3  C5  UNL d   1      -0.814  -2.810   3.073  0.00  0.00     0.002 A 
ATOM      4  C6  UNL d   1      -0.808  -4.097   3.608  0.00  0.00    -0.004 A 
ATOM      5  C7  UNL d   1      -1.131  -5.185   2.799  0.00  0.00     0.002 A 
ATOM      6  C8  UNL d   1      -1.451  -4.988   1.455  0.00  0.00     0.002 A 
ENDROOT
BRANCH   1   7
ATOM      7  C2  UNL d   1      -1.770  -3.493  -0.557  0.00  0.00     0.056 C 
BRANCH   7   8
ATOM      8  C1  UNL d   1      -0.579  -3.022  -1.398  0.00  0.00     0.007 C 
ATOM      9  C   UNL d   1      -0.631  -3.510  -2.839  0.00  0.00     0.009 C 
ENDBRANCH   7   8
ENDBRANCH   1   7
TORSDOF 2
ENDMDL
