MODEL 1
REMARK minimizedAffinity 8.48426437
REMARK minimizedRMSD -1
REMARK  2 active torsions:
REMARK  status: ('A' for Active; 'I' for Inactive)
REMARK    1  A    between atoms: C1_2  and  C2_3 
REMARK    2  A    between atoms: C2_3  and  C3_4 
ROOT
ATOM      1  C3  UNL d   1      -0.313  -0.054   1.321  0.00  0.00    -0.075 A 
ATOM      2  C4  UNL d   1       0.614   0.642   0.532  0.00  0.00     0.002 A 
ATOM      3  C5  UNL d   1       0.718   2.030   0.621  0.00  0.00     0.002 A 
ATOM      4  C6  UNL d   1      -0.107   2.740   1.490  0.00  0.00    -0.004 A 
ATOM      5  C7  UNL d   1      -1.043   2.060   2.267  0.00  0.00     0.002 A 
ATOM      6  C8  UNL d   1      -1.147   0.671   2.183  0.00  0.00     0.002 A 
ENDROOT
BRANCH   1   7
ATOM      7  C2  UNL d   1      -0.411  -1.560   1.251  0.00  0.00     0.056 C 
BRANCH   7   8
ATOM      8  C1  UNL d   1      -1.668  -2.134   1.913  0.00  0.00     0.007 C 
ATOM      9  C   UNL d   1      -1.381  -2.851   3.226  0.00  0.00     0.009 C 
ENDBRANCH   7   8
ENDBRANCH   1   7
TORSDOF 2
ENDMDL
