MODEL 1
REMARK minimizedAffinity 7.72373962
REMARK minimizedRMSD -1
REMARK  2 active torsions:
REMARK  status: ('A' for Active; 'I' for Inactive)
REMARK    1  A    between atoms: C1_2  and  C2_3 
REMARK    2  A    between atoms: C2_3  and  C3_4 
ROOT
ATOM      1  C3  UNL d   1      -1.019   3.696   1.972  0.00  0.00    -0.075 A 
ATOM      2  C4  UNL d   1      -1.865   4.062   3.030  0.00  0.00     0.002 A 
ATOM      3  C5  UNL d   1      -1.705   3.493   4.293  0.00  0.00     0.002 A 
ATOM      4  C6  UNL d   1      -0.708   2.545   4.513  0.00  0.00    -0.004 A 
ATOM      5  C7  UNL d   1       0.127   2.162   3.466  0.00  0.00     0.002 A 
ATOM      6  C8  UNL d   1      -0.027   2.734   2.201  0.00  0.00     0.002 A 
ENDROOT
BRANCH   1   7
ATOM      7  C2  UNL d   1      -1.168   4.330   0.610  0.00  0.00     0.056 C 
BRANCH   7   8
ATOM      8  C1  UNL d   1       0.160   4.551  -0.123  0.00  0.00     0.007 C 
ATOM      9  C   UNL d   1       0.702   5.965   0.029  0.00  0.00     0.009 C 
ENDBRANCH   7   8
ENDBRANCH   1   7
TORSDOF 2
ENDMDL
