MODEL 1
REMARK minimizedAffinity 12.6485996
REMARK minimizedRMSD -1
REMARK  2 active torsions:
REMARK  status: ('A' for Active; 'I' for Inactive)
REMARK    1  A    between atoms: C1_2  and  C2_3 
REMARK    2  A    between atoms: C2_3  and  C3_4 
ROOT
ATOM      1  C3  UNL d   1       1.032   0.414   0.873  0.00  0.00    -0.075 A 
ATOM      2  C4  UNL d   1       1.248   0.892   2.174  0.00  0.00     0.002 A 
ATOM      3  C5  UNL d   1       1.730   2.184   2.384  0.00  0.00     0.002 A 
ATOM      4  C6  UNL d   1       2.011   3.010   1.298  0.00  0.00    -0.004 A 
ATOM      5  C7  UNL d   1       1.816   2.541   0.001  0.00  0.00     0.002 A 
ATOM      6  C8  UNL d   1       1.330   1.250  -0.211  0.00  0.00     0.002 A 
ENDROOT
BRANCH   1   7
ATOM      7  C2  UNL d   1       0.483  -0.973   0.641  0.00  0.00     0.056 C 
BRANCH   7   8
ATOM      8  C1  UNL d   1       0.062  -1.242  -0.808  0.00  0.00     0.007 C 
ATOM      9  C   UNL d   1      -0.702  -2.548  -0.978  0.00  0.00     0.009 C 
ENDBRANCH   7   8
ENDBRANCH   1   7
TORSDOF 2
ENDMDL
