MODEL 1
REMARK minimizedAffinity 10.0574169
REMARK minimizedRMSD -1
REMARK  2 active torsions:
REMARK  status: ('A' for Active; 'I' for Inactive)
REMARK    1  A    between atoms: C1_2  and  C2_3 
REMARK    2  A    between atoms: C2_3  and  C3_4 
ROOT
ATOM      1  C3  UNL d   1       0.491  -4.465  -2.644  0.00  0.00    -0.075 A 
ATOM      2  C4  UNL d   1      -0.616  -5.296  -2.421  0.00  0.00     0.002 A 
ATOM      3  C5  UNL d   1      -1.624  -4.913  -1.536  0.00  0.00     0.002 A 
ATOM      4  C6  UNL d   1      -1.533  -3.701  -0.855  0.00  0.00    -0.004 A 
ATOM      5  C7  UNL d   1      -0.430  -2.874  -1.056  0.00  0.00     0.002 A 
ATOM      6  C8  UNL d   1       0.578  -3.253  -1.944  0.00  0.00     0.002 A 
ENDROOT
BRANCH   1   7
ATOM      7  C2  UNL d   1       1.570  -4.860  -3.623  0.00  0.00     0.056 C 
BRANCH   7   8
ATOM      8  C1  UNL d   1       1.165  -5.990  -4.575  0.00  0.00     0.007 C 
ATOM      9  C   UNL d   1       1.960  -5.995  -5.874  0.00  0.00     0.009 C 
ENDBRANCH   7   8
ENDBRANCH   1   7
TORSDOF 2
ENDMDL
