MODEL 1
REMARK minimizedAffinity 6.79200888
REMARK minimizedRMSD -1
REMARK  2 active torsions:
REMARK  status: ('A' for Active; 'I' for Inactive)
REMARK    1  A    between atoms: C1_2  and  C2_3 
REMARK    2  A    between atoms: C2_3  and  C3_4 
ROOT
ATOM      1  C3  UNL d   1      -0.931   0.555   1.404  0.00  0.00    -0.075 A 
ATOM      2  C4  UNL d   1      -0.309  -0.227   0.420  0.00  0.00     0.002 A 
ATOM      3  C5  UNL d   1      -0.767  -1.516   0.146  0.00  0.00     0.002 A 
ATOM      4  C6  UNL d   1      -1.843  -2.042   0.856  0.00  0.00    -0.004 A 
ATOM      5  C7  UNL d   1      -2.459  -1.280   1.847  0.00  0.00     0.002 A 
ATOM      6  C8  UNL d   1      -2.006   0.012   2.121  0.00  0.00     0.002 A 
ENDROOT
BRANCH   1   7
ATOM      7  C2  UNL d   1      -0.459   1.962   1.685  0.00  0.00     0.056 C 
BRANCH   7   8
ATOM      8  C1  UNL d   1       1.000   2.219   1.297  0.00  0.00     0.007 C 
ATOM      9  C   UNL d   1       1.973   2.023   2.452  0.00  0.00     0.009 C 
ENDBRANCH   7   8
ENDBRANCH   1   7
TORSDOF 2
ENDMDL
