MODEL 1
REMARK minimizedAffinity 8.15703297
REMARK minimizedRMSD -1
REMARK  2 active torsions:
REMARK  status: ('A' for Active; 'I' for Inactive)
REMARK    1  A    between atoms: C1_2  and  C2_3 
REMARK    2  A    between atoms: C2_3  and  C3_4 
ROOT
ATOM      1  C3  UNL d   1       4.451   3.308   2.462  0.00  0.00    -0.075 A 
ATOM      2  C4  UNL d   1       4.582   4.610   1.956  0.00  0.00     0.002 A 
ATOM      3  C5  UNL d   1       4.083   4.933   0.694  0.00  0.00     0.002 A 
ATOM      4  C6  UNL d   1       3.458   3.959  -0.081  0.00  0.00    -0.004 A 
ATOM      5  C7  UNL d   1       3.337   2.659   0.404  0.00  0.00     0.002 A 
ATOM      6  C8  UNL d   1       3.831   2.334   1.669  0.00  0.00     0.002 A 
ENDROOT
BRANCH   1   7
ATOM      7  C2  UNL d   1       4.963   2.959   3.839  0.00  0.00     0.056 C 
BRANCH   7   8
ATOM      8  C1  UNL d   1       4.143   1.881   4.554  0.00  0.00     0.007 C 
ATOM      9  C   UNL d   1       3.080   2.452   5.484  0.00  0.00     0.009 C 
ENDBRANCH   7   8
ENDBRANCH   1   7
TORSDOF 2
ENDMDL
