MODEL 1
REMARK minimizedAffinity 10.1576271
REMARK minimizedRMSD -1
REMARK  2 active torsions:
REMARK  status: ('A' for Active; 'I' for Inactive)
REMARK    1  A    between atoms: C1_2  and  C2_3 
REMARK    2  A    between atoms: C2_3  and  C3_4 
ROOT
ATOM      1  C3  UNL d   1       5.276   2.932  -5.846  0.00  0.00    -0.075 A 
ATOM      2  C4  UNL d   1       5.994   1.727  -5.849  0.00  0.00     0.002 A 
ATOM      3  C5  UNL d   1       5.327   0.505  -5.930  0.00  0.00     0.002 A 
ATOM      4  C6  UNL d   1       3.936   0.470  -5.999  0.00  0.00    -0.004 A 
ATOM      5  C7  UNL d   1       3.212   1.660  -5.981  0.00  0.00     0.002 A 
ATOM      6  C8  UNL d   1       3.877   2.885  -5.904  0.00  0.00     0.002 A 
ENDROOT
BRANCH   1   7
ATOM      7  C2  UNL d   1       5.993   4.259  -5.788  0.00  0.00     0.056 C 
BRANCH   7   8
ATOM      8  C1  UNL d   1       5.362   5.267  -4.822  0.00  0.00     0.007 C 
ATOM      9  C   UNL d   1       3.885   5.518  -5.096  0.00  0.00     0.009 C 
ENDBRANCH   7   8
ENDBRANCH   1   7
TORSDOF 2
ENDMDL
