MODEL 1
REMARK minimizedAffinity -3.95124078
REMARK minimizedRMSD -1
REMARK  2 active torsions:
REMARK  status: ('A' for Active; 'I' for Inactive)
REMARK    1  A    between atoms: C1_2  and  C2_3 
REMARK    2  A    between atoms: C2_3  and  C3_4 
ROOT
ATOM      1  C3  UNL d   1       3.446   2.700   1.346  0.00  0.00    -0.075 A 
ATOM      2  C4  UNL d   1       3.241   1.606   2.199  0.00  0.00     0.002 A 
ATOM      3  C5  UNL d   1       3.835   1.572   3.461  0.00  0.00     0.002 A 
ATOM      4  C6  UNL d   1       4.648   2.622   3.881  0.00  0.00    -0.004 A 
ATOM      5  C7  UNL d   1       4.872   3.706   3.035  0.00  0.00     0.002 A 
ATOM      6  C8  UNL d   1       4.275   3.746   1.774  0.00  0.00     0.002 A 
ENDROOT
BRANCH   1   7
ATOM      7  C2  UNL d   1       2.783   2.758  -0.010  0.00  0.00     0.056 C 
BRANCH   7   8
ATOM      8  C1  UNL d   1       1.290   3.099   0.041  0.00  0.00     0.007 C 
ATOM      9  C   UNL d   1       0.484   2.140   0.906  0.00  0.00     0.009 C 
ENDBRANCH   7   8
ENDBRANCH   1   7
TORSDOF 2
ENDMDL
