MODEL 1
REMARK minimizedAffinity -3.85519361
REMARK minimizedRMSD -1
REMARK  0 active torsions:
REMARK  status: ('A' for Active; 'I' for Inactive)
ROOT
ATOM      1  C   UNL d   1       1.533  -0.193   0.798  0.00  0.00     0.172 C 
ATOM      2  N   UNL d   1       0.178  -0.404   1.249  0.00  0.00    -0.070 N 
ATOM      3  C1  UNL d   1      -0.934  -0.429   0.450  0.00  0.00    -0.004 A 
ATOM      4  C2  UNL d   1      -2.028  -0.656   1.256  0.00  0.00    -0.047 A 
ATOM      5  C3  UNL d   1      -1.558  -0.771   2.586  0.00  0.00    -0.047 A 
ATOM      6  C4  UNL d   1      -0.189  -0.611   2.552  0.00  0.00    -0.004 A 
ENDROOT
TORSDOF 0
ENDMDL
