MODEL 1
REMARK minimizedAffinity -2.90961957
REMARK minimizedRMSD -1
REMARK  0 active torsions:
REMARK  status: ('A' for Active; 'I' for Inactive)
ROOT
ATOM      1  C   UNL d   1       0.249  -0.015  -0.595  0.00  0.00     0.172 C 
ATOM      2  N   UNL d   1       0.591  -0.623  -1.859  0.00  0.00    -0.070 N 
ATOM      3  C1  UNL d   1       1.066  -1.895  -2.031  0.00  0.00    -0.004 A 
ATOM      4  C2  UNL d   1       1.268  -2.092  -3.380  0.00  0.00    -0.047 A 
ATOM      5  C3  UNL d   1       0.902  -0.896  -4.042  0.00  0.00    -0.047 A 
ATOM      6  C4  UNL d   1       0.487  -0.004  -3.077  0.00  0.00    -0.004 A 
ENDROOT
TORSDOF 0
ENDMDL
