MODEL 1
REMARK minimizedAffinity -1.35272002
REMARK minimizedRMSD -1
REMARK  0 active torsions:
REMARK  status: ('A' for Active; 'I' for Inactive)
ROOT
ATOM      1  C   UNL d   1       1.088  -0.406  -2.759  0.00  0.00     0.172 C 
ATOM      2  N   UNL d   1       0.346  -0.100  -1.559  0.00  0.00    -0.070 N 
ATOM      3  C1  UNL d   1      -0.900   0.465  -1.513  0.00  0.00    -0.004 A 
ATOM      4  C2  UNL d   1      -1.257   0.593  -0.188  0.00  0.00    -0.047 A 
ATOM      5  C3  UNL d   1      -0.188   0.089   0.589  0.00  0.00    -0.047 A 
ATOM      6  C4  UNL d   1       0.792  -0.334  -0.284  0.00  0.00    -0.004 A 
ENDROOT
TORSDOF 0
ENDMDL
