MODEL 1
REMARK minimizedAffinity -3.37777495
REMARK minimizedRMSD -1
REMARK  0 active torsions:
REMARK  status: ('A' for Active; 'I' for Inactive)
ROOT
ATOM      1  C   UNL d   1       0.121  -0.143   0.946  0.00  0.00     0.172 C 
ATOM      2  N   UNL d   1      -0.953  -0.299   1.897  0.00  0.00    -0.070 N 
ATOM      3  C1  UNL d   1      -0.930  -1.107   3.003  0.00  0.00    -0.004 A 
ATOM      4  C2  UNL d   1      -2.140  -0.974   3.648  0.00  0.00    -0.047 A 
ATOM      5  C3  UNL d   1      -2.919  -0.056   2.904  0.00  0.00    -0.047 A 
ATOM      6  C4  UNL d   1      -2.160   0.346   1.826  0.00  0.00    -0.004 A 
ENDROOT
TORSDOF 0
ENDMDL
