MODEL 1
REMARK minimizedAffinity -2.80780864
REMARK minimizedRMSD -1
REMARK  0 active torsions:
REMARK  status: ('A' for Active; 'I' for Inactive)
ROOT
ATOM      1  C   UNL d   1       0.287   0.636  -0.901  0.00  0.00     0.172 C 
ATOM      2  N   UNL d   1       0.537  -0.237  -2.024  0.00  0.00    -0.070 N 
ATOM      3  C1  UNL d   1       1.585  -0.132  -2.899  0.00  0.00    -0.004 A 
ATOM      4  C2  UNL d   1       1.467  -1.148  -3.822  0.00  0.00    -0.047 A 
ATOM      5  C3  UNL d   1       0.308  -1.889  -3.491  0.00  0.00    -0.047 A 
ATOM      6  C4  UNL d   1      -0.249  -1.303  -2.374  0.00  0.00    -0.004 A 
ENDROOT
TORSDOF 0
ENDMDL
