MODEL 1
REMARK minimizedAffinity -1.86426938
REMARK minimizedRMSD -1
REMARK  0 active torsions:
REMARK  status: ('A' for Active; 'I' for Inactive)
ROOT
ATOM      1  C   UNL d   1       0.878  -0.846  -2.462  0.00  0.00     0.172 C 
ATOM      2  N   UNL d   1       0.636  -0.384  -1.115  0.00  0.00    -0.070 N 
ATOM      3  C1  UNL d   1      -0.279   0.567  -0.749  0.00  0.00    -0.004 A 
ATOM      4  C2  UNL d   1      -0.202   0.723   0.618  0.00  0.00    -0.047 A 
ATOM      5  C3  UNL d   1       0.794  -0.164   1.090  0.00  0.00    -0.047 A 
ATOM      6  C4  UNL d   1       1.297  -0.837  -0.004  0.00  0.00    -0.004 A 
ENDROOT
TORSDOF 0
ENDMDL
