MODEL 1
REMARK minimizedAffinity -2.84275222
REMARK minimizedRMSD -1
REMARK  0 active torsions:
REMARK  status: ('A' for Active; 'I' for Inactive)
ROOT
ATOM      1  C   UNL d   1      -2.618   1.029   2.211  0.00  0.00     0.172 C 
ATOM      2  N   UNL d   1      -1.393   0.728   1.508  0.00  0.00    -0.070 N 
ATOM      3  C1  UNL d   1      -0.186   0.450   2.091  0.00  0.00    -0.004 A 
ATOM      4  C2  UNL d   1       0.727   0.220   1.084  0.00  0.00    -0.047 A 
ATOM      5  C3  UNL d   1       0.044   0.365  -0.147  0.00  0.00    -0.047 A 
ATOM      6  C4  UNL d   1      -1.266   0.680   0.145  0.00  0.00    -0.004 A 
ENDROOT
TORSDOF 0
ENDMDL
