MODEL 1
REMARK minimizedAffinity -2.19138455
REMARK minimizedRMSD -1
REMARK  0 active torsions:
REMARK  status: ('A' for Active; 'I' for Inactive)
ROOT
ATOM      1  C   UNL d   1       0.396   0.361  -1.222  0.00  0.00     0.172 C 
ATOM      2  N   UNL d   1       0.465   0.244   0.216  0.00  0.00    -0.070 N 
ATOM      3  C1  UNL d   1       1.446  -0.403   0.918  0.00  0.00    -0.004 A 
ATOM      4  C2  UNL d   1       1.152  -0.288   2.259  0.00  0.00    -0.047 A 
ATOM      5  C3  UNL d   1      -0.049   0.453   2.367  0.00  0.00    -0.047 A 
ATOM      6  C4  UNL d   1      -0.453   0.769   1.087  0.00  0.00    -0.004 A 
ENDROOT
TORSDOF 0
ENDMDL
