MODEL 1
REMARK minimizedAffinity -4.18435574
REMARK minimizedRMSD -1
REMARK  0 active torsions:
REMARK  status: ('A' for Active; 'I' for Inactive)
ROOT
ATOM      1  C   UNL d   1      -1.105  -0.042  -0.885  0.00  0.00     0.172 C 
ATOM      2  N   UNL d   1      -0.944  -0.072   0.549  0.00  0.00    -0.070 N 
ATOM      3  C1  UNL d   1      -1.956  -0.190   1.464  0.00  0.00    -0.004 A 
ATOM      4  C2  UNL d   1      -1.392  -0.180   2.722  0.00  0.00    -0.047 A 
ATOM      5  C3  UNL d   1       0.008  -0.051   2.557  0.00  0.00    -0.047 A 
ATOM      6  C4  UNL d   1       0.258   0.014   1.202  0.00  0.00    -0.004 A 
ENDROOT
TORSDOF 0
ENDMDL
