MODEL 1
REMARK minimizedAffinity -3.14931607
REMARK minimizedRMSD -1
REMARK  0 active torsions:
REMARK  status: ('A' for Active; 'I' for Inactive)
ROOT
ATOM      1  C   UNL d   1       0.321   0.109   0.754  0.00  0.00     0.172 C 
ATOM      2  N   UNL d   1      -0.853   0.207   1.588  0.00  0.00    -0.070 N 
ATOM      3  C1  UNL d   1      -2.137   0.372   1.142  0.00  0.00    -0.004 A 
ATOM      4  C2  UNL d   1      -2.964   0.419   2.244  0.00  0.00    -0.047 A 
ATOM      5  C3  UNL d   1      -2.148   0.278   3.392  0.00  0.00    -0.047 A 
ATOM      6  C4  UNL d   1      -0.846   0.149   2.957  0.00  0.00    -0.004 A 
ENDROOT
TORSDOF 0
ENDMDL
