MODEL 1
REMARK minimizedAffinity 0.135626674
REMARK minimizedRMSD -1
REMARK  0 active torsions:
REMARK  status: ('A' for Active; 'I' for Inactive)
ROOT
ATOM      1  C   UNL d   1      -2.075   0.481  -0.440  0.00  0.00     0.172 C 
ATOM      2  N   UNL d   1      -0.685   0.552  -0.056  0.00  0.00    -0.070 N 
ATOM      3  C1  UNL d   1       0.364   0.809  -0.898  0.00  0.00    -0.004 A 
ATOM      4  C2  UNL d   1       1.520   0.792  -0.149  0.00  0.00    -0.047 A 
ATOM      5  C3  UNL d   1       1.154   0.514   1.189  0.00  0.00    -0.047 A 
ATOM      6  C4  UNL d   1      -0.217   0.371   1.218  0.00  0.00    -0.004 A 
ENDROOT
TORSDOF 0
ENDMDL
