MODEL 1
REMARK minimizedAffinity -0.680401146
REMARK minimizedRMSD -1
REMARK  0 active torsions:
REMARK  status: ('A' for Active; 'I' for Inactive)
ROOT
ATOM      1  C   UNL d   1       0.421   0.363  -1.257  0.00  0.00     0.172 C 
ATOM      2  N   UNL d   1       0.702  -0.638  -2.260  0.00  0.00    -0.070 N 
ATOM      3  C1  UNL d   1       1.836  -1.402  -2.329  0.00  0.00    -0.004 A 
ATOM      4  C2  UNL d   1       1.720  -2.232  -3.423  0.00  0.00    -0.047 A 
ATOM      5  C3  UNL d   1       0.473  -1.956  -4.033  0.00  0.00    -0.047 A 
ATOM      6  C4  UNL d   1      -0.136  -0.966  -3.293  0.00  0.00    -0.004 A 
ENDROOT
TORSDOF 0
ENDMDL
