MODEL 1
REMARK minimizedAffinity -2.37776446
REMARK minimizedRMSD -1
REMARK  0 active torsions:
REMARK  status: ('A' for Active; 'I' for Inactive)
ROOT
ATOM      1  C   UNL d   1       1.199  -1.542  -3.392  0.00  0.00     0.172 C 
ATOM      2  N   UNL d   1       0.501  -0.844  -2.338  0.00  0.00    -0.070 N 
ATOM      3  C1  UNL d   1      -0.742  -1.160  -1.858  0.00  0.00    -0.004 A 
ATOM      4  C2  UNL d   1      -1.051  -0.259  -0.861  0.00  0.00    -0.047 A 
ATOM      5  C3  UNL d   1       0.044   0.629  -0.739  0.00  0.00    -0.047 A 
ATOM      6  C4  UNL d   1       0.990   0.244  -1.665  0.00  0.00    -0.004 A 
ENDROOT
TORSDOF 0
ENDMDL
