MODEL 1
REMARK minimizedAffinity -3.0904398
REMARK minimizedRMSD -1
REMARK  0 active torsions:
REMARK  status: ('A' for Active; 'I' for Inactive)
ROOT
ATOM      1  C   UNL d   1      -2.363   0.804   0.695  0.00  0.00     0.172 C 
ATOM      2  N   UNL d   1      -0.933   0.612   0.747  0.00  0.00    -0.070 N 
ATOM      3  C1  UNL d   1      -0.195   0.419   1.885  0.00  0.00    -0.004 A 
ATOM      4  C2  UNL d   1       1.125   0.277   1.512  0.00  0.00    -0.047 A 
ATOM      5  C3  UNL d   1       1.181   0.390   0.103  0.00  0.00    -0.047 A 
ATOM      6  C4  UNL d   1      -0.106   0.597  -0.345  0.00  0.00    -0.004 A 
ENDROOT
TORSDOF 0
ENDMDL
