MODEL 1
REMARK minimizedAffinity -3.40136981
REMARK minimizedRMSD -1
REMARK  0 active torsions:
REMARK  status: ('A' for Active; 'I' for Inactive)
ROOT
ATOM      1  C   UNL d   1      -0.492   0.055   0.537  0.00  0.00     0.172 C 
ATOM      2  N   UNL d   1      -1.646   0.377   1.343  0.00  0.00    -0.070 N 
ATOM      3  C1  UNL d   1      -2.905   0.632   0.868  0.00  0.00    -0.004 A 
ATOM      4  C2  UNL d   1      -3.718   0.894   1.950  0.00  0.00    -0.047 A 
ATOM      5  C3  UNL d   1      -2.921   0.793   3.114  0.00  0.00    -0.047 A 
ATOM      6  C4  UNL d   1      -1.642   0.472   2.709  0.00  0.00    -0.004 A 
ENDROOT
TORSDOF 0
ENDMDL
