MODEL 1
REMARK minimizedAffinity 23.0073395
REMARK minimizedRMSD -1
REMARK  0 active torsions:
REMARK  status: ('A' for Active; 'I' for Inactive)
ROOT
ATOM      1  C   UNL d   1      -2.241  -1.713   1.135  0.00  0.00     0.124 A 
ATOM      2  C1  UNL d   1      -1.556  -2.404   0.146  0.00  0.00     0.062 A 
ATOM      3  C2  UNL d   1      -0.959  -3.628   0.432  0.00  0.00     0.162 A 
ATOM      4  C3  UNL d   1      -1.045  -4.170   1.715  0.00  0.00    -0.034 A 
ATOM      5  C4  UNL d   1      -1.736  -3.468   2.705  0.00  0.00     0.162 A 
ATOM      6  C5  UNL d   1      -2.331  -2.245   2.413  0.00  0.00     0.062 A 
ATOM      7  F   UNL d   1      -2.993  -1.579   3.370  0.00  0.00    -0.097 F 
ATOM      8  F1  UNL d   1      -1.838  -3.961   3.948  0.00  0.00    -0.096 F 
ATOM      9  I   UNL d   1      -0.153  -6.000   2.148  0.00  0.00    -0.060 I 
ATOM     10  F2  UNL d   1      -0.302  -4.274  -0.543  0.00  0.00    -0.096 F 
ATOM     11  F3  UNL d   1      -1.467  -1.891  -1.090  0.00  0.00    -0.097 F 
ATOM     12  F4  UNL d   1      -2.814  -0.535   0.856  0.00  0.00    -0.092 F 
ENDROOT
TORSDOF 0
ENDMDL
