MODEL 1
REMARK minimizedAffinity 16.1984787
REMARK minimizedRMSD -1
REMARK  0 active torsions:
REMARK  status: ('A' for Active; 'I' for Inactive)
ROOT
ATOM      1  C   UNL d   1      -1.418  -3.306   0.846  0.00  0.00     0.124 A 
ATOM      2  C1  UNL d   1      -1.621  -4.320  -0.079  0.00  0.00     0.062 A 
ATOM      3  C2  UNL d   1      -2.821  -5.025  -0.095  0.00  0.00     0.162 A 
ATOM      4  C3  UNL d   1      -3.830  -4.716   0.818  0.00  0.00    -0.034 A 
ATOM      5  C4  UNL d   1      -3.619  -3.695   1.746  0.00  0.00     0.162 A 
ATOM      6  C5  UNL d   1      -2.417  -2.994   1.758  0.00  0.00     0.062 A 
ATOM      7  F   UNL d   1      -2.224  -2.014   2.652  0.00  0.00    -0.097 F 
ATOM      8  F1  UNL d   1      -4.568  -3.372   2.638  0.00  0.00    -0.096 F 
ATOM      9  I   UNL d   1      -5.626  -5.767   0.798  0.00  0.00    -0.060 I 
ATOM     10  F2  UNL d   1      -2.989  -6.000  -1.000  0.00  0.00    -0.096 F 
ATOM     11  F3  UNL d   1      -0.657  -4.624  -0.960  0.00  0.00    -0.097 F 
ATOM     12  F4  UNL d   1      -0.262  -2.630   0.860  0.00  0.00    -0.092 F 
ENDROOT
TORSDOF 0
ENDMDL
