MODEL 1
REMARK minimizedAffinity 19.3324184
REMARK minimizedRMSD -1
REMARK  0 active torsions:
REMARK  status: ('A' for Active; 'I' for Inactive)
ROOT
ATOM      1  C   UNL d   1       3.457   2.548   0.031  0.00  0.00     0.124 A 
ATOM      2  C1  UNL d   1       3.228   1.523   0.939  0.00  0.00     0.062 A 
ATOM      3  C2  UNL d   1       3.650   1.650   2.259  0.00  0.00     0.162 A 
ATOM      4  C3  UNL d   1       4.304   2.808   2.681  0.00  0.00    -0.034 A 
ATOM      5  C4  UNL d   1       4.532   3.834   1.762  0.00  0.00     0.162 A 
ATOM      6  C5  UNL d   1       4.109   3.702   0.444  0.00  0.00     0.062 A 
ATOM      7  F   UNL d   1       4.331   4.693  -0.432  0.00  0.00    -0.097 F 
ATOM      8  F1  UNL d   1       5.159   4.960   2.134  0.00  0.00    -0.096 F 
ATOM      9  I   UNL d   1       4.936   3.001   4.654  0.00  0.00    -0.060 I 
ATOM     10  F2  UNL d   1       3.415   0.644   3.114  0.00  0.00    -0.096 F 
ATOM     11  F3  UNL d   1       2.599   0.407   0.542  0.00  0.00    -0.097 F 
ATOM     12  F4  UNL d   1       3.051   2.423  -1.239  0.00  0.00    -0.092 F 
ENDROOT
TORSDOF 0
ENDMDL
