MODEL 1
REMARK minimizedAffinity 14.021513
REMARK minimizedRMSD -1
REMARK  0 active torsions:
REMARK  status: ('A' for Active; 'I' for Inactive)
ROOT
ATOM      1  C   UNL d   1      -1.262  -2.903   2.407  0.00  0.00     0.124 A 
ATOM      2  C1  UNL d   1      -0.867  -3.746   1.378  0.00  0.00     0.062 A 
ATOM      3  C2  UNL d   1      -1.054  -3.366   0.052  0.00  0.00     0.162 A 
ATOM      4  C3  UNL d   1      -1.639  -2.137  -0.253  0.00  0.00    -0.034 A 
ATOM      5  C4  UNL d   1      -2.034  -1.295   0.788  0.00  0.00     0.162 A 
ATOM      6  C5  UNL d   1      -1.845  -1.679   2.112  0.00  0.00     0.062 A 
ATOM      7  F   UNL d   1      -2.227  -0.863   3.105  0.00  0.00    -0.097 F 
ATOM      8  F1  UNL d   1      -2.599  -0.106   0.531  0.00  0.00    -0.096 F 
ATOM      9  I   UNL d   1      -1.920  -1.566  -2.234  0.00  0.00    -0.060 I 
ATOM     10  F2  UNL d   1      -0.663  -4.201  -0.923  0.00  0.00    -0.096 F 
ATOM     11  F3  UNL d   1      -0.305  -4.930   1.661  0.00  0.00    -0.097 F 
ATOM     12  F4  UNL d   1      -1.082  -3.271   3.682  0.00  0.00    -0.092 F 
ENDROOT
TORSDOF 0
ENDMDL
