MODEL 1
REMARK minimizedAffinity 17.9350662
REMARK minimizedRMSD -1
REMARK  0 active torsions:
REMARK  status: ('A' for Active; 'I' for Inactive)
ROOT
ATOM      1  C   UNL d   1      -1.250  -3.297   2.298  0.00  0.00     0.124 A 
ATOM      2  C1  UNL d   1      -1.724  -2.027   1.998  0.00  0.00     0.062 A 
ATOM      3  C2  UNL d   1      -1.876  -1.632   0.672  0.00  0.00     0.162 A 
ATOM      4  C3  UNL d   1      -1.555  -2.509  -0.365  0.00  0.00    -0.034 A 
ATOM      5  C4  UNL d   1      -1.078  -3.784  -0.055  0.00  0.00     0.162 A 
ATOM      6  C5  UNL d   1      -0.928  -4.174   1.272  0.00  0.00     0.062 A 
ATOM      7  F   UNL d   1      -0.470  -5.401   1.561  0.00  0.00    -0.097 F 
ATOM      8  F1  UNL d   1      -0.759  -4.652  -1.026  0.00  0.00    -0.096 F 
ATOM      9  I   UNL d   1      -1.780  -1.923  -2.349  0.00  0.00    -0.060 I 
ATOM     10  F2  UNL d   1      -2.336  -0.400   0.410  0.00  0.00    -0.096 F 
ATOM     11  F3  UNL d   1      -2.035  -1.178   2.987  0.00  0.00    -0.097 F 
ATOM     12  F4  UNL d   1      -1.104  -3.673   3.575  0.00  0.00    -0.092 F 
ENDROOT
TORSDOF 0
ENDMDL
