MODEL 1
REMARK minimizedAffinity 19.9905949
REMARK minimizedRMSD -1
REMARK  0 active torsions:
REMARK  status: ('A' for Active; 'I' for Inactive)
ROOT
ATOM      1  C   UNL d   1      -1.867  -4.278   2.611  0.00  0.00     0.124 A 
ATOM      2  C1  UNL d   1      -1.080  -4.828   1.608  0.00  0.00     0.062 A 
ATOM      3  C2  UNL d   1      -0.934  -4.168   0.392  0.00  0.00     0.162 A 
ATOM      4  C3  UNL d   1      -1.575  -2.949   0.171  0.00  0.00    -0.034 A 
ATOM      5  C4  UNL d   1      -2.366  -2.403   1.183  0.00  0.00     0.162 A 
ATOM      6  C5  UNL d   1      -2.509  -3.066   2.397  0.00  0.00     0.062 A 
ATOM      7  F   UNL d   1      -3.270  -2.533   3.364  0.00  0.00    -0.097 F 
ATOM      8  F1  UNL d   1      -2.996  -1.233   1.004  0.00  0.00    -0.096 F 
ATOM      9  I   UNL d   1      -1.358  -1.960  -1.647  0.00  0.00    -0.060 I 
ATOM     10  F2  UNL d   1      -0.167  -4.723  -0.559  0.00  0.00    -0.096 F 
ATOM     11  F3  UNL d   1      -0.460  -5.999   1.812  0.00  0.00    -0.097 F 
ATOM     12  F4  UNL d   1      -2.008  -4.916   3.780  0.00  0.00    -0.092 F 
ENDROOT
TORSDOF 0
ENDMDL
