MODEL 1
REMARK minimizedAffinity 21.1954975
REMARK minimizedRMSD -1
REMARK  0 active torsions:
REMARK  status: ('A' for Active; 'I' for Inactive)
ROOT
ATOM      1  C   UNL d   1      -1.882  -1.492  -1.449  0.00  0.00     0.124 A 
ATOM      2  C1  UNL d   1      -2.764  -0.739  -2.211  0.00  0.00     0.062 A 
ATOM      3  C2  UNL d   1      -3.298   0.441  -1.702  0.00  0.00     0.162 A 
ATOM      4  C3  UNL d   1      -2.950   0.877  -0.423  0.00  0.00    -0.034 A 
ATOM      5  C4  UNL d   1      -2.064   0.113   0.338  0.00  0.00     0.162 A 
ATOM      6  C5  UNL d   1      -1.533  -1.066  -0.175  0.00  0.00     0.062 A 
ATOM      7  F   UNL d   1      -0.681  -1.792   0.563  0.00  0.00    -0.097 F 
ATOM      8  F1  UNL d   1      -1.708   0.503   1.571  0.00  0.00    -0.096 F 
ATOM      9  I   UNL d   1      -3.746   2.641   0.342  0.00  0.00    -0.060 I 
ATOM     10  F2  UNL d   1      -4.147   1.149  -2.461  0.00  0.00    -0.096 F 
ATOM     11  F3  UNL d   1      -3.104  -1.149  -3.442  0.00  0.00    -0.097 F 
ATOM     12  F4  UNL d   1      -1.371  -2.628  -1.941  0.00  0.00    -0.092 F 
ENDROOT
TORSDOF 0
ENDMDL
