MODEL 1
REMARK minimizedAffinity 30.6838379
REMARK minimizedRMSD -1
REMARK  0 active torsions:
REMARK  status: ('A' for Active; 'I' for Inactive)
ROOT
ATOM      1  C   UNL d   1       3.232   1.066   0.419  0.00  0.00     0.124 A 
ATOM      2  C1  UNL d   1       2.674   0.030  -0.316  0.00  0.00     0.062 A 
ATOM      3  C2  UNL d   1       1.866   0.307  -1.415  0.00  0.00     0.162 A 
ATOM      4  C3  UNL d   1       1.610   1.627  -1.785  0.00  0.00    -0.034 A 
ATOM      5  C4  UNL d   1       2.174   2.664  -1.040  0.00  0.00     0.162 A 
ATOM      6  C5  UNL d   1       2.981   2.382   0.057  0.00  0.00     0.062 A 
ATOM      7  F   UNL d   1       3.519   3.385   0.766  0.00  0.00    -0.097 F 
ATOM      8  F1  UNL d   1       1.949   3.945  -1.369  0.00  0.00    -0.096 F 
ATOM      9  I   UNL d   1       0.402   2.046  -3.427  0.00  0.00    -0.060 I 
ATOM     10  F2  UNL d   1       1.340  -0.715  -2.107  0.00  0.00    -0.096 F 
ATOM     11  F3  UNL d   1       2.914  -1.242   0.032  0.00  0.00    -0.097 F 
ATOM     12  F4  UNL d   1       4.009   0.797   1.476  0.00  0.00    -0.092 F 
ENDROOT
TORSDOF 0
ENDMDL
