MODEL 1
REMARK minimizedAffinity 18.8222466
REMARK minimizedRMSD -1
REMARK  0 active torsions:
REMARK  status: ('A' for Active; 'I' for Inactive)
ROOT
ATOM      1  C   UNL d   1      -1.385  -3.798   2.640  0.00  0.00     0.124 A 
ATOM      2  C1  UNL d   1      -0.736  -4.435   1.592  0.00  0.00     0.062 A 
ATOM      3  C2  UNL d   1      -0.670  -3.831   0.339  0.00  0.00     0.162 A 
ATOM      4  C3  UNL d   1      -1.254  -2.583   0.128  0.00  0.00    -0.034 A 
ATOM      5  C4  UNL d   1      -1.907  -1.949   1.186  0.00  0.00     0.162 A 
ATOM      6  C5  UNL d   1      -1.970  -2.556   2.436  0.00  0.00     0.062 A 
ATOM      7  F   UNL d   1      -2.598  -1.939   3.448  0.00  0.00    -0.097 F 
ATOM      8  F1  UNL d   1      -2.480  -0.748   1.018  0.00  0.00    -0.096 F 
ATOM      9  I   UNL d   1      -1.158  -1.677  -1.744  0.00  0.00    -0.060 I 
ATOM     10  F2  UNL d   1      -0.036  -4.470  -0.656  0.00  0.00    -0.096 F 
ATOM     11  F3  UNL d   1      -0.171  -5.635   1.785  0.00  0.00    -0.097 F 
ATOM     12  F4  UNL d   1      -1.448  -4.381   3.844  0.00  0.00    -0.092 F 
ENDROOT
TORSDOF 0
ENDMDL
