MODEL 1
REMARK minimizedAffinity 16.4384441
REMARK minimizedRMSD -1
REMARK  0 active torsions:
REMARK  status: ('A' for Active; 'I' for Inactive)
ROOT
ATOM      1  C   UNL d   1      -1.498  -3.400   2.277  0.00  0.00     0.124 A 
ATOM      2  C1  UNL d   1      -0.773  -4.091   1.315  0.00  0.00     0.062 A 
ATOM      3  C2  UNL d   1      -0.761  -3.648  -0.004  0.00  0.00     0.162 A 
ATOM      4  C3  UNL d   1      -1.476  -2.507  -0.371  0.00  0.00    -0.034 A 
ATOM      5  C4  UNL d   1      -2.203  -1.819   0.602  0.00  0.00     0.162 A 
ATOM      6  C5  UNL d   1      -2.212  -2.265   1.919  0.00  0.00     0.062 A 
ATOM      7  F   UNL d   1      -2.913  -1.596   2.846  0.00  0.00    -0.097 F 
ATOM      8  F1  UNL d   1      -2.902  -0.718   0.284  0.00  0.00    -0.096 F 
ATOM      9  I   UNL d   1      -1.460  -1.842  -2.343  0.00  0.00    -0.060 I 
ATOM     10  F2  UNL d   1      -0.052  -4.335  -0.912  0.00  0.00    -0.096 F 
ATOM     11  F3  UNL d   1      -0.084  -5.188   1.658  0.00  0.00    -0.097 F 
ATOM     12  F4  UNL d   1      -1.509  -3.829   3.545  0.00  0.00    -0.092 F 
ENDROOT
TORSDOF 0
ENDMDL
