MODEL 1
REMARK minimizedAffinity 19.9067822
REMARK minimizedRMSD -1
REMARK  0 active torsions:
REMARK  status: ('A' for Active; 'I' for Inactive)
ROOT
ATOM      1  C   UNL d   1       1.047  -0.057  -2.466  0.00  0.00     0.124 A 
ATOM      2  C1  UNL d   1       0.387  -1.137  -3.036  0.00  0.00     0.062 A 
ATOM      3  C2  UNL d   1      -0.753  -1.659  -2.432  0.00  0.00     0.162 A 
ATOM      4  C3  UNL d   1      -1.242  -1.102  -1.251  0.00  0.00    -0.034 A 
ATOM      5  C4  UNL d   1      -0.572  -0.016  -0.683  0.00  0.00     0.162 A 
ATOM      6  C5  UNL d   1       0.567   0.502  -1.290  0.00  0.00     0.062 A 
ATOM      7  F   UNL d   1       1.203   1.545  -0.738  0.00  0.00    -0.097 F 
ATOM      8  F1  UNL d   1      -1.015   0.544   0.453  0.00  0.00    -0.096 F 
ATOM      9  I   UNL d   1      -2.946  -1.880  -0.345  0.00  0.00    -0.060 I 
ATOM     10  F2  UNL d   1      -1.370  -2.703  -3.006  0.00  0.00    -0.096 F 
ATOM     11  F3  UNL d   1       0.850  -1.680  -4.172  0.00  0.00    -0.097 F 
ATOM     12  F4  UNL d   1       2.144   0.443  -3.049  0.00  0.00    -0.092 F 
ENDROOT
TORSDOF 0
ENDMDL
