MODEL 1
REMARK minimizedAffinity 26.9568748
REMARK minimizedRMSD -1
REMARK  0 active torsions:
REMARK  status: ('A' for Active; 'I' for Inactive)
ROOT
ATOM      1  C   UNL d   1      -1.386  -4.092   2.679  0.00  0.00     0.124 A 
ATOM      2  C1  UNL d   1      -2.004  -2.868   2.458  0.00  0.00     0.062 A 
ATOM      3  C2  UNL d   1      -1.930  -2.263   1.207  0.00  0.00     0.162 A 
ATOM      4  C3  UNL d   1      -1.236  -2.881   0.166  0.00  0.00    -0.034 A 
ATOM      5  C4  UNL d   1      -0.617  -4.111   0.397  0.00  0.00     0.162 A 
ATOM      6  C5  UNL d   1      -0.694  -4.712   1.649  0.00  0.00     0.062 A 
ATOM      7  F   UNL d   1      -0.097  -5.893   1.861  0.00  0.00    -0.097 F 
ATOM      8  F1  UNL d   1       0.058  -4.732  -0.582  0.00  0.00    -0.096 F 
ATOM      9  I   UNL d   1      -1.123  -1.979  -1.706  0.00  0.00    -0.060 I 
ATOM     10  F2  UNL d   1      -2.536  -1.081   1.022  0.00  0.00    -0.096 F 
ATOM     11  F3  UNL d   1      -2.673  -2.267   3.452  0.00  0.00    -0.097 F 
ATOM     12  F4  UNL d   1      -1.459  -4.672   3.884  0.00  0.00    -0.092 F 
ENDROOT
TORSDOF 0
ENDMDL
