MODEL 1
REMARK minimizedAffinity 15.0053234
REMARK minimizedRMSD -1
REMARK  0 active torsions:
REMARK  status: ('A' for Active; 'I' for Inactive)
ROOT
ATOM      1  C   UNL d   1      -1.579  -2.099  -0.560  0.00  0.00     0.124 A 
ATOM      2  C1  UNL d   1      -0.363  -2.290   0.083  0.00  0.00     0.062 A 
ATOM      3  C2  UNL d   1       0.789  -1.679  -0.404  0.00  0.00     0.162 A 
ATOM      4  C3  UNL d   1       0.731  -0.871  -1.539  0.00  0.00    -0.034 A 
ATOM      5  C4  UNL d   1      -0.494  -0.685  -2.181  0.00  0.00     0.162 A 
ATOM      6  C5  UNL d   1      -1.643  -1.298  -1.691  0.00  0.00     0.062 A 
ATOM      7  F   UNL d   1      -2.816  -1.113  -2.313  0.00  0.00    -0.097 F 
ATOM      8  F1  UNL d   1      -0.585   0.085  -3.275  0.00  0.00    -0.096 F 
ATOM      9  I   UNL d   1       2.452   0.043  -2.270  0.00  0.00    -0.060 I 
ATOM     10  F2  UNL d   1       1.950  -1.880   0.238  0.00  0.00    -0.096 F 
ATOM     11  F3  UNL d   1      -0.299  -3.064   1.175  0.00  0.00    -0.097 F 
ATOM     12  F4  UNL d   1      -2.686  -2.689  -0.090  0.00  0.00    -0.092 F 
ENDROOT
TORSDOF 0
ENDMDL
