MODEL 1
REMARK minimizedAffinity 24.40201
REMARK minimizedRMSD -1
REMARK  0 active torsions:
REMARK  status: ('A' for Active; 'I' for Inactive)
ROOT
ATOM      1  C   UNL d   1       4.493   3.321   0.297  0.00  0.00     0.124 A 
ATOM      2  C1  UNL d   1       4.143   2.306   1.176  0.00  0.00     0.062 A 
ATOM      3  C2  UNL d   1       4.171   2.529   2.549  0.00  0.00     0.162 A 
ATOM      4  C3  UNL d   1       4.548   3.774   3.053  0.00  0.00    -0.034 A 
ATOM      5  C4  UNL d   1       4.899   4.790   2.162  0.00  0.00     0.162 A 
ATOM      6  C5  UNL d   1       4.870   4.562   0.791  0.00  0.00     0.062 A 
ATOM      7  F   UNL d   1       5.208   5.544  -0.057  0.00  0.00    -0.097 F 
ATOM      8  F1  UNL d   1       5.267   5.999   2.613  0.00  0.00    -0.096 F 
ATOM      9  I   UNL d   1       4.591   4.111   5.106  0.00  0.00    -0.060 I 
ATOM     10  F2  UNL d   1       3.828   1.529   3.376  0.00  0.00    -0.096 F 
ATOM     11  F3  UNL d   1       3.779   1.106   0.701  0.00  0.00    -0.097 F 
ATOM     12  F4  UNL d   1       4.466   3.104  -1.024  0.00  0.00    -0.092 F 
ENDROOT
TORSDOF 0
ENDMDL
