MODEL 1
REMARK minimizedAffinity 32.8894463
REMARK minimizedRMSD -1
REMARK  0 active torsions:
REMARK  status: ('A' for Active; 'I' for Inactive)
ROOT
ATOM      1  C   UNL d   1       3.943   3.503  -0.088  0.00  0.00     0.124 A 
ATOM      2  C1  UNL d   1       3.566   2.508   0.803  0.00  0.00     0.062 A 
ATOM      3  C2  UNL d   1       3.757   2.684   2.170  0.00  0.00     0.162 A 
ATOM      4  C3  UNL d   1       4.328   3.860   2.656  0.00  0.00    -0.034 A 
ATOM      5  C4  UNL d   1       4.706   4.856   1.753  0.00  0.00     0.162 A 
ATOM      6  C5  UNL d   1       4.513   4.675   0.387  0.00  0.00     0.062 A 
ATOM      7  F   UNL d   1       4.878   5.638  -0.472  0.00  0.00    -0.097 F 
ATOM      8  F1  UNL d   1       5.258   5.999   2.185  0.00  0.00    -0.096 F 
ATOM      9  I   UNL d   1       4.616   4.127   4.699  0.00  0.00    -0.060 I 
ATOM     10  F2  UNL d   1       3.383   1.706   3.009  0.00  0.00    -0.096 F 
ATOM     11  F3  UNL d   1       3.016   1.374   0.346  0.00  0.00    -0.097 F 
ATOM     12  F4  UNL d   1       3.759   3.331  -1.404  0.00  0.00    -0.092 F 
ENDROOT
TORSDOF 0
ENDMDL
