MODEL 1
REMARK minimizedAffinity 20.7675667
REMARK minimizedRMSD -1
REMARK  0 active torsions:
REMARK  status: ('A' for Active; 'I' for Inactive)
ROOT
ATOM      1  C   UNL d   1      -0.834  -3.594  -1.411  0.00  0.00     0.124 A 
ATOM      2  C1  UNL d   1      -0.532  -4.458  -0.368  0.00  0.00     0.062 A 
ATOM      3  C2  UNL d   1      -0.878  -4.126   0.939  0.00  0.00     0.162 A 
ATOM      4  C3  UNL d   1      -1.530  -2.923   1.210  0.00  0.00    -0.034 A 
ATOM      5  C4  UNL d   1      -1.829  -2.058   0.156  0.00  0.00     0.162 A 
ATOM      6  C5  UNL d   1      -1.481  -2.395  -1.148  0.00  0.00     0.062 A 
ATOM      7  F   UNL d   1      -1.773  -1.558  -2.155  0.00  0.00    -0.097 F 
ATOM      8  F1  UNL d   1      -2.456  -0.894   0.381  0.00  0.00    -0.096 F 
ATOM      9  I   UNL d   1      -2.049  -2.423   3.162  0.00  0.00    -0.060 I 
ATOM     10  F2  UNL d   1      -0.575  -4.981   1.927  0.00  0.00    -0.096 F 
ATOM     11  F3  UNL d   1       0.094  -5.617  -0.619  0.00  0.00    -0.097 F 
ATOM     12  F4  UNL d   1      -0.499  -3.915  -2.667  0.00  0.00    -0.092 F 
ENDROOT
TORSDOF 0
ENDMDL
