MODEL 1
REMARK minimizedAffinity 32.4478607
REMARK minimizedRMSD -1
REMARK  0 active torsions:
REMARK  status: ('A' for Active; 'I' for Inactive)
ROOT
ATOM      1  C   UNL d   1      -1.610  -3.015   0.088  0.00  0.00     0.124 A 
ATOM      2  C1  UNL d   1      -2.355  -2.531   1.154  0.00  0.00     0.062 A 
ATOM      3  C2  UNL d   1      -2.222  -3.100   2.417  0.00  0.00     0.162 A 
ATOM      4  C3  UNL d   1      -1.339  -4.161   2.621  0.00  0.00    -0.034 A 
ATOM      5  C4  UNL d   1      -0.594  -4.643   1.544  0.00  0.00     0.162 A 
ATOM      6  C5  UNL d   1      -0.730  -4.070   0.283  0.00  0.00     0.062 A 
ATOM      7  F   UNL d   1      -0.010  -4.540  -0.746  0.00  0.00    -0.097 F 
ATOM      8  F1  UNL d   1       0.265  -5.661   1.705  0.00  0.00    -0.096 F 
ATOM      9  I   UNL d   1      -1.136  -5.015   4.508  0.00  0.00    -0.060 I 
ATOM     10  F2  UNL d   1      -2.954  -2.612   3.429  0.00  0.00    -0.096 F 
ATOM     11  F3  UNL d   1      -3.207  -1.512   0.967  0.00  0.00    -0.097 F 
ATOM     12  F4  UNL d   1      -1.741  -2.466  -1.127  0.00  0.00    -0.092 F 
ENDROOT
TORSDOF 0
ENDMDL
