MODEL 1
REMARK minimizedAffinity 32.5183258
REMARK minimizedRMSD -1
REMARK  0 active torsions:
REMARK  status: ('A' for Active; 'I' for Inactive)
ROOT
ATOM      1  C   UNL d   1      -1.613  -3.268   0.068  0.00  0.00     0.124 A 
ATOM      2  C1  UNL d   1      -0.697  -4.240   0.445  0.00  0.00     0.062 A 
ATOM      3  C2  UNL d   1      -0.502  -4.533   1.791  0.00  0.00     0.162 A 
ATOM      4  C3  UNL d   1      -1.227  -3.855   2.771  0.00  0.00    -0.034 A 
ATOM      5  C4  UNL d   1      -2.146  -2.879   2.384  0.00  0.00     0.162 A 
ATOM      6  C5  UNL d   1      -2.337  -2.589   1.037  0.00  0.00     0.062 A 
ATOM      7  F   UNL d   1      -3.223  -1.650   0.675  0.00  0.00    -0.097 F 
ATOM      8  F1  UNL d   1      -2.860  -2.207   3.301  0.00  0.00    -0.096 F 
ATOM      9  I   UNL d   1      -0.939  -4.291   4.786  0.00  0.00    -0.060 I 
ATOM     10  F2  UNL d   1       0.390  -5.477   2.127  0.00  0.00    -0.096 F 
ATOM     11  F3  UNL d   1       0.004  -4.897  -0.490  0.00  0.00    -0.097 F 
ATOM     12  F4  UNL d   1      -1.798  -2.987  -1.229  0.00  0.00    -0.092 F 
ENDROOT
TORSDOF 0
ENDMDL
