MODEL 1
REMARK minimizedAffinity -4.71980619
REMARK minimizedRMSD -1
REMARK  0 active torsions:
REMARK  status: ('A' for Active; 'I' for Inactive)
ROOT
ATOM      1  C   UNL d   1      -0.461  -0.077   2.643  0.00  0.00     0.023 A 
ATOM      2  C1  UNL d   1       0.860  -0.372   2.306  0.00  0.00     0.003 A 
ATOM      3  C2  UNL d   1       1.231  -0.483   0.965  0.00  0.00     0.048 A 
ATOM      4  C3  UNL d   1       0.277  -0.296  -0.035  0.00  0.00     0.023 A 
ATOM      5  C4  UNL d   1      -1.046   0.001   0.298  0.00  0.00     0.048 A 
ATOM      6  C5  UNL d   1      -1.413   0.109   1.640  0.00  0.00     0.003 A 
ATOM      7  I   UNL d   1       0.828  -0.459  -2.032  0.00  0.00    -0.146 I 
ENDROOT
TORSDOF 0
ENDMDL
