MODEL 1
REMARK minimizedAffinity -0.352828681
REMARK minimizedRMSD -1
REMARK  0 active torsions:
REMARK  status: ('A' for Active; 'I' for Inactive)
ROOT
ATOM      1  C   UNL d   1      -0.303  -0.259   3.226  0.00  0.00     0.023 A 
ATOM      2  C1  UNL d   1      -1.229  -0.812   2.341  0.00  0.00     0.003 A 
ATOM      3  C2  UNL d   1      -1.029  -0.707   0.963  0.00  0.00     0.048 A 
ATOM      4  C3  UNL d   1       0.099  -0.049   0.476  0.00  0.00     0.023 A 
ATOM      5  C4  UNL d   1       1.029   0.505   1.358  0.00  0.00     0.048 A 
ATOM      6  C5  UNL d   1       0.825   0.399   2.735  0.00  0.00     0.003 A 
ATOM      7  I   UNL d   1       0.399   0.109  -1.574  0.00  0.00    -0.146 I 
ENDROOT
TORSDOF 0
ENDMDL
