MODEL 1
REMARK minimizedAffinity -3.08768654
REMARK minimizedRMSD -1
REMARK  0 active torsions:
REMARK  status: ('A' for Active; 'I' for Inactive)
ROOT
ATOM      1  C   UNL d   1      -2.669  -0.248   3.038  0.00  0.00     0.023 A 
ATOM      2  C1  UNL d   1      -1.289  -0.384   3.190  0.00  0.00     0.003 A 
ATOM      3  C2  UNL d   1      -0.453  -0.319   2.073  0.00  0.00     0.048 A 
ATOM      4  C3  UNL d   1      -1.003  -0.117   0.808  0.00  0.00     0.023 A 
ATOM      5  C4  UNL d   1      -2.383   0.020   0.652  0.00  0.00     0.048 A 
ATOM      6  C5  UNL d   1      -3.215  -0.046   1.771  0.00  0.00     0.003 A 
ATOM      7  I   UNL d   1       0.239  -0.021  -0.856  0.00  0.00    -0.146 I 
ENDROOT
TORSDOF 0
ENDMDL
