MODEL 1
REMARK minimizedAffinity -3.5469656
REMARK minimizedRMSD -1
REMARK  0 active torsions:
REMARK  status: ('A' for Active; 'I' for Inactive)
ROOT
ATOM      1  C   UNL d   1      -1.214  -0.073   3.654  0.00  0.00     0.023 A 
ATOM      2  C1  UNL d   1      -2.187  -0.126   2.655  0.00  0.00     0.003 A 
ATOM      3  C2  UNL d   1      -1.815  -0.041   1.312  0.00  0.00     0.048 A 
ATOM      4  C3  UNL d   1      -0.469   0.095   0.974  0.00  0.00     0.023 A 
ATOM      5  C4  UNL d   1       0.507   0.147   1.970  0.00  0.00     0.048 A 
ATOM      6  C5  UNL d   1       0.131   0.063   3.312  0.00  0.00     0.003 A 
ATOM      7  I   UNL d   1       0.086   0.221  -1.025  0.00  0.00    -0.146 I 
ENDROOT
TORSDOF 0
ENDMDL
