MODEL 1
REMARK minimizedAffinity 0.0084826909
REMARK minimizedRMSD -1
REMARK  0 active torsions:
REMARK  status: ('A' for Active; 'I' for Inactive)
ROOT
ATOM      1  C   UNL d   1       1.603  -0.955  -3.988  0.00  0.00     0.023 A 
ATOM      2  C1  UNL d   1       1.944   0.052  -3.085  0.00  0.00     0.003 A 
ATOM      3  C2  UNL d   1       1.218   0.206  -1.902  0.00  0.00     0.048 A 
ATOM      4  C3  UNL d   1       0.153  -0.652  -1.628  0.00  0.00     0.023 A 
ATOM      5  C4  UNL d   1      -0.190  -1.662  -2.528  0.00  0.00     0.048 A 
ATOM      6  C5  UNL d   1       0.538  -1.811  -3.710  0.00  0.00     0.003 A 
ATOM      7  I   UNL d   1      -0.928  -0.426   0.133  0.00  0.00    -0.146 I 
ENDROOT
TORSDOF 0
ENDMDL
