MODEL 1
REMARK minimizedAffinity -1.24939919
REMARK minimizedRMSD -1
REMARK  0 active torsions:
REMARK  status: ('A' for Active; 'I' for Inactive)
ROOT
ATOM      1  C   UNL d   1      -0.464  -0.268   3.027  0.00  0.00     0.023 A 
ATOM      2  C1  UNL d   1      -1.185  -0.990   2.076  0.00  0.00     0.003 A 
ATOM      3  C2  UNL d   1      -0.822  -0.929   0.729  0.00  0.00     0.048 A 
ATOM      4  C3  UNL d   1       0.264  -0.145   0.341  0.00  0.00     0.023 A 
ATOM      5  C4  UNL d   1       0.989   0.578   1.289  0.00  0.00     0.048 A 
ATOM      6  C5  UNL d   1       0.622   0.515   2.635  0.00  0.00     0.003 A 
ATOM      7  I   UNL d   1       0.807  -0.053  -1.664  0.00  0.00    -0.146 I 
ENDROOT
TORSDOF 0
ENDMDL
