MODEL 1
REMARK minimizedAffinity -2.73274517
REMARK minimizedRMSD -1
REMARK  0 active torsions:
REMARK  status: ('A' for Active; 'I' for Inactive)
ROOT
ATOM      1  C   UNL d   1       0.020  -0.047   2.612  0.00  0.00     0.023 A 
ATOM      2  C1  UNL d   1       1.312  -0.059   2.088  0.00  0.00     0.003 A 
ATOM      3  C2  UNL d   1       1.507  -0.181   0.710  0.00  0.00     0.048 A 
ATOM      4  C3  UNL d   1       0.404  -0.289  -0.137  0.00  0.00     0.023 A 
ATOM      5  C4  UNL d   1      -0.891  -0.276   0.384  0.00  0.00     0.048 A 
ATOM      6  C5  UNL d   1      -1.080  -0.155   1.762  0.00  0.00     0.003 A 
ATOM      7  I   UNL d   1       0.691  -0.469  -2.187  0.00  0.00    -0.146 I 
ENDROOT
TORSDOF 0
ENDMDL
