MODEL 1
REMARK minimizedAffinity -4.89391422
REMARK minimizedRMSD -1
REMARK  0 active torsions:
REMARK  status: ('A' for Active; 'I' for Inactive)
ROOT
ATOM      1  C   UNL d   1      -1.333  -0.277   3.162  0.00  0.00     0.023 A 
ATOM      2  C1  UNL d   1      -2.285  -0.378   2.147  0.00  0.00     0.003 A 
ATOM      3  C2  UNL d   1      -1.896  -0.267   0.810  0.00  0.00     0.048 A 
ATOM      4  C3  UNL d   1      -0.554  -0.058   0.496  0.00  0.00     0.023 A 
ATOM      5  C4  UNL d   1       0.402   0.043   1.508  0.00  0.00     0.048 A 
ATOM      6  C5  UNL d   1       0.008  -0.067   2.843  0.00  0.00     0.003 A 
ATOM      7  I   UNL d   1       0.026   0.106  -1.493  0.00  0.00    -0.146 I 
ENDROOT
TORSDOF 0
ENDMDL
