MODEL 1
REMARK minimizedAffinity -1.89393902
REMARK minimizedRMSD -1
REMARK  0 active torsions:
REMARK  status: ('A' for Active; 'I' for Inactive)
ROOT
ATOM      1  C   UNL d   1      -0.295  -0.012   2.385  0.00  0.00     0.023 A 
ATOM      2  C1  UNL d   1      -1.315  -0.630   1.661  0.00  0.00     0.003 A 
ATOM      3  C2  UNL d   1      -1.104  -1.001   0.332  0.00  0.00     0.048 A 
ATOM      4  C3  UNL d   1       0.131  -0.754  -0.267  0.00  0.00     0.023 A 
ATOM      5  C4  UNL d   1       1.155  -0.137   0.453  0.00  0.00     0.048 A 
ATOM      6  C5  UNL d   1       0.939   0.234   1.782  0.00  0.00     0.003 A 
ATOM      7  I   UNL d   1       0.448  -1.306  -2.246  0.00  0.00    -0.146 I 
ENDROOT
TORSDOF 0
ENDMDL
