MODEL 1
REMARK minimizedAffinity -2.08101606
REMARK minimizedRMSD -1
REMARK  0 active torsions:
REMARK  status: ('A' for Active; 'I' for Inactive)
ROOT
ATOM      1  C   UNL d   1       0.542   0.581   0.918  0.00  0.00     0.023 A 
ATOM      2  C1  UNL d   1       1.255   1.170  -0.127  0.00  0.00     0.003 A 
ATOM      3  C2  UNL d   1       1.278   0.566  -1.386  0.00  0.00     0.048 A 
ATOM      4  C3  UNL d   1       0.587  -0.627  -1.593  0.00  0.00     0.023 A 
ATOM      5  C4  UNL d   1      -0.128  -1.220  -0.550  0.00  0.00     0.048 A 
ATOM      6  C5  UNL d   1      -0.148  -0.612   0.706  0.00  0.00     0.003 A 
ATOM      7  I   UNL d   1       0.620  -1.529  -3.465  0.00  0.00    -0.146 I 
ENDROOT
TORSDOF 0
ENDMDL
