MODEL 1
REMARK minimizedAffinity -3.62114167
REMARK minimizedRMSD -1
REMARK  0 active torsions:
REMARK  status: ('A' for Active; 'I' for Inactive)
ROOT
ATOM      1  C   UNL d   1      -0.889  -0.180   2.458  0.00  0.00     0.023 A 
ATOM      2  C1  UNL d   1      -1.557  -0.432   1.259  0.00  0.00     0.003 A 
ATOM      3  C2  UNL d   1      -0.958  -0.100   0.042  0.00  0.00     0.048 A 
ATOM      4  C3  UNL d   1       0.309   0.482   0.031  0.00  0.00     0.023 A 
ATOM      5  C4  UNL d   1       0.981   0.735   1.228  0.00  0.00     0.048 A 
ATOM      6  C5  UNL d   1       0.378   0.402   2.442  0.00  0.00     0.003 A 
ATOM      7  I   UNL d   1       1.202   0.977  -1.779  0.00  0.00    -0.146 I 
ENDROOT
TORSDOF 0
ENDMDL
