MODEL 1
REMARK minimizedAffinity -3.13595772
REMARK minimizedRMSD -1
REMARK  0 active torsions:
REMARK  status: ('A' for Active; 'I' for Inactive)
ROOT
ATOM      1  C   UNL d   1      -0.977  -0.802   2.991  0.00  0.00     0.023 A 
ATOM      2  C1  UNL d   1      -1.880  -0.892   1.931  0.00  0.00     0.003 A 
ATOM      3  C2  UNL d   1      -1.481  -0.538   0.641  0.00  0.00     0.048 A 
ATOM      4  C3  UNL d   1      -0.177  -0.096   0.417  0.00  0.00     0.023 A 
ATOM      5  C4  UNL d   1       0.730  -0.006   1.474  0.00  0.00     0.048 A 
ATOM      6  C5  UNL d   1       0.326  -0.359   2.763  0.00  0.00     0.003 A 
ATOM      7  I   UNL d   1       0.419   0.430  -1.503  0.00  0.00    -0.146 I 
ENDROOT
TORSDOF 0
ENDMDL
