MODEL 1
REMARK minimizedAffinity -1.06718338
REMARK minimizedRMSD -1
REMARK  0 active torsions:
REMARK  status: ('A' for Active; 'I' for Inactive)
ROOT
ATOM      1  C   UNL d   1       0.786   0.552  -1.204  0.00  0.00     0.023 A 
ATOM      2  C1  UNL d   1       1.602   0.629  -0.076  0.00  0.00     0.003 A 
ATOM      3  C2  UNL d   1       1.105   0.257   1.175  0.00  0.00     0.048 A 
ATOM      4  C3  UNL d   1      -0.211  -0.191   1.290  0.00  0.00     0.023 A 
ATOM      5  C4  UNL d   1      -1.032  -0.270   0.164  0.00  0.00     0.048 A 
ATOM      6  C5  UNL d   1      -0.530   0.104  -1.084  0.00  0.00     0.003 A 
ATOM      7  I   UNL d   1      -0.954  -0.744   3.150  0.00  0.00    -0.146 I 
ENDROOT
TORSDOF 0
ENDMDL
