MODEL 1
REMARK minimizedAffinity -2.14733911
REMARK minimizedRMSD -1
REMARK  0 active torsions:
REMARK  status: ('A' for Active; 'I' for Inactive)
ROOT
ATOM      1  C   UNL d   1       0.019   0.520  -1.185  0.00  0.00     0.023 A 
ATOM      2  C1  UNL d   1       1.021   0.263  -0.249  0.00  0.00     0.003 A 
ATOM      3  C2  UNL d   1       0.684  -0.047   1.070  0.00  0.00     0.048 A 
ATOM      4  C3  UNL d   1      -0.658  -0.098   1.447  0.00  0.00     0.023 A 
ATOM      5  C4  UNL d   1      -1.664   0.159   0.514  0.00  0.00     0.048 A 
ATOM      6  C5  UNL d   1      -1.322   0.468  -0.804  0.00  0.00     0.003 A 
ATOM      7  I   UNL d   1      -1.163  -0.558   3.410  0.00  0.00    -0.146 I 
ENDROOT
TORSDOF 0
ENDMDL
