MODEL 1
REMARK minimizedAffinity -1.2005024
REMARK minimizedRMSD -1
REMARK  0 active torsions:
REMARK  status: ('A' for Active; 'I' for Inactive)
ROOT
ATOM      1  N1  IND d   1       2.190  -3.036   0.416  0.00  0.00    -0.196 N 
ATOM      2  C2  IND d   1       1.387  -4.039  -0.053  0.00  0.00     0.054 A 
ATOM      3  C3  IND d   1       0.094  -3.645  -0.051  0.00  0.00    -0.031 A 
ATOM      4  C4  IND d   1      -0.920  -1.365   0.583  0.00  0.00     0.051 A 
ATOM      5  C5  IND d   1      -0.589  -0.145   1.103  0.00  0.00    -0.031 A 
ATOM      6  C6  IND d   1       0.713   0.180   1.425  0.00  0.00     0.015 A 
ATOM      7  C7  IND d   1       1.738  -0.701   1.227  0.00  0.00    -0.016 A 
ATOM      8  C8  IND d   1       1.404  -1.943   0.705  0.00  0.00    -0.047 A 
ATOM      9  C9  IND d   1       0.079  -2.295   0.416  0.00  0.00    -0.096 A 
ATOM     10  HN1 IND d   1       3.043  -3.081   0.513  0.00  0.00     0.298 HD
ENDROOT
TORSDOF 0
ENDMDL
