MODEL 1
REMARK minimizedAffinity -2.67272758
REMARK minimizedRMSD -1
REMARK  0 active torsions:
REMARK  status: ('A' for Active; 'I' for Inactive)
ROOT
ATOM      1  N1  IND d   1       3.277  -1.901  -0.135  0.00  0.00    -0.196 N 
ATOM      2  C2  IND d   1       3.390  -3.251  -0.322  0.00  0.00     0.054 A 
ATOM      3  C3  IND d   1       2.219  -3.865  -0.042  0.00  0.00    -0.031 A 
ATOM      4  C4  IND d   1      -0.041  -2.841   0.644  0.00  0.00     0.051 A 
ATOM      5  C5  IND d   1      -0.629  -1.653   0.978  0.00  0.00    -0.031 A 
ATOM      6  C6  IND d   1       0.069  -0.463   0.955  0.00  0.00     0.015 A 
ATOM      7  C7  IND d   1       1.383  -0.414   0.584  0.00  0.00    -0.016 A 
ATOM      8  C8  IND d   1       1.985  -1.620   0.251  0.00  0.00    -0.047 A 
ATOM      9  C9  IND d   1       1.293  -2.836   0.314  0.00  0.00    -0.096 A 
ATOM     10  HN1 IND d   1       3.906  -1.326  -0.241  0.00  0.00     0.298 HD
ENDROOT
TORSDOF 0
ENDMDL
