MODEL 1
REMARK minimizedAffinity -5.82172203
REMARK minimizedRMSD -1
REMARK  0 active torsions:
REMARK  status: ('A' for Active; 'I' for Inactive)
ROOT
ATOM      1  N1  IND d   1       1.927  -4.112   0.059  0.00  0.00    -0.196 N 
ATOM      2  C2  IND d   1       3.257  -3.801   0.122  0.00  0.00     0.054 A 
ATOM      3  C3  IND d   1       3.420  -2.478   0.351  0.00  0.00    -0.031 A 
ATOM      4  C4  IND d   1       1.645  -0.658   0.754  0.00  0.00     0.051 A 
ATOM      5  C5  IND d   1       0.294  -0.452   0.756  0.00  0.00    -0.031 A 
ATOM      6  C6  IND d   1      -0.600  -1.477   0.524  0.00  0.00     0.015 A 
ATOM      7  C7  IND d   1      -0.174  -2.755   0.292  0.00  0.00    -0.016 A 
ATOM      8  C8  IND d   1       1.197  -2.966   0.281  0.00  0.00    -0.047 A 
ATOM      9  C9  IND d   1       2.110  -1.921   0.474  0.00  0.00    -0.096 A 
ATOM     10  HN1 IND d   1       1.602  -4.893  -0.095  0.00  0.00     0.298 HD
ENDROOT
TORSDOF 0
ENDMDL
