MODEL 1
REMARK minimizedAffinity 10.9158545
REMARK minimizedRMSD -1
REMARK  0 active torsions:
REMARK  status: ('A' for Active; 'I' for Inactive)
ROOT
ATOM      1  N1  IND d   1       1.141  -0.934  -3.066  0.00  0.00    -0.196 N 
ATOM      2  C2  IND d   1       2.234  -0.131  -3.239  0.00  0.00     0.054 A 
ATOM      3  C3  IND d   1       2.669   0.334  -2.047  0.00  0.00    -0.031 A 
ATOM      4  C4  IND d   1       1.803  -0.177   0.323  0.00  0.00     0.051 A 
ATOM      5  C5  IND d   1       0.801  -0.828   0.987  0.00  0.00    -0.031 A 
ATOM      6  C6  IND d   1      -0.156  -1.564   0.320  0.00  0.00     0.015 A 
ATOM      7  C7  IND d   1      -0.141  -1.687  -1.041  0.00  0.00    -0.016 A 
ATOM      8  C8  IND d   1       0.871  -1.022  -1.718  0.00  0.00    -0.047 A 
ATOM      9  C9  IND d   1       1.820  -0.238  -1.050  0.00  0.00    -0.096 A 
ATOM     10  HN1 IND d   1       0.697  -1.319  -3.694  0.00  0.00     0.298 HD
ENDROOT
TORSDOF 0
ENDMDL
