MODEL 1
REMARK minimizedAffinity 0.499978691
REMARK minimizedRMSD -1
REMARK  0 active torsions:
REMARK  status: ('A' for Active; 'I' for Inactive)
ROOT
ATOM      1  N1  IND d   1      -1.057  -1.601   1.356  0.00  0.00    -0.196 N 
ATOM      2  C2  IND d   1      -0.828  -0.254   1.419  0.00  0.00     0.054 A 
ATOM      3  C3  IND d   1       0.413   0.033   0.968  0.00  0.00    -0.031 A 
ATOM      4  C4  IND d   1       2.200  -1.536  -0.017  0.00  0.00     0.051 A 
ATOM      5  C5  IND d   1       2.465  -2.857  -0.247  0.00  0.00    -0.031 A 
ATOM      6  C6  IND d   1       1.550  -3.847   0.050  0.00  0.00     0.015 A 
ATOM      7  C7  IND d   1       0.326  -3.549   0.578  0.00  0.00    -0.016 A 
ATOM      8  C8  IND d   1       0.056  -2.210   0.819  0.00  0.00    -0.047 A 
ATOM      9  C9  IND d   1       0.997  -1.205   0.560  0.00  0.00    -0.096 A 
ATOM     10  HN1 IND d   1      -1.775  -2.000   1.608  0.00  0.00     0.298 HD
ENDROOT
TORSDOF 0
ENDMDL
