MODEL 1
REMARK minimizedAffinity 0.00397755671
REMARK minimizedRMSD -1
REMARK  0 active torsions:
REMARK  status: ('A' for Active; 'I' for Inactive)
ROOT
ATOM      1  N1  IND d   1       2.288  -3.149  -0.260  0.00  0.00    -0.196 N 
ATOM      2  C2  IND d   1       1.370  -4.161  -0.210  0.00  0.00     0.054 A 
ATOM      3  C3  IND d   1       0.199  -3.709   0.294  0.00  0.00    -0.031 A 
ATOM      4  C4  IND d   1      -0.463  -1.326   1.007  0.00  0.00     0.051 A 
ATOM      5  C5  IND d   1       0.050  -0.071   1.178  0.00  0.00    -0.031 A 
ATOM      6  C6  IND d   1       1.361   0.229   0.869  0.00  0.00     0.015 A 
ATOM      7  C7  IND d   1       2.209  -0.717   0.366  0.00  0.00    -0.016 A 
ATOM      8  C8  IND d   1       1.693  -1.994   0.198  0.00  0.00    -0.047 A 
ATOM      9  C9  IND d   1       0.375  -2.315   0.548  0.00  0.00    -0.096 A 
ATOM     10  HN1 IND d   1       3.101  -3.222  -0.531  0.00  0.00     0.298 HD
ENDROOT
TORSDOF 0
ENDMDL
