MODEL 1
REMARK minimizedAffinity -5.76789188
REMARK minimizedRMSD -1
REMARK  0 active torsions:
REMARK  status: ('A' for Active; 'I' for Inactive)
ROOT
ATOM      1  N1  IND d   1       3.399  -2.067  -0.087  0.00  0.00    -0.196 N 
ATOM      2  C2  IND d   1       3.501  -3.424  -0.212  0.00  0.00     0.054 A 
ATOM      3  C3  IND d   1       2.311  -4.011   0.046  0.00  0.00    -0.031 A 
ATOM      4  C4  IND d   1       0.038  -2.931   0.591  0.00  0.00     0.051 A 
ATOM      5  C5  IND d   1      -0.545  -1.722   0.849  0.00  0.00    -0.031 A 
ATOM      6  C6  IND d   1       0.169  -0.543   0.804  0.00  0.00     0.015 A 
ATOM      7  C7  IND d   1       1.498  -0.527   0.487  0.00  0.00    -0.016 A 
ATOM      8  C8  IND d   1       2.096  -1.753   0.232  0.00  0.00    -0.047 A 
ATOM      9  C9  IND d   1       1.386  -2.957   0.317  0.00  0.00    -0.096 A 
ATOM     10  HN1 IND d   1       4.040  -1.504  -0.191  0.00  0.00     0.298 HD
ENDROOT
TORSDOF 0
ENDMDL
