MODEL 1
REMARK minimizedAffinity -3.62434745
REMARK minimizedRMSD -1
REMARK  0 active torsions:
REMARK  status: ('A' for Active; 'I' for Inactive)
ROOT
ATOM      1  N1  IND d   1       1.637  -4.446   0.244  0.00  0.00    -0.196 N 
ATOM      2  C2  IND d   1       2.947  -4.380  -0.142  0.00  0.00     0.054 A 
ATOM      3  C3  IND d   1       3.356  -3.093  -0.201  0.00  0.00    -0.031 A 
ATOM      4  C4  IND d   1       2.074  -0.940   0.392  0.00  0.00     0.051 A 
ATOM      5  C5  IND d   1       0.836  -0.490   0.758  0.00  0.00    -0.031 A 
ATOM      6  C6  IND d   1      -0.218  -1.352   0.979  0.00  0.00     0.015 A 
ATOM      7  C7  IND d   1      -0.070  -2.705   0.853  0.00  0.00    -0.016 A 
ATOM      8  C8  IND d   1       1.183  -3.165   0.474  0.00  0.00    -0.047 A 
ATOM      9  C9  IND d   1       2.245  -2.292   0.206  0.00  0.00    -0.096 A 
ATOM     10  HN1 IND d   1       1.174  -5.165   0.330  0.00  0.00     0.298 HD
ENDROOT
TORSDOF 0
ENDMDL
