MODEL 1
REMARK minimizedAffinity 1.68324506
REMARK minimizedRMSD -1
REMARK  0 active torsions:
REMARK  status: ('A' for Active; 'I' for Inactive)
ROOT
ATOM      1  N1  IND d   1       3.785   4.830  -2.616  0.00  0.00    -0.196 N 
ATOM      2  C2  IND d   1       4.557   4.805  -1.489  0.00  0.00     0.054 A 
ATOM      3  C3  IND d   1       4.652   3.544  -1.012  0.00  0.00    -0.031 A 
ATOM      4  C4  IND d   1       3.706   1.354  -1.979  0.00  0.00     0.051 A 
ATOM      5  C5  IND d   1       2.903   0.874  -2.975  0.00  0.00    -0.031 A 
ATOM      6  C6  IND d   1       2.344   1.706  -3.924  0.00  0.00     0.015 A 
ATOM      7  C7  IND d   1       2.577   3.052  -3.918  0.00  0.00    -0.016 A 
ATOM      8  C8  IND d   1       3.386   3.543  -2.903  0.00  0.00    -0.047 A 
ATOM      9  C9  IND d   1       3.922   2.710  -1.913  0.00  0.00    -0.096 A 
ATOM     10  HN1 IND d   1       3.582   5.532  -3.070  0.00  0.00     0.298 HD
ENDROOT
TORSDOF 0
ENDMDL
