MODEL 1
REMARK minimizedAffinity -2.8218925
REMARK minimizedRMSD -1
REMARK  0 active torsions:
REMARK  status: ('A' for Active; 'I' for Inactive)
ROOT
ATOM      1  N1  IND d   1      -0.784  -2.140   1.114  0.00  0.00    -0.196 N 
ATOM      2  C2  IND d   1      -1.030  -0.847   1.481  0.00  0.00     0.054 A 
ATOM      3  C3  IND d   1       0.055  -0.076   1.243  0.00  0.00    -0.031 A 
ATOM      4  C4  IND d   1       2.305  -0.707   0.164  0.00  0.00     0.051 A 
ATOM      5  C5  IND d   1       3.013  -1.779  -0.303  0.00  0.00    -0.031 A 
ATOM      6  C6  IND d   1       2.480  -3.052  -0.323  0.00  0.00     0.015 A 
ATOM      7  C7  IND d   1       1.209  -3.299   0.113  0.00  0.00    -0.016 A 
ATOM      8  C8  IND d   1       0.490  -2.214   0.593  0.00  0.00    -0.047 A 
ATOM      9  C9  IND d   1       1.041  -0.927   0.657  0.00  0.00    -0.096 A 
ATOM     10  HN1 IND d   1      -1.332  -2.798   1.195  0.00  0.00     0.298 HD
ENDROOT
TORSDOF 0
ENDMDL
