MODEL 1
REMARK minimizedAffinity 4.0142498
REMARK minimizedRMSD -1
REMARK  0 active torsions:
REMARK  status: ('A' for Active; 'I' for Inactive)
ROOT
ATOM      1  N1  IND d   1       2.232  -2.982   0.917  0.00  0.00    -0.196 N 
ATOM      2  C2  IND d   1       1.779  -4.113   0.297  0.00  0.00     0.054 A 
ATOM      3  C3  IND d   1       0.505  -3.942  -0.121  0.00  0.00    -0.031 A 
ATOM      4  C4  IND d   1      -0.995  -1.854   0.016  0.00  0.00     0.051 A 
ATOM      5  C5  IND d   1      -1.034  -0.587   0.527  0.00  0.00    -0.031 A 
ATOM      6  C6  IND d   1       0.037  -0.042   1.206  0.00  0.00     0.015 A 
ATOM      7  C7  IND d   1       1.195  -0.742   1.390  0.00  0.00    -0.016 A 
ATOM      8  C8  IND d   1       1.236  -2.031   0.878  0.00  0.00    -0.047 A 
ATOM      9  C9  IND d   1       0.137  -2.605   0.225  0.00  0.00    -0.096 A 
ATOM     10  HN1 IND d   1       3.009  -2.881   1.272  0.00  0.00     0.298 HD
ENDROOT
TORSDOF 0
ENDMDL
