MODEL 1
REMARK minimizedAffinity -1.1854713
REMARK minimizedRMSD -1
REMARK  0 active torsions:
REMARK  status: ('A' for Active; 'I' for Inactive)
ROOT
ATOM      1  N1  IND d   1       2.245  -4.342  -0.012  0.00  0.00    -0.196 N 
ATOM      2  C2  IND d   1       3.569  -4.003  -0.016  0.00  0.00     0.054 A 
ATOM      3  C3  IND d   1       3.714  -2.670   0.162  0.00  0.00    -0.031 A 
ATOM      4  C4  IND d   1       1.921  -0.872   0.584  0.00  0.00     0.051 A 
ATOM      5  C5  IND d   1       0.567  -0.693   0.638  0.00  0.00    -0.031 A 
ATOM      6  C6  IND d   1      -0.315  -1.742   0.478  0.00  0.00     0.015 A 
ATOM      7  C7  IND d   1       0.127  -3.018   0.268  0.00  0.00    -0.016 A 
ATOM      8  C8  IND d   1       1.501  -3.202   0.205  0.00  0.00    -0.047 A 
ATOM      9  C9  IND d   1       2.400  -2.134   0.324  0.00  0.00    -0.096 A 
ATOM     10  HN1 IND d   1       1.929  -5.133  -0.126  0.00  0.00     0.298 HD
ENDROOT
TORSDOF 0
ENDMDL
