MODEL 1
REMARK minimizedAffinity -1.79709303
REMARK minimizedRMSD -1
REMARK  0 active torsions:
REMARK  status: ('A' for Active; 'I' for Inactive)
ROOT
ATOM      1  N1  IND d   1      -0.146  -3.384  -0.427  0.00  0.00    -0.196 N 
ATOM      2  C2  IND d   1       1.202  -3.604  -0.376  0.00  0.00     0.054 A 
ATOM      3  C3  IND d   1       1.813  -2.619   0.320  0.00  0.00    -0.031 A 
ATOM      4  C4  IND d   1       0.785  -0.604   1.548  0.00  0.00     0.051 A 
ATOM      5  C5  IND d   1      -0.403   0.039   1.756  0.00  0.00    -0.031 A 
ATOM      6  C6  IND d   1      -1.590  -0.437   1.239  0.00  0.00     0.015 A 
ATOM      7  C7  IND d   1      -1.636  -1.585   0.500  0.00  0.00    -0.016 A 
ATOM      8  C8  IND d   1      -0.431  -2.237   0.281  0.00  0.00    -0.047 A 
ATOM      9  C9  IND d   1       0.784  -1.736   0.768  0.00  0.00    -0.096 A 
ATOM     10  HN1 IND d   1      -0.720  -3.879  -0.833  0.00  0.00     0.298 HD
ENDROOT
TORSDOF 0
ENDMDL
