MODEL 1
REMARK minimizedAffinity -4.5486145
REMARK minimizedRMSD -1
REMARK  0 active torsions:
REMARK  status: ('A' for Active; 'I' for Inactive)
ROOT
ATOM      1  N1  IND d   1       3.558  -2.009   0.450  0.00  0.00    -0.196 N 
ATOM      2  C2  IND d   1       3.693  -3.338   0.161  0.00  0.00     0.054 A 
ATOM      3  C3  IND d   1       2.481  -3.933   0.105  0.00  0.00    -0.031 A 
ATOM      4  C4  IND d   1       0.137  -2.897   0.354  0.00  0.00     0.051 A 
ATOM      5  C5  IND d   1      -0.495  -1.725   0.661  0.00  0.00    -0.031 A 
ATOM      6  C6  IND d   1       0.206  -0.563   0.916  0.00  0.00     0.015 A 
ATOM      7  C7  IND d   1       1.570  -0.528   0.862  0.00  0.00    -0.016 A 
ATOM      8  C8  IND d   1       2.216  -1.718   0.557  0.00  0.00    -0.047 A 
ATOM      9  C9  IND d   1       1.512  -2.910   0.339  0.00  0.00    -0.096 A 
ATOM     10  HN1 IND d   1       4.203  -1.449   0.549  0.00  0.00     0.298 HD
ENDROOT
TORSDOF 0
ENDMDL
