MODEL 1
REMARK minimizedAffinity 2.76574063
REMARK minimizedRMSD -1
REMARK  1 active torsions:
REMARK  status: ('A' for Active; 'I' for Inactive)
REMARK    1  A    between atoms: N_2  and  C1_3 
ROOT
ATOM      1  C1  UNL d   1      -1.006   1.947   2.310  0.00  0.00     0.143 A 
ATOM      2  C2  UNL d   1      -2.003   1.176   1.703  0.00  0.00    -0.057 A 
ATOM      3  C3  UNL d   1      -1.697   0.265   0.684  0.00  0.00     0.033 A 
ATOM      4  C4  UNL d   1      -0.388   0.131   0.232  0.00  0.00    -0.042 A 
ATOM      5  C5  UNL d   1       0.615   0.905   0.804  0.00  0.00     0.033 A 
ATOM      6  C6  UNL d   1       0.305   1.808   1.826  0.00  0.00    -0.057 A 
ENDROOT
BRANCH   1   7
ATOM      7  N   UNL d   1      -1.260   2.940   3.259  0.00  0.00    -0.732 N 
ATOM      8  C   UNL d   1      -0.298   3.994   3.499  0.00  0.00     0.284 C 
ATOM      9  H3  UNL d   1      -2.227   3.255   3.241  0.00  0.00     0.395 HD
ENDBRANCH   1   7
TORSDOF 1
ENDMDL
