MODEL 1
REMARK minimizedAffinity 1.5589906
REMARK minimizedRMSD -1
REMARK  1 active torsions:
REMARK  status: ('A' for Active; 'I' for Inactive)
REMARK    1  A    between atoms: N_2  and  C1_3 
ROOT
ATOM      1  C1  UNL d   1      -0.774   0.949   0.075  0.00  0.00     0.143 A 
ATOM      2  C2  UNL d   1      -0.342   1.694   1.177  0.00  0.00    -0.057 A 
ATOM      3  C3  UNL d   1      -0.527   1.229   2.485  0.00  0.00     0.033 A 
ATOM      4  C4  UNL d   1      -1.175   0.020   2.715  0.00  0.00    -0.042 A 
ATOM      5  C5  UNL d   1      -1.635  -0.725   1.635  0.00  0.00     0.033 A 
ATOM      6  C6  UNL d   1      -1.441  -0.259   0.331  0.00  0.00    -0.057 A 
ENDROOT
BRANCH   1   7
ATOM      7  N   UNL d   1      -0.707   1.403  -1.245  0.00  0.00    -0.732 N 
ATOM      8  C   UNL d   1       0.478   2.073  -1.735  0.00  0.00     0.284 C 
ATOM      9  H3  UNL d   1      -1.113   0.742  -1.904  0.00  0.00     0.395 HD
ENDBRANCH   1   7
TORSDOF 1
ENDMDL
