MODEL 1
REMARK minimizedAffinity 5.84328461
REMARK minimizedRMSD -1
REMARK  1 active torsions:
REMARK  status: ('A' for Active; 'I' for Inactive)
REMARK    1  A    between atoms: N_2  and  C1_3 
ROOT
ATOM      1  C1  UNL d   1      -0.216   0.026   1.393  0.00  0.00     0.143 A 
ATOM      2  C2  UNL d   1      -0.762   0.357   2.638  0.00  0.00    -0.057 A 
ATOM      3  C3  UNL d   1      -1.414  -0.601   3.423  0.00  0.00     0.033 A 
ATOM      4  C4  UNL d   1      -1.558  -1.906   2.962  0.00  0.00    -0.042 A 
ATOM      5  C5  UNL d   1      -1.045  -2.252   1.717  0.00  0.00     0.033 A 
ATOM      6  C6  UNL d   1      -0.389  -1.292   0.941  0.00  0.00    -0.057 A 
ENDROOT
BRANCH   1   7
ATOM      7  N   UNL d   1       0.358   0.956   0.523  0.00  0.00    -0.732 N 
ATOM      8  C   UNL d   1      -0.255   1.244  -0.756  0.00  0.00     0.284 C 
ATOM      9  H3  UNL d   1       0.710   1.777   1.009  0.00  0.00     0.395 HD
ENDBRANCH   1   7
TORSDOF 1
ENDMDL
