MODEL 1
REMARK minimizedAffinity 13.1294975
REMARK minimizedRMSD -1
REMARK  1 active torsions:
REMARK  status: ('A' for Active; 'I' for Inactive)
REMARK    1  A    between atoms: N_2  and  C1_3 
ROOT
ATOM      1  C1  UNL d   1      -3.382  -1.519  -1.469  0.00  0.00     0.143 A 
ATOM      2  C2  UNL d   1      -3.179  -2.032  -0.184  0.00  0.00    -0.057 A 
ATOM      3  C3  UNL d   1      -4.258  -2.400   0.629  0.00  0.00     0.033 A 
ATOM      4  C4  UNL d   1      -5.564  -2.234   0.180  0.00  0.00    -0.042 A 
ATOM      5  C5  UNL d   1      -5.789  -1.703  -1.085  0.00  0.00     0.033 A 
ATOM      6  C6  UNL d   1      -4.708  -1.343  -1.895  0.00  0.00    -0.057 A 
ENDROOT
BRANCH   1   7
ATOM      7  N   UNL d   1      -2.354  -1.043  -2.288  0.00  0.00    -0.732 N 
ATOM      8  C   UNL d   1      -1.829   0.293  -2.110  0.00  0.00     0.284 C 
ATOM      9  H3  UNL d   1      -1.643  -1.749  -2.468  0.00  0.00     0.395 HD
ENDBRANCH   1   7
TORSDOF 1
ENDMDL
