MODEL 1
REMARK minimizedAffinity 7.37540102
REMARK minimizedRMSD -1
REMARK  1 active torsions:
REMARK  status: ('A' for Active; 'I' for Inactive)
REMARK    1  A    between atoms: N_2  and  C1_3 
ROOT
ATOM      1  C1  UNL d   1      -1.991  -5.920   2.633  0.00  0.00     0.143 A 
ATOM      2  C2  UNL d   1      -1.463  -5.960   3.928  0.00  0.00    -0.057 A 
ATOM      3  C3  UNL d   1      -0.080  -5.985   4.148  0.00  0.00     0.033 A 
ATOM      4  C4  UNL d   1       0.801  -6.000   3.071  0.00  0.00    -0.042 A 
ATOM      5  C5  UNL d   1       0.298  -5.985   1.775  0.00  0.00     0.033 A 
ATOM      6  C6  UNL d   1      -1.083  -5.953   1.563  0.00  0.00    -0.057 A 
ENDROOT
BRANCH   1   7
ATOM      7  N   UNL d   1      -3.356  -5.993   2.348  0.00  0.00    -0.732 N 
ATOM      8  C   UNL d   1      -3.844  -5.740   1.009  0.00  0.00     0.284 C 
ATOM      9  H3  UNL d   1      -3.809  -6.775   2.814  0.00  0.00     0.395 HD
ENDBRANCH   1   7
TORSDOF 1
ENDMDL
