MODEL 1
REMARK minimizedAffinity 4.05622435
REMARK minimizedRMSD -1
REMARK  1 active torsions:
REMARK  status: ('A' for Active; 'I' for Inactive)
REMARK    1  A    between atoms: N_2  and  C1_3 
ROOT
ATOM      1  C1  UNL d   1      -0.425  -5.998   2.203  0.00  0.00     0.143 A 
ATOM      2  C2  UNL d   1       0.927  -5.988   1.845  0.00  0.00    -0.057 A 
ATOM      3  C3  UNL d   1       1.935  -5.987   2.816  0.00  0.00     0.033 A 
ATOM      4  C4  UNL d   1       1.607  -5.966   4.168  0.00  0.00    -0.042 A 
ATOM      5  C5  UNL d   1       0.270  -5.950   4.547  0.00  0.00     0.033 A 
ATOM      6  C6  UNL d   1      -0.733  -5.958   3.572  0.00  0.00    -0.057 A 
ENDROOT
BRANCH   1   7
ATOM      7  N   UNL d   1      -1.473  -5.900   1.284  0.00  0.00    -0.732 N 
ATOM      8  C   UNL d   1      -2.849  -5.996   1.723  0.00  0.00     0.284 C 
ATOM      9  H3  UNL d   1      -1.310  -5.180   0.584  0.00  0.00     0.395 HD
ENDBRANCH   1   7
TORSDOF 1
ENDMDL
