MODEL 1
REMARK minimizedAffinity 9.12419415
REMARK minimizedRMSD -1
REMARK  1 active torsions:
REMARK  status: ('A' for Active; 'I' for Inactive)
REMARK    1  A    between atoms: N_2  and  C1_3 
ROOT
ATOM      1  C1  UNL d   1      -2.411  -3.215  -3.406  0.00  0.00     0.143 A 
ATOM      2  C2  UNL d   1      -1.152  -2.654  -3.644  0.00  0.00    -0.057 A 
ATOM      3  C3  UNL d   1      -0.598  -2.631  -4.930  0.00  0.00     0.033 A 
ATOM      4  C4  UNL d   1      -1.285  -3.197  -5.999  0.00  0.00    -0.042 A 
ATOM      5  C5  UNL d   1      -2.527  -3.782  -5.782  0.00  0.00     0.033 A 
ATOM      6  C6  UNL d   1      -3.077  -3.796  -4.496  0.00  0.00    -0.057 A 
ENDROOT
BRANCH   1   7
ATOM      7  N   UNL d   1      -2.972  -3.356  -2.134  0.00  0.00    -0.732 N 
ATOM      8  C   UNL d   1      -2.876  -2.287  -1.163  0.00  0.00     0.284 C 
ATOM      9  H3  UNL d   1      -3.880  -3.815  -2.159  0.00  0.00     0.395 HD
ENDBRANCH   1   7
TORSDOF 1
ENDMDL
