MODEL 1
REMARK minimizedAffinity 6.47103882
REMARK minimizedRMSD -1
REMARK  1 active torsions:
REMARK  status: ('A' for Active; 'I' for Inactive)
REMARK    1  A    between atoms: N_2  and  C1_3 
ROOT
ATOM      1  C1  UNL d   1       2.321   0.131   1.337  0.00  0.00     0.143 A 
ATOM      2  C2  UNL d   1       1.323   0.895   1.951  0.00  0.00    -0.057 A 
ATOM      3  C3  UNL d   1       0.146   1.234   1.272  0.00  0.00     0.033 A 
ATOM      4  C4  UNL d   1      -0.041   0.838  -0.048  0.00  0.00    -0.042 A 
ATOM      5  C5  UNL d   1       0.949   0.099  -0.687  0.00  0.00     0.033 A 
ATOM      6  C6  UNL d   1       2.118  -0.242  -0.001  0.00  0.00    -0.057 A 
ENDROOT
BRANCH   1   7
ATOM      7  N   UNL d   1       3.555  -0.155   1.926  0.00  0.00    -0.732 N 
ATOM      8  C   UNL d   1       4.326   0.889   2.566  0.00  0.00     0.284 C 
ATOM      9  H3  UNL d   1       3.548  -1.038   2.432  0.00  0.00     0.395 HD
ENDBRANCH   1   7
TORSDOF 1
ENDMDL
