MODEL 1
REMARK minimizedAffinity 7.95291853
REMARK minimizedRMSD -1
REMARK  1 active torsions:
REMARK  status: ('A' for Active; 'I' for Inactive)
REMARK    1  A    between atoms: N_2  and  C1_3 
ROOT
ATOM      1  C1  UNL d   1      -1.180  -2.193  -4.179  0.00  0.00     0.143 A 
ATOM      2  C2  UNL d   1      -2.384  -2.586  -4.774  0.00  0.00    -0.057 A 
ATOM      3  C3  UNL d   1      -3.618  -2.203  -4.236  0.00  0.00     0.033 A 
ATOM      4  C4  UNL d   1      -3.671  -1.443  -3.073  0.00  0.00    -0.042 A 
ATOM      5  C5  UNL d   1      -2.488  -1.062  -2.450  0.00  0.00     0.033 A 
ATOM      6  C6  UNL d   1      -1.258  -1.441  -2.996  0.00  0.00    -0.057 A 
ENDROOT
BRANCH   1   7
ATOM      7  N   UNL d   1       0.078  -2.624  -4.609  0.00  0.00    -0.732 N 
ATOM      8  C   UNL d   1       1.280  -2.170  -3.944  0.00  0.00     0.284 C 
ATOM      9  H3  UNL d   1       0.087  -3.611  -4.857  0.00  0.00     0.395 HD
ENDBRANCH   1   7
TORSDOF 1
ENDMDL
