MODEL 1
REMARK minimizedAffinity 0.607876718
REMARK minimizedRMSD -1
REMARK  1 active torsions:
REMARK  status: ('A' for Active; 'I' for Inactive)
REMARK    1  A    between atoms: N_2  and  C1_3 
ROOT
ATOM      1  C1  UNL d   1      -0.608  -5.999   1.549  0.00  0.00     0.143 A 
ATOM      2  C2  UNL d   1       0.759  -5.976   1.253  0.00  0.00    -0.057 A 
ATOM      3  C3  UNL d   1       1.722  -5.989   2.270  0.00  0.00     0.033 A 
ATOM      4  C4  UNL d   1       1.332  -5.996   3.605  0.00  0.00    -0.042 A 
ATOM      5  C5  UNL d   1      -0.021  -5.994   3.922  0.00  0.00     0.033 A 
ATOM      6  C6  UNL d   1      -0.978  -5.988   2.903  0.00  0.00    -0.057 A 
ENDROOT
BRANCH   1   7
ATOM      7  N   UNL d   1      -1.614  -5.888   0.586  0.00  0.00    -0.732 N 
ATOM      8  C   UNL d   1      -3.008  -5.992   0.960  0.00  0.00     0.284 C 
ATOM      9  H3  UNL d   1      -1.420  -5.158  -0.096  0.00  0.00     0.395 HD
ENDBRANCH   1   7
TORSDOF 1
ENDMDL
