MODEL 1
REMARK minimizedAffinity 5.10039902
REMARK minimizedRMSD -1
REMARK  1 active torsions:
REMARK  status: ('A' for Active; 'I' for Inactive)
REMARK    1  A    between atoms: N_2  and  C1_3 
ROOT
ATOM      1  C1  UNL d   1      -1.863  -2.581  -3.623  0.00  0.00     0.143 A 
ATOM      2  C2  UNL d   1      -1.984  -1.533  -2.703  0.00  0.00    -0.057 A 
ATOM      3  C3  UNL d   1      -3.234  -0.986  -2.386  0.00  0.00     0.033 A 
ATOM      4  C4  UNL d   1      -4.385  -1.460  -3.007  0.00  0.00    -0.042 A 
ATOM      5  C5  UNL d   1      -4.286  -2.484  -3.942  0.00  0.00     0.033 A 
ATOM      6  C6  UNL d   1      -3.036  -3.030  -4.250  0.00  0.00    -0.057 A 
ENDROOT
BRANCH   1   7
ATOM      7  N   UNL d   1      -0.640  -3.100  -4.053  0.00  0.00    -0.732 N 
ATOM      8  C   UNL d   1       0.060  -2.506  -5.171  0.00  0.00     0.284 C 
ATOM      9  H3  UNL d   1      -0.037  -3.366  -3.278  0.00  0.00     0.395 HD
ENDBRANCH   1   7
TORSDOF 1
ENDMDL
