MODEL 1
REMARK minimizedAffinity 0.10795296
REMARK minimizedRMSD -1
REMARK  0 active torsions:
REMARK  status: ('A' for Active; 'I' for Inactive)
ROOT
ATOM      1  C1  DEN d   1       3.133  -0.267  -2.306  0.00  0.00     0.130 A 
ATOM      2  C2  DEN d   1       2.682  -0.497  -3.676  0.00  0.00    -0.031 A 
ATOM      3  C3  DEN d   1       1.215  -0.333  -3.708  0.00  0.00     0.027 A 
ATOM      4  C4  DEN d   1      -0.393   0.258  -1.780  0.00  0.00     0.027 A 
ATOM      5  C5  DEN d   1      -0.478   0.535  -0.433  0.00  0.00    -0.003 A 
ATOM      6  C6  DEN d   1       0.622   0.531   0.383  0.00  0.00     0.001 A 
ATOM      7  C7  DEN d   1       1.861   0.288  -0.148  0.00  0.00     0.017 A 
ATOM      8  C8  DEN d   1       1.953   0.001  -1.504  0.00  0.00    -0.094 A 
ATOM      9  C9  DEN d   1       0.831   0.022  -2.315  0.00  0.00    -0.072 A 
ENDROOT
TORSDOF 0
ENDMDL
