MODEL 1
REMARK minimizedAffinity 0.3666493
REMARK minimizedRMSD -1
REMARK  0 active torsions:
REMARK  status: ('A' for Active; 'I' for Inactive)
ROOT
ATOM      1  C1  DEN d   1       2.143   0.285  -1.866  0.00  0.00     0.130 A 
ATOM      2  C2  DEN d   1       1.941  -0.072  -3.268  0.00  0.00    -0.031 A 
ATOM      3  C3  DEN d   1       0.583  -0.636  -3.404  0.00  0.00     0.027 A 
ATOM      4  C4  DEN d   1      -1.219  -0.985  -1.592  0.00  0.00     0.027 A 
ATOM      5  C5  DEN d   1      -1.505  -0.845  -0.252  0.00  0.00    -0.003 A 
ATOM      6  C6  DEN d   1      -0.591  -0.354   0.643  0.00  0.00     0.001 A 
ATOM      7  C7  DEN d   1       0.639   0.057   0.200  0.00  0.00     0.017 A 
ATOM      8  C8  DEN d   1       0.937  -0.088  -1.148  0.00  0.00    -0.094 A 
ATOM      9  C9  DEN d   1      -0.005  -0.575  -2.039  0.00  0.00    -0.072 A 
ENDROOT
TORSDOF 0
ENDMDL
