MODEL 1
REMARK minimizedAffinity -5.51232958
REMARK minimizedRMSD -1
REMARK  0 active torsions:
REMARK  status: ('A' for Active; 'I' for Inactive)
ROOT
ATOM      1  C1  DEN d   1       2.088   3.567   0.796  0.00  0.00     0.130 A 
ATOM      2  C2  DEN d   1       3.475   3.286   1.154  0.00  0.00    -0.031 A 
ATOM      3  C3  DEN d   1       3.587   1.844   1.451  0.00  0.00     0.027 A 
ATOM      4  C4  DEN d   1       1.757   0.028   1.386  0.00  0.00     0.027 A 
ATOM      5  C5  DEN d   1       0.422  -0.213   1.149  0.00  0.00    -0.003 A 
ATOM      6  C6  DEN d   1      -0.452   0.788   0.813  0.00  0.00     0.001 A 
ATOM      7  C7  DEN d   1       0.009   2.069   0.661  0.00  0.00     0.017 A 
ATOM      8  C8  DEN d   1       1.353   2.320   0.906  0.00  0.00    -0.094 A 
ATOM      9  C9  DEN d   1       2.222   1.293   1.232  0.00  0.00    -0.072 A 
ENDROOT
TORSDOF 0
ENDMDL
