MODEL 1
REMARK minimizedAffinity -3.13103914
REMARK minimizedRMSD -1
REMARK  0 active torsions:
REMARK  status: ('A' for Active; 'I' for Inactive)
ROOT
ATOM      1  C1  DEN d   1       2.768   1.701   0.796  0.00  0.00     0.130 A 
ATOM      2  C2  DEN d   1       2.501   1.818   2.227  0.00  0.00    -0.031 A 
ATOM      3  C3  DEN d   1       2.896   3.176   2.655  0.00  0.00     0.027 A 
ATOM      4  C4  DEN d   1       3.884   5.098   1.247  0.00  0.00     0.027 A 
ATOM      5  C5  DEN d   1       4.300   5.467  -0.013  0.00  0.00    -0.003 A 
ATOM      6  C6  DEN d   1       4.267   4.603  -1.076  0.00  0.00     0.001 A 
ATOM      7  C7  DEN d   1       3.765   3.340  -0.908  0.00  0.00     0.017 A 
ATOM      8  C8  DEN d   1       3.350   2.957   0.361  0.00  0.00    -0.094 A 
ATOM      9  C9  DEN d   1       3.380   3.849   1.420  0.00  0.00    -0.072 A 
ENDROOT
TORSDOF 0
ENDMDL
