MODEL 1
REMARK minimizedAffinity 2.58365083
REMARK minimizedRMSD -1
REMARK  0 active torsions:
REMARK  status: ('A' for Active; 'I' for Inactive)
ROOT
ATOM      1  C1  DEN d   1       3.055  -0.461  -2.243  0.00  0.00     0.130 A 
ATOM      2  C2  DEN d   1       2.514  -0.486  -3.599  0.00  0.00    -0.031 A 
ATOM      3  C3  DEN d   1       1.048  -0.332  -3.509  0.00  0.00     0.027 A 
ATOM      4  C4  DEN d   1      -0.428  -0.053  -1.412  0.00  0.00     0.027 A 
ATOM      5  C5  DEN d   1      -0.422   0.017  -0.036  0.00  0.00    -0.003 A 
ATOM      6  C6  DEN d   1       0.729  -0.101   0.696  0.00  0.00     0.001 A 
ATOM      7  C7  DEN d   1       1.930  -0.249   0.053  0.00  0.00     0.017 A 
ATOM      8  C8  DEN d   1       1.931  -0.328  -1.333  0.00  0.00    -0.094 A 
ATOM      9  C9  DEN d   1       0.758  -0.195  -2.056  0.00  0.00    -0.072 A 
ENDROOT
TORSDOF 0
ENDMDL
