MODEL 1
REMARK minimizedAffinity -0.510637522
REMARK minimizedRMSD -1
REMARK  0 active torsions:
REMARK  status: ('A' for Active; 'I' for Inactive)
ROOT
ATOM      1  C1  DEN d   1      -0.941  -1.819   2.353  0.00  0.00     0.130 A 
ATOM      2  C2  DEN d   1      -2.361  -1.655   2.055  0.00  0.00    -0.031 A 
ATOM      3  C3  DEN d   1      -2.480  -0.807   0.852  0.00  0.00     0.027 A 
ATOM      4  C4  DEN d   1      -0.613   0.260  -0.573  0.00  0.00     0.027 A 
ATOM      5  C5  DEN d   1       0.749   0.413  -0.705  0.00  0.00    -0.003 A 
ATOM      6  C6  DEN d   1       1.635  -0.134   0.184  0.00  0.00     0.001 A 
ATOM      7  C7  DEN d   1       1.171  -0.899   1.222  0.00  0.00     0.017 A 
ATOM      8  C8  DEN d   1      -0.202  -1.051   1.366  0.00  0.00    -0.094 A 
ATOM      9  C9  DEN d   1      -1.081  -0.500   0.449  0.00  0.00    -0.072 A 
ENDROOT
TORSDOF 0
ENDMDL
