MODEL 1
REMARK minimizedAffinity -1.195961
REMARK minimizedRMSD -1
REMARK  0 active torsions:
REMARK  status: ('A' for Active; 'I' for Inactive)
ROOT
ATOM      1  C1  DEN d   1       1.236   0.622  -0.808  0.00  0.00     0.130 A 
ATOM      2  C2  DEN d   1       0.164   0.109   0.041  0.00  0.00    -0.031 A 
ATOM      3  C3  DEN d   1       0.122   0.928   1.269  0.00  0.00     0.027 A 
ATOM      4  C4  DEN d   1       1.602   2.933   1.933  0.00  0.00     0.027 A 
ATOM      5  C5  DEN d   1       2.656   3.730   1.540  0.00  0.00    -0.003 A 
ATOM      6  C6  DEN d   1       3.326   3.527   0.363  0.00  0.00     0.001 A 
ATOM      7  C7  DEN d   1       2.921   2.530  -0.485  0.00  0.00     0.017 A 
ATOM      8  C8  DEN d   1       1.865   1.718  -0.093  0.00  0.00    -0.094 A 
ATOM      9  C9  DEN d   1       1.192   1.948   1.095  0.00  0.00    -0.072 A 
ENDROOT
TORSDOF 0
ENDMDL
