MODEL 1
REMARK minimizedAffinity -1.77500939
REMARK minimizedRMSD -1
REMARK  0 active torsions:
REMARK  status: ('A' for Active; 'I' for Inactive)
ROOT
ATOM      1  C1  DEN d   1       0.938   0.270  -0.333  0.00  0.00     0.130 A 
ATOM      2  C2  DEN d   1       0.575   0.875  -1.611  0.00  0.00    -0.031 A 
ATOM      3  C3  DEN d   1      -0.816   0.489  -1.920  0.00  0.00     0.027 A 
ATOM      4  C4  DEN d   1      -2.436  -0.976  -0.547  0.00  0.00     0.027 A 
ATOM      5  C5  DEN d   1      -2.575  -1.723   0.601  0.00  0.00    -0.003 A 
ATOM      6  C6  DEN d   1      -1.550  -1.885   1.495  0.00  0.00     0.001 A 
ATOM      7  C7  DEN d   1      -0.353  -1.254   1.277  0.00  0.00     0.017 A 
ATOM      8  C8  DEN d   1      -0.204  -0.505   0.118  0.00  0.00    -0.094 A 
ATOM      9  C9  DEN d   1      -1.256  -0.343  -0.768  0.00  0.00    -0.072 A 
ENDROOT
TORSDOF 0
ENDMDL
