MODEL 1
REMARK minimizedAffinity -1.8379302
REMARK minimizedRMSD -1
REMARK  0 active torsions:
REMARK  status: ('A' for Active; 'I' for Inactive)
ROOT
ATOM      1  C1  DEN d   1       3.877   4.187  -0.435  0.00  0.00     0.130 A 
ATOM      2  C2  DEN d   1       4.202   3.391  -1.614  0.00  0.00    -0.031 A 
ATOM      3  C3  DEN d   1       3.567   2.067  -1.461  0.00  0.00     0.027 A 
ATOM      4  C4  DEN d   1       2.113   1.179   0.476  0.00  0.00     0.027 A 
ATOM      5  C5  DEN d   1       1.570   1.486   1.704  0.00  0.00    -0.003 A 
ATOM      6  C6  DEN d   1       1.784   2.693   2.316  0.00  0.00     0.001 A 
ATOM      7  C7  DEN d   1       2.524   3.654   1.680  0.00  0.00     0.017 A 
ATOM      8  C8  DEN d   1       3.081   3.349   0.445  0.00  0.00    -0.094 A 
ATOM      9  C9  DEN d   1       2.843   2.128  -0.163  0.00  0.00    -0.072 A 
ENDROOT
TORSDOF 0
ENDMDL
