MODEL 1
REMARK minimizedAffinity 0.437869221
REMARK minimizedRMSD -1
REMARK  0 active torsions:
REMARK  status: ('A' for Active; 'I' for Inactive)
ROOT
ATOM      1  C1  DEN d   1       0.800   0.670  -0.714  0.00  0.00     0.130 A 
ATOM      2  C2  DEN d   1       0.029  -0.198   0.172  0.00  0.00    -0.031 A 
ATOM      3  C3  DEN d   1       0.467   0.061   1.558  0.00  0.00     0.027 A 
ATOM      4  C4  DEN d   1       2.250   1.716   2.415  0.00  0.00     0.027 A 
ATOM      5  C5  DEN d   1       3.178   2.661   2.037  0.00  0.00    -0.003 A 
ATOM      6  C6  DEN d   1       3.401   2.982   0.724  0.00  0.00     0.001 A 
ATOM      7  C7  DEN d   1       2.654   2.384  -0.256  0.00  0.00     0.017 A 
ATOM      8  C8  DEN d   1       1.722   1.425   0.116  0.00  0.00    -0.094 A 
ATOM      9  C9  DEN d   1       1.502   1.124   1.450  0.00  0.00    -0.072 A 
ENDROOT
TORSDOF 0
ENDMDL
