MODEL 1
REMARK minimizedAffinity -3.12984633
REMARK minimizedRMSD -1
REMARK  0 active torsions:
REMARK  status: ('A' for Active; 'I' for Inactive)
ROOT
ATOM      1  C1  DEN d   1      -2.209  -0.924  -1.381  0.00  0.00     0.130 A 
ATOM      2  C2  DEN d   1      -2.801  -0.885  -0.046  0.00  0.00    -0.031 A 
ATOM      3  C3  DEN d   1      -1.722  -0.607   0.923  0.00  0.00     0.027 A 
ATOM      4  C4  DEN d   1       0.792  -0.230   0.490  0.00  0.00     0.027 A 
ATOM      5  C5  DEN d   1       1.769  -0.179  -0.480  0.00  0.00    -0.003 A 
ATOM      6  C6  DEN d   1       1.496  -0.404  -1.803  0.00  0.00     0.001 A 
ATOM      7  C7  DEN d   1       0.207  -0.647  -2.199  0.00  0.00     0.017 A 
ATOM      8  C8  DEN d   1      -0.782  -0.707  -1.226  0.00  0.00    -0.094 A 
ATOM      9  C9  DEN d   1      -0.488  -0.464   0.105  0.00  0.00    -0.072 A 
ENDROOT
TORSDOF 0
ENDMDL
