MODEL 1
REMARK minimizedAffinity -3.60551286
REMARK minimizedRMSD -1
REMARK  0 active torsions:
REMARK  status: ('A' for Active; 'I' for Inactive)
ROOT
ATOM      1  C1  DEN d   1       0.436   0.018  -1.676  0.00  0.00     0.130 A 
ATOM      2  C2  DEN d   1       1.462   0.259  -0.665  0.00  0.00    -0.031 A 
ATOM      3  C3  DEN d   1       0.844   0.080   0.664  0.00  0.00     0.027 A 
ATOM      4  C4  DEN d   1      -1.588  -0.547   1.251  0.00  0.00     0.027 A 
ATOM      5  C5  DEN d   1      -2.829  -0.838   0.729  0.00  0.00    -0.003 A 
ATOM      6  C6  DEN d   1      -3.075  -0.832  -0.618  0.00  0.00     0.001 A 
ATOM      7  C7  DEN d   1      -2.054  -0.572  -1.493  0.00  0.00     0.017 A 
ATOM      8  C8  DEN d   1      -0.802  -0.269  -0.975  0.00  0.00    -0.094 A 
ATOM      9  C9  DEN d   1      -0.570  -0.293   0.390  0.00  0.00    -0.072 A 
ENDROOT
TORSDOF 0
ENDMDL
