MODEL 1
REMARK minimizedAffinity -1.58104742
REMARK minimizedRMSD -1
REMARK  0 active torsions:
REMARK  status: ('A' for Active; 'I' for Inactive)
ROOT
ATOM      1  C1  DEN d   1      -0.722   0.436  -2.396  0.00  0.00     0.130 A 
ATOM      2  C2  DEN d   1      -0.464   0.384  -0.960  0.00  0.00    -0.031 A 
ATOM      3  C3  DEN d   1       0.973   0.104  -0.764  0.00  0.00     0.027 A 
ATOM      4  C4  DEN d   1       2.814  -0.246  -2.536  0.00  0.00     0.027 A 
ATOM      5  C5  DEN d   1       3.074  -0.305  -3.887  0.00  0.00    -0.003 A 
ATOM      6  C6  DEN d   1       2.090  -0.156  -4.828  0.00  0.00     0.001 A 
ATOM      7  C7  DEN d   1       0.805   0.104  -4.431  0.00  0.00     0.017 A 
ATOM      8  C8  DEN d   1       0.533   0.158  -3.070  0.00  0.00    -0.094 A 
ATOM      9  C9  DEN d   1       1.544   0.017  -2.135  0.00  0.00    -0.072 A 
ENDROOT
TORSDOF 0
ENDMDL
