MODEL 1
REMARK minimizedAffinity -3.51192164
REMARK minimizedRMSD -1
REMARK  0 active torsions:
REMARK  status: ('A' for Active; 'I' for Inactive)
ROOT
ATOM      1  C1  DEN d   1       0.613   0.170  -0.001  0.00  0.00     0.130 A 
ATOM      2  C2  DEN d   1       0.634   0.522  -1.418  0.00  0.00    -0.031 A 
ATOM      3  C3  DEN d   1      -0.701   0.235  -1.980  0.00  0.00     0.027 A 
ATOM      4  C4  DEN d   1      -2.790  -0.709  -0.799  0.00  0.00     0.027 A 
ATOM      5  C5  DEN d   1      -3.290  -1.171   0.399  0.00  0.00    -0.003 A 
ATOM      6  C6  DEN d   1      -2.521  -1.249   1.530  0.00  0.00     0.001 A 
ATOM      7  C7  DEN d   1      -1.221  -0.817   1.498  0.00  0.00     0.017 A 
ATOM      8  C8  DEN d   1      -0.708  -0.358   0.292  0.00  0.00    -0.094 A 
ATOM      9  C9  DEN d   1      -1.505  -0.274  -0.837  0.00  0.00    -0.072 A 
ENDROOT
TORSDOF 0
ENDMDL
