MODEL 1
REMARK minimizedAffinity -1.87238765
REMARK minimizedRMSD -1
REMARK  0 active torsions:
REMARK  status: ('A' for Active; 'I' for Inactive)
ROOT
ATOM      1  C1  DEN d   1       4.336   4.507  -0.146  0.00  0.00     0.130 A 
ATOM      2  C2  DEN d   1       4.528   3.585  -1.262  0.00  0.00    -0.031 A 
ATOM      3  C3  DEN d   1       4.072   2.248  -0.832  0.00  0.00     0.027 A 
ATOM      4  C4  DEN d   1       3.087   1.521   1.438  0.00  0.00     0.027 A 
ATOM      5  C5  DEN d   1       2.743   1.950   2.701  0.00  0.00    -0.003 A 
ATOM      6  C6  DEN d   1       2.935   3.242   3.112  0.00  0.00     0.001 A 
ATOM      7  C7  DEN d   1       3.446   4.164   2.236  0.00  0.00     0.017 A 
ATOM      8  C8  DEN d   1       3.802   3.737   0.963  0.00  0.00    -0.094 A 
ATOM      9  C9  DEN d   1       3.588   2.429   0.563  0.00  0.00    -0.072 A 
ENDROOT
TORSDOF 0
ENDMDL
