MODEL 1
REMARK minimizedAffinity -6.39484501
REMARK minimizedRMSD -1
REMARK  0 active torsions:
REMARK  status: ('A' for Active; 'I' for Inactive)
ROOT
ATOM      1  C1  DEN d   1       0.325  -1.264   0.738  0.00  0.00     0.130 A 
ATOM      2  C2  DEN d   1       0.626  -0.149  -0.156  0.00  0.00    -0.031 A 
ATOM      3  C3  DEN d   1      -0.633   0.266  -0.808  0.00  0.00     0.027 A 
ATOM      4  C4  DEN d   1      -3.006  -0.702  -0.516  0.00  0.00     0.027 A 
ATOM      5  C5  DEN d   1      -3.756  -1.663   0.126  0.00  0.00    -0.003 A 
ATOM      6  C6  DEN d   1      -3.196  -2.572   0.984  0.00  0.00     0.001 A 
ATOM      7  C7  DEN d   1      -1.856  -2.512   1.258  0.00  0.00     0.017 A 
ATOM      8  C8  DEN d   1      -1.092  -1.550   0.609  0.00  0.00    -0.094 A 
ATOM      9  C9  DEN d   1      -1.678  -0.632  -0.246  0.00  0.00    -0.072 A 
ENDROOT
TORSDOF 0
ENDMDL
