MODEL 1
REMARK minimizedAffinity 4.28987694
REMARK minimizedRMSD -1
REMARK  0 active torsions:
REMARK  status: ('A' for Active; 'I' for Inactive)
ROOT
ATOM      1  C4' PXY d   1      -0.818  -1.348   1.188  0.00  0.00     0.077 C 
ATOM      2  C1' PXY d   1       4.962  -1.452   1.211  0.00  0.00     0.077 C 
ATOM      3  C1  PXY d   1       3.446  -1.416   1.215  0.00  0.00    -0.082 A 
ATOM      4  C2  PXY d   1       2.766  -2.445   0.735  0.00  0.00     0.003 A 
ATOM      5  C3  PXY d   1       1.396  -2.415   0.701  0.00  0.00     0.003 A 
ATOM      6  C4  PXY d   1       0.713  -1.345   1.213  0.00  0.00    -0.082 A 
ATOM      7  C5  PXY d   1       1.399  -0.296   1.715  0.00  0.00     0.003 A 
ATOM      8  C6  PXY d   1       2.791  -0.328   1.702  0.00  0.00     0.003 A 
ENDROOT
TORSDOF 0
ENDMDL
