MODEL 1
REMARK minimizedAffinity -0.966894329
REMARK minimizedRMSD -1
REMARK  0 active torsions:
REMARK  status: ('A' for Active; 'I' for Inactive)
ROOT
ATOM      1  C4' PXY d   1       2.862  -2.227   1.905  0.00  0.00     0.077 C 
ATOM      2  C1' PXY d   1      -1.863  -2.482  -1.416  0.00  0.00     0.077 C 
ATOM      3  C1  PXY d   1      -0.630  -2.407  -0.537  0.00  0.00    -0.082 A 
ATOM      4  C2  PXY d   1       0.563  -2.627  -1.064  0.00  0.00     0.003 A 
ATOM      5  C3  PXY d   1       1.686  -2.595  -0.277  0.00  0.00     0.003 A 
ATOM      6  C4  PXY d   1       1.591  -2.282   1.053  0.00  0.00    -0.082 A 
ATOM      7  C5  PXY d   1       0.377  -2.047   1.596  0.00  0.00     0.003 A 
ATOM      8  C6  PXY d   1      -0.754  -2.125   0.788  0.00  0.00     0.003 A 
ENDROOT
TORSDOF 0
ENDMDL
