MODEL 1
REMARK minimizedAffinity 4.25095081
REMARK minimizedRMSD -1
REMARK  0 active torsions:
REMARK  status: ('A' for Active; 'I' for Inactive)
ROOT
ATOM      1  C4' PXY d   1      -2.101  -3.034  -1.105  0.00  0.00     0.077 C 
ATOM      2  C1' PXY d   1       2.841  -1.760   1.608  0.00  0.00     0.077 C 
ATOM      3  C1  PXY d   1       1.549  -2.087   0.886  0.00  0.00    -0.082 A 
ATOM      4  C2  PXY d   1       0.470  -2.399   1.585  0.00  0.00     0.003 A 
ATOM      5  C3  PXY d   1      -0.698  -2.729   0.948  0.00  0.00     0.003 A 
ATOM      6  C4  PXY d   1      -0.777  -2.687  -0.418  0.00  0.00    -0.082 A 
ATOM      7  C5  PXY d   1       0.316  -2.360  -1.139  0.00  0.00     0.003 A 
ATOM      8  C6  PXY d   1       1.504  -2.068  -0.474  0.00  0.00     0.003 A 
ENDROOT
TORSDOF 0
ENDMDL
