MODEL 1
REMARK minimizedAffinity 4.91256523
REMARK minimizedRMSD -1
REMARK  0 active torsions:
REMARK  status: ('A' for Active; 'I' for Inactive)
ROOT
ATOM      1  C4' PXY d   1      -0.094  -1.390  -2.812  0.00  0.00     0.077 C 
ATOM      2  C1' PXY d   1       0.319  -3.094   2.697  0.00  0.00     0.077 C 
ATOM      3  C1  PXY d   1       0.198  -2.648   1.253  0.00  0.00    -0.082 A 
ATOM      4  C2  PXY d   1       1.201  -2.860   0.416  0.00  0.00     0.003 A 
ATOM      5  C3  PXY d   1       1.120  -2.435  -0.885  0.00  0.00     0.003 A 
ATOM      6  C4  PXY d   1      -0.019  -1.832  -1.348  0.00  0.00    -0.082 A 
ATOM      7  C5  PXY d   1      -1.050  -1.621  -0.503  0.00  0.00     0.003 A 
ATOM      8  C6  PXY d   1      -0.933  -2.024   0.824  0.00  0.00     0.003 A 
ENDROOT
TORSDOF 0
ENDMDL
