MODEL 1
REMARK minimizedAffinity 2.39917278
REMARK minimizedRMSD -1
REMARK  0 active torsions:
REMARK  status: ('A' for Active; 'I' for Inactive)
ROOT
ATOM      1  C4' PXY d   1       1.888  -2.222  -2.553  0.00  0.00     0.077 C 
ATOM      2  C1' PXY d   1      -2.570  -2.814   1.079  0.00  0.00     0.077 C 
ATOM      3  C1  PXY d   1      -1.407  -2.666   0.118  0.00  0.00    -0.082 A 
ATOM      4  C2  PXY d   1      -0.201  -2.392   0.588  0.00  0.00     0.003 A 
ATOM      5  C3  PXY d   1       0.855  -2.223  -0.270  0.00  0.00     0.003 A 
ATOM      6  C4  PXY d   1       0.686  -2.389  -1.618  0.00  0.00    -0.082 A 
ATOM      7  C5  PXY d   1      -0.539  -2.680  -2.105  0.00  0.00     0.003 A 
ATOM      8  C6  PXY d   1      -1.607  -2.806  -1.221  0.00  0.00     0.003 A 
ENDROOT
TORSDOF 0
ENDMDL
