MODEL 1
REMARK minimizedAffinity 2.09061885
REMARK minimizedRMSD -1
REMARK  0 active torsions:
REMARK  status: ('A' for Active; 'I' for Inactive)
ROOT
ATOM      1  C4' PXY d   1       2.988   1.104   1.451  0.00  0.00     0.077 C 
ATOM      2  C1' PXY d   1      -1.568  -2.423   0.983  0.00  0.00     0.077 C 
ATOM      3  C1  PXY d   1      -0.379  -1.489   1.098  0.00  0.00    -0.082 A 
ATOM      4  C2  PXY d   1       0.817  -1.984   1.368  0.00  0.00     0.003 A 
ATOM      5  C3  PXY d   1       1.897  -1.151   1.508  0.00  0.00     0.003 A 
ATOM      6  C4  PXY d   1       1.761   0.198   1.316  0.00  0.00    -0.082 A 
ATOM      7  C5  PXY d   1       0.545   0.709   1.030  0.00  0.00     0.003 A 
ATOM      8  C6  PXY d   1      -0.546  -0.149   0.933  0.00  0.00     0.003 A 
ENDROOT
TORSDOF 0
ENDMDL
