MODEL 1
REMARK minimizedAffinity 13.2256594
REMARK minimizedRMSD -1
REMARK  0 active torsions:
REMARK  status: ('A' for Active; 'I' for Inactive)
ROOT
ATOM      1  C4' PXY d   1       1.860  -0.326   2.732  0.00  0.00     0.077 C 
ATOM      2  C1' PXY d   1       2.236   4.516  -0.403  0.00  0.00     0.077 C 
ATOM      3  C1  PXY d   1       2.129   3.252   0.427  0.00  0.00    -0.082 A 
ATOM      4  C2  PXY d   1       3.120   2.375   0.414  0.00  0.00     0.003 A 
ATOM      5  C3  PXY d   1       3.026   1.212   1.134  0.00  0.00     0.003 A 
ATOM      6  C4  PXY d   1       1.929   0.968   1.916  0.00  0.00    -0.082 A 
ATOM      7  C5  PXY d   1       0.918   1.862   1.943  0.00  0.00     0.003 A 
ATOM      8  C6  PXY d   1       1.015   3.018   1.173  0.00  0.00     0.003 A 
ENDROOT
TORSDOF 0
ENDMDL
