MODEL 1
REMARK minimizedAffinity 9.65440369
REMARK minimizedRMSD -1
REMARK  0 active torsions:
REMARK  status: ('A' for Active; 'I' for Inactive)
ROOT
ATOM      1  C4' PXY d   1      -6.000   2.066   2.728  0.00  0.00     0.077 C 
ATOM      2  C1' PXY d   1      -3.286   2.634  -2.344  0.00  0.00     0.077 C 
ATOM      3  C1  PXY d   1      -3.991   2.474  -1.012  0.00  0.00    -0.082 A 
ATOM      4  C2  PXY d   1      -5.157   3.066  -0.814  0.00  0.00     0.003 A 
ATOM      5  C3  PXY d   1      -5.794   2.958   0.396  0.00  0.00     0.003 A 
ATOM      6  C4  PXY d   1      -5.256   2.192   1.395  0.00  0.00    -0.082 A 
ATOM      7  C5  PXY d   1      -4.072   1.575   1.197  0.00  0.00     0.003 A 
ATOM      8  C6  PXY d   1      -3.422   1.731  -0.024  0.00  0.00     0.003 A 
ENDROOT
TORSDOF 0
ENDMDL
