MODEL 1
REMARK minimizedAffinity 7.03850031
REMARK minimizedRMSD -1
REMARK  0 active torsions:
REMARK  status: ('A' for Active; 'I' for Inactive)
ROOT
ATOM      1  C4' PXY d   1       2.372   3.380  -0.772  0.00  0.00     0.077 C 
ATOM      2  C1' PXY d   1       3.228  -1.772   1.706  0.00  0.00     0.077 C 
ATOM      3  C1  PXY d   1       2.991  -0.421   1.060  0.00  0.00    -0.082 A 
ATOM      4  C2  PXY d   1       3.790  -0.012   0.088  0.00  0.00     0.003 A 
ATOM      5  C3  PXY d   1       3.609   1.220  -0.485  0.00  0.00     0.003 A 
ATOM      6  C4  PXY d   1       2.568   2.020  -0.097  0.00  0.00    -0.082 A 
ATOM      7  C5  PXY d   1       1.741   1.604   0.887  0.00  0.00     0.003 A 
ATOM      8  C6  PXY d   1       1.966   0.368   1.484  0.00  0.00     0.003 A 
ENDROOT
TORSDOF 0
ENDMDL
