MODEL 1
REMARK minimizedAffinity -0.228743121
REMARK minimizedRMSD -1
REMARK  0 active torsions:
REMARK  status: ('A' for Active; 'I' for Inactive)
ROOT
ATOM      1  C4' PXY d   1       1.835   1.035   1.252  0.00  0.00     0.077 C 
ATOM      2  C1' PXY d   1       6.000  -2.949   0.807  0.00  0.00     0.077 C 
ATOM      3  C1  PXY d   1       4.901  -1.913   0.931  0.00  0.00    -0.082 A 
ATOM      4  C2  PXY d   1       4.767  -0.985  -0.003  0.00  0.00     0.003 A 
ATOM      5  C3  PXY d   1       3.799  -0.021   0.110  0.00  0.00     0.003 A 
ATOM      6  C4  PXY d   1       2.925  -0.037   1.163  0.00  0.00    -0.082 A 
ATOM      7  C5  PXY d   1       3.047  -0.987   2.115  0.00  0.00     0.003 A 
ATOM      8  C6  PXY d   1       4.063  -1.932   2.003  0.00  0.00     0.003 A 
ENDROOT
TORSDOF 0
ENDMDL
