MODEL 1
REMARK minimizedAffinity -4.25323582
REMARK minimizedRMSD -1
REMARK  0 active torsions:
REMARK  status: ('A' for Active; 'I' for Inactive)
ROOT
ATOM      1  C4' PXY d   1      -1.244  -0.152  -0.662  0.00  0.00     0.077 C 
ATOM      2  C1' PXY d   1       3.758  -1.305   1.996  0.00  0.00     0.077 C 
ATOM      3  C1  PXY d   1       2.444  -1.015   1.297  0.00  0.00    -0.082 A 
ATOM      4  C2  PXY d   1       2.232   0.181   0.772  0.00  0.00     0.003 A 
ATOM      5  C3  PXY d   1       1.038   0.469   0.164  0.00  0.00     0.003 A 
ATOM      6  C4  PXY d   1       0.070  -0.492   0.045  0.00  0.00    -0.082 A 
ATOM      7  C5  PXY d   1       0.283  -1.718   0.569  0.00  0.00     0.003 A 
ATOM      8  C6  PXY d   1       1.486  -1.978   1.218  0.00  0.00     0.003 A 
ENDROOT
TORSDOF 0
ENDMDL
