MODEL 1
REMARK minimizedAffinity -1.05239522
REMARK minimizedRMSD -1
REMARK  0 active torsions:
REMARK  status: ('A' for Active; 'I' for Inactive)
ROOT
ATOM      1  C4' PXY d   1      -4.660   2.505  -5.900  0.00  0.00     0.077 C 
ATOM      2  C1' PXY d   1      -2.184   1.510  -0.772  0.00  0.00     0.077 C 
ATOM      3  C1  PXY d   1      -2.839   1.759  -2.116  0.00  0.00    -0.082 A 
ATOM      4  C2  PXY d   1      -2.317   2.651  -2.943  0.00  0.00     0.003 A 
ATOM      5  C3  PXY d   1      -2.915   2.912  -4.149  0.00  0.00     0.003 A 
ATOM      6  C4  PXY d   1      -4.027   2.214  -4.536  0.00  0.00    -0.082 A 
ATOM      7  C5  PXY d   1      -4.559   1.294  -3.703  0.00  0.00     0.003 A 
ATOM      8  C6  PXY d   1      -3.961   1.074  -2.466  0.00  0.00     0.003 A 
ENDROOT
TORSDOF 0
ENDMDL
