MODEL 1
REMARK minimizedAffinity -4.31084204
REMARK minimizedRMSD -1
REMARK  0 active torsions:
REMARK  status: ('A' for Active; 'I' for Inactive)
ROOT
ATOM      1  C   UNL d   1      -1.496   0.746   0.013  0.00  0.00     0.023 A 
ATOM      2  C1  UNL d   1      -0.616   1.808   0.221  0.00  0.00     0.003 A 
ATOM      3  C2  UNL d   1       0.739   1.559   0.452  0.00  0.00     0.048 A 
ATOM      4  C3  UNL d   1       1.207   0.246   0.472  0.00  0.00     0.023 A 
ATOM      5  C4  UNL d   1       0.330  -0.820   0.263  0.00  0.00     0.048 A 
ATOM      6  C5  UNL d   1      -1.023  -0.567   0.034  0.00  0.00     0.003 A 
ATOM      7  I   UNL d   1       3.223  -0.127   0.815  0.00  0.00    -0.146 I 
ENDROOT
TORSDOF 0
ENDMDL
