MODEL 1
REMARK minimizedAffinity -4.35529041
REMARK minimizedRMSD -1
REMARK  0 active torsions:
REMARK  status: ('A' for Active; 'I' for Inactive)
ROOT
ATOM      1  C   UNL d   1       3.585  -0.284   0.802  0.00  0.00     0.023 A 
ATOM      2  C1  UNL d   1       3.100  -1.519   1.230  0.00  0.00     0.003 A 
ATOM      3  C2  UNL d   1       1.723  -1.738   1.316  0.00  0.00     0.048 A 
ATOM      4  C3  UNL d   1       0.838  -0.718   0.971  0.00  0.00     0.023 A 
ATOM      5  C4  UNL d   1       1.319   0.520   0.541  0.00  0.00     0.048 A 
ATOM      6  C5  UNL d   1       2.696   0.734   0.457  0.00  0.00     0.003 A 
ATOM      7  I   UNL d   1      -1.211  -1.042   1.098  0.00  0.00    -0.146 I 
ENDROOT
TORSDOF 0
ENDMDL
