MODEL 1
REMARK minimizedAffinity -2.94476056
REMARK minimizedRMSD -1
REMARK  0 active torsions:
REMARK  status: ('A' for Active; 'I' for Inactive)
ROOT
ATOM      1  C   UNL d   1      -1.521   0.930   0.209  0.00  0.00     0.023 A 
ATOM      2  C1  UNL d   1      -1.194  -0.425   0.267  0.00  0.00     0.003 A 
ATOM      3  C2  UNL d   1       0.144  -0.821   0.310  0.00  0.00     0.048 A 
ATOM      4  C3  UNL d   1       1.151   0.143   0.296  0.00  0.00     0.023 A 
ATOM      5  C4  UNL d   1       0.829   1.500   0.239  0.00  0.00     0.048 A 
ATOM      6  C5  UNL d   1      -0.510   1.891   0.195  0.00  0.00     0.003 A 
ATOM      7  I   UNL d   1       3.144  -0.443   0.360  0.00  0.00    -0.146 I 
ENDROOT
TORSDOF 0
ENDMDL
