MODEL 1
REMARK minimizedAffinity -1.42664778
REMARK minimizedRMSD -1
REMARK  0 active torsions:
REMARK  status: ('A' for Active; 'I' for Inactive)
ROOT
ATOM      1  C   UNL d   1       2.608   1.274   1.690  0.00  0.00     0.023 A 
ATOM      2  C1  UNL d   1       2.648  -0.027   1.189  0.00  0.00     0.003 A 
ATOM      3  C2  UNL d   1       1.542  -0.553   0.519  0.00  0.00     0.048 A 
ATOM      4  C3  UNL d   1       0.399   0.227   0.351  0.00  0.00     0.023 A 
ATOM      5  C4  UNL d   1       0.354   1.530   0.850  0.00  0.00     0.048 A 
ATOM      6  C5  UNL d   1       1.462   2.052   1.520  0.00  0.00     0.003 A 
ATOM      7  I   UNL d   1      -1.249  -0.554  -0.646  0.00  0.00    -0.146 I 
ENDROOT
TORSDOF 0
ENDMDL
