MODEL 1
REMARK minimizedAffinity -2.83527613
REMARK minimizedRMSD -1
REMARK  0 active torsions:
REMARK  status: ('A' for Active; 'I' for Inactive)
ROOT
ATOM      1  C   UNL d   1      -1.378  -0.484   0.193  0.00  0.00     0.023 A 
ATOM      2  C1  UNL d   1      -0.720   0.717  -0.072  0.00  0.00     0.003 A 
ATOM      3  C2  UNL d   1       0.663   0.811   0.101  0.00  0.00     0.048 A 
ATOM      4  C3  UNL d   1       1.381  -0.301   0.539  0.00  0.00     0.023 A 
ATOM      5  C4  UNL d   1       0.727  -1.505   0.805  0.00  0.00     0.048 A 
ATOM      6  C5  UNL d   1      -0.656  -1.593   0.631  0.00  0.00     0.003 A 
ATOM      7  I   UNL d   1       3.439  -0.165   0.797  0.00  0.00    -0.146 I 
ENDROOT
TORSDOF 0
ENDMDL
