MODEL 1
REMARK minimizedAffinity 15.2118444
REMARK minimizedRMSD -1
REMARK  1 active torsions:
REMARK  status: ('A' for Active; 'I' for Inactive)
REMARK    1  A    between atoms: C1_2  and  C2_3 
ROOT
ATOM      1  C2  UNL d   1       1.595  -3.001  -0.430  0.00  0.00    -0.081 A 
ATOM      2  C3  UNL d   1       1.202  -4.289  -0.813  0.00  0.00     0.006 A 
ATOM      3  C4  UNL d   1       0.172  -4.468  -1.740  0.00  0.00     0.002 A 
ATOM      4  C5  UNL d   1      -0.476  -3.364  -2.304  0.00  0.00    -0.080 A 
ATOM      5  C6  UNL d   1      -1.562  -3.542  -3.322  0.00  0.00     0.076 C 
ATOM      6  C7  UNL d   1      -0.095  -2.077  -1.908  0.00  0.00     0.002 A 
ATOM      7  C8  UNL d   1       0.935  -1.897  -0.981  0.00  0.00     0.006 A 
ENDROOT
BRANCH   1   8
ATOM      8  C1  UNL d   1       2.749  -2.803   0.520  0.00  0.00     0.054 C 
ATOM      9  C   UNL d   1       3.872  -2.008  -0.131  0.00  0.00     0.018 C 
ENDBRANCH   1   8
TORSDOF 1
ENDMDL
