MODEL 1
REMARK minimizedAffinity 8.32730579
REMARK minimizedRMSD -1
REMARK  1 active torsions:
REMARK  status: ('A' for Active; 'I' for Inactive)
REMARK    1  A    between atoms: C1_2  and  C2_3 
ROOT
ATOM      1  C2  UNL d   1      -0.477  -5.034  -3.258  0.00  0.00    -0.081 A 
ATOM      2  C3  UNL d   1       0.569  -5.912  -2.948  0.00  0.00     0.006 A 
ATOM      3  C4  UNL d   1       1.317  -5.738  -1.781  0.00  0.00     0.002 A 
ATOM      4  C5  UNL d   1       1.028  -4.689  -0.902  0.00  0.00    -0.080 A 
ATOM      5  C6  UNL d   1       1.804  -4.509   0.369  0.00  0.00     0.076 C 
ATOM      6  C7  UNL d   1      -0.006  -3.801  -1.220  0.00  0.00     0.002 A 
ATOM      7  C8  UNL d   1      -0.754  -3.974  -2.387  0.00  0.00     0.006 A 
ENDROOT
BRANCH   1   8
ATOM      8  C1  UNL d   1      -1.328  -5.257  -4.482  0.00  0.00     0.054 C 
ATOM      9  C   UNL d   1      -2.611  -5.999  -4.136  0.00  0.00     0.018 C 
ENDBRANCH   1   8
TORSDOF 1
ENDMDL
