MODEL 1
REMARK minimizedAffinity 13.4469967
REMARK minimizedRMSD -1
REMARK  1 active torsions:
REMARK  status: ('A' for Active; 'I' for Inactive)
REMARK    1  A    between atoms: C1_2  and  C2_3 
ROOT
ATOM      1  C2  UNL d   1       1.594   0.367   3.921  0.00  0.00    -0.081 A 
ATOM      2  C3  UNL d   1       1.578   0.330   5.321  0.00  0.00     0.006 A 
ATOM      3  C4  UNL d   1       1.543  -0.892   5.997  0.00  0.00     0.002 A 
ATOM      4  C5  UNL d   1       1.531  -2.096   5.285  0.00  0.00    -0.080 A 
ATOM      5  C6  UNL d   1       1.524  -3.415   5.999  0.00  0.00     0.076 C 
ATOM      6  C7  UNL d   1       1.529  -2.059   3.887  0.00  0.00     0.002 A 
ATOM      7  C8  UNL d   1       1.563  -0.838   3.210  0.00  0.00     0.006 A 
ENDROOT
BRANCH   1   8
ATOM      8  C1  UNL d   1       1.697   1.681   3.190  0.00  0.00     0.054 C 
ATOM      9  C   UNL d   1       3.115   1.930   2.697  0.00  0.00     0.018 C 
ENDBRANCH   1   8
TORSDOF 1
ENDMDL
