MODEL 1
REMARK minimizedAffinity 7.17525244
REMARK minimizedRMSD -1
REMARK  1 active torsions:
REMARK  status: ('A' for Active; 'I' for Inactive)
REMARK    1  A    between atoms: C1_2  and  C2_3 
ROOT
ATOM      1  C2  UNL d   1       0.987   4.106   0.933  0.00  0.00    -0.081 A 
ATOM      2  C3  UNL d   1       1.855   3.920   2.016  0.00  0.00     0.006 A 
ATOM      3  C4  UNL d   1       1.641   2.881   2.925  0.00  0.00     0.002 A 
ATOM      4  C5  UNL d   1       0.562   2.006   2.762  0.00  0.00    -0.080 A 
ATOM      5  C6  UNL d   1       0.339   0.868   3.713  0.00  0.00     0.076 C 
ATOM      6  C7  UNL d   1      -0.316   2.202   1.690  0.00  0.00     0.002 A 
ATOM      7  C8  UNL d   1      -0.103   3.241   0.782  0.00  0.00     0.006 A 
ENDROOT
BRANCH   1   8
ATOM      8  C1  UNL d   1       1.252   5.185  -0.085  0.00  0.00     0.054 C 
ATOM      9  C   UNL d   1      -0.017   5.960  -0.413  0.00  0.00     0.018 C 
ENDBRANCH   1   8
TORSDOF 1
ENDMDL
