MODEL 1
REMARK minimizedAffinity 4.39004993
REMARK minimizedRMSD -1
REMARK  1 active torsions:
REMARK  status: ('A' for Active; 'I' for Inactive)
REMARK    1  A    between atoms: C1_2  and  C2_3 
ROOT
ATOM      1  C2  UNL d   1      -0.165   3.750   0.072  0.00  0.00    -0.081 A 
ATOM      2  C3  UNL d   1      -0.050   3.208  -1.214  0.00  0.00     0.006 A 
ATOM      3  C4  UNL d   1      -0.488   3.928  -2.328  0.00  0.00     0.002 A 
ATOM      4  C5  UNL d   1      -1.042   5.204  -2.176  0.00  0.00    -0.080 A 
ATOM      5  C6  UNL d   1      -1.488   5.999  -3.366  0.00  0.00     0.076 C 
ATOM      6  C7  UNL d   1      -1.173   5.738  -0.890  0.00  0.00     0.002 A 
ATOM      7  C8  UNL d   1      -0.735   5.019   0.224  0.00  0.00     0.006 A 
ENDROOT
BRANCH   1   8
ATOM      8  C1  UNL d   1       0.366   3.004   1.269  0.00  0.00     0.054 C 
ATOM      9  C   UNL d   1      -0.741   2.240   1.981  0.00  0.00     0.018 C 
ENDBRANCH   1   8
TORSDOF 1
ENDMDL
