MODEL 1
REMARK minimizedAffinity 12.8401728
REMARK minimizedRMSD -1
REMARK  1 active torsions:
REMARK  status: ('A' for Active; 'I' for Inactive)
REMARK    1  A    between atoms: C1_2  and  C2_3 
ROOT
ATOM      1  C2  UNL d   1      -0.369  -3.821  -1.657  0.00  0.00    -0.081 A 
ATOM      2  C3  UNL d   1      -0.380  -2.425  -1.550  0.00  0.00     0.006 A 
ATOM      3  C4  UNL d   1       0.630  -1.760  -0.851  0.00  0.00     0.002 A 
ATOM      4  C5  UNL d   1       1.672  -2.478  -0.254  0.00  0.00    -0.080 A 
ATOM      5  C6  UNL d   1       2.778  -1.774   0.473  0.00  0.00     0.076 C 
ATOM      6  C7  UNL d   1       1.674  -3.874  -0.346  0.00  0.00     0.002 A 
ATOM      7  C8  UNL d   1       0.664  -4.539  -1.044  0.00  0.00     0.006 A 
ENDROOT
BRANCH   1   8
ATOM      8  C1  UNL d   1      -1.421  -4.536  -2.465  0.00  0.00     0.054 C 
ATOM      9  C   UNL d   1      -1.383  -4.109  -3.925  0.00  0.00     0.018 C 
ENDBRANCH   1   8
TORSDOF 1
ENDMDL
