MODEL 1
REMARK minimizedAffinity 9.64286041
REMARK minimizedRMSD -1
REMARK  1 active torsions:
REMARK  status: ('A' for Active; 'I' for Inactive)
REMARK    1  A    between atoms: C1_2  and  C2_3 
ROOT
ATOM      1  C2  UNL d   1       1.401  -2.901  -0.061  0.00  0.00    -0.081 A 
ATOM      2  C3  UNL d   1       1.419  -4.243  -0.460  0.00  0.00     0.006 A 
ATOM      3  C4  UNL d   1       0.504  -4.714  -1.405  0.00  0.00     0.002 A 
ATOM      4  C5  UNL d   1      -0.439  -3.849  -1.972  0.00  0.00    -0.080 A 
ATOM      5  C6  UNL d   1      -1.407  -4.334  -3.010  0.00  0.00     0.076 C 
ATOM      6  C7  UNL d   1      -0.468  -2.512  -1.561  0.00  0.00     0.002 A 
ATOM      7  C8  UNL d   1       0.446  -2.042  -0.616  0.00  0.00     0.006 A 
ENDROOT
BRANCH   1   8
ATOM      8  C1  UNL d   1       2.428  -2.376   0.909  0.00  0.00     0.054 C 
ATOM      9  C   UNL d   1       3.732  -2.033   0.203  0.00  0.00     0.018 C 
ENDBRANCH   1   8
TORSDOF 1
ENDMDL
