MODEL 1
REMARK minimizedAffinity 9.54680347
REMARK minimizedRMSD -1
REMARK  1 active torsions:
REMARK  status: ('A' for Active; 'I' for Inactive)
REMARK    1  A    between atoms: C1_2  and  C2_3 
ROOT
ATOM      1  C2  UNL d   1      -4.608   4.148  -2.935  0.00  0.00    -0.081 A 
ATOM      2  C3  UNL d   1      -4.400   3.702  -1.624  0.00  0.00     0.006 A 
ATOM      3  C4  UNL d   1      -3.118   3.707  -1.069  0.00  0.00     0.002 A 
ATOM      4  C5  UNL d   1      -2.025   4.166  -1.812  0.00  0.00    -0.080 A 
ATOM      5  C6  UNL d   1      -0.649   4.206  -1.217  0.00  0.00     0.076 C 
ATOM      6  C7  UNL d   1      -2.230   4.596  -3.127  0.00  0.00     0.002 A 
ATOM      7  C8  UNL d   1      -3.511   4.590  -3.683  0.00  0.00     0.006 A 
ENDROOT
BRANCH   1   8
ATOM      8  C1  UNL d   1      -5.998   4.204  -3.515  0.00  0.00     0.054 C 
ATOM      9  C   UNL d   1      -5.966   4.536  -5.000  0.00  0.00     0.018 C 
ENDBRANCH   1   8
TORSDOF 1
ENDMDL
