MODEL 1
REMARK minimizedAffinity 8.38201141
REMARK minimizedRMSD -1
REMARK  0 active torsions:
REMARK  status: ('A' for Active; 'I' for Inactive)
ROOT
ATOM      1  C   UNL d   1       1.900   5.268  -1.005  0.00  0.00     0.078 C 
ATOM      2  C1  UNL d   1       0.942   4.213  -0.537  0.00  0.00    -0.077 A 
ATOM      3  C2  UNL d   1      -0.256   3.972  -1.221  0.00  0.00    -0.001 A 
ATOM      4  C3  UNL d   1      -1.142   2.993  -0.769  0.00  0.00     0.003 A 
ATOM      5  C4  UNL d   1      -0.840   2.248   0.369  0.00  0.00    -0.005 A 
ATOM      6  C5  UNL d   1       0.349   2.481   1.057  0.00  0.00     0.003 A 
ATOM      7  C6  UNL d   1       1.236   3.460   0.606  0.00  0.00    -0.001 A 
ENDROOT
TORSDOF 0
ENDMDL
