MODEL 1
REMARK minimizedAffinity 8.0764122
REMARK minimizedRMSD -1
REMARK  0 active torsions:
REMARK  status: ('A' for Active; 'I' for Inactive)
ROOT
ATOM      1  C   UNL d   1      -3.407  -0.743  -0.907  0.00  0.00     0.078 C 
ATOM      2  C1  UNL d   1      -2.302   0.103  -1.466  0.00  0.00    -0.077 A 
ATOM      3  C2  UNL d   1      -0.966  -0.307  -1.381  0.00  0.00    -0.001 A 
ATOM      4  C3  UNL d   1       0.053   0.496  -1.896  0.00  0.00     0.003 A 
ATOM      5  C4  UNL d   1      -0.253   1.714  -2.499  0.00  0.00    -0.005 A 
ATOM      6  C5  UNL d   1      -1.580   2.131  -2.587  0.00  0.00     0.003 A 
ATOM      7  C6  UNL d   1      -2.600   1.330  -2.072  0.00  0.00    -0.001 A 
ENDROOT
TORSDOF 0
ENDMDL
