MODEL 1
REMARK minimizedAffinity 0.254689008
REMARK minimizedRMSD -1
REMARK  0 active torsions:
REMARK  status: ('A' for Active; 'I' for Inactive)
ROOT
ATOM      1  C   UNL d   1      -0.986   3.242  -2.844  0.00  0.00     0.078 C 
ATOM      2  C1  UNL d   1      -0.678   2.817  -1.439  0.00  0.00    -0.077 A 
ATOM      3  C2  UNL d   1      -0.472   3.764  -0.429  0.00  0.00    -0.001 A 
ATOM      4  C3  UNL d   1      -0.177   3.355   0.873  0.00  0.00     0.003 A 
ATOM      5  C4  UNL d   1      -0.084   1.997   1.175  0.00  0.00    -0.005 A 
ATOM      6  C5  UNL d   1      -0.285   1.048   0.175  0.00  0.00     0.003 A 
ATOM      7  C6  UNL d   1      -0.580   1.456  -1.126  0.00  0.00    -0.001 A 
ENDROOT
TORSDOF 0
ENDMDL
