MODEL 1
REMARK minimizedAffinity -0.183742002
REMARK minimizedRMSD -1
REMARK  0 active torsions:
REMARK  status: ('A' for Active; 'I' for Inactive)
ROOT
ATOM      1  C   UNL d   1       0.850   0.435   0.161  0.00  0.00     0.078 C 
ATOM      2  C1  UNL d   1       0.477   1.801   0.655  0.00  0.00    -0.077 A 
ATOM      3  C2  UNL d   1      -0.853   2.238   0.633  0.00  0.00    -0.001 A 
ATOM      4  C3  UNL d   1      -1.184   3.516   1.086  0.00  0.00     0.003 A 
ATOM      5  C4  UNL d   1      -0.190   4.368   1.564  0.00  0.00    -0.005 A 
ATOM      6  C5  UNL d   1       1.136   3.943   1.588  0.00  0.00     0.003 A 
ATOM      7  C6  UNL d   1       1.469   2.666   1.135  0.00  0.00    -0.001 A 
ENDROOT
TORSDOF 0
ENDMDL
