MODEL 1
REMARK minimizedAffinity 8.63383198
REMARK minimizedRMSD -1
REMARK  0 active torsions:
REMARK  status: ('A' for Active; 'I' for Inactive)
ROOT
ATOM      1  C   UNL d   1       0.160   0.037  -0.745  0.00  0.00    -0.002 A 
ATOM      2  C1  UNL d   1       0.336   0.590   0.516  0.00  0.00     0.010 A 
ATOM      3  C2  UNL d   1      -0.765   0.898   1.317  0.00  0.00     0.041 A 
ATOM      4  C3  UNL d   1      -2.059   0.637   0.826  0.00  0.00    -0.075 A 
ATOM      5  S   UNL d   1      -3.555   0.931   1.630  0.00  0.00     0.015 SA
ATOM      6  C4  UNL d   1      -4.464   0.330   0.320  0.00  0.00     0.022 A 
ATOM      7  C5  UNL d   1      -3.662  -0.089  -0.715  0.00  0.00     0.026 A 
ATOM      8  C6  UNL d   1      -2.262   0.080  -0.440  0.00  0.00    -0.082 A 
ATOM      9  C7  UNL d   1      -1.126  -0.220  -1.228  0.00  0.00     0.045 A 
ENDROOT
TORSDOF 0
ENDMDL
