MODEL 1
REMARK minimizedAffinity 8.96548271
REMARK minimizedRMSD -1
REMARK  0 active torsions:
REMARK  status: ('A' for Active; 'I' for Inactive)
ROOT
ATOM      1  C   UNL d   1      -2.015  -2.895   5.993  0.00  0.00    -0.002 A 
ATOM      2  C1  UNL d   1      -1.010  -1.938   5.983  0.00  0.00     0.010 A 
ATOM      3  C2  UNL d   1       0.333  -2.319   5.978  0.00  0.00     0.041 A 
ATOM      4  C3  UNL d   1       0.653  -3.691   5.982  0.00  0.00    -0.075 A 
ATOM      5  S   UNL d   1       2.228  -4.391   5.976  0.00  0.00     0.015 SA
ATOM      6  C4  UNL d   1       1.605  -5.977   5.985  0.00  0.00     0.022 A 
ATOM      7  C5  UNL d   1       0.230  -5.991   5.993  0.00  0.00     0.026 A 
ATOM      8  C6  UNL d   1      -0.341  -4.673   5.990  0.00  0.00    -0.082 A 
ATOM      9  C7  UNL d   1      -1.694  -4.256   5.996  0.00  0.00     0.045 A 
ENDROOT
TORSDOF 0
ENDMDL
