MODEL 1
REMARK minimizedAffinity 2.55513239
REMARK minimizedRMSD -1
REMARK  0 active torsions:
REMARK  status: ('A' for Active; 'I' for Inactive)
ROOT
ATOM      1  C   UNL d   1       0.909  -1.191   0.733  0.00  0.00    -0.002 A 
ATOM      2  C1  UNL d   1       1.574  -2.153  -0.014  0.00  0.00     0.010 A 
ATOM      3  C2  UNL d   1       2.757  -1.839  -0.685  0.00  0.00     0.041 A 
ATOM      4  C3  UNL d   1       3.267  -0.529  -0.592  0.00  0.00    -0.075 A 
ATOM      5  S   UNL d   1       4.700   0.084  -1.329  0.00  0.00     0.015 SA
ATOM      6  C4  UNL d   1       4.464   1.638  -0.669  0.00  0.00     0.022 A 
ATOM      7  C5  UNL d   1       3.324   1.705   0.097  0.00  0.00     0.026 A 
ATOM      8  C6  UNL d   1       2.616   0.457   0.155  0.00  0.00    -0.082 A 
ATOM      9  C7  UNL d   1       1.418   0.108   0.824  0.00  0.00     0.045 A 
ENDROOT
TORSDOF 0
ENDMDL
