MODEL 1
REMARK minimizedAffinity 14.3476648
REMARK minimizedRMSD -1
REMARK  0 active torsions:
REMARK  status: ('A' for Active; 'I' for Inactive)
ROOT
ATOM      1  C   UNL d   1      -5.006   0.106   0.347  0.00  0.00    -0.002 A 
ATOM      2  C1  UNL d   1      -4.448   0.718   1.460  0.00  0.00     0.010 A 
ATOM      3  C2  UNL d   1      -3.061   0.804   1.602  0.00  0.00     0.041 A 
ATOM      4  C3  UNL d   1      -2.238   0.262   0.596  0.00  0.00    -0.075 A 
ATOM      5  S   UNL d   1      -0.514   0.252   0.556  0.00  0.00     0.015 SA
ATOM      6  C4  UNL d   1      -0.479  -0.564  -0.940  0.00  0.00     0.022 A 
ATOM      7  C5  UNL d   1      -1.743  -0.831  -1.412  0.00  0.00     0.026 A 
ATOM      8  C6  UNL d   1      -2.777  -0.359  -0.535  0.00  0.00    -0.082 A 
ATOM      9  C7  UNL d   1      -4.186  -0.431  -0.649  0.00  0.00     0.045 A 
ENDROOT
TORSDOF 0
ENDMDL
