MODEL 1
REMARK minimizedAffinity -1.71482909
REMARK minimizedRMSD -1
REMARK  0 active torsions:
REMARK  status: ('A' for Active; 'I' for Inactive)
ROOT
ATOM      1  C   UNL d   1       2.331  -2.060  -0.437  0.00  0.00    -0.002 A 
ATOM      2  C1  UNL d   1       3.100  -0.905  -0.431  0.00  0.00     0.010 A 
ATOM      3  C2  UNL d   1       2.499   0.348  -0.287  0.00  0.00     0.041 A 
ATOM      4  C3  UNL d   1       1.100   0.420  -0.146  0.00  0.00    -0.075 A 
ATOM      5  S   UNL d   1       0.146   1.844   0.045  0.00  0.00     0.015 SA
ATOM      6  C4  UNL d   1      -1.304   0.953   0.124  0.00  0.00     0.022 A 
ATOM      7  C5  UNL d   1      -1.085  -0.400   0.009  0.00  0.00     0.026 A 
ATOM      8  C6  UNL d   1       0.304  -0.729  -0.148  0.00  0.00    -0.082 A 
ATOM      9  C7  UNL d   1       0.942  -1.984  -0.296  0.00  0.00     0.045 A 
ENDROOT
TORSDOF 0
ENDMDL
