MODEL 1
REMARK minimizedAffinity 14.2037315
REMARK minimizedRMSD -1
REMARK  0 active torsions:
REMARK  status: ('A' for Active; 'I' for Inactive)
ROOT
ATOM      1  C   UNL d   1      -1.241   0.982  -0.855  0.00  0.00    -0.002 A 
ATOM      2  C1  UNL d   1      -0.216   1.368  -0.002  0.00  0.00     0.010 A 
ATOM      3  C2  UNL d   1       0.815   0.481   0.316  0.00  0.00     0.041 A 
ATOM      4  C3  UNL d   1       0.800  -0.811  -0.246  0.00  0.00    -0.075 A 
ATOM      5  S   UNL d   1       1.959  -2.064  -0.000  0.00  0.00     0.015 SA
ATOM      6  C4  UNL d   1       1.122  -3.140  -1.023  0.00  0.00     0.022 A 
ATOM      7  C5  UNL d   1      -0.016  -2.574  -1.547  0.00  0.00     0.026 A 
ATOM      8  C6  UNL d   1      -0.220  -1.222  -1.108  0.00  0.00    -0.082 A 
ATOM      9  C7  UNL d   1      -1.252  -0.300  -1.410  0.00  0.00     0.045 A 
ENDROOT
TORSDOF 0
ENDMDL
