MODEL 1
REMARK minimizedAffinity 16.5311184
REMARK minimizedRMSD -1
REMARK  0 active torsions:
REMARK  status: ('A' for Active; 'I' for Inactive)
ROOT
ATOM      1  C   UNL d   1       1.402   1.192   4.917  0.00  0.00    -0.002 A 
ATOM      2  C1  UNL d   1       0.486   1.290   3.879  0.00  0.00     0.010 A 
ATOM      3  C2  UNL d   1      -0.069   0.142   3.310  0.00  0.00     0.041 A 
ATOM      4  C3  UNL d   1       0.315  -1.119   3.807  0.00  0.00    -0.075 A 
ATOM      5  S   UNL d   1      -0.233  -2.661   3.265  0.00  0.00     0.015 SA
ATOM      6  C4  UNL d   1       0.735  -3.487   4.399  0.00  0.00     0.022 A 
ATOM      7  C5  UNL d   1       1.466  -2.622   5.180  0.00  0.00     0.026 A 
ATOM      8  C6  UNL d   1       1.235  -1.243   4.852  0.00  0.00    -0.082 A 
ATOM      9  C7  UNL d   1       1.780  -0.061   5.407  0.00  0.00     0.045 A 
ENDROOT
TORSDOF 0
ENDMDL
