MODEL 1
REMARK minimizedAffinity 14.8494921
REMARK minimizedRMSD -1
REMARK  0 active torsions:
REMARK  status: ('A' for Active; 'I' for Inactive)
ROOT
ATOM      1  C   UNL d   1      -1.548  -5.201  -1.646  0.00  0.00    -0.002 A 
ATOM      2  C1  UNL d   1      -1.538  -4.373  -2.759  0.00  0.00     0.010 A 
ATOM      3  C2  UNL d   1      -0.688  -3.266  -2.813  0.00  0.00     0.041 A 
ATOM      4  C3  UNL d   1       0.161  -3.004  -1.720  0.00  0.00    -0.075 A 
ATOM      5  S   UNL d   1       1.286  -1.707  -1.564  0.00  0.00     0.015 SA
ATOM      6  C4  UNL d   1       1.780  -2.223  -0.017  0.00  0.00     0.022 A 
ATOM      7  C5  UNL d   1       1.113  -3.355   0.387  0.00  0.00     0.026 A 
ATOM      8  C6  UNL d   1       0.169  -3.824  -0.588  0.00  0.00    -0.082 A 
ATOM      9  C7  UNL d   1      -0.704  -4.938  -0.563  0.00  0.00     0.045 A 
ENDROOT
TORSDOF 0
ENDMDL
