MODEL 1
REMARK minimizedAffinity 8.51039314
REMARK minimizedRMSD -1
REMARK  1 active torsions:
REMARK  status: ('A' for Active; 'I' for Inactive)
REMARK    1  A    between atoms: N_2  and  C1_3 
ROOT
ATOM      1  C1  UNL d   1      -1.302   0.950  -0.359  0.00  0.00     0.143 A 
ATOM      2  C2  UNL d   1      -1.341   0.711   1.019  0.00  0.00    -0.057 A 
ATOM      3  C3  UNL d   1      -1.030   1.719   1.940  0.00  0.00     0.033 A 
ATOM      4  C4  UNL d   1      -0.643   2.980   1.496  0.00  0.00    -0.042 A 
ATOM      5  C5  UNL d   1      -0.573   3.232   0.130  0.00  0.00     0.033 A 
ATOM      6  C6  UNL d   1      -0.892   2.223  -0.784  0.00  0.00    -0.057 A 
ENDROOT
BRANCH   1   7
ATOM      7  N   UNL d   1      -1.505  -0.039  -1.325  0.00  0.00    -0.732 N 
ATOM      8  C   UNL d   1      -0.398  -0.541  -2.109  0.00  0.00     0.284 C 
ATOM      9  H3  UNL d   1      -2.155  -0.757  -1.015  0.00  0.00     0.395 HD
ENDBRANCH   1   7
TORSDOF 1
ENDMDL
