MODEL 1
REMARK minimizedAffinity 4.41877556
REMARK minimizedRMSD -1
REMARK  1 active torsions:
REMARK  status: ('A' for Active; 'I' for Inactive)
REMARK    1  A    between atoms: N_2  and  C1_3 
ROOT
ATOM      1  C1  UNL d   1       0.397   3.871   1.269  0.00  0.00     0.143 A 
ATOM      2  C2  UNL d   1      -0.539   2.901   1.641  0.00  0.00    -0.057 A 
ATOM      3  C3  UNL d   1      -0.384   2.155   2.816  0.00  0.00     0.033 A 
ATOM      4  C4  UNL d   1       0.730   2.347   3.627  0.00  0.00    -0.042 A 
ATOM      5  C5  UNL d   1       1.686   3.288   3.264  0.00  0.00     0.033 A 
ATOM      6  C6  UNL d   1       1.522   4.035   2.093  0.00  0.00    -0.057 A 
ENDROOT
BRANCH   1   7
ATOM      7  N   UNL d   1       0.350   4.576   0.064  0.00  0.00    -0.732 N 
ATOM      8  C   UNL d   1      -0.242   3.981  -1.115  0.00  0.00     0.284 C 
ATOM      9  H3  UNL d   1       0.116   5.557   0.197  0.00  0.00     0.395 HD
ENDBRANCH   1   7
TORSDOF 1
ENDMDL
