MODEL 1
REMARK minimizedAffinity 2.89881158
REMARK minimizedRMSD -1
REMARK  1 active torsions:
REMARK  status: ('A' for Active; 'I' for Inactive)
REMARK    1  A    between atoms: N_2  and  C1_3 
ROOT
ATOM      1  C1  UNL d   1      -0.104   2.517   2.041  0.00  0.00     0.143 A 
ATOM      2  C2  UNL d   1      -0.738   2.240   0.825  0.00  0.00    -0.057 A 
ATOM      3  C3  UNL d   1      -0.317   2.839  -0.368  0.00  0.00     0.033 A 
ATOM      4  C4  UNL d   1       0.733   3.752  -0.361  0.00  0.00    -0.042 A 
ATOM      5  C5  UNL d   1       1.362   4.062   0.839  0.00  0.00     0.033 A 
ATOM      6  C6  UNL d   1       0.940   3.456   2.026  0.00  0.00    -0.057 A 
ENDROOT
BRANCH   1   7
ATOM      7  N   UNL d   1      -0.540   2.029   3.275  0.00  0.00    -0.732 N 
ATOM      8  C   UNL d   1      -0.063   0.758   3.775  0.00  0.00     0.284 C 
ATOM      9  H3  UNL d   1      -0.598   2.759   3.982  0.00  0.00     0.395 HD
ENDBRANCH   1   7
TORSDOF 1
ENDMDL
