MODEL 1
REMARK minimizedAffinity 0.151928127
REMARK minimizedRMSD -1
REMARK  1 active torsions:
REMARK  status: ('A' for Active; 'I' for Inactive)
REMARK    1  A    between atoms: N_2  and  C1_3 
ROOT
ATOM      1  C1  UNL d   1       0.206   4.296   0.133  0.00  0.00     0.143 A 
ATOM      2  C2  UNL d   1      -0.455   3.562   1.124  0.00  0.00    -0.057 A 
ATOM      3  C3  UNL d   1       0.165   3.268   2.345  0.00  0.00     0.033 A 
ATOM      4  C4  UNL d   1       1.472   3.681   2.585  0.00  0.00    -0.042 A 
ATOM      5  C5  UNL d   1       2.156   4.390   1.605  0.00  0.00     0.033 A 
ATOM      6  C6  UNL d   1       1.529   4.686   0.391  0.00  0.00    -0.057 A 
ENDROOT
BRANCH   1   7
ATOM      7  N   UNL d   1      -0.321   4.535  -1.138  0.00  0.00    -0.732 N 
ATOM      8  C   UNL d   1      -0.230   5.849  -1.739  0.00  0.00     0.284 C 
ATOM      9  H3  UNL d   1      -0.140   3.770  -1.784  0.00  0.00     0.395 HD
ENDBRANCH   1   7
TORSDOF 1
ENDMDL
