MODEL 1
REMARK minimizedAffinity 0.313909352
REMARK minimizedRMSD -1
REMARK  1 active torsions:
REMARK  status: ('A' for Active; 'I' for Inactive)
REMARK    1  A    between atoms: N_2  and  C1_3 
ROOT
ATOM      1  C1  UNL d   1      -0.404   3.903  -0.579  0.00  0.00     0.143 A 
ATOM      2  C2  UNL d   1      -0.019   3.288   0.617  0.00  0.00    -0.057 A 
ATOM      3  C3  UNL d   1      -0.035   1.895   0.756  0.00  0.00     0.033 A 
ATOM      4  C4  UNL d   1      -0.467   1.090  -0.294  0.00  0.00    -0.042 A 
ATOM      5  C5  UNL d   1      -0.878   1.681  -1.484  0.00  0.00     0.033 A 
ATOM      6  C6  UNL d   1      -0.853   3.072  -1.618  0.00  0.00    -0.057 A 
ENDROOT
BRANCH   1   7
ATOM      7  N   UNL d   1      -0.503   5.286  -0.745  0.00  0.00    -0.732 N 
ATOM      8  C   UNL d   1      -1.685   5.998  -0.307  0.00  0.00     0.284 C 
ATOM      9  H3  UNL d   1       0.371   5.766  -0.542  0.00  0.00     0.395 HD
ENDBRANCH   1   7
TORSDOF 1
ENDMDL
