MODEL 1
REMARK minimizedAffinity 5.66834068
REMARK minimizedRMSD -1
REMARK  1 active torsions:
REMARK  status: ('A' for Active; 'I' for Inactive)
REMARK    1  A    between atoms: N_2  and  C1_3 
ROOT
ATOM      1  C1  UNL d   1      -0.708   2.721   1.272  0.00  0.00     0.143 A 
ATOM      2  C2  UNL d   1      -0.232   4.031   1.147  0.00  0.00    -0.057 A 
ATOM      3  C3  UNL d   1      -0.141   4.655  -0.103  0.00  0.00     0.033 A 
ATOM      4  C4  UNL d   1      -0.499   3.967  -1.258  0.00  0.00    -0.042 A 
ATOM      5  C5  UNL d   1      -0.952   2.656  -1.161  0.00  0.00     0.033 A 
ATOM      6  C6  UNL d   1      -1.047   2.041   0.091  0.00  0.00    -0.057 A 
ENDROOT
BRANCH   1   7
ATOM      7  N   UNL d   1      -0.730   2.012   2.475  0.00  0.00    -0.732 N 
ATOM      8  C   UNL d   1       0.499   1.529   3.068  0.00  0.00     0.284 C 
ATOM      9  H3  UNL d   1      -1.388   2.403   3.145  0.00  0.00     0.395 HD
ENDBRANCH   1   7
TORSDOF 1
ENDMDL
