MODEL 1
REMARK minimizedAffinity -2.08276129
REMARK minimizedRMSD -1
REMARK  0 active torsions:
REMARK  status: ('A' for Active; 'I' for Inactive)
ROOT
ATOM      1  C4' PXY d   1       1.283  -3.189  -1.856  0.00  0.00     0.077 C 
ATOM      2  C1' PXY d   1      -0.220   2.086  -0.031  0.00  0.00     0.077 C 
ATOM      3  C1  PXY d   1       0.184   0.708  -0.517  0.00  0.00    -0.082 A 
ATOM      4  C2  PXY d   1      -0.696  -0.280  -0.488  0.00  0.00     0.003 A 
ATOM      5  C3  PXY d   1      -0.339  -1.540  -0.893  0.00  0.00     0.003 A 
ATOM      6  C4  PXY d   1       0.917  -1.779  -1.384  0.00  0.00    -0.082 A 
ATOM      7  C5  PXY d   1       1.817  -0.775  -1.427  0.00  0.00     0.003 A 
ATOM      8  C6  PXY d   1       1.447   0.488  -0.972  0.00  0.00     0.003 A 
ENDROOT
TORSDOF 0
ENDMDL
