MODEL 1
REMARK minimizedAffinity -3.50136495
REMARK minimizedRMSD -1
REMARK  0 active torsions:
REMARK  status: ('A' for Active; 'I' for Inactive)
ROOT
ATOM      1  C4' PXY d   1       0.089  -1.162   2.156  0.00  0.00     0.077 C 
ATOM      2  C1' PXY d   1      -1.229   2.818  -1.823  0.00  0.00     0.077 C 
ATOM      3  C1  PXY d   1      -0.879   1.767  -0.789  0.00  0.00    -0.082 A 
ATOM      4  C2  PXY d   1      -1.540   1.730   0.356  0.00  0.00     0.003 A 
ATOM      5  C3  PXY d   1      -1.215   0.806   1.315  0.00  0.00     0.003 A 
ATOM      6  C4  PXY d   1      -0.238  -0.124   1.079  0.00  0.00    -0.082 A 
ATOM      7  C5  PXY d   1       0.434  -0.099  -0.092  0.00  0.00     0.003 A 
ATOM      8  C6  PXY d   1       0.117   0.873  -1.036  0.00  0.00     0.003 A 
ENDROOT
TORSDOF 0
ENDMDL
