MODEL 1
REMARK minimizedAffinity -2.88789654
REMARK minimizedRMSD -1
REMARK  0 active torsions:
REMARK  status: ('A' for Active; 'I' for Inactive)
ROOT
ATOM      1  C4' PXY d   1       1.344  -1.704  -1.303  0.00  0.00     0.077 C 
ATOM      2  C1' PXY d   1      -2.012   1.879   1.749  0.00  0.00     0.077 C 
ATOM      3  C1  PXY d   1      -1.128   0.934   0.960  0.00  0.00    -0.082 A 
ATOM      4  C2  PXY d   1      -0.760   1.256  -0.270  0.00  0.00     0.003 A 
ATOM      5  C3  PXY d   1       0.013   0.398  -1.009  0.00  0.00     0.003 A 
ATOM      6  C4  PXY d   1       0.459  -0.776  -0.465  0.00  0.00    -0.082 A 
ATOM      7  C5  PXY d   1       0.097  -1.107   0.792  0.00  0.00     0.003 A 
ATOM      8  C6  PXY d   1      -0.722  -0.242   1.511  0.00  0.00     0.003 A 
ENDROOT
TORSDOF 0
ENDMDL
