MODEL 1
REMARK minimizedAffinity -5.59251499
REMARK minimizedRMSD -1
REMARK  0 active torsions:
REMARK  status: ('A' for Active; 'I' for Inactive)
ROOT
ATOM      1  C4' PXY d   1      -2.140   3.629   0.797  0.00  0.00     0.077 C 
ATOM      2  C1' PXY d   1       0.693  -1.277  -0.354  0.00  0.00     0.077 C 
ATOM      3  C1  PXY d   1      -0.057   0.004  -0.043  0.00  0.00    -0.082 A 
ATOM      4  C2  PXY d   1      -0.180   0.933  -0.977  0.00  0.00     0.003 A 
ATOM      5  C3  PXY d   1      -0.827   2.110  -0.702  0.00  0.00     0.003 A 
ATOM      6  C4  PXY d   1      -1.400   2.317   0.524  0.00  0.00    -0.082 A 
ATOM      7  C5  PXY d   1      -1.287   1.369   1.479  0.00  0.00     0.003 A 
ATOM      8  C6  PXY d   1      -0.591   0.198   1.193  0.00  0.00     0.003 A 
ENDROOT
TORSDOF 0
ENDMDL
