MODEL 1
REMARK minimizedAffinity -4.24594069
REMARK minimizedRMSD -1
REMARK  0 active torsions:
REMARK  status: ('A' for Active; 'I' for Inactive)
ROOT
ATOM      1  C4' PXY d   1      -1.895   2.448   1.065  0.00  0.00     0.077 C 
ATOM      2  C1' PXY d   1       1.180  -1.906  -1.173  0.00  0.00     0.077 C 
ATOM      3  C1  PXY d   1       0.372  -0.771  -0.574  0.00  0.00    -0.082 A 
ATOM      4  C2  PXY d   1      -0.294   0.049  -1.371  0.00  0.00     0.003 A 
ATOM      5  C3  PXY d   1      -1.003   1.100  -0.849  0.00  0.00     0.003 A 
ATOM      6  C4  PXY d   1      -1.074   1.282   0.506  0.00  0.00    -0.082 A 
ATOM      7  C5  PXY d   1      -0.406   0.444   1.326  0.00  0.00     0.003 A 
ATOM      8  C6  PXY d   1       0.341  -0.592   0.774  0.00  0.00     0.003 A 
ENDROOT
TORSDOF 0
ENDMDL
