MODEL 1
REMARK minimizedAffinity -4.14691162
REMARK minimizedRMSD -1
REMARK  0 active torsions:
REMARK  status: ('A' for Active; 'I' for Inactive)
ROOT
ATOM      1  C4' PXY d   1      -2.360   3.396   1.186  0.00  0.00     0.077 C 
ATOM      2  C1' PXY d   1       0.854  -1.159  -0.341  0.00  0.00     0.077 C 
ATOM      3  C1  PXY d   1       0.008   0.030   0.071  0.00  0.00    -0.082 A 
ATOM      4  C2  PXY d   1      -0.470   0.844  -0.856  0.00  0.00     0.003 A 
ATOM      5  C3  PXY d   1      -1.211   1.942  -0.499  0.00  0.00     0.003 A 
ATOM      6  C4  PXY d   1      -1.509   2.179   0.816  0.00  0.00    -0.082 A 
ATOM      7  C5  PXY d   1      -1.034   1.346   1.767  0.00  0.00     0.003 A 
ATOM      8  C6  PXY d   1      -0.250   0.261   1.387  0.00  0.00     0.003 A 
ENDROOT
TORSDOF 0
ENDMDL
