MODEL 1
REMARK minimizedAffinity -1.24848211
REMARK minimizedRMSD -1
REMARK  0 active torsions:
REMARK  status: ('A' for Active; 'I' for Inactive)
ROOT
ATOM      1  C4' PXY d   1       1.703  -1.762  -1.440  0.00  0.00     0.077 C 
ATOM      2  C1' PXY d   1      -1.594   1.602   1.911  0.00  0.00     0.077 C 
ATOM      3  C1  PXY d   1      -0.735   0.725   1.022  0.00  0.00    -0.082 A 
ATOM      4  C2  PXY d   1      -0.198  -0.380   1.514  0.00  0.00     0.003 A 
ATOM      5  C3  PXY d   1       0.607  -1.168   0.733  0.00  0.00     0.003 A 
ATOM      6  C4  PXY d   1       0.821  -0.851  -0.582  0.00  0.00    -0.082 A 
ATOM      7  C5  PXY d   1       0.268   0.268  -1.095  0.00  0.00     0.003 A 
ATOM      8  C6  PXY d   1      -0.512   1.077  -0.274  0.00  0.00     0.003 A 
ENDROOT
TORSDOF 0
ENDMDL
