MODEL 1
REMARK minimizedAffinity -3.91940904
REMARK minimizedRMSD -1
REMARK  0 active torsions:
REMARK  status: ('A' for Active; 'I' for Inactive)
ROOT
ATOM      1  C4' PXY d   1      -2.033   2.177   1.565  0.00  0.00     0.077 C 
ATOM      2  C1' PXY d   1       1.414  -1.767  -0.879  0.00  0.00     0.077 C 
ATOM      3  C1  PXY d   1       0.506  -0.742  -0.230  0.00  0.00    -0.082 A 
ATOM      4  C2  PXY d   1       0.153   0.340  -0.905  0.00  0.00     0.003 A 
ATOM      5  C3  PXY d   1      -0.642   1.293  -0.322  0.00  0.00     0.003 A 
ATOM      6  C4  PXY d   1      -1.125   1.111   0.946  0.00  0.00    -0.082 A 
ATOM      7  C5  PXY d   1      -0.779   0.004   1.638  0.00  0.00     0.003 A 
ATOM      8  C6  PXY d   1       0.063  -0.931   1.043  0.00  0.00     0.003 A 
ENDROOT
TORSDOF 0
ENDMDL
