MODEL 1
REMARK minimizedAffinity -5.37872076
REMARK minimizedRMSD -1
REMARK  0 active torsions:
REMARK  status: ('A' for Active; 'I' for Inactive)
ROOT
ATOM      1  C4' PXY d   1       1.487  -2.014  -0.487  0.00  0.00     0.077 C 
ATOM      2  C1' PXY d   1      -1.902   2.291   1.357  0.00  0.00     0.077 C 
ATOM      3  C1  PXY d   1      -1.008   1.160   0.886  0.00  0.00    -0.082 A 
ATOM      4  C2  PXY d   1      -0.656   1.093  -0.388  0.00  0.00     0.003 A 
ATOM      5  C3  PXY d   1       0.125   0.060  -0.838  0.00  0.00     0.003 A 
ATOM      6  C4  PXY d   1       0.594  -0.885   0.035  0.00  0.00    -0.082 A 
ATOM      7  C5  PXY d   1       0.247  -0.818   1.338  0.00  0.00     0.003 A 
ATOM      8  C6  PXY d   1      -0.580   0.216   1.767  0.00  0.00     0.003 A 
ENDROOT
TORSDOF 0
ENDMDL
