MODEL 1
REMARK minimizedAffinity -0.733177066
REMARK minimizedRMSD -1
REMARK  0 active torsions:
REMARK  status: ('A' for Active; 'I' for Inactive)
ROOT
ATOM      1  C4' PXY d   1       1.222  -1.115  -1.531  0.00  0.00     0.077 C 
ATOM      2  C1' PXY d   1      -2.145   2.116   1.881  0.00  0.00     0.077 C 
ATOM      3  C1  PXY d   1      -1.266   1.276   0.976  0.00  0.00    -0.082 A 
ATOM      4  C2  PXY d   1      -0.900   0.064   1.361  0.00  0.00     0.003 A 
ATOM      5  C3  PXY d   1      -0.079  -0.697   0.569  0.00  0.00     0.003 A 
ATOM      6  C4  PXY d   1       0.328  -0.235  -0.654  0.00  0.00    -0.082 A 
ATOM      7  C5  PXY d   1      -0.050   0.996  -1.059  0.00  0.00     0.003 A 
ATOM      8  C6  PXY d   1      -0.850   1.770  -0.222  0.00  0.00     0.003 A 
ENDROOT
TORSDOF 0
ENDMDL
