MODEL 1
REMARK minimizedAffinity -3.34006453
REMARK minimizedRMSD -1
REMARK  0 active torsions:
REMARK  status: ('A' for Active; 'I' for Inactive)
ROOT
ATOM      1  C4' PXY d   1       1.636  -0.720  -1.525  0.00  0.00     0.077 C 
ATOM      2  C1' PXY d   1      -1.554   2.732   1.840  0.00  0.00     0.077 C 
ATOM      3  C1  PXY d   1      -0.720   1.834   0.947  0.00  0.00    -0.082 A 
ATOM      4  C2  PXY d   1      -0.563   0.559   1.265  0.00  0.00     0.003 A 
ATOM      5  C3  PXY d   1       0.215  -0.258   0.486  0.00  0.00     0.003 A 
ATOM      6  C4  PXY d   1       0.794   0.221  -0.659  0.00  0.00    -0.082 A 
ATOM      7  C5  PXY d   1       0.630   1.518  -0.995  0.00  0.00     0.003 A 
ATOM      8  C6  PXY d   1      -0.129   2.341  -0.169  0.00  0.00     0.003 A 
ENDROOT
TORSDOF 0
ENDMDL
