MODEL 1
REMARK minimizedAffinity -4.49958277
REMARK minimizedRMSD -1
REMARK  0 active torsions:
REMARK  status: ('A' for Active; 'I' for Inactive)
ROOT
ATOM      1  C4' PXY d   1      -1.706   3.611   0.899  0.00  0.00     0.077 C 
ATOM      2  C1' PXY d   1       1.086  -1.126  -0.881  0.00  0.00     0.077 C 
ATOM      3  C1  PXY d   1       0.363   0.124  -0.420  0.00  0.00    -0.082 A 
ATOM      4  C2  PXY d   1      -0.419   0.071   0.646  0.00  0.00     0.003 A 
ATOM      5  C3  PXY d   1      -1.105   1.184   1.058  0.00  0.00     0.003 A 
ATOM      6  C4  PXY d   1      -0.949   2.376   0.403  0.00  0.00    -0.082 A 
ATOM      7  C5  PXY d   1      -0.146   2.440  -0.680  0.00  0.00     0.003 A 
ATOM      8  C6  PXY d   1       0.510   1.289  -1.106  0.00  0.00     0.003 A 
ENDROOT
TORSDOF 0
ENDMDL
