MODEL 1
REMARK minimizedAffinity -5.38331318
REMARK minimizedRMSD -1
REMARK  0 active torsions:
REMARK  status: ('A' for Active; 'I' for Inactive)
ROOT
ATOM      1  C4' PXY d   1       1.480  -1.178  -0.563  0.00  0.00     0.077 C 
ATOM      2  C1' PXY d   1      -1.904   3.116   1.314  0.00  0.00     0.077 C 
ATOM      3  C1  PXY d   1      -1.015   1.986   0.834  0.00  0.00    -0.082 A 
ATOM      4  C2  PXY d   1      -0.359   2.109  -0.308  0.00  0.00     0.003 A 
ATOM      5  C3  PXY d   1       0.424   1.084  -0.773  0.00  0.00     0.003 A 
ATOM      6  C4  PXY d   1       0.579  -0.059  -0.035  0.00  0.00    -0.082 A 
ATOM      7  C5  PXY d   1      -0.079  -0.188   1.137  0.00  0.00     0.003 A 
ATOM      8  C6  PXY d   1      -0.902   0.847   1.571  0.00  0.00     0.003 A 
ENDROOT
TORSDOF 0
ENDMDL
