MODEL 1
REMARK minimizedAffinity -3.56906462
REMARK minimizedRMSD -1
REMARK  0 active torsions:
REMARK  status: ('A' for Active; 'I' for Inactive)
ROOT
ATOM      1  C4' PXY d   1       1.371  -1.948  -1.314  0.00  0.00     0.077 C 
ATOM      2  C1' PXY d   1      -1.305   2.155   1.754  0.00  0.00     0.077 C 
ATOM      3  C1  PXY d   1      -0.608   1.084   0.939  0.00  0.00    -0.082 A 
ATOM      4  C2  PXY d   1      -0.326  -0.083   1.495  0.00  0.00     0.003 A 
ATOM      5  C3  PXY d   1       0.332  -1.050   0.782  0.00  0.00     0.003 A 
ATOM      6  C4  PXY d   1       0.659  -0.841  -0.532  0.00  0.00    -0.082 A 
ATOM      7  C5  PXY d   1       0.366   0.343  -1.110  0.00  0.00     0.003 A 
ATOM      8  C6  PXY d   1      -0.266   1.327  -0.356  0.00  0.00     0.003 A 
ENDROOT
TORSDOF 0
ENDMDL
