MODEL 1
REMARK minimizedAffinity -4.83591747
REMARK minimizedRMSD -1
REMARK  0 active torsions:
REMARK  status: ('A' for Active; 'I' for Inactive)
ROOT
ATOM      1  C4' PXY d   1       1.182  -1.571  -0.771  0.00  0.00     0.077 C 
ATOM      2  C1' PXY d   1      -1.906   2.902   1.197  0.00  0.00     0.077 C 
ATOM      3  C1  PXY d   1      -1.095   1.724   0.693  0.00  0.00    -0.082 A 
ATOM      4  C2  PXY d   1      -0.460   1.815  -0.464  0.00  0.00     0.003 A 
ATOM      5  C3  PXY d   1       0.252   0.749  -0.950  0.00  0.00     0.003 A 
ATOM      6  C4  PXY d   1       0.359  -0.404  -0.219  0.00  0.00    -0.082 A 
ATOM      7  C5  PXY d   1      -0.277  -0.500   0.968  0.00  0.00     0.003 A 
ATOM      8  C6  PXY d   1      -1.029   0.579   1.425  0.00  0.00     0.003 A 
ENDROOT
TORSDOF 0
ENDMDL
