MODEL 1
REMARK minimizedAffinity -3.86931539
REMARK minimizedRMSD -1
REMARK  0 active torsions:
REMARK  status: ('A' for Active; 'I' for Inactive)
ROOT
ATOM      1  C4' PXY d   1      -0.070   4.276   0.311  0.00  0.00     0.077 C 
ATOM      2  C1' PXY d   1       0.626  -1.395  -0.566  0.00  0.00     0.077 C 
ATOM      3  C1  PXY d   1       0.433   0.090  -0.329  0.00  0.00    -0.082 A 
ATOM      4  C2  PXY d   1       0.949   0.961  -1.181  0.00  0.00     0.003 A 
ATOM      5  C3  PXY d   1       0.811   2.308  -0.964  0.00  0.00     0.003 A 
ATOM      6  C4  PXY d   1       0.092   2.767   0.106  0.00  0.00    -0.082 A 
ATOM      7  C5  PXY d   1      -0.447   1.885   0.974  0.00  0.00     0.003 A 
ATOM      8  C6  PXY d   1      -0.260   0.522   0.759  0.00  0.00     0.003 A 
ENDROOT
TORSDOF 0
ENDMDL
