MODEL 1
REMARK minimizedAffinity -3.14562631
REMARK minimizedRMSD -1
REMARK  0 active torsions:
REMARK  status: ('A' for Active; 'I' for Inactive)
ROOT
ATOM      1  C4' PXY d   1       1.544  -1.005  -1.108  0.00  0.00     0.077 C 
ATOM      2  C1' PXY d   1      -2.501   1.985   1.741  0.00  0.00     0.077 C 
ATOM      3  C1  PXY d   1      -1.435   1.198   1.005  0.00  0.00    -0.082 A 
ATOM      4  C2  PXY d   1      -1.163   1.486  -0.258  0.00  0.00     0.003 A 
ATOM      5  C3  PXY d   1      -0.225   0.763  -0.948  0.00  0.00     0.003 A 
ATOM      6  C4  PXY d   1       0.481  -0.230  -0.323  0.00  0.00    -0.082 A 
ATOM      7  C5  PXY d   1       0.218  -0.523   0.968  0.00  0.00     0.003 A 
ATOM      8  C6  PXY d   1      -0.768   0.196   1.639  0.00  0.00     0.003 A 
ENDROOT
TORSDOF 0
ENDMDL
