MODEL 1
REMARK minimizedAffinity -4.46186638
REMARK minimizedRMSD -1
REMARK  0 active torsions:
REMARK  status: ('A' for Active; 'I' for Inactive)
ROOT
ATOM      1  C4' PXY d   1      -2.258   3.123   1.137  0.00  0.00     0.077 C 
ATOM      2  C1' PXY d   1       1.380  -0.830  -0.998  0.00  0.00     0.077 C 
ATOM      3  C1  PXY d   1       0.433   0.216  -0.444  0.00  0.00    -0.082 A 
ATOM      4  C2  PXY d   1      -0.305  -0.067   0.617  0.00  0.00     0.003 A 
ATOM      5  C3  PXY d   1      -1.190   0.857   1.112  0.00  0.00     0.003 A 
ATOM      6  C4  PXY d   1      -1.281   2.101   0.548  0.00  0.00    -0.082 A 
ATOM      7  C5  PXY d   1      -0.523   2.401  -0.528  0.00  0.00     0.003 A 
ATOM      8  C6  PXY d   1       0.339   1.436  -1.040  0.00  0.00     0.003 A 
ENDROOT
TORSDOF 0
ENDMDL
