MODEL 1
REMARK minimizedAffinity -4.46291733
REMARK minimizedRMSD -1
REMARK  0 active torsions:
REMARK  status: ('A' for Active; 'I' for Inactive)
ROOT
ATOM      1  C4' PXY d   1      -0.514   3.661  -1.111  0.00  0.00     0.077 C 
ATOM      2  C1' PXY d   1      -0.693  -1.021   2.275  0.00  0.00     0.077 C 
ATOM      3  C1  PXY d   1      -0.635   0.203   1.382  0.00  0.00    -0.082 A 
ATOM      4  C2  PXY d   1      -1.314   1.288   1.715  0.00  0.00     0.003 A 
ATOM      5  C3  PXY d   1      -1.298   2.393   0.902  0.00  0.00     0.003 A 
ATOM      6  C4  PXY d   1      -0.536   2.405  -0.235  0.00  0.00    -0.082 A 
ATOM      7  C5  PXY d   1       0.169   1.305  -0.576  0.00  0.00     0.003 A 
ATOM      8  C6  PXY d   1       0.106   0.180   0.241  0.00  0.00     0.003 A 
ENDROOT
TORSDOF 0
ENDMDL
