MODEL 1
REMARK minimizedAffinity -4.77517891
REMARK minimizedRMSD -1
REMARK  0 active torsions:
REMARK  status: ('A' for Active; 'I' for Inactive)
ROOT
ATOM      1  C4' PXY d   1       1.005  -0.824  -1.043  0.00  0.00     0.077 C 
ATOM      2  C1' PXY d   1      -2.348   2.964   1.754  0.00  0.00     0.077 C 
ATOM      3  C1  PXY d   1      -1.470   1.977   1.009  0.00  0.00    -0.082 A 
ATOM      4  C2  PXY d   1      -1.363   0.735   1.450  0.00  0.00     0.003 A 
ATOM      5  C3  PXY d   1      -0.548  -0.162   0.808  0.00  0.00     0.003 A 
ATOM      6  C4  PXY d   1       0.122   0.203  -0.329  0.00  0.00    -0.082 A 
ATOM      7  C5  PXY d   1       0.010   1.466  -0.792  0.00  0.00     0.003 A 
ATOM      8  C6  PXY d   1      -0.790   2.372  -0.101  0.00  0.00     0.003 A 
ENDROOT
TORSDOF 0
ENDMDL
