MODEL 1
REMARK minimizedAffinity -1.36927354
REMARK minimizedRMSD -1
REMARK  0 active torsions:
REMARK  status: ('A' for Active; 'I' for Inactive)
ROOT
ATOM      1  C   UNL d   1       5.992  -0.707   1.501  0.00  0.00    -0.002 A 
ATOM      2  C1  UNL d   1       5.978  -1.965   2.086  0.00  0.00     0.010 A 
ATOM      3  C2  UNL d   1       5.973  -2.103   3.475  0.00  0.00     0.041 A 
ATOM      4  C3  UNL d   1       5.980  -0.944   4.275  0.00  0.00    -0.075 A 
ATOM      5  S   UNL d   1       5.975  -0.869   5.998  0.00  0.00     0.015 SA
ATOM      6  C4  UNL d   1       5.991   0.835   5.998  0.00  0.00     0.022 A 
ATOM      7  C5  UNL d   1       6.000   1.351   4.724  0.00  0.00     0.026 A 
ATOM      8  C6  UNL d   1       5.994   0.334   3.710  0.00  0.00    -0.082 A 
ATOM      9  C7  UNL d   1       5.999   0.441   2.298  0.00  0.00     0.045 A 
ENDROOT
TORSDOF 0
ENDMDL
