MODEL 1
REMARK minimizedAffinity 15.0351706
REMARK minimizedRMSD -1
REMARK  0 active torsions:
REMARK  status: ('A' for Active; 'I' for Inactive)
ROOT
ATOM      1  C   UNL d   1      -0.051   1.153  -1.382  0.00  0.00    -0.002 A 
ATOM      2  C1  UNL d   1       0.790   0.531  -2.294  0.00  0.00     0.010 A 
ATOM      3  C2  UNL d   1       0.755  -0.855  -2.462  0.00  0.00     0.041 A 
ATOM      4  C3  UNL d   1      -0.149  -1.612  -1.691  0.00  0.00    -0.075 A 
ATOM      5  S   UNL d   1      -0.368  -3.322  -1.728  0.00  0.00     0.015 SA
ATOM      6  C4  UNL d   1      -1.583  -3.267  -0.534  0.00  0.00     0.022 A 
ATOM      7  C5  UNL d   1      -1.828  -1.984  -0.106  0.00  0.00     0.026 A 
ATOM      8  C6  UNL d   1      -1.006  -1.009  -0.767  0.00  0.00    -0.082 A 
ATOM      9  C7  UNL d   1      -0.946   0.398  -0.619  0.00  0.00     0.045 A 
ENDROOT
TORSDOF 0
ENDMDL
