MODEL 1
REMARK minimizedAffinity -5.05739069
REMARK minimizedRMSD -1
REMARK  0 active torsions:
REMARK  status: ('A' for Active; 'I' for Inactive)
ROOT
ATOM      1  C   UNL d   1       5.641  -1.873   3.396  0.00  0.00    -0.002 A 
ATOM      2  C1  UNL d   1       5.650  -1.930   4.783  0.00  0.00     0.010 A 
ATOM      3  C2  UNL d   1       5.747  -0.762   5.541  0.00  0.00     0.041 A 
ATOM      4  C3  UNL d   1       5.832   0.477   4.877  0.00  0.00    -0.075 A 
ATOM      5  S   UNL d   1       5.957   2.038   5.599  0.00  0.00     0.015 SA
ATOM      6  C4  UNL d   1       6.000   2.817   4.084  0.00  0.00     0.022 A 
ATOM      7  C5  UNL d   1       5.922   1.924   3.042  0.00  0.00     0.026 A 
ATOM      8  C6  UNL d   1       5.824   0.561   3.481  0.00  0.00    -0.082 A 
ATOM      9  C7  UNL d   1       5.726  -0.642   2.740  0.00  0.00     0.045 A 
ENDROOT
TORSDOF 0
ENDMDL
