MODEL 1
REMARK minimizedAffinity 2.35356021
REMARK minimizedRMSD -1
REMARK  0 active torsions:
REMARK  status: ('A' for Active; 'I' for Inactive)
ROOT
ATOM      1  C   UNL d   1       3.752   1.263  -1.296  0.00  0.00    -0.002 A 
ATOM      2  C1  UNL d   1       4.161   1.374  -2.617  0.00  0.00     0.010 A 
ATOM      3  C2  UNL d   1       4.239   2.624  -3.234  0.00  0.00     0.041 A 
ATOM      4  C3  UNL d   1       3.898   3.772  -2.493  0.00  0.00    -0.075 A 
ATOM      5  S   UNL d   1       3.919   5.407  -3.040  0.00  0.00     0.015 SA
ATOM      6  C4  UNL d   1       3.388   5.997  -1.533  0.00  0.00     0.022 A 
ATOM      7  C5  UNL d   1       3.193   4.986  -0.622  0.00  0.00     0.026 A 
ATOM      8  C6  UNL d   1       3.485   3.687  -1.161  0.00  0.00    -0.082 A 
ATOM      9  C7  UNL d   1       3.415   2.405  -0.564  0.00  0.00     0.045 A 
ENDROOT
TORSDOF 0
ENDMDL
