MODEL 1
REMARK minimizedAffinity -0.570364475
REMARK minimizedRMSD -1
REMARK  0 active torsions:
REMARK  status: ('A' for Active; 'I' for Inactive)
ROOT
ATOM      1  C   UNL d   1       5.473  -0.494   5.408  0.00  0.00    -0.002 A 
ATOM      2  C1  UNL d   1       5.302  -0.597   4.034  0.00  0.00     0.010 A 
ATOM      3  C2  UNL d   1       5.360   0.539   3.224  0.00  0.00     0.041 A 
ATOM      4  C3  UNL d   1       5.597   1.792   3.823  0.00  0.00    -0.075 A 
ATOM      5  S   UNL d   1       5.711   3.318   3.029  0.00  0.00     0.015 SA
ATOM      6  C4  UNL d   1       5.990   4.143   4.494  0.00  0.00     0.022 A 
ATOM      7  C5  UNL d   1       6.000   3.290   5.572  0.00  0.00     0.026 A 
ATOM      8  C6  UNL d   1       5.774   1.921   5.203  0.00  0.00    -0.082 A 
ATOM      9  C7  UNL d   1       5.709   0.751   5.998  0.00  0.00     0.045 A 
ENDROOT
TORSDOF 0
ENDMDL
