MODEL 1
REMARK minimizedAffinity 1.0332613
REMARK minimizedRMSD -1
REMARK  0 active torsions:
REMARK  status: ('A' for Active; 'I' for Inactive)
ROOT
ATOM      1  C   UNL d   1       5.998  -0.015   3.775  0.00  0.00    -0.002 A 
ATOM      2  C1  UNL d   1       5.999   0.142   5.154  0.00  0.00     0.010 A 
ATOM      3  C2  UNL d   1       6.000   1.417   5.723  0.00  0.00     0.041 A 
ATOM      4  C3  UNL d   1       5.999   2.542   4.875  0.00  0.00    -0.075 A 
ATOM      5  S   UNL d   1       5.999   4.200   5.348  0.00  0.00     0.015 SA
ATOM      6  C4  UNL d   1       5.998   4.739   3.731  0.00  0.00     0.022 A 
ATOM      7  C5  UNL d   1       5.998   3.693   2.839  0.00  0.00     0.026 A 
ATOM      8  C6  UNL d   1       5.998   2.409   3.484  0.00  0.00    -0.082 A 
ATOM      9  C7  UNL d   1       5.998   1.103   2.937  0.00  0.00     0.045 A 
ENDROOT
TORSDOF 0
ENDMDL
