MODEL 1
REMARK minimizedAffinity -1.32242203
REMARK minimizedRMSD -1
REMARK  0 active torsions:
REMARK  status: ('A' for Active; 'I' for Inactive)
ROOT
ATOM      1  C   UNL d   1       5.858   4.860   2.514  0.00  0.00    -0.002 A 
ATOM      2  C1  UNL d   1       6.000   5.343   3.807  0.00  0.00     0.010 A 
ATOM      3  C2  UNL d   1       6.000   4.470   4.896  0.00  0.00     0.041 A 
ATOM      4  C3  UNL d   1       5.855   3.088   4.661  0.00  0.00    -0.075 A 
ATOM      5  S   UNL d   1       5.828   1.831   5.841  0.00  0.00     0.015 SA
ATOM      6  C4  UNL d   1       5.628   0.622   4.656  0.00  0.00     0.022 A 
ATOM      7  C5  UNL d   1       5.581   1.147   3.386  0.00  0.00     0.026 A 
ATOM      8  C6  UNL d   1       5.712   2.577   3.368  0.00  0.00    -0.082 A 
ATOM      9  C7  UNL d   1       5.715   3.488   2.285  0.00  0.00     0.045 A 
ENDROOT
TORSDOF 0
ENDMDL
