MODEL 1
REMARK minimizedAffinity -3.90701246
REMARK minimizedRMSD -1
REMARK  0 active torsions:
REMARK  status: ('A' for Active; 'I' for Inactive)
ROOT
ATOM      1  C   UNL d   1       5.984   5.269   2.688  0.00  0.00    -0.002 A 
ATOM      2  C1  UNL d   1       6.000   5.562   4.044  0.00  0.00     0.010 A 
ATOM      3  C2  UNL d   1       5.999   4.537   4.993  0.00  0.00     0.041 A 
ATOM      4  C3  UNL d   1       5.983   3.200   4.550  0.00  0.00    -0.075 A 
ATOM      5  S   UNL d   1       5.979   1.781   5.530  0.00  0.00     0.015 SA
ATOM      6  C4  UNL d   1       5.957   0.752   4.171  0.00  0.00     0.022 A 
ATOM      7  C5  UNL d   1       5.952   1.457   2.991  0.00  0.00     0.026 A 
ATOM      8  C6  UNL d   1       5.967   2.879   3.190  0.00  0.00    -0.082 A 
ATOM      9  C7  UNL d   1       5.968   3.941   2.253  0.00  0.00     0.045 A 
ENDROOT
TORSDOF 0
ENDMDL
