MODEL 1
REMARK minimizedAffinity 2.41740775
REMARK minimizedRMSD -1
REMARK  0 active torsions:
REMARK  status: ('A' for Active; 'I' for Inactive)
ROOT
ATOM      1  C   UNL d   1       5.998   4.463   3.861  0.00  0.00    -0.002 A 
ATOM      2  C1  UNL d   1       5.999   4.496   5.249  0.00  0.00     0.010 A 
ATOM      3  C2  UNL d   1       5.998   3.310   5.987  0.00  0.00     0.041 A 
ATOM      4  C3  UNL d   1       5.997   2.080   5.300  0.00  0.00    -0.075 A 
ATOM      5  S   UNL d   1       5.997   0.502   5.995  0.00  0.00     0.015 SA
ATOM      6  C4  UNL d   1       5.996  -0.252   4.467  0.00  0.00     0.022 A 
ATOM      7  C5  UNL d   1       5.996   0.663   3.441  0.00  0.00     0.026 A 
ATOM      8  C6  UNL d   1       5.997   2.022   3.904  0.00  0.00    -0.082 A 
ATOM      9  C7  UNL d   1       5.997   3.241   3.184  0.00  0.00     0.045 A 
ENDROOT
TORSDOF 0
ENDMDL
