MODEL 1
REMARK minimizedAffinity 0.110772483
REMARK minimizedRMSD -1
REMARK  0 active torsions:
REMARK  status: ('A' for Active; 'I' for Inactive)
ROOT
ATOM      1  C   UNL d   1       5.988   0.472   3.949  0.00  0.00    -0.002 A 
ATOM      2  C1  UNL d   1       5.981   0.921   5.262  0.00  0.00     0.010 A 
ATOM      3  C2  UNL d   1       5.983   2.288   5.544  0.00  0.00     0.041 A 
ATOM      4  C3  UNL d   1       5.988   3.205   4.475  0.00  0.00    -0.075 A 
ATOM      5  S   UNL d   1       5.990   4.926   4.581  0.00  0.00     0.015 SA
ATOM      6  C4  UNL d   1       5.997   5.105   2.886  0.00  0.00     0.022 A 
ATOM      7  C5  UNL d   1       5.999   3.892   2.240  0.00  0.00     0.026 A 
ATOM      8  C6  UNL d   1       5.993   2.777   3.144  0.00  0.00    -0.082 A 
ATOM      9  C7  UNL d   1       5.993   1.384   2.891  0.00  0.00     0.045 A 
ENDROOT
TORSDOF 0
ENDMDL
