MODEL 1
REMARK minimizedAffinity -4.4319315
REMARK minimizedRMSD -1
REMARK  0 active torsions:
REMARK  status: ('A' for Active; 'I' for Inactive)
ROOT
ATOM      1  C   UNL d   1       5.398  -2.847   3.543  0.00  0.00    -0.002 A 
ATOM      2  C1  UNL d   1       5.243  -2.977   4.916  0.00  0.00     0.010 A 
ATOM      3  C2  UNL d   1       5.330  -1.861   5.750  0.00  0.00     0.041 A 
ATOM      4  C3  UNL d   1       5.578  -0.598   5.175  0.00  0.00    -0.075 A 
ATOM      5  S   UNL d   1       5.724   0.908   6.000  0.00  0.00     0.015 SA
ATOM      6  C4  UNL d   1       5.997   1.761   4.549  0.00  0.00     0.022 A 
ATOM      7  C5  UNL d   1       5.979   0.932   3.453  0.00  0.00     0.026 A 
ATOM      8  C6  UNL d   1       5.737  -0.442   3.795  0.00  0.00    -0.082 A 
ATOM      9  C7  UNL d   1       5.644  -1.593   2.977  0.00  0.00     0.045 A 
ENDROOT
TORSDOF 0
ENDMDL
