MODEL 1
REMARK minimizedAffinity -4.29025412
REMARK minimizedRMSD -1
REMARK  0 active torsions:
REMARK  status: ('A' for Active; 'I' for Inactive)
ROOT
ATOM      1  C   UNL d   1       5.395  -0.760   4.850  0.00  0.00    -0.002 A 
ATOM      2  C1  UNL d   1       5.252   0.004   5.999  0.00  0.00     0.010 A 
ATOM      3  C2  UNL d   1       5.346   1.396   5.943  0.00  0.00     0.041 A 
ATOM      4  C3  UNL d   1       5.587   2.013   4.700  0.00  0.00    -0.075 A 
ATOM      5  S   UNL d   1       5.740   3.702   4.390  0.00  0.00     0.015 SA
ATOM      6  C4  UNL d   1       5.998   3.450   2.725  0.00  0.00     0.022 A 
ATOM      7  C5  UNL d   1       5.972   2.115   2.396  0.00  0.00     0.026 A 
ATOM      8  C6  UNL d   1       5.734   1.265   3.528  0.00  0.00    -0.082 A 
ATOM      9  C7  UNL d   1       5.634  -0.144   3.618  0.00  0.00     0.045 A 
ENDROOT
TORSDOF 0
ENDMDL
