MODEL 1
REMARK minimizedAffinity -0.922972441
REMARK minimizedRMSD -1
REMARK  0 active torsions:
REMARK  status: ('A' for Active; 'I' for Inactive)
ROOT
ATOM      1  C   UNL d   1       5.846   5.617   2.044  0.00  0.00    -0.002 A 
ATOM      2  C1  UNL d   1       5.974   5.969   3.380  0.00  0.00     0.010 A 
ATOM      3  C2  UNL d   1       5.999   4.989   4.374  0.00  0.00     0.041 A 
ATOM      4  C3  UNL d   1       5.894   3.635   4.000  0.00  0.00    -0.075 A 
ATOM      5  S   UNL d   1       5.902   2.264   5.044  0.00  0.00     0.015 SA
ATOM      6  C4  UNL d   1       5.736   1.177   3.742  0.00  0.00     0.022 A 
ATOM      7  C5  UNL d   1       5.674   1.828   2.532  0.00  0.00     0.026 A 
ATOM      8  C6  UNL d   1       5.765   3.255   2.661  0.00  0.00    -0.082 A 
ATOM      9  C7  UNL d   1       5.742   4.272   1.676  0.00  0.00     0.045 A 
ENDROOT
TORSDOF 0
ENDMDL
