MODEL 1
REMARK minimizedAffinity -1.06311238
REMARK minimizedRMSD -1
REMARK  0 active torsions:
REMARK  status: ('A' for Active; 'I' for Inactive)
ROOT
ATOM      1  C   UNL d   1       5.548   0.956   3.017  0.00  0.00    -0.002 A 
ATOM      2  C1  UNL d   1       4.749   1.172   4.132  0.00  0.00     0.010 A 
ATOM      3  C2  UNL d   1       4.389   2.467   4.507  0.00  0.00     0.041 A 
ATOM      4  C3  UNL d   1       4.846   3.553   3.735  0.00  0.00    -0.075 A 
ATOM      5  S   UNL d   1       4.530   5.226   4.005  0.00  0.00     0.015 SA
ATOM      6  C4  UNL d   1       5.447   5.695   2.646  0.00  0.00     0.022 A 
ATOM      7  C5  UNL d   1       5.988   4.614   1.992  0.00  0.00     0.026 A 
ATOM      8  C6  UNL d   1       5.650   3.361   2.608  0.00  0.00    -0.082 A 
ATOM      9  C7  UNL d   1       6.000   2.036   2.254  0.00  0.00     0.045 A 
ENDROOT
TORSDOF 0
ENDMDL
