MODEL 1
REMARK minimizedAffinity 14.3088808
REMARK minimizedRMSD -1
REMARK  0 active torsions:
REMARK  status: ('A' for Active; 'I' for Inactive)
ROOT
ATOM      1  C   UNL d   1       2.376   1.203  -5.980  0.00  0.00    -0.002 A 
ATOM      2  C1  UNL d   1       0.995   1.345  -5.987  0.00  0.00     0.010 A 
ATOM      3  C2  UNL d   1       0.412   2.614  -5.981  0.00  0.00     0.041 A 
ATOM      4  C3  UNL d   1       1.247   3.748  -5.970  0.00  0.00    -0.075 A 
ATOM      5  S   UNL d   1       0.755   5.401  -5.963  0.00  0.00     0.015 SA
ATOM      6  C4  UNL d   1       2.366   5.957  -5.951  0.00  0.00     0.022 A 
ATOM      7  C5  UNL d   1       3.270   4.921  -5.953  0.00  0.00     0.026 A 
ATOM      8  C6  UNL d   1       2.640   3.631  -5.964  0.00  0.00    -0.082 A 
ATOM      9  C7  UNL d   1       3.201   2.331  -5.970  0.00  0.00     0.045 A 
ENDROOT
TORSDOF 0
ENDMDL
