MODEL 1
REMARK minimizedAffinity -3.61049128
REMARK minimizedRMSD -1
REMARK  0 active torsions:
REMARK  status: ('A' for Active; 'I' for Inactive)
ROOT
ATOM      1  C   UNL d   1       0.644   3.390  -6.000  0.00  0.00    -0.002 A 
ATOM      2  C1  UNL d   1       0.824   4.766  -5.994  0.00  0.00     0.010 A 
ATOM      3  C2  UNL d   1      -0.275   5.626  -5.991  0.00  0.00     0.041 A 
ATOM      4  C3  UNL d   1      -1.572   5.076  -5.991  0.00  0.00    -0.075 A 
ATOM      5  S   UNL d   1      -3.066   5.935  -5.986  0.00  0.00     0.015 SA
ATOM      6  C4  UNL d   1      -3.980   4.496  -5.990  0.00  0.00     0.022 A 
ATOM      7  C5  UNL d   1      -3.180   3.378  -5.995  0.00  0.00     0.026 A 
ATOM      8  C6  UNL d   1      -1.779   3.693  -5.995  0.00  0.00    -0.082 A 
ATOM      9  C7  UNL d   1      -0.644   2.847  -6.000  0.00  0.00     0.045 A 
ENDROOT
TORSDOF 0
ENDMDL
