MODEL 1
REMARK minimizedAffinity -2.19698644
REMARK minimizedRMSD -1
REMARK  0 active torsions:
REMARK  status: ('A' for Active; 'I' for Inactive)
ROOT
ATOM      1  C   UNL d   1       0.577   3.936  -5.994  0.00  0.00    -0.002 A 
ATOM      2  C1  UNL d   1       0.519   5.323  -5.990  0.00  0.00     0.010 A 
ATOM      3  C2  UNL d   1      -0.711   5.982  -5.989  0.00  0.00     0.041 A 
ATOM      4  C3  UNL d   1      -1.894   5.217  -5.990  0.00  0.00    -0.075 A 
ATOM      5  S   UNL d   1      -3.514   5.808  -5.989  0.00  0.00     0.015 SA
ATOM      6  C4  UNL d   1      -4.167   4.234  -5.992  0.00  0.00     0.022 A 
ATOM      7  C5  UNL d   1      -3.188   3.269  -5.995  0.00  0.00     0.026 A 
ATOM      8  C6  UNL d   1      -1.862   3.820  -5.994  0.00  0.00    -0.082 A 
ATOM      9  C7  UNL d   1      -0.599   3.181  -5.995  0.00  0.00     0.045 A 
ENDROOT
TORSDOF 0
ENDMDL
