MODEL 1
REMARK minimizedAffinity -0.623034
REMARK minimizedRMSD -1
REMARK  0 active torsions:
REMARK  status: ('A' for Active; 'I' for Inactive)
ROOT
ATOM      1  C   UNL d   1       0.972   2.545  -5.993  0.00  0.00    -0.002 A 
ATOM      2  C1  UNL d   1       1.321   3.888  -5.998  0.00  0.00     0.010 A 
ATOM      3  C2  UNL d   1       0.336   4.877  -6.000  0.00  0.00     0.041 A 
ATOM      4  C3  UNL d   1      -1.019   4.490  -5.993  0.00  0.00    -0.075 A 
ATOM      5  S   UNL d   1      -2.396   5.527  -5.992  0.00  0.00     0.015 SA
ATOM      6  C4  UNL d   1      -3.480   4.212  -5.984  0.00  0.00     0.022 A 
ATOM      7  C5  UNL d   1      -2.824   3.004  -5.982  0.00  0.00     0.026 A 
ATOM      8  C6  UNL d   1      -1.395   3.144  -5.987  0.00  0.00    -0.082 A 
ATOM      9  C7  UNL d   1      -0.373   2.165  -5.987  0.00  0.00     0.045 A 
ENDROOT
TORSDOF 0
ENDMDL
