MODEL 1
REMARK minimizedAffinity -0.203388646
REMARK minimizedRMSD -1
REMARK  0 active torsions:
REMARK  status: ('A' for Active; 'I' for Inactive)
ROOT
ATOM      1  C   UNL d   1      -0.209   3.344  -3.880  0.00  0.00    -0.002 A 
ATOM      2  C1  UNL d   1      -0.142   3.395  -5.266  0.00  0.00     0.010 A 
ATOM      3  C2  UNL d   1      -1.105   4.090  -5.999  0.00  0.00     0.041 A 
ATOM      4  C3  UNL d   1      -2.147   4.741  -5.310  0.00  0.00    -0.075 A 
ATOM      5  S   UNL d   1      -3.438   5.653  -5.999  0.00  0.00     0.015 SA
ATOM      6  C4  UNL d   1      -4.109   5.998  -4.471  0.00  0.00     0.022 A 
ATOM      7  C5  UNL d   1      -3.379   5.439  -3.449  0.00  0.00     0.026 A 
ATOM      8  C6  UNL d   1      -2.236   4.705  -3.916  0.00  0.00    -0.082 A 
ATOM      9  C7  UNL d   1      -1.244   3.992  -3.201  0.00  0.00     0.045 A 
ENDROOT
TORSDOF 0
ENDMDL
