MODEL 1
REMARK minimizedAffinity 10.1585398
REMARK minimizedRMSD -1
REMARK  0 active torsions:
REMARK  status: ('A' for Active; 'I' for Inactive)
ROOT
ATOM      1  C   UNL d   1       4.310   3.395   2.645  0.00  0.00    -0.002 A 
ATOM      2  C1  UNL d   1       4.384   3.917   1.362  0.00  0.00     0.010 A 
ATOM      3  C2  UNL d   1       3.285   3.849   0.503  0.00  0.00     0.041 A 
ATOM      4  C3  UNL d   1       2.098   3.243   0.961  0.00  0.00    -0.075 A 
ATOM      5  S   UNL d   1       0.626   3.048   0.086  0.00  0.00     0.015 SA
ATOM      6  C4  UNL d   1      -0.136   2.267   1.396  0.00  0.00     0.022 A 
ATOM      7  C5  UNL d   1       0.698   2.150   2.482  0.00  0.00     0.026 A 
ATOM      8  C6  UNL d   1       1.999   2.711   2.250  0.00  0.00    -0.082 A 
ATOM      9  C7  UNL d   1       3.131   2.795   3.096  0.00  0.00     0.045 A 
ENDROOT
TORSDOF 0
ENDMDL
