MODEL 1
REMARK minimizedAffinity 13.2621899
REMARK minimizedRMSD -1
REMARK  0 active torsions:
REMARK  status: ('A' for Active; 'I' for Inactive)
ROOT
ATOM      1  C   UNL d   1       1.862   0.515  -1.276  0.00  0.00    -0.002 A 
ATOM      2  C1  UNL d   1       2.124   1.861  -1.489  0.00  0.00     0.010 A 
ATOM      3  C2  UNL d   1       2.347   2.346  -2.779  0.00  0.00     0.041 A 
ATOM      4  C3  UNL d   1       2.300   1.446  -3.863  0.00  0.00    -0.075 A 
ATOM      5  S   UNL d   1       2.542   1.814  -5.530  0.00  0.00     0.015 SA
ATOM      6  C4  UNL d   1       2.302   0.193  -5.999  0.00  0.00     0.022 A 
ATOM      7  C5  UNL d   1       2.043  -0.622  -4.923  0.00  0.00     0.026 A 
ATOM      8  C6  UNL d   1       2.038   0.087  -3.674  0.00  0.00    -0.082 A 
ATOM      9  C7  UNL d   1       1.817  -0.374  -2.354  0.00  0.00     0.045 A 
ENDROOT
TORSDOF 0
ENDMDL
