MODEL 1
REMARK minimizedAffinity -3.81023932
REMARK minimizedRMSD -1
REMARK  0 active torsions:
REMARK  status: ('A' for Active; 'I' for Inactive)
ROOT
ATOM      1  C1  BNZ d   1       0.340   0.328   2.985  0.00  0.00     0.000 A 
ATOM      2  C2  BNZ d   1       1.169  -0.236   2.052  0.00  0.00     0.000 A 
ATOM      3  C3  BNZ d   1       0.765  -0.382   0.754  0.00  0.00     0.000 A 
ATOM      4  C4  BNZ d   1      -0.480  -0.002   0.400  0.00  0.00     0.000 A 
ATOM      5  C5  BNZ d   1      -1.331   0.559   1.332  0.00  0.00     0.000 A 
ATOM      6  C6  BNZ d   1      -0.907   0.740   2.628  0.00  0.00     0.000 A 
ENDROOT
TORSDOF 0
ENDMDL
