MODEL 1
REMARK minimizedAffinity -5.35018206
REMARK minimizedRMSD -1
REMARK  0 active torsions:
REMARK  status: ('A' for Active; 'I' for Inactive)
ROOT
ATOM      1  C1  BNZ d   1       0.784   0.402   1.148  0.00  0.00     0.000 A 
ATOM      2  C2  BNZ d   1      -0.435   0.910   1.510  0.00  0.00     0.000 A 
ATOM      3  C3  BNZ d   1      -0.793   0.997   2.826  0.00  0.00     0.000 A 
ATOM      4  C4  BNZ d   1       0.049   0.539   3.775  0.00  0.00     0.000 A 
ATOM      5  C5  BNZ d   1       1.278   0.015   3.424  0.00  0.00     0.000 A 
ATOM      6  C6  BNZ d   1       1.651  -0.035   2.101  0.00  0.00     0.000 A 
ENDROOT
TORSDOF 0
ENDMDL
