MODEL 1
REMARK minimizedAffinity -4.84826803
REMARK minimizedRMSD -1
REMARK  0 active torsions:
REMARK  status: ('A' for Active; 'I' for Inactive)
ROOT
ATOM      1  C1  BNZ d   1      -0.914   0.776   2.435  0.00  0.00     0.000 A 
ATOM      2  C2  BNZ d   1      -2.002   0.374   1.708  0.00  0.00     0.000 A 
ATOM      3  C3  BNZ d   1      -1.848  -0.212   0.482  0.00  0.00     0.000 A 
ATOM      4  C4  BNZ d   1      -0.610  -0.357  -0.032  0.00  0.00     0.000 A 
ATOM      5  C5  BNZ d   1       0.497   0.052   0.685  0.00  0.00     0.000 A 
ATOM      6  C6  BNZ d   1       0.340   0.606   1.935  0.00  0.00     0.000 A 
ENDROOT
TORSDOF 0
ENDMDL
