MODEL 1
REMARK minimizedAffinity -5.12885189
REMARK minimizedRMSD -1
REMARK  0 active torsions:
REMARK  status: ('A' for Active; 'I' for Inactive)
ROOT
ATOM      1  C1  BNZ d   1      -0.582   0.940   3.458  0.00  0.00     0.000 A 
ATOM      2  C2  BNZ d   1      -1.377   1.182   2.370  0.00  0.00     0.000 A 
ATOM      3  C3  BNZ d   1      -0.950   0.872   1.109  0.00  0.00     0.000 A 
ATOM      4  C4  BNZ d   1       0.285   0.359   0.934  0.00  0.00     0.000 A 
ATOM      5  C5  BNZ d   1       1.102   0.118   2.021  0.00  0.00     0.000 A 
ATOM      6  C6  BNZ d   1       0.654   0.395   3.292  0.00  0.00     0.000 A 
ENDROOT
TORSDOF 0
ENDMDL
