MODEL 1
REMARK minimizedAffinity -4.96488237
REMARK minimizedRMSD -1
REMARK  0 active torsions:
REMARK  status: ('A' for Active; 'I' for Inactive)
ROOT
ATOM      1  C1  BNZ d   1       0.921   0.283   1.392  0.00  0.00     0.000 A 
ATOM      2  C2  BNZ d   1       0.539   0.855   2.576  0.00  0.00     0.000 A 
ATOM      3  C3  BNZ d   1      -0.779   1.103   2.841  0.00  0.00     0.000 A 
ATOM      4  C4  BNZ d   1      -1.708   0.816   1.906  0.00  0.00     0.000 A 
ATOM      5  C5  BNZ d   1      -1.338   0.247   0.704  0.00  0.00     0.000 A 
ATOM      6  C6  BNZ d   1      -0.014  -0.037   0.457  0.00  0.00     0.000 A 
ENDROOT
TORSDOF 0
ENDMDL
