MODEL 1
REMARK minimizedAffinity -4.77220106
REMARK minimizedRMSD -1
REMARK  0 active torsions:
REMARK  status: ('A' for Active; 'I' for Inactive)
ROOT
ATOM      1  C1  BNZ d   1      -0.719   1.016   2.902  0.00  0.00     0.000 A 
ATOM      2  C2  BNZ d   1       0.290   0.743   3.787  0.00  0.00     0.000 A 
ATOM      3  C3  BNZ d   1       1.534   0.391   3.343  0.00  0.00     0.000 A 
ATOM      4  C4  BNZ d   1       1.756   0.274   2.018  0.00  0.00     0.000 A 
ATOM      5  C5  BNZ d   1       0.746   0.536   1.113  0.00  0.00     0.000 A 
ATOM      6  C6  BNZ d   1      -0.494   0.928   1.563  0.00  0.00     0.000 A 
ENDROOT
TORSDOF 0
ENDMDL
