MODEL 1
REMARK minimizedAffinity -4.6389246
REMARK minimizedRMSD -1
REMARK  0 active torsions:
REMARK  status: ('A' for Active; 'I' for Inactive)
ROOT
ATOM      1  C1  BNZ d   1      -0.043   0.192   0.512  0.00  0.00     0.000 A 
ATOM      2  C2  BNZ d   1       0.816   0.149   1.578  0.00  0.00     0.000 A 
ATOM      3  C3  BNZ d   1       0.401   0.518   2.827  0.00  0.00     0.000 A 
ATOM      4  C4  BNZ d   1      -0.859   0.967   3.001  0.00  0.00     0.000 A 
ATOM      5  C5  BNZ d   1      -1.734   1.026   1.934  0.00  0.00     0.000 A 
ATOM      6  C6  BNZ d   1      -1.324   0.617   0.686  0.00  0.00     0.000 A 
ENDROOT
TORSDOF 0
ENDMDL
