MODEL 1
REMARK minimizedAffinity -1.60449576
REMARK minimizedRMSD -1
REMARK  0 active torsions:
REMARK  status: ('A' for Active; 'I' for Inactive)
ROOT
ATOM      1  C1  BNZ d   1       0.590   0.066   0.243  0.00  0.00     0.000 A 
ATOM      2  C2  BNZ d   1      -0.553   0.619   0.755  0.00  0.00     0.000 A 
ATOM      3  C3  BNZ d   1      -1.783   0.192   0.341  0.00  0.00     0.000 A 
ATOM      4  C4  BNZ d   1      -1.869  -0.758  -0.612  0.00  0.00     0.000 A 
ATOM      5  C5  BNZ d   1      -0.726  -1.319  -1.145  0.00  0.00     0.000 A 
ATOM      6  C6  BNZ d   1       0.511  -0.914  -0.697  0.00  0.00     0.000 A 
ENDROOT
TORSDOF 0
ENDMDL
