MODEL 1
REMARK minimizedAffinity -4.41998577
REMARK minimizedRMSD -1
REMARK  0 active torsions:
REMARK  status: ('A' for Active; 'I' for Inactive)
ROOT
ATOM      1  C1  BNZ d   1      -0.787   0.720   2.517  0.00  0.00     0.000 A 
ATOM      2  C2  BNZ d   1      -1.918   0.674   1.746  0.00  0.00     0.000 A 
ATOM      3  C3  BNZ d   1      -1.878   0.177   0.473  0.00  0.00     0.000 A 
ATOM      4  C4  BNZ d   1      -0.701  -0.235  -0.041  0.00  0.00     0.000 A 
ATOM      5  C5  BNZ d   1       0.450  -0.186   0.720  0.00  0.00     0.000 A 
ATOM      6  C6  BNZ d   1       0.398   0.278   2.014  0.00  0.00     0.000 A 
ENDROOT
TORSDOF 0
ENDMDL
