MODEL 1
REMARK minimizedAffinity 10.7674036
REMARK minimizedRMSD -1
REMARK  0 active torsions:
REMARK  status: ('A' for Active; 'I' for Inactive)
ROOT
ATOM      1  C   UNL d   1      -3.429   1.878   1.131  0.00  0.00     0.077 C 
ATOM      2  C1  UNL d   1      -1.978   2.143   0.861  0.00  0.00    -0.074 A 
ATOM      3  C2  UNL d   1      -1.536   2.489  -0.420  0.00  0.00    -0.005 A 
ATOM      4  C3  UNL d   1      -0.185   2.742  -0.654  0.00  0.00     0.006 A 
ATOM      5  C4  UNL d   1       0.738   2.652   0.389  0.00  0.00    -0.005 A 
ATOM      6  C5  UNL d   1       0.314   2.309   1.677  0.00  0.00    -0.074 A 
ATOM      7  C6  UNL d   1       1.291   2.217   2.812  0.00  0.00     0.077 C 
ATOM      8  C7  UNL d   1      -1.046   2.063   1.906  0.00  0.00    -0.001 A 
ENDROOT
TORSDOF 0
ENDMDL
