MODEL 1
REMARK minimizedAffinity 15.5843983
REMARK minimizedRMSD -1
REMARK  0 active torsions:
REMARK  status: ('A' for Active; 'I' for Inactive)
ROOT
ATOM      1  C   UNL d   1      -3.986   5.999   0.792  0.00  0.00     0.077 C 
ATOM      2  C1  UNL d   1      -3.980   4.503   0.889  0.00  0.00    -0.074 A 
ATOM      3  C2  UNL d   1      -4.897   3.832   1.705  0.00  0.00    -0.005 A 
ATOM      4  C3  UNL d   1      -4.886   2.439   1.778  0.00  0.00     0.006 A 
ATOM      5  C4  UNL d   1      -3.960   1.704   1.037  0.00  0.00    -0.005 A 
ATOM      6  C5  UNL d   1      -3.037   2.357   0.215  0.00  0.00    -0.074 A 
ATOM      7  C6  UNL d   1      -2.041   1.582  -0.596  0.00  0.00     0.077 C 
ATOM      8  C7  UNL d   1      -3.058   3.757   0.142  0.00  0.00    -0.001 A 
ENDROOT
TORSDOF 0
ENDMDL
