MODEL 1
REMARK minimizedAffinity 20.761673
REMARK minimizedRMSD -1
REMARK  0 active torsions:
REMARK  status: ('A' for Active; 'I' for Inactive)
ROOT
ATOM      1  C   UNL d   1      -5.567   1.303  -4.504  0.00  0.00     0.077 C 
ATOM      2  C1  UNL d   1      -4.411   2.241  -4.323  0.00  0.00    -0.074 A 
ATOM      3  C2  UNL d   1      -3.111   1.756  -4.156  0.00  0.00    -0.005 A 
ATOM      4  C3  UNL d   1      -2.044   2.641  -3.998  0.00  0.00     0.006 A 
ATOM      5  C4  UNL d   1      -2.267   4.018  -4.006  0.00  0.00    -0.005 A 
ATOM      6  C5  UNL d   1      -3.561   4.522  -4.172  0.00  0.00    -0.074 A 
ATOM      7  C6  UNL d   1      -3.817   6.000  -4.193  0.00  0.00     0.077 C 
ATOM      8  C7  UNL d   1      -4.627   3.626  -4.337  0.00  0.00    -0.001 A 
ENDROOT
TORSDOF 0
ENDMDL
