MODEL 1
REMARK minimizedAffinity 6.11815166
REMARK minimizedRMSD -1
REMARK  0 active torsions:
REMARK  status: ('A' for Active; 'I' for Inactive)
ROOT
ATOM      1  C   UNL d   1      -6.000  -5.995   4.539  0.00  0.00     0.077 C 
ATOM      2  C1  UNL d   1      -5.299  -4.740   4.968  0.00  0.00    -0.074 A 
ATOM      3  C2  UNL d   1      -5.999  -3.704   5.595  0.00  0.00    -0.005 A 
ATOM      4  C3  UNL d   1      -5.332  -2.547   5.997  0.00  0.00     0.006 A 
ATOM      5  C4  UNL d   1      -3.960  -2.414   5.776  0.00  0.00    -0.005 A 
ATOM      6  C5  UNL d   1      -3.244  -3.439   5.151  0.00  0.00    -0.074 A 
ATOM      7  C6  UNL d   1      -1.768  -3.316   4.914  0.00  0.00     0.077 C 
ATOM      8  C7  UNL d   1      -3.920  -4.602   4.756  0.00  0.00    -0.001 A 
ENDROOT
TORSDOF 0
ENDMDL
