MODEL 1
REMARK minimizedAffinity 1.03686619
REMARK minimizedRMSD -1
REMARK  0 active torsions:
REMARK  status: ('A' for Active; 'I' for Inactive)
ROOT
ATOM      1  C   UNL d   1      -5.999   1.856  -5.750  0.00  0.00     0.077 C 
ATOM      2  C1  UNL d   1      -4.781   2.551  -5.219  0.00  0.00    -0.074 A 
ATOM      3  C2  UNL d   1      -3.861   1.874  -4.411  0.00  0.00    -0.005 A 
ATOM      4  C3  UNL d   1      -2.728   2.531  -3.933  0.00  0.00     0.006 A 
ATOM      5  C4  UNL d   1      -2.503   3.870  -4.256  0.00  0.00    -0.005 A 
ATOM      6  C5  UNL d   1      -3.411   4.563  -5.062  0.00  0.00    -0.074 A 
ATOM      7  C6  UNL d   1      -3.180   5.999  -5.427  0.00  0.00     0.077 C 
ATOM      8  C7  UNL d   1      -4.544   3.894  -5.545  0.00  0.00    -0.001 A 
ENDROOT
TORSDOF 0
ENDMDL
