MODEL 1
REMARK minimizedAffinity -2.15677834
REMARK minimizedRMSD -1
REMARK  0 active torsions:
REMARK  status: ('A' for Active; 'I' for Inactive)
ROOT
ATOM      1  C   UNL d   1      -4.870   1.277  -4.435  0.00  0.00     0.077 C 
ATOM      2  C1  UNL d   1      -4.039   2.525  -4.445  0.00  0.00    -0.074 A 
ATOM      3  C2  UNL d   1      -2.830   2.590  -3.744  0.00  0.00    -0.005 A 
ATOM      4  C3  UNL d   1      -2.063   3.755  -3.770  0.00  0.00     0.006 A 
ATOM      5  C4  UNL d   1      -2.496   4.865  -4.497  0.00  0.00    -0.005 A 
ATOM      6  C5  UNL d   1      -3.701   4.818  -5.205  0.00  0.00    -0.074 A 
ATOM      7  C6  UNL d   1      -4.176   5.999  -5.998  0.00  0.00     0.077 C 
ATOM      8  C7  UNL d   1      -4.463   3.642  -5.179  0.00  0.00    -0.001 A 
ENDROOT
TORSDOF 0
ENDMDL
