MODEL 1
REMARK minimizedAffinity 11.0477638
REMARK minimizedRMSD -1
REMARK  0 active torsions:
REMARK  status: ('A' for Active; 'I' for Inactive)
ROOT
ATOM      1  C   UNL d   1      -3.000   6.000  -6.000  0.00  0.00     0.077 C 
ATOM      2  C1  UNL d   1      -2.784   4.843  -5.071  0.00  0.00    -0.074 A 
ATOM      3  C2  UNL d   1      -1.751   4.862  -4.127  0.00  0.00    -0.005 A 
ATOM      4  C3  UNL d   1      -1.568   3.782  -3.263  0.00  0.00     0.006 A 
ATOM      5  C4  UNL d   1      -2.414   2.675  -3.334  0.00  0.00    -0.005 A 
ATOM      6  C5  UNL d   1      -3.453   2.638  -4.270  0.00  0.00    -0.074 A 
ATOM      7  C6  UNL d   1      -4.377   1.460  -4.352  0.00  0.00     0.077 C 
ATOM      8  C7  UNL d   1      -3.635   3.730  -5.130  0.00  0.00    -0.001 A 
ENDROOT
TORSDOF 0
ENDMDL
