MODEL 1
REMARK minimizedAffinity 10.1156321
REMARK minimizedRMSD -1
REMARK  0 active torsions:
REMARK  status: ('A' for Active; 'I' for Inactive)
ROOT
ATOM      1  C   UNL d   1      -4.561  -2.961   5.994  0.00  0.00     0.077 C 
ATOM      2  C1  UNL d   1      -3.138  -2.816   5.545  0.00  0.00    -0.074 A 
ATOM      3  C2  UNL d   1      -2.745  -1.746   4.734  0.00  0.00    -0.005 A 
ATOM      4  C3  UNL d   1      -1.415  -1.620   4.332  0.00  0.00     0.006 A 
ATOM      5  C4  UNL d   1      -0.466  -2.560   4.736  0.00  0.00    -0.005 A 
ATOM      6  C5  UNL d   1      -0.840  -3.635   5.547  0.00  0.00    -0.074 A 
ATOM      7  C6  UNL d   1       0.169  -4.649   5.999  0.00  0.00     0.077 C 
ATOM      8  C7  UNL d   1      -2.177  -3.752   5.953  0.00  0.00    -0.001 A 
ENDROOT
TORSDOF 0
ENDMDL
