MODEL 1
REMARK minimizedAffinity 13.8368454
REMARK minimizedRMSD -1
REMARK  0 active torsions:
REMARK  status: ('A' for Active; 'I' for Inactive)
ROOT
ATOM      1  C   UNL d   1      -2.058   6.000  -5.999  0.00  0.00     0.077 C 
ATOM      2  C1  UNL d   1      -2.077   4.907  -4.972  0.00  0.00    -0.074 A 
ATOM      3  C2  UNL d   1      -1.287   4.989  -3.821  0.00  0.00    -0.005 A 
ATOM      4  C3  UNL d   1      -1.323   3.969  -2.869  0.00  0.00     0.006 A 
ATOM      5  C4  UNL d   1      -2.148   2.860  -3.059  0.00  0.00    -0.005 A 
ATOM      6  C5  UNL d   1      -2.946   2.762  -4.203  0.00  0.00    -0.074 A 
ATOM      7  C6  UNL d   1      -3.846   1.581  -4.417  0.00  0.00     0.077 C 
ATOM      8  C7  UNL d   1      -2.910   3.794  -5.151  0.00  0.00    -0.001 A 
ENDROOT
TORSDOF 0
ENDMDL
