MODEL 1
REMARK minimizedAffinity 17.9502525
REMARK minimizedRMSD -1
REMARK  0 active torsions:
REMARK  status: ('A' for Active; 'I' for Inactive)
ROOT
ATOM      1  C   UNL d   1      -0.435   6.000  -5.598  0.00  0.00     0.077 C 
ATOM      2  C1  UNL d   1      -1.238   5.275  -4.559  0.00  0.00    -0.074 A 
ATOM      3  C2  UNL d   1      -0.785   4.070  -4.012  0.00  0.00    -0.005 A 
ATOM      4  C3  UNL d   1      -1.538   3.412  -3.040  0.00  0.00     0.006 A 
ATOM      5  C4  UNL d   1      -2.749   3.952  -2.604  0.00  0.00    -0.005 A 
ATOM      6  C5  UNL d   1      -3.217   5.157  -3.138  0.00  0.00    -0.074 A 
ATOM      7  C6  UNL d   1      -4.511   5.756  -2.674  0.00  0.00     0.077 C 
ATOM      8  C7  UNL d   1      -2.451   5.815  -4.110  0.00  0.00    -0.001 A 
ENDROOT
TORSDOF 0
ENDMDL
