MODEL 1
REMARK minimizedAffinity 23.2412968
REMARK minimizedRMSD -1
REMARK  0 active torsions:
REMARK  status: ('A' for Active; 'I' for Inactive)
ROOT
ATOM      1  C   UNL d   1       1.559  -4.902   6.000  0.00  0.00     0.077 C 
ATOM      2  C1  UNL d   1       0.524  -4.091   5.279  0.00  0.00    -0.074 A 
ATOM      3  C2  UNL d   1       0.715  -3.699   3.950  0.00  0.00    -0.005 A 
ATOM      4  C3  UNL d   1      -0.261  -2.953   3.290  0.00  0.00     0.006 A 
ATOM      5  C4  UNL d   1      -1.436  -2.592   3.950  0.00  0.00    -0.005 A 
ATOM      6  C5  UNL d   1      -1.646  -2.977   5.278  0.00  0.00    -0.074 A 
ATOM      7  C6  UNL d   1      -2.908  -2.606   5.999  0.00  0.00     0.077 C 
ATOM      8  C7  UNL d   1      -0.663  -3.732   5.933  0.00  0.00    -0.001 A 
ENDROOT
TORSDOF 0
ENDMDL
