MODEL 1
REMARK minimizedAffinity 11.7743244
REMARK minimizedRMSD -1
REMARK  0 active torsions:
REMARK  status: ('A' for Active; 'I' for Inactive)
ROOT
ATOM      1  C   UNL d   1      -2.293  -1.225   4.596  0.00  0.00     0.077 C 
ATOM      2  C1  UNL d   1      -1.778  -0.226   3.604  0.00  0.00    -0.074 A 
ATOM      3  C2  UNL d   1      -0.430  -0.210   3.233  0.00  0.00    -0.005 A 
ATOM      4  C3  UNL d   1       0.033   0.720   2.301  0.00  0.00     0.006 A 
ATOM      5  C4  UNL d   1      -0.847   1.641   1.732  0.00  0.00    -0.005 A 
ATOM      6  C5  UNL d   1      -2.199   1.640   2.089  0.00  0.00    -0.074 A 
ATOM      7  C6  UNL d   1      -3.160   2.616   1.480  0.00  0.00     0.077 C 
ATOM      8  C7  UNL d   1      -2.657   0.698   3.021  0.00  0.00    -0.001 A 
ENDROOT
TORSDOF 0
ENDMDL
