MODEL 1
REMARK minimizedAffinity 15.9815779
REMARK minimizedRMSD -1
REMARK  0 active torsions:
REMARK  status: ('A' for Active; 'I' for Inactive)
ROOT
ATOM      1  C   UNL d   1      -0.780   1.704   1.733  0.00  0.00     0.077 C 
ATOM      2  C1  UNL d   1      -0.494   2.035   0.298  0.00  0.00    -0.074 A 
ATOM      3  C2  UNL d   1       0.773   2.473  -0.100  0.00  0.00    -0.005 A 
ATOM      4  C3  UNL d   1       1.026   2.768  -1.440  0.00  0.00     0.006 A 
ATOM      5  C4  UNL d   1       0.017   2.628  -2.393  0.00  0.00    -0.005 A 
ATOM      6  C5  UNL d   1      -1.256   2.191  -2.013  0.00  0.00    -0.074 A 
ATOM      7  C6  UNL d   1      -2.350   2.026  -3.027  0.00  0.00     0.077 C 
ATOM      8  C7  UNL d   1      -1.501   1.889  -0.667  0.00  0.00    -0.001 A 
ENDROOT
TORSDOF 0
ENDMDL
