MODEL 1
REMARK minimizedAffinity 3.98259664
REMARK minimizedRMSD -1
REMARK  0 active torsions:
REMARK  status: ('A' for Active; 'I' for Inactive)
ROOT
ATOM      1  C   UNL d   1      -5.957  -0.814   0.768  0.00  0.00     0.077 C 
ATOM      2  C1  UNL d   1      -5.977  -2.309   0.893  0.00  0.00    -0.074 A 
ATOM      3  C2  UNL d   1      -5.976  -3.125  -0.242  0.00  0.00    -0.005 A 
ATOM      4  C3  UNL d   1      -5.986  -4.514  -0.110  0.00  0.00     0.006 A 
ATOM      5  C4  UNL d   1      -5.997  -5.099   1.157  0.00  0.00    -0.005 A 
ATOM      6  C5  UNL d   1      -5.998  -4.298   2.304  0.00  0.00    -0.074 A 
ATOM      7  C6  UNL d   1      -6.000  -4.911   3.673  0.00  0.00     0.077 C 
ATOM      8  C7  UNL d   1      -5.981  -2.904   2.163  0.00  0.00    -0.001 A 
ENDROOT
TORSDOF 0
ENDMDL
