MODEL 1
REMARK minimizedAffinity 17.7083473
REMARK minimizedRMSD -1
REMARK  0 active torsions:
REMARK  status: ('A' for Active; 'I' for Inactive)
ROOT
ATOM      1  C   UNL d   1      -0.868  -3.666   4.285  0.00  0.00     0.077 C 
ATOM      2  C1  UNL d   1      -2.249  -3.365   4.787  0.00  0.00    -0.074 A 
ATOM      3  C2  UNL d   1      -2.515  -2.191   5.499  0.00  0.00    -0.005 A 
ATOM      4  C3  UNL d   1      -3.807  -1.921   5.952  0.00  0.00     0.006 A 
ATOM      5  C4  UNL d   1      -4.843  -2.821   5.697  0.00  0.00    -0.005 A 
ATOM      6  C5  UNL d   1      -4.596  -3.999   4.986  0.00  0.00    -0.074 A 
ATOM      7  C6  UNL d   1      -5.700  -4.971   4.695  0.00  0.00     0.077 C 
ATOM      8  C7  UNL d   1      -3.297  -4.260   4.529  0.00  0.00    -0.001 A 
ENDROOT
TORSDOF 0
ENDMDL
