MODEL 1
REMARK minimizedAffinity 15.3295937
REMARK minimizedRMSD -1
REMARK  0 active torsions:
REMARK  status: ('A' for Active; 'I' for Inactive)
ROOT
ATOM      1  C   UNL d   1       0.730   3.511  -1.003  0.00  0.00     0.077 C 
ATOM      2  C1  UNL d   1      -0.552   3.153  -0.312  0.00  0.00    -0.074 A 
ATOM      3  C2  UNL d   1      -0.765   1.863   0.184  0.00  0.00    -0.005 A 
ATOM      4  C3  UNL d   1      -1.959   1.548   0.834  0.00  0.00     0.006 A 
ATOM      5  C4  UNL d   1      -2.949   2.518   0.993  0.00  0.00    -0.005 A 
ATOM      6  C5  UNL d   1      -2.754   3.813   0.504  0.00  0.00    -0.074 A 
ATOM      7  C6  UNL d   1      -3.804   4.870   0.676  0.00  0.00     0.077 C 
ATOM      8  C7  UNL d   1      -1.549   4.124  -0.141  0.00  0.00    -0.001 A 
ENDROOT
TORSDOF 0
ENDMDL
