MODEL 1
REMARK minimizedAffinity 29.6871147
REMARK minimizedRMSD -1
REMARK  0 active torsions:
REMARK  status: ('A' for Active; 'I' for Inactive)
ROOT
ATOM      1  C   UNL d   1      -5.731   3.403   4.682  0.00  0.00     0.124 A 
ATOM      2  C1  UNL d   1      -5.750   4.653   4.079  0.00  0.00     0.062 A 
ATOM      3  C2  UNL d   1      -5.513   4.775   2.713  0.00  0.00     0.162 A 
ATOM      4  C3  UNL d   1      -5.257   3.642   1.939  0.00  0.00    -0.034 A 
ATOM      5  C4  UNL d   1      -5.238   2.389   2.553  0.00  0.00     0.162 A 
ATOM      6  C5  UNL d   1      -5.475   2.273   3.919  0.00  0.00     0.062 A 
ATOM      7  F   UNL d   1      -5.457   1.064   4.500  0.00  0.00    -0.097 F 
ATOM      8  F1  UNL d   1      -4.995   1.279   1.840  0.00  0.00    -0.096 F 
ATOM      9  I   UNL d   1      -4.903   3.819  -0.104  0.00  0.00    -0.060 I 
ATOM     10  F2  UNL d   1      -5.538   5.995   2.156  0.00  0.00    -0.096 F 
ATOM     11  F3  UNL d   1      -5.996   5.747   4.814  0.00  0.00    -0.097 F 
ATOM     12  F4  UNL d   1      -5.958   3.290   5.997  0.00  0.00    -0.092 F 
ENDROOT
TORSDOF 0
ENDMDL
