MODEL 1
REMARK minimizedAffinity 15.7919579
REMARK minimizedRMSD -1
REMARK  0 active torsions:
REMARK  status: ('A' for Active; 'I' for Inactive)
ROOT
ATOM      1  C   UNL d   1       3.921  -1.680  -1.712  0.00  0.00     0.124 A 
ATOM      2  C1  UNL d   1       3.012  -2.350  -0.904  0.00  0.00     0.062 A 
ATOM      3  C2  UNL d   1       2.381  -1.683   0.142  0.00  0.00     0.162 A 
ATOM      4  C3  UNL d   1       2.657  -0.338   0.387  0.00  0.00    -0.034 A 
ATOM      5  C4  UNL d   1       3.573   0.329  -0.429  0.00  0.00     0.162 A 
ATOM      6  C5  UNL d   1       4.200  -0.342  -1.473  0.00  0.00     0.062 A 
ATOM      7  F   UNL d   1       5.078   0.307  -2.252  0.00  0.00    -0.097 F 
ATOM      8  F1  UNL d   1       3.861   1.623  -0.221  0.00  0.00    -0.096 F 
ATOM      9  I   UNL d   1       1.716   0.663   1.951  0.00  0.00    -0.060 I 
ATOM     10  F2  UNL d   1       1.508  -2.355   0.907  0.00  0.00    -0.096 F 
ATOM     11  F3  UNL d   1       2.741  -3.643  -1.132  0.00  0.00    -0.097 F 
ATOM     12  F4  UNL d   1       4.527  -2.324  -2.717  0.00  0.00    -0.092 F 
ENDROOT
TORSDOF 0
ENDMDL
