MODEL 1
REMARK minimizedAffinity 12.6186705
REMARK minimizedRMSD -1
REMARK  0 active torsions:
REMARK  status: ('A' for Active; 'I' for Inactive)
ROOT
ATOM      1  C   UNL d   1       3.126   3.335   2.427  0.00  0.00     0.124 A 
ATOM      2  C1  UNL d   1       4.028   4.269   1.935  0.00  0.00     0.062 A 
ATOM      3  C2  UNL d   1       4.797   5.028   2.813  0.00  0.00     0.162 A 
ATOM      4  C3  UNL d   1       4.668   4.856   4.191  0.00  0.00    -0.034 A 
ATOM      5  C4  UNL d   1       3.758   3.916   4.677  0.00  0.00     0.162 A 
ATOM      6  C5  UNL d   1       2.992   3.159   3.797  0.00  0.00     0.062 A 
ATOM      7  F   UNL d   1       2.121   2.258   4.273  0.00  0.00    -0.097 F 
ATOM      8  F1  UNL d   1       3.609   3.725   5.997  0.00  0.00    -0.096 F 
ATOM      9  I   UNL d   1       5.816   5.989   5.506  0.00  0.00    -0.060 I 
ATOM     10  F2  UNL d   1       5.660   5.923   2.310  0.00  0.00    -0.096 F 
ATOM     11  F3  UNL d   1       4.158   4.441   0.612  0.00  0.00    -0.097 F 
ATOM     12  F4  UNL d   1       2.386   2.606   1.580  0.00  0.00    -0.092 F 
ENDROOT
TORSDOF 0
ENDMDL
