MODEL 1
REMARK minimizedAffinity 22.2109642
REMARK minimizedRMSD -1
REMARK  0 active torsions:
REMARK  status: ('A' for Active; 'I' for Inactive)
ROOT
ATOM      1  C   UNL d   1       1.554   1.169   1.363  0.00  0.00     0.124 A 
ATOM      2  C1  UNL d   1       1.971   1.002   0.050  0.00  0.00     0.062 A 
ATOM      3  C2  UNL d   1       2.793   1.951  -0.549  0.00  0.00     0.162 A 
ATOM      4  C3  UNL d   1       3.205   3.077   0.164  0.00  0.00    -0.034 A 
ATOM      5  C4  UNL d   1       2.780   3.239   1.484  0.00  0.00     0.162 A 
ATOM      6  C5  UNL d   1       1.959   2.287   2.079  0.00  0.00     0.062 A 
ATOM      7  F   UNL d   1       1.556   2.450   3.348  0.00  0.00    -0.097 F 
ATOM      8  F1  UNL d   1       3.157   4.309   2.199  0.00  0.00    -0.096 F 
ATOM      9  I   UNL d   1       4.434   4.499  -0.729  0.00  0.00    -0.060 I 
ATOM     10  F2  UNL d   1       3.181   1.764  -1.820  0.00  0.00    -0.096 F 
ATOM     11  F3  UNL d   1       1.580  -0.077  -0.643  0.00  0.00    -0.097 F 
ATOM     12  F4  UNL d   1       0.762   0.254   1.938  0.00  0.00    -0.092 F 
ENDROOT
TORSDOF 0
ENDMDL
