MODEL 1
REMARK minimizedAffinity 7.16720581
REMARK minimizedRMSD -1
REMARK  0 active torsions:
REMARK  status: ('A' for Active; 'I' for Inactive)
ROOT
ATOM      1  C   UNL d   1      -0.477  -2.740  -1.307  0.00  0.00     0.124 A 
ATOM      2  C1  UNL d   1       0.721  -3.140  -0.732  0.00  0.00     0.062 A 
ATOM      3  C2  UNL d   1       1.712  -2.203  -0.455  0.00  0.00     0.162 A 
ATOM      4  C3  UNL d   1       1.508  -0.855  -0.751  0.00  0.00    -0.034 A 
ATOM      5  C4  UNL d   1       0.301  -0.461  -1.330  0.00  0.00     0.162 A 
ATOM      6  C5  UNL d   1      -0.686  -1.401  -1.606  0.00  0.00     0.062 A 
ATOM      7  F   UNL d   1      -1.843  -1.013  -2.161  0.00  0.00    -0.097 F 
ATOM      8  F1  UNL d   1       0.072   0.827  -1.628  0.00  0.00    -0.096 F 
ATOM      9  I   UNL d   1       2.987   0.550  -0.338  0.00  0.00    -0.060 I 
ATOM     10  F2  UNL d   1       2.860  -2.618   0.101  0.00  0.00    -0.096 F 
ATOM     11  F3  UNL d   1       0.926  -4.434  -0.444  0.00  0.00    -0.097 F 
ATOM     12  F4  UNL d   1      -1.428  -3.645  -1.574  0.00  0.00    -0.092 F 
ENDROOT
TORSDOF 0
ENDMDL
