MODEL 1
REMARK minimizedAffinity 31.937603
REMARK minimizedRMSD -1
REMARK  0 active torsions:
REMARK  status: ('A' for Active; 'I' for Inactive)
ROOT
ATOM      1  C   UNL d   1       2.082   2.169   2.078  0.00  0.00     0.124 A 
ATOM      2  C1  UNL d   1       2.226   0.959   1.415  0.00  0.00     0.062 A 
ATOM      3  C2  UNL d   1       1.760  -0.217   1.996  0.00  0.00     0.162 A 
ATOM      4  C3  UNL d   1       1.145  -0.188   3.248  0.00  0.00    -0.034 A 
ATOM      5  C4  UNL d   1       1.005   1.033   3.909  0.00  0.00     0.162 A 
ATOM      6  C5  UNL d   1       1.472   2.206   3.324  0.00  0.00     0.062 A 
ATOM      7  F   UNL d   1       1.332   3.375   3.966  0.00  0.00    -0.097 F 
ATOM      8  F1  UNL d   1       0.418   1.097   5.113  0.00  0.00    -0.096 F 
ATOM      9  I   UNL d   1       0.447  -1.944   4.120  0.00  0.00    -0.060 I 
ATOM     10  F2  UNL d   1       1.912  -1.373   1.333  0.00  0.00    -0.096 F 
ATOM     11  F3  UNL d   1       2.816   0.921   0.212  0.00  0.00    -0.097 F 
ATOM     12  F4  UNL d   1       2.532   3.299   1.517  0.00  0.00    -0.092 F 
ENDROOT
TORSDOF 0
ENDMDL
