MODEL 1
REMARK minimizedAffinity 26.1198101
REMARK minimizedRMSD -1
REMARK  0 active torsions:
REMARK  status: ('A' for Active; 'I' for Inactive)
ROOT
ATOM      1  C   UNL d   1       1.785   1.256   1.457  0.00  0.00     0.124 A 
ATOM      2  C1  UNL d   1       2.137   1.296   0.115  0.00  0.00     0.062 A 
ATOM      3  C2  UNL d   1       2.908   2.345  -0.376  0.00  0.00     0.162 A 
ATOM      4  C3  UNL d   1       3.334   3.364   0.476  0.00  0.00    -0.034 A 
ATOM      5  C4  UNL d   1       2.976   3.318   1.825  0.00  0.00     0.162 A 
ATOM      6  C5  UNL d   1       2.205   2.267   2.311  0.00  0.00     0.062 A 
ATOM      7  F   UNL d   1       1.867   2.230   3.608  0.00  0.00    -0.097 F 
ATOM      8  F1  UNL d   1       3.369   4.281   2.671  0.00  0.00    -0.096 F 
ATOM      9  I   UNL d   1       4.487   4.935  -0.254  0.00  0.00    -0.060 I 
ATOM     10  F2  UNL d   1       3.232   2.358  -1.677  0.00  0.00    -0.096 F 
ATOM     11  F3  UNL d   1       1.732   0.321  -0.712  0.00  0.00    -0.097 F 
ATOM     12  F4  UNL d   1       1.043   0.245   1.927  0.00  0.00    -0.092 F 
ENDROOT
TORSDOF 0
ENDMDL
