MODEL 1
REMARK minimizedAffinity 22.8445282
REMARK minimizedRMSD -1
REMARK  0 active torsions:
REMARK  status: ('A' for Active; 'I' for Inactive)
ROOT
ATOM      1  C   UNL d   1       2.178  -0.359  -1.451  0.00  0.00     0.124 A 
ATOM      2  C1  UNL d   1       1.925   0.517  -0.405  0.00  0.00     0.062 A 
ATOM      3  C2  UNL d   1       2.572   1.748  -0.350  0.00  0.00     0.162 A 
ATOM      4  C3  UNL d   1       3.480   2.111  -1.345  0.00  0.00    -0.034 A 
ATOM      5  C4  UNL d   1       3.730   1.224  -2.394  0.00  0.00     0.162 A 
ATOM      6  C5  UNL d   1       3.080  -0.005  -2.444  0.00  0.00     0.062 A 
ATOM      7  F   UNL d   1       3.326  -0.850  -3.456  0.00  0.00    -0.097 F 
ATOM      8  F1  UNL d   1       4.596   1.541  -3.368  0.00  0.00    -0.096 F 
ATOM      9  I   UNL d   1       4.450   3.950  -1.267  0.00  0.00    -0.060 I 
ATOM     10  F2  UNL d   1       2.308   2.574   0.673  0.00  0.00    -0.096 F 
ATOM     11  F3  UNL d   1       1.054   0.177   0.557  0.00  0.00    -0.097 F 
ATOM     12  F4  UNL d   1       1.554  -1.543  -1.501  0.00  0.00    -0.092 F 
ENDROOT
TORSDOF 0
ENDMDL
