MODEL 1
REMARK minimizedAffinity 29.0948353
REMARK minimizedRMSD -1
REMARK  0 active torsions:
REMARK  status: ('A' for Active; 'I' for Inactive)
ROOT
ATOM      1  C   UNL d   1       2.598   2.514   1.981  0.00  0.00     0.124 A 
ATOM      2  C1  UNL d   1       2.680   2.396   0.600  0.00  0.00     0.062 A 
ATOM      3  C2  UNL d   1       3.425   3.311  -0.137  0.00  0.00     0.162 A 
ATOM      4  C3  UNL d   1       4.095   4.353   0.504  0.00  0.00    -0.034 A 
ATOM      5  C4  UNL d   1       4.007   4.466   1.893  0.00  0.00     0.162 A 
ATOM      6  C5  UNL d   1       3.262   3.548   2.626  0.00  0.00     0.062 A 
ATOM      7  F   UNL d   1       3.184   3.664   3.959  0.00  0.00    -0.097 F 
ATOM      8  F1  UNL d   1       4.639   5.455   2.541  0.00  0.00    -0.096 F 
ATOM      9  I   UNL d   1       5.210   5.724  -0.596  0.00  0.00    -0.060 I 
ATOM     10  F2  UNL d   1       3.486   3.173  -1.470  0.00  0.00    -0.096 F 
ATOM     11  F3  UNL d   1       2.039   1.398  -0.025  0.00  0.00    -0.097 F 
ATOM     12  F4  UNL d   1       1.880   1.632   2.689  0.00  0.00    -0.092 F 
ENDROOT
TORSDOF 0
ENDMDL
