MODEL 1
REMARK minimizedAffinity 20.4850578
REMARK minimizedRMSD -1
REMARK  0 active torsions:
REMARK  status: ('A' for Active; 'I' for Inactive)
ROOT
ATOM      1  C   UNL d   1      -2.337   5.566   1.355  0.00  0.00     0.124 A 
ATOM      2  C1  UNL d   1      -1.911   5.560   2.676  0.00  0.00     0.062 A 
ATOM      3  C2  UNL d   1      -2.838   5.651   3.711  0.00  0.00     0.162 A 
ATOM      4  C3  UNL d   1      -4.200   5.747   3.429  0.00  0.00    -0.034 A 
ATOM      5  C4  UNL d   1      -4.621   5.754   2.098  0.00  0.00     0.162 A 
ATOM      6  C5  UNL d   1      -3.691   5.663   1.067  0.00  0.00     0.062 A 
ATOM      7  F   UNL d   1      -4.105   5.669  -0.209  0.00  0.00    -0.097 F 
ATOM      8  F1  UNL d   1      -5.924   5.845   1.791  0.00  0.00    -0.096 F 
ATOM      9  I   UNL d   1      -5.589   5.883   4.973  0.00  0.00    -0.060 I 
ATOM     10  F2  UNL d   1      -2.397   5.643   4.978  0.00  0.00    -0.096 F 
ATOM     11  F3  UNL d   1      -0.603   5.468   2.956  0.00  0.00    -0.097 F 
ATOM     12  F4  UNL d   1      -1.444   5.480   0.361  0.00  0.00    -0.092 F 
ENDROOT
TORSDOF 0
ENDMDL
