MODEL 1
REMARK minimizedAffinity -3.71290636
REMARK minimizedRMSD -1
REMARK  0 active torsions:
REMARK  status: ('A' for Active; 'I' for Inactive)
ROOT
ATOM      1  O1  BZF d   1      -0.844   3.054   0.138  0.00  0.00    -0.204 OA
ATOM      2  C2  BZF d   1       0.450   3.518   0.001  0.00  0.00     0.174 A 
ATOM      3  C3  BZF d   1       1.324   2.492  -0.046  0.00  0.00    -0.012 A 
ATOM      4  C3A BZF d   1       0.518   1.310  -0.024  0.00  0.00    -0.107 A 
ATOM      5  C4  BZF d   1       0.806  -0.024  -0.063  0.00  0.00     0.055 A 
ATOM      6  C5  BZF d   1      -0.208  -0.923   0.051  0.00  0.00    -0.016 A 
ATOM      7  C6  BZF d   1      -1.518  -0.523   0.211  0.00  0.00     0.022 A 
ATOM      8  C7  BZF d   1      -1.854   0.790   0.251  0.00  0.00     0.029 A 
ATOM      9  C7A BZF d   1      -0.836   1.700   0.103  0.00  0.00     0.058 A 
ENDROOT
TORSDOF 0
ENDMDL
