MODEL 1
REMARK minimizedAffinity 4.49739599
REMARK minimizedRMSD -1
REMARK  0 active torsions:
REMARK  status: ('A' for Active; 'I' for Inactive)
ROOT
ATOM      1  O1  BZF d   1       1.764   2.378   1.548  0.00  0.00    -0.204 OA
ATOM      2  C2  BZF d   1       2.789   1.498   1.259  0.00  0.00     0.174 A 
ATOM      3  C3  BZF d   1       2.302   0.334   0.783  0.00  0.00    -0.012 A 
ATOM      4  C3A BZF d   1       0.888   0.530   0.687  0.00  0.00    -0.107 A 
ATOM      5  C4  BZF d   1      -0.143  -0.260   0.265  0.00  0.00     0.055 A 
ATOM      6  C5  BZF d   1      -1.416   0.204   0.368  0.00  0.00    -0.016 A 
ATOM      7  C6  BZF d   1      -1.695   1.450   0.891  0.00  0.00     0.022 A 
ATOM      8  C7  BZF d   1      -0.705   2.272   1.317  0.00  0.00     0.029 A 
ATOM      9  C7A BZF d   1       0.585   1.819   1.184  0.00  0.00     0.058 A 
ENDROOT
TORSDOF 0
ENDMDL
