MODEL 1
REMARK minimizedAffinity -2.15520978
REMARK minimizedRMSD -1
REMARK  0 active torsions:
REMARK  status: ('A' for Active; 'I' for Inactive)
ROOT
ATOM      1  O1  BZF d   1       1.419  -0.149  -0.174  0.00  0.00    -0.204 OA
ATOM      2  C2  BZF d   1       0.159  -0.547  -0.579  0.00  0.00     0.174 A 
ATOM      3  C3  BZF d   1      -0.744   0.431  -0.363  0.00  0.00    -0.012 A 
ATOM      4  C3A BZF d   1       0.014   1.542   0.128  0.00  0.00    -0.107 A 
ATOM      5  C4  BZF d   1      -0.319   2.810   0.508  0.00  0.00     0.055 A 
ATOM      6  C5  BZF d   1       0.647   3.624   1.008  0.00  0.00    -0.016 A 
ATOM      7  C6  BZF d   1       1.953   3.201   1.148  0.00  0.00     0.022 A 
ATOM      8  C7  BZF d   1       2.332   1.953   0.780  0.00  0.00     0.029 A 
ATOM      9  C7A BZF d   1       1.364   1.139   0.243  0.00  0.00     0.058 A 
ENDROOT
TORSDOF 0
ENDMDL
