MODEL 1
REMARK minimizedAffinity -5.24853039
REMARK minimizedRMSD -1
REMARK  0 active torsions:
REMARK  status: ('A' for Active; 'I' for Inactive)
ROOT
ATOM      1  O1  BZF d   1       2.392   0.139   0.525  0.00  0.00    -0.204 OA
ATOM      2  C2  BZF d   1       1.644  -1.006   0.330  0.00  0.00     0.174 A 
ATOM      3  C3  BZF d   1       0.355  -0.699   0.082  0.00  0.00    -0.012 A 
ATOM      4  C3A BZF d   1       0.312   0.730   0.033  0.00  0.00    -0.107 A 
ATOM      5  C4  BZF d   1      -0.689   1.632  -0.194  0.00  0.00     0.055 A 
ATOM      6  C5  BZF d   1      -0.415   2.959  -0.101  0.00  0.00    -0.016 A 
ATOM      7  C6  BZF d   1       0.845   3.420   0.222  0.00  0.00     0.022 A 
ATOM      8  C7  BZF d   1       1.870   2.564   0.451  0.00  0.00     0.029 A 
ATOM      9  C7A BZF d   1       1.605   1.222   0.325  0.00  0.00     0.058 A 
ENDROOT
TORSDOF 0
ENDMDL
