MODEL 1
REMARK minimizedAffinity -5.11589146
REMARK minimizedRMSD -1
REMARK  0 active torsions:
REMARK  status: ('A' for Active; 'I' for Inactive)
ROOT
ATOM      1  O1  BZF d   1      -0.560   3.205   0.404  0.00  0.00    -0.204 OA
ATOM      2  C2  BZF d   1       0.629   3.869   0.169  0.00  0.00     0.174 A 
ATOM      3  C3  BZF d   1       1.649   2.996   0.046  0.00  0.00    -0.012 A 
ATOM      4  C3A BZF d   1       1.047   1.700   0.122  0.00  0.00    -0.107 A 
ATOM      5  C4  BZF d   1       1.541   0.429   0.050  0.00  0.00     0.055 A 
ATOM      6  C5  BZF d   1       0.696  -0.619   0.235  0.00  0.00    -0.016 A 
ATOM      7  C6  BZF d   1      -0.645  -0.433   0.500  0.00  0.00     0.022 A 
ATOM      8  C7  BZF d   1      -1.182   0.808   0.577  0.00  0.00     0.029 A 
ATOM      9  C7A BZF d   1      -0.338   1.869   0.357  0.00  0.00     0.058 A 
ENDROOT
TORSDOF 0
ENDMDL
