MODEL 1
REMARK minimizedAffinity 1.2315824
REMARK minimizedRMSD -1
REMARK  0 active torsions:
REMARK  status: ('A' for Active; 'I' for Inactive)
ROOT
ATOM      1  O1  BZF d   1       2.350   1.098   1.049  0.00  0.00    -0.204 OA
ATOM      2  C2  BZF d   1       2.696  -0.115   0.488  0.00  0.00     0.174 A 
ATOM      3  C3  BZF d   1       1.595  -0.810   0.134  0.00  0.00    -0.012 A 
ATOM      4  C3A BZF d   1       0.495   0.061   0.413  0.00  0.00    -0.107 A 
ATOM      5  C4  BZF d   1      -0.857  -0.056   0.260  0.00  0.00     0.055 A 
ATOM      6  C5  BZF d   1      -1.661   0.948   0.699  0.00  0.00    -0.016 A 
ATOM      7  C6  BZF d   1      -1.147   2.080   1.298  0.00  0.00     0.022 A 
ATOM      8  C7  BZF d   1       0.188   2.243   1.467  0.00  0.00     0.029 A 
ATOM      9  C7A BZF d   1       1.004   1.245   0.995  0.00  0.00     0.058 A 
ENDROOT
TORSDOF 0
ENDMDL
