MODEL 1
REMARK minimizedAffinity -2.77109599
REMARK minimizedRMSD -1
REMARK  0 active torsions:
REMARK  status: ('A' for Active; 'I' for Inactive)
ROOT
ATOM      1  O1  BZF d   1      -0.136   0.022  -1.163  0.00  0.00    -0.204 OA
ATOM      2  C2  BZF d   1      -0.031   0.143   0.209  0.00  0.00     0.174 A 
ATOM      3  C3  BZF d   1      -0.455  -0.981   0.822  0.00  0.00    -0.012 A 
ATOM      4  C3A BZF d   1      -0.763  -1.894  -0.236  0.00  0.00    -0.107 A 
ATOM      5  C4  BZF d   1      -1.216  -3.182  -0.263  0.00  0.00     0.055 A 
ATOM      6  C5  BZF d   1      -1.484  -3.763  -1.462  0.00  0.00    -0.016 A 
ATOM      7  C6  BZF d   1      -1.316  -3.084  -2.651  0.00  0.00     0.022 A 
ATOM      8  C7  BZF d   1      -0.865  -1.807  -2.675  0.00  0.00     0.029 A 
ATOM      9  C7A BZF d   1      -0.561  -1.228  -1.467  0.00  0.00     0.058 A 
ENDROOT
TORSDOF 0
ENDMDL
