MODEL 1
REMARK minimizedAffinity -0.647821188
REMARK minimizedRMSD -1
REMARK  0 active torsions:
REMARK  status: ('A' for Active; 'I' for Inactive)
ROOT
ATOM      1  O1  BZF d   1       0.542  -2.498  -2.186  0.00  0.00    -0.204 OA
ATOM      2  C2  BZF d   1      -0.578  -3.263  -2.450  0.00  0.00     0.174 A 
ATOM      3  C3  BZF d   1      -1.580  -2.952  -1.603  0.00  0.00    -0.012 A 
ATOM      4  C3A BZF d   1      -1.084  -1.864  -0.817  0.00  0.00    -0.107 A 
ATOM      5  C4  BZF d   1      -1.622  -1.108   0.186  0.00  0.00     0.055 A 
ATOM      6  C5  BZF d   1      -0.848  -0.171   0.794  0.00  0.00    -0.016 A 
ATOM      7  C6  BZF d   1       0.466   0.034   0.429  0.00  0.00     0.022 A 
ATOM      8  C7  BZF d   1       1.042  -0.688  -0.564  0.00  0.00     0.029 A 
ATOM      9  C7A BZF d   1       0.253  -1.613  -1.202  0.00  0.00     0.058 A 
ENDROOT
TORSDOF 0
ENDMDL
