MODEL 1
REMARK minimizedAffinity -6.15013409
REMARK minimizedRMSD -1
REMARK  0 active torsions:
REMARK  status: ('A' for Active; 'I' for Inactive)
ROOT
ATOM      1  O1  BZF d   1       2.175   2.332   0.420  0.00  0.00    -0.204 OA
ATOM      2  C2  BZF d   1       1.349   3.426   0.250  0.00  0.00     0.174 A 
ATOM      3  C3  BZF d   1       0.072   3.036   0.062  0.00  0.00    -0.012 A 
ATOM      4  C3A BZF d   1       0.087   1.613   0.209  0.00  0.00    -0.107 A 
ATOM      5  C4  BZF d   1      -0.881   0.652   0.150  0.00  0.00     0.055 A 
ATOM      6  C5  BZF d   1      -0.524  -0.654   0.265  0.00  0.00    -0.016 A 
ATOM      7  C6  BZF d   1       0.791  -1.035   0.436  0.00  0.00     0.022 A 
ATOM      8  C7  BZF d   1       1.786  -0.117   0.507  0.00  0.00     0.029 A 
ATOM      9  C7A BZF d   1       1.424   1.205   0.423  0.00  0.00     0.058 A 
ENDROOT
TORSDOF 0
ENDMDL
