MODEL 1
REMARK minimizedAffinity -3.25780177
REMARK minimizedRMSD -1
REMARK  0 active torsions:
REMARK  status: ('A' for Active; 'I' for Inactive)
ROOT
ATOM      1  O1  BZF d   1       0.550  -0.709  -0.153  0.00  0.00    -0.204 OA
ATOM      2  C2  BZF d   1      -0.794  -0.864  -0.433  0.00  0.00     0.174 A 
ATOM      3  C3  BZF d   1      -1.506   0.173   0.053  0.00  0.00    -0.012 A 
ATOM      4  C3A BZF d   1      -0.536   1.076   0.594  0.00  0.00    -0.107 A 
ATOM      5  C4  BZF d   1      -0.625   2.294   1.203  0.00  0.00     0.055 A 
ATOM      6  C5  BZF d   1       0.505   2.878   1.681  0.00  0.00    -0.016 A 
ATOM      7  C6  BZF d   1       1.739   2.270   1.571  0.00  0.00     0.022 A 
ATOM      8  C7  BZF d   1       1.877   1.063   0.970  0.00  0.00     0.029 A 
ATOM      9  C7A BZF d   1       0.742   0.486   0.457  0.00  0.00     0.058 A 
ENDROOT
TORSDOF 0
ENDMDL
