MODEL 1
REMARK minimizedAffinity -4.3504324
REMARK minimizedRMSD -1
REMARK  0 active torsions:
REMARK  status: ('A' for Active; 'I' for Inactive)
ROOT
ATOM      1  O1  BZF d   1      -1.065   0.888   1.180  0.00  0.00    -0.204 OA
ATOM      2  C2  BZF d   1      -0.852  -0.305   0.518  0.00  0.00     0.174 A 
ATOM      3  C3  BZF d   1       0.268  -0.244  -0.231  0.00  0.00    -0.012 A 
ATOM      4  C3A BZF d   1       0.837   1.038   0.048  0.00  0.00    -0.107 A 
ATOM      5  C4  BZF d   1       1.965   1.678  -0.381  0.00  0.00     0.055 A 
ATOM      6  C5  BZF d   1       2.196   2.954   0.026  0.00  0.00    -0.016 A 
ATOM      7  C6  BZF d   1       1.319   3.621   0.857  0.00  0.00     0.022 A 
ATOM      8  C7  BZF d   1       0.190   3.026   1.312  0.00  0.00     0.029 A 
ATOM      9  C7A BZF d   1      -0.030   1.725   0.929  0.00  0.00     0.058 A 
ENDROOT
TORSDOF 0
ENDMDL
