MODEL 1
REMARK minimizedAffinity -5.93704462
REMARK minimizedRMSD -1
REMARK  0 active torsions:
REMARK  status: ('A' for Active; 'I' for Inactive)
ROOT
ATOM      1  O1  BZF d   1       0.443  -0.324  -0.324  0.00  0.00    -0.204 OA
ATOM      2  C2  BZF d   1      -0.938  -0.312  -0.338  0.00  0.00     0.174 A 
ATOM      3  C3  BZF d   1      -1.407   0.935  -0.125  0.00  0.00    -0.012 A 
ATOM      4  C3A BZF d   1      -0.246   1.768  -0.060  0.00  0.00    -0.107 A 
ATOM      5  C4  BZF d   1      -0.061   3.109   0.119  0.00  0.00     0.055 A 
ATOM      6  C5  BZF d   1       1.204   3.596   0.206  0.00  0.00    -0.016 A 
ATOM      7  C6  BZF d   1       2.307   2.771   0.125  0.00  0.00     0.022 A 
ATOM      8  C7  BZF d   1       2.174   1.434  -0.056  0.00  0.00     0.029 A 
ATOM      9  C7A BZF d   1       0.897   0.944  -0.178  0.00  0.00     0.058 A 
ENDROOT
TORSDOF 0
ENDMDL
