MODEL 1
REMARK minimizedAffinity -6.50087643
REMARK minimizedRMSD -1
REMARK  0 active torsions:
REMARK  status: ('A' for Active; 'I' for Inactive)
ROOT
ATOM      1  O1  BZF d   1       0.895  -0.509  -0.345  0.00  0.00    -0.204 OA
ATOM      2  C2  BZF d   1       2.222  -0.855  -0.178  0.00  0.00     0.174 A 
ATOM      3  C3  BZF d   1       2.959   0.223   0.159  0.00  0.00    -0.012 A 
ATOM      4  C3A BZF d   1       2.019   1.293   0.297  0.00  0.00    -0.107 A 
ATOM      5  C4  BZF d   1       2.140   2.611   0.632  0.00  0.00     0.055 A 
ATOM      6  C5  BZF d   1       1.037   3.404   0.604  0.00  0.00    -0.016 A 
ATOM      7  C6  BZF d   1      -0.200   2.913   0.240  0.00  0.00     0.022 A 
ATOM      8  C7  BZF d   1      -0.371   1.612  -0.096  0.00  0.00     0.029 A 
ATOM      9  C7A BZF d   1       0.736   0.800  -0.036  0.00  0.00     0.058 A 
ENDROOT
TORSDOF 0
ENDMDL
