MODEL 1
REMARK minimizedAffinity -3.68189883
REMARK minimizedRMSD -1
REMARK  0 active torsions:
REMARK  status: ('A' for Active; 'I' for Inactive)
ROOT
ATOM      1  O1  BZF d   1       2.253  -0.020   0.935  0.00  0.00    -0.204 OA
ATOM      2  C2  BZF d   1       2.914   1.193   0.959  0.00  0.00     0.174 A 
ATOM      3  C3  BZF d   1       2.038   2.217   0.902  0.00  0.00    -0.012 A 
ATOM      4  C3A BZF d   1       0.744   1.607   0.931  0.00  0.00    -0.107 A 
ATOM      5  C4  BZF d   1      -0.528   2.103   0.917  0.00  0.00     0.055 A 
ATOM      6  C5  BZF d   1      -1.575   1.236   0.880  0.00  0.00    -0.016 A 
ATOM      7  C6  BZF d   1      -1.385  -0.130   0.853  0.00  0.00     0.022 A 
ATOM      8  C7  BZF d   1      -0.142  -0.669   0.872  0.00  0.00     0.029 A 
ATOM      9  C7A BZF d   1       0.917   0.203   0.941  0.00  0.00     0.058 A 
ENDROOT
TORSDOF 0
ENDMDL
