MODEL 1
REMARK minimizedAffinity -6.4126792
REMARK minimizedRMSD -1
REMARK  0 active torsions:
REMARK  status: ('A' for Active; 'I' for Inactive)
ROOT
ATOM      1  O1  BZF d   1       0.859  -0.421   0.529  0.00  0.00    -0.204 OA
ATOM      2  C2  BZF d   1      -0.511  -0.591   0.478  0.00  0.00     0.174 A 
ATOM      3  C3  BZF d   1      -1.139   0.601   0.423  0.00  0.00    -0.012 A 
ATOM      4  C3A BZF d   1      -0.093   1.575   0.346  0.00  0.00    -0.107 A 
ATOM      5  C4  BZF d   1      -0.083   2.937   0.253  0.00  0.00     0.055 A 
ATOM      6  C5  BZF d   1       1.108   3.592   0.272  0.00  0.00    -0.016 A 
ATOM      7  C6  BZF d   1       2.305   2.917   0.387  0.00  0.00     0.022 A 
ATOM      8  C7  BZF d   1       2.346   1.565   0.477  0.00  0.00     0.029 A 
ATOM      9  C7A BZF d   1       1.147   0.899   0.425  0.00  0.00     0.058 A 
ENDROOT
TORSDOF 0
ENDMDL
