MODEL 1
REMARK minimizedAffinity 2.43896747
REMARK minimizedRMSD -1
REMARK  0 active torsions:
REMARK  status: ('A' for Active; 'I' for Inactive)
ROOT
ATOM      1  O1  BZF d   1       0.665  -0.409  -1.014  0.00  0.00    -0.204 OA
ATOM      2  C2  BZF d   1       0.151   0.149   0.140  0.00  0.00     0.174 A 
ATOM      3  C3  BZF d   1      -0.891  -0.574   0.598  0.00  0.00    -0.012 A 
ATOM      4  C3A BZF d   1      -0.979  -1.703  -0.276  0.00  0.00    -0.107 A 
ATOM      5  C4  BZF d   1      -1.804  -2.790  -0.327  0.00  0.00     0.055 A 
ATOM      6  C5  BZF d   1      -1.672  -3.673  -1.351  0.00  0.00    -0.016 A 
ATOM      7  C6  BZF d   1      -0.729  -3.498  -2.343  0.00  0.00     0.022 A 
ATOM      8  C7  BZF d   1       0.115  -2.439  -2.333  0.00  0.00     0.029 A 
ATOM      9  C7A BZF d   1       0.006  -1.562  -1.281  0.00  0.00     0.058 A 
ENDROOT
TORSDOF 0
ENDMDL
