MODEL 1
REMARK minimizedAffinity 25.0972443
REMARK minimizedRMSD -1
REMARK  1 active torsions:
REMARK  status: ('A' for Active; 'I' for Inactive)
REMARK    1  A    between atoms: C1_2  and  C2_3 
ROOT
ATOM      1  C2  UNL d   1       0.375  -2.511  -1.804  0.00  0.00    -0.076 A 
ATOM      2  C3  UNL d   1       1.054  -1.862  -2.850  0.00  0.00     0.004 A 
ATOM      3  C4  UNL d   1       2.007  -0.880  -2.587  0.00  0.00    -0.003 A 
ATOM      4  C5  UNL d   1       2.298  -0.532  -1.273  0.00  0.00     0.000 A 
ATOM      5  C6  UNL d   1       1.648  -1.178  -0.222  0.00  0.00     0.000 A 
ATOM      6  C7  UNL d   1       0.696  -2.181  -0.470  0.00  0.00    -0.073 A 
ATOM      7  C8  UNL d   1       0.020  -2.841   0.701  0.00  0.00     0.078 C 
ENDROOT
BRANCH   1   8
ATOM      8  C1  UNL d   1      -0.668  -3.549  -2.152  0.00  0.00     0.053 C 
ATOM      9  C   UNL d   1      -2.018  -2.930  -2.481  0.00  0.00     0.018 C 
ENDBRANCH   1   8
TORSDOF 1
ENDMDL
