MODEL 1
REMARK minimizedAffinity 16.2734852
REMARK minimizedRMSD -1
REMARK  1 active torsions:
REMARK  status: ('A' for Active; 'I' for Inactive)
REMARK    1  A    between atoms: C1_2  and  C2_3 
ROOT
ATOM      1  C2  UNL d   1       2.671  -0.098  -1.340  0.00  0.00    -0.076 A 
ATOM      2  C3  UNL d   1       3.276  -1.016  -0.463  0.00  0.00     0.004 A 
ATOM      3  C4  UNL d   1       2.864  -2.347  -0.421  0.00  0.00    -0.003 A 
ATOM      4  C5  UNL d   1       1.841  -2.782  -1.257  0.00  0.00     0.000 A 
ATOM      5  C6  UNL d   1       1.242  -1.890  -2.145  0.00  0.00     0.000 A 
ATOM      6  C7  UNL d   1       1.656  -0.549  -2.211  0.00  0.00    -0.073 A 
ATOM      7  C8  UNL d   1       0.971   0.371  -3.184  0.00  0.00     0.078 C 
ENDROOT
BRANCH   1   8
ATOM      8  C1  UNL d   1       3.141   1.339  -1.321  0.00  0.00     0.053 C 
ATOM      9  C   UNL d   1       4.620   1.464  -0.992  0.00  0.00     0.018 C 
ENDBRANCH   1   8
TORSDOF 1
ENDMDL
