MODEL 1
REMARK minimizedAffinity 16.7748718
REMARK minimizedRMSD -1
REMARK  1 active torsions:
REMARK  status: ('A' for Active; 'I' for Inactive)
REMARK    1  A    between atoms: C1_2  and  C2_3 
ROOT
ATOM      1  C2  UNL d   1      -3.805   1.920   4.016  0.00  0.00    -0.076 A 
ATOM      2  C3  UNL d   1      -4.834   2.676   3.428  0.00  0.00     0.004 A 
ATOM      3  C4  UNL d   1      -5.436   3.727   4.118  0.00  0.00    -0.003 A 
ATOM      4  C5  UNL d   1      -5.018   4.039   5.407  0.00  0.00     0.000 A 
ATOM      5  C6  UNL d   1      -3.987   3.311   5.999  0.00  0.00     0.000 A 
ATOM      6  C7  UNL d   1      -3.358   2.259   5.311  0.00  0.00    -0.073 A 
ATOM      7  C8  UNL d   1      -2.256   1.503   6.000  0.00  0.00     0.078 C 
ENDROOT
BRANCH   1   8
ATOM      8  C1  UNL d   1      -3.209   0.774   3.230  0.00  0.00     0.053 C 
ATOM      9  C   UNL d   1      -1.872   1.133   2.601  0.00  0.00     0.018 C 
ENDBRANCH   1   8
TORSDOF 1
ENDMDL
