MODEL 1
REMARK minimizedAffinity 22.1591454
REMARK minimizedRMSD -1
REMARK  1 active torsions:
REMARK  status: ('A' for Active; 'I' for Inactive)
REMARK    1  A    between atoms: C1_2  and  C2_3 
ROOT
ATOM      1  C2  UNL d   1      -3.400   3.674  -5.972  0.00  0.00    -0.076 A 
ATOM      2  C3  UNL d   1      -3.550   5.072  -5.947  0.00  0.00     0.004 A 
ATOM      3  C4  UNL d   1      -4.814   5.658  -5.954  0.00  0.00    -0.003 A 
ATOM      4  C5  UNL d   1      -5.950   4.856  -5.986  0.00  0.00     0.000 A 
ATOM      5  C6  UNL d   1      -5.820   3.468  -5.993  0.00  0.00     0.000 A 
ATOM      6  C7  UNL d   1      -4.553   2.861  -5.970  0.00  0.00    -0.073 A 
ATOM      7  C8  UNL d   1      -4.472   1.359  -5.985  0.00  0.00     0.078 C 
ENDROOT
BRANCH   1   8
ATOM      8  C1  UNL d   1      -2.003   3.096  -5.991  0.00  0.00     0.053 C 
ATOM      9  C   UNL d   1      -1.492   2.762  -4.598  0.00  0.00     0.018 C 
ENDBRANCH   1   8
TORSDOF 1
ENDMDL
