MODEL 1
REMARK minimizedAffinity 19.2989483
REMARK minimizedRMSD -1
REMARK  1 active torsions:
REMARK  status: ('A' for Active; 'I' for Inactive)
REMARK    1  A    between atoms: C1_2  and  C2_3 
ROOT
ATOM      1  C2  UNL d   1      -0.653  -2.012  -2.180  0.00  0.00    -0.076 A 
ATOM      2  C3  UNL d   1      -0.373  -3.359  -1.890  0.00  0.00     0.004 A 
ATOM      3  C4  UNL d   1      -1.401  -4.289  -1.737  0.00  0.00    -0.003 A 
ATOM      4  C5  UNL d   1      -2.725  -3.886  -1.872  0.00  0.00     0.000 A 
ATOM      5  C6  UNL d   1      -3.020  -2.558  -2.176  0.00  0.00     0.000 A 
ATOM      6  C7  UNL d   1      -1.996  -1.612  -2.350  0.00  0.00    -0.073 A 
ATOM      7  C8  UNL d   1      -2.372  -0.191  -2.672  0.00  0.00     0.078 C 
ENDROOT
BRANCH   1   8
ATOM      8  C1  UNL d   1       0.501  -1.044  -2.308  0.00  0.00     0.053 C 
ATOM      9  C   UNL d   1       1.504  -1.180  -1.173  0.00  0.00     0.018 C 
ENDBRANCH   1   8
TORSDOF 1
ENDMDL
