MODEL 1
REMARK minimizedAffinity 4.1472559
REMARK minimizedRMSD -1
REMARK  1 active torsions:
REMARK  status: ('A' for Active; 'I' for Inactive)
REMARK    1  A    between atoms: C1_2  and  C2_3 
ROOT
ATOM      1  C2  UNL d   1      -4.872   0.975   5.020  0.00  0.00    -0.076 A 
ATOM      2  C3  UNL d   1      -5.844  -0.016   5.244  0.00  0.00     0.004 A 
ATOM      3  C4  UNL d   1      -5.992  -1.087   4.365  0.00  0.00    -0.003 A 
ATOM      4  C5  UNL d   1      -5.171  -1.185   3.247  0.00  0.00     0.000 A 
ATOM      5  C6  UNL d   1      -4.191  -0.220   3.018  0.00  0.00     0.000 A 
ATOM      6  C7  UNL d   1      -4.017   0.858   3.903  0.00  0.00    -0.073 A 
ATOM      7  C8  UNL d   1      -2.948   1.873   3.604  0.00  0.00     0.078 C 
ENDROOT
BRANCH   1   8
ATOM      8  C1  UNL d   1      -4.776   2.128   5.993  0.00  0.00     0.053 C 
ATOM      9  C   UNL d   1      -5.691   3.284   5.620  0.00  0.00     0.018 C 
ENDBRANCH   1   8
TORSDOF 1
ENDMDL
