MODEL 1
REMARK minimizedAffinity 18.2527676
REMARK minimizedRMSD -1
REMARK  1 active torsions:
REMARK  status: ('A' for Active; 'I' for Inactive)
REMARK    1  A    between atoms: C1_2  and  C2_3 
ROOT
ATOM      1  C2  UNL d   1      -4.257   1.092   4.232  0.00  0.00    -0.076 A 
ATOM      2  C3  UNL d   1      -3.076   1.757   3.860  0.00  0.00     0.004 A 
ATOM      3  C4  UNL d   1      -2.363   1.371   2.726  0.00  0.00    -0.003 A 
ATOM      4  C5  UNL d   1      -2.819   0.315   1.946  0.00  0.00     0.000 A 
ATOM      5  C6  UNL d   1      -3.999  -0.345   2.291  0.00  0.00     0.000 A 
ATOM      6  C7  UNL d   1      -4.738   0.042   3.422  0.00  0.00    -0.073 A 
ATOM      7  C8  UNL d   1      -6.000  -0.709   3.751  0.00  0.00     0.078 C 
ENDROOT
BRANCH   1   8
ATOM      8  C1  UNL d   1      -4.974   1.537   5.487  0.00  0.00     0.053 C 
ATOM      9  C   UNL d   1      -5.212   3.039   5.521  0.00  0.00     0.018 C 
ENDBRANCH   1   8
TORSDOF 1
ENDMDL
