MODEL 1
REMARK minimizedAffinity 4.55099535
REMARK minimizedRMSD -1
REMARK  1 active torsions:
REMARK  status: ('A' for Active; 'I' for Inactive)
REMARK    1  A    between atoms: C1_2  and  C2_3 
ROOT
ATOM      1  C2  UNL d   1      -4.124  -5.258  -4.268  0.00  0.00    -0.076 A 
ATOM      2  C3  UNL d   1      -5.084  -5.995  -4.982  0.00  0.00     0.004 A 
ATOM      3  C4  UNL d   1      -5.982  -5.363  -5.841  0.00  0.00    -0.003 A 
ATOM      4  C5  UNL d   1      -5.934  -3.982  -5.998  0.00  0.00     0.000 A 
ATOM      5  C6  UNL d   1      -4.977  -3.237  -5.311  0.00  0.00     0.000 A 
ATOM      6  C7  UNL d   1      -4.054  -3.861  -4.454  0.00  0.00    -0.073 A 
ATOM      7  C8  UNL d   1      -3.047  -3.007  -3.733  0.00  0.00     0.078 C 
ENDROOT
BRANCH   1   8
ATOM      8  C1  UNL d   1      -3.195  -5.996  -3.331  0.00  0.00     0.053 C 
ATOM      9  C   UNL d   1      -3.680  -5.970  -1.889  0.00  0.00     0.018 C 
ENDBRANCH   1   8
TORSDOF 1
ENDMDL
