MODEL 1
REMARK minimizedAffinity 11.8532591
REMARK minimizedRMSD -1
REMARK  1 active torsions:
REMARK  status: ('A' for Active; 'I' for Inactive)
REMARK    1  A    between atoms: C1_2  and  C2_3 
ROOT
ATOM      1  C2  UNL d   1       1.435   2.895   0.881  0.00  0.00    -0.076 A 
ATOM      2  C3  UNL d   1       0.745   4.113   1.001  0.00  0.00     0.004 A 
ATOM      3  C4  UNL d   1       0.597   4.965  -0.092  0.00  0.00    -0.003 A 
ATOM      4  C5  UNL d   1       1.136   4.612  -1.324  0.00  0.00     0.000 A 
ATOM      5  C6  UNL d   1       1.809   3.399  -1.466  0.00  0.00     0.000 A 
ATOM      6  C7  UNL d   1       1.953   2.521  -0.378  0.00  0.00    -0.073 A 
ATOM      7  C8  UNL d   1       2.693   1.228  -0.586  0.00  0.00     0.078 C 
ENDROOT
BRANCH   1   8
ATOM      8  C1  UNL d   1       1.587   2.024   2.108  0.00  0.00     0.053 C 
ATOM      9  C   UNL d   1       0.387   1.116   2.330  0.00  0.00     0.018 C 
ENDBRANCH   1   8
TORSDOF 1
ENDMDL
