MODEL 1
REMARK minimizedAffinity 0.548375785
REMARK minimizedRMSD -1
REMARK  1 active torsions:
REMARK  status: ('A' for Active; 'I' for Inactive)
REMARK    1  A    between atoms: C1_2  and  C2_3 
ROOT
ATOM      1  C2  UNL d   1       2.019  -4.509  -2.236  0.00  0.00    -0.076 A 
ATOM      2  C3  UNL d   1       1.409  -3.243  -2.236  0.00  0.00     0.004 A 
ATOM      3  C4  UNL d   1       1.987  -2.168  -1.562  0.00  0.00    -0.003 A 
ATOM      4  C5  UNL d   1       3.185  -2.342  -0.879  0.00  0.00     0.000 A 
ATOM      5  C6  UNL d   1       3.813  -3.587  -0.883  0.00  0.00     0.000 A 
ATOM      6  C7  UNL d   1       3.252  -4.677  -1.570  0.00  0.00    -0.073 A 
ATOM      7  C8  UNL d   1       3.969  -5.999  -1.536  0.00  0.00     0.078 C 
ENDROOT
BRANCH   1   8
ATOM      8  C1  UNL d   1       1.331  -5.644  -2.960  0.00  0.00     0.053 C 
ATOM      9  C   UNL d   1      -0.123  -5.333  -3.283  0.00  0.00     0.018 C 
ENDBRANCH   1   8
TORSDOF 1
ENDMDL
