MODEL 1
REMARK minimizedAffinity 22.4302711
REMARK minimizedRMSD -1
REMARK  1 active torsions:
REMARK  status: ('A' for Active; 'I' for Inactive)
REMARK    1  A    between atoms: C1_2  and  C2_3 
ROOT
ATOM      1  C2  UNL d   1      -0.697  -2.010  -2.204  0.00  0.00    -0.076 A 
ATOM      2  C3  UNL d   1      -0.516  -3.405  -2.207  0.00  0.00     0.004 A 
ATOM      3  C4  UNL d   1      -1.553  -4.262  -2.568  0.00  0.00    -0.003 A 
ATOM      4  C5  UNL d   1      -2.789  -3.739  -2.934  0.00  0.00     0.000 A 
ATOM      5  C6  UNL d   1      -2.981  -2.358  -2.954  0.00  0.00     0.000 A 
ATOM      6  C7  UNL d   1      -1.940  -1.479  -2.608  0.00  0.00    -0.073 A 
ATOM      7  C8  UNL d   1      -2.204   0.001  -2.641  0.00  0.00     0.078 C 
ENDROOT
BRANCH   1   8
ATOM      8  C1  UNL d   1       0.457  -1.131  -1.776  0.00  0.00     0.053 C 
ATOM      9  C   UNL d   1       1.044  -1.551  -0.438  0.00  0.00     0.018 C 
ENDBRANCH   1   8
TORSDOF 1
ENDMDL
