MODEL 1
REMARK minimizedAffinity 11.9840775
REMARK minimizedRMSD -1
REMARK  1 active torsions:
REMARK  status: ('A' for Active; 'I' for Inactive)
REMARK    1  A    between atoms: C1_2  and  C2_3 
ROOT
ATOM      1  C2  UNL d   1      -3.336  -0.266   3.065  0.00  0.00    -0.076 A 
ATOM      2  C3  UNL d   1      -2.201  -1.016   2.711  0.00  0.00     0.004 A 
ATOM      3  C4  UNL d   1      -0.957  -0.406   2.558  0.00  0.00    -0.003 A 
ATOM      4  C5  UNL d   1      -0.828   0.965   2.756  0.00  0.00     0.000 A 
ATOM      5  C6  UNL d   1      -1.940   1.721   3.124  0.00  0.00     0.000 A 
ATOM      6  C7  UNL d   1      -3.198   1.119   3.299  0.00  0.00    -0.073 A 
ATOM      7  C8  UNL d   1      -4.364   1.984   3.691  0.00  0.00     0.078 C 
ENDROOT
BRANCH   1   8
ATOM      8  C1  UNL d   1      -4.664  -0.977   3.190  0.00  0.00     0.053 C 
ATOM      9  C   UNL d   1      -5.389  -1.098   1.859  0.00  0.00     0.018 C 
ENDBRANCH   1   8
TORSDOF 1
ENDMDL
