MODEL 1
REMARK minimizedAffinity 17.6097813
REMARK minimizedRMSD -1
REMARK  1 active torsions:
REMARK  status: ('A' for Active; 'I' for Inactive)
REMARK    1  A    between atoms: C1_2  and  C2_3 
ROOT
ATOM      1  C2  UNL d   1       2.569   0.558  -1.381  0.00  0.00    -0.076 A 
ATOM      2  C3  UNL d   1       2.102   1.430  -2.380  0.00  0.00     0.004 A 
ATOM      3  C4  UNL d   1       1.435   0.942  -3.502  0.00  0.00    -0.003 A 
ATOM      4  C5  UNL d   1       1.223  -0.425  -3.644  0.00  0.00     0.000 A 
ATOM      5  C6  UNL d   1       1.664  -1.302  -2.654  0.00  0.00     0.000 A 
ATOM      6  C7  UNL d   1       2.324  -0.826  -1.508  0.00  0.00    -0.073 A 
ATOM      7  C8  UNL d   1       2.783  -1.818  -0.475  0.00  0.00     0.078 C 
ENDROOT
BRANCH   1   8
ATOM      8  C1  UNL d   1       3.309   1.142  -0.199  0.00  0.00     0.053 C 
ATOM      9  C   UNL d   1       3.125   2.647  -0.081  0.00  0.00     0.018 C 
ENDBRANCH   1   8
TORSDOF 1
ENDMDL
