MODEL 1
REMARK minimizedAffinity 9.41414642
REMARK minimizedRMSD -1
REMARK  1 active torsions:
REMARK  status: ('A' for Active; 'I' for Inactive)
REMARK    1  A    between atoms: C1_2  and  C2_3 
ROOT
ATOM      1  C2  UNL d   1       3.134  -2.507  -2.865  0.00  0.00    -0.076 A 
ATOM      2  C3  UNL d   1       2.713  -1.201  -3.171  0.00  0.00     0.004 A 
ATOM      3  C4  UNL d   1       1.986  -0.448  -2.251  0.00  0.00    -0.003 A 
ATOM      4  C5  UNL d   1       1.668  -0.988  -1.009  0.00  0.00     0.000 A 
ATOM      5  C6  UNL d   1       2.093  -2.275  -0.682  0.00  0.00     0.000 A 
ATOM      6  C7  UNL d   1       2.841  -3.042  -1.592  0.00  0.00    -0.073 A 
ATOM      7  C8  UNL d   1       3.268  -4.427  -1.189  0.00  0.00     0.078 C 
ENDROOT
BRANCH   1   8
ATOM      8  C1  UNL d   1       3.897  -3.286  -3.913  0.00  0.00     0.053 C 
ATOM      9  C   UNL d   1       3.744  -2.694  -5.305  0.00  0.00     0.018 C 
ENDBRANCH   1   8
TORSDOF 1
ENDMDL
