MODEL 1
REMARK minimizedAffinity -5.1657424
REMARK minimizedRMSD -1
REMARK  0 active torsions:
REMARK  status: ('A' for Active; 'I' for Inactive)
ROOT
ATOM      1  C   UNL d   1      -0.638   0.422   1.156  0.00  0.00     0.078 C 
ATOM      2  C1  UNL d   1       0.674  -0.304   1.178  0.00  0.00    -0.077 A 
ATOM      3  C2  UNL d   1       1.441  -0.443   0.015  0.00  0.00    -0.001 A 
ATOM      4  C3  UNL d   1       2.656  -1.130   0.048  0.00  0.00     0.003 A 
ATOM      5  C4  UNL d   1       3.113  -1.685   1.241  0.00  0.00    -0.005 A 
ATOM      6  C5  UNL d   1       2.356  -1.554   2.403  0.00  0.00     0.003 A 
ATOM      7  C6  UNL d   1       1.141  -0.868   2.372  0.00  0.00    -0.001 A 
ENDROOT
TORSDOF 0
ENDMDL
