MODEL 1
REMARK minimizedAffinity -2.87932754
REMARK minimizedRMSD -1
REMARK  0 active torsions:
REMARK  status: ('A' for Active; 'I' for Inactive)
ROOT
ATOM      1  C   UNL d   1       1.498   0.339   2.333  0.00  0.00     0.078 C 
ATOM      2  C1  UNL d   1       0.630   0.323   1.110  0.00  0.00    -0.077 A 
ATOM      3  C2  UNL d   1      -0.761   0.197   1.215  0.00  0.00    -0.001 A 
ATOM      4  C3  UNL d   1      -1.556   0.174   0.068  0.00  0.00     0.003 A 
ATOM      5  C4  UNL d   1      -0.969   0.273  -1.192  0.00  0.00    -0.005 A 
ATOM      6  C5  UNL d   1       0.414   0.396  -1.306  0.00  0.00     0.003 A 
ATOM      7  C6  UNL d   1       1.211   0.420  -0.160  0.00  0.00    -0.001 A 
ENDROOT
TORSDOF 0
ENDMDL
