MODEL 1
REMARK minimizedAffinity -4.99170971
REMARK minimizedRMSD -1
REMARK  0 active torsions:
REMARK  status: ('A' for Active; 'I' for Inactive)
ROOT
ATOM      1  C   UNL d   1       1.449  -0.037   3.233  0.00  0.00     0.078 C 
ATOM      2  C1  UNL d   1       0.737  -0.134   1.917  0.00  0.00    -0.077 A 
ATOM      3  C2  UNL d   1       1.450  -0.234   0.717  0.00  0.00    -0.001 A 
ATOM      4  C3  UNL d   1       0.774  -0.314  -0.502  0.00  0.00     0.003 A 
ATOM      5  C4  UNL d   1      -0.619  -0.292  -0.532  0.00  0.00    -0.005 A 
ATOM      6  C5  UNL d   1      -1.337  -0.191   0.658  0.00  0.00     0.003 A 
ATOM      7  C6  UNL d   1      -0.663  -0.111   1.877  0.00  0.00    -0.001 A 
ENDROOT
TORSDOF 0
ENDMDL
