MODEL 1
REMARK minimizedAffinity -3.84551692
REMARK minimizedRMSD -1
REMARK  0 active torsions:
REMARK  status: ('A' for Active; 'I' for Inactive)
ROOT
ATOM      1  C   UNL d   1       1.842  -0.166   2.105  0.00  0.00     0.078 C 
ATOM      2  C1  UNL d   1       0.978  -0.234   0.881  0.00  0.00    -0.077 A 
ATOM      3  C2  UNL d   1       1.541  -0.379  -0.393  0.00  0.00    -0.001 A 
ATOM      4  C3  UNL d   1       0.725  -0.430  -1.524  0.00  0.00     0.003 A 
ATOM      5  C4  UNL d   1      -0.659  -0.336  -1.393  0.00  0.00    -0.005 A 
ATOM      6  C5  UNL d   1      -1.228  -0.189  -0.130  0.00  0.00     0.003 A 
ATOM      7  C6  UNL d   1      -0.414  -0.138   1.002  0.00  0.00    -0.001 A 
ENDROOT
TORSDOF 0
ENDMDL
