MODEL 1
REMARK minimizedAffinity -3.58937144
REMARK minimizedRMSD -1
REMARK  0 active torsions:
REMARK  status: ('A' for Active; 'I' for Inactive)
ROOT
ATOM      1  C   UNL d   1      -0.137   0.537  -1.462  0.00  0.00     0.078 C 
ATOM      2  C1  UNL d   1      -0.076   0.077  -0.036  0.00  0.00    -0.077 A 
ATOM      3  C2  UNL d   1      -1.181  -0.529   0.574  0.00  0.00    -0.001 A 
ATOM      4  C3  UNL d   1      -1.114  -0.944   1.905  0.00  0.00     0.003 A 
ATOM      5  C4  UNL d   1       0.057  -0.755   2.638  0.00  0.00    -0.005 A 
ATOM      6  C5  UNL d   1       1.160  -0.151   2.040  0.00  0.00     0.003 A 
ATOM      7  C6  UNL d   1       1.094   0.265   0.709  0.00  0.00    -0.001 A 
ENDROOT
TORSDOF 0
ENDMDL
