MODEL 1
REMARK minimizedAffinity -4.35733891
REMARK minimizedRMSD -1
REMARK  0 active torsions:
REMARK  status: ('A' for Active; 'I' for Inactive)
ROOT
ATOM      1  C   UNL d   1      -0.406   0.202  -1.331  0.00  0.00     0.078 C 
ATOM      2  C1  UNL d   1      -0.030  -0.193   0.066  0.00  0.00    -0.077 A 
ATOM      3  C2  UNL d   1      -1.010  -0.425   1.039  0.00  0.00    -0.001 A 
ATOM      4  C3  UNL d   1      -0.645  -0.783   2.337  0.00  0.00     0.003 A 
ATOM      5  C4  UNL d   1       0.701  -0.911   2.676  0.00  0.00    -0.005 A 
ATOM      6  C5  UNL d   1       1.683  -0.680   1.715  0.00  0.00     0.003 A 
ATOM      7  C6  UNL d   1       1.320  -0.322   0.416  0.00  0.00    -0.001 A 
ENDROOT
TORSDOF 0
ENDMDL
