MODEL 1
REMARK minimizedAffinity -4.30446386
REMARK minimizedRMSD -1
REMARK  0 active torsions:
REMARK  status: ('A' for Active; 'I' for Inactive)
ROOT
ATOM      1  C   UNL d   1      -0.437   0.287  -0.993  0.00  0.00     0.078 C 
ATOM      2  C1  UNL d   1       0.002  -0.074   0.395  0.00  0.00    -0.077 A 
ATOM      3  C2  UNL d   1       1.349   0.005   0.769  0.00  0.00    -0.001 A 
ATOM      4  C3  UNL d   1       1.744  -0.343   2.062  0.00  0.00     0.003 A 
ATOM      5  C4  UNL d   1       0.799  -0.775   2.990  0.00  0.00    -0.005 A 
ATOM      6  C5  UNL d   1      -0.543  -0.859   2.626  0.00  0.00     0.003 A 
ATOM      7  C6  UNL d   1      -0.941  -0.511   1.334  0.00  0.00    -0.001 A 
ENDROOT
TORSDOF 0
ENDMDL
