MODEL 1
REMARK minimizedAffinity -5.6132884
REMARK minimizedRMSD -1
REMARK  0 active torsions:
REMARK  status: ('A' for Active; 'I' for Inactive)
ROOT
ATOM      1  C   UNL d   1      -0.857   0.164  -0.723  0.00  0.00     0.078 C 
ATOM      2  C1  UNL d   1       0.055  -0.569   0.214  0.00  0.00    -0.077 A 
ATOM      3  C2  UNL d   1       1.229  -1.176  -0.249  0.00  0.00    -0.001 A 
ATOM      4  C3  UNL d   1       2.063  -1.864   0.633  0.00  0.00     0.003 A 
ATOM      5  C4  UNL d   1       1.732  -1.953   1.984  0.00  0.00    -0.005 A 
ATOM      6  C5  UNL d   1       0.565  -1.355   2.453  0.00  0.00     0.003 A 
ATOM      7  C6  UNL d   1      -0.271  -0.666   1.573  0.00  0.00    -0.001 A 
ENDROOT
TORSDOF 0
ENDMDL
