MODEL 1
REMARK minimizedAffinity -4.03177309
REMARK minimizedRMSD -1
REMARK  0 active torsions:
REMARK  status: ('A' for Active; 'I' for Inactive)
ROOT
ATOM      1  C   UNL d   1      -0.256  -0.119  -0.737  0.00  0.00     0.078 C 
ATOM      2  C1  UNL d   1       0.499  -0.960   0.249  0.00  0.00    -0.077 A 
ATOM      3  C2  UNL d   1       1.592  -1.738  -0.154  0.00  0.00    -0.001 A 
ATOM      4  C3  UNL d   1       2.279  -2.523   0.772  0.00  0.00     0.003 A 
ATOM      5  C4  UNL d   1       1.881  -2.540   2.107  0.00  0.00    -0.005 A 
ATOM      6  C5  UNL d   1       0.793  -1.772   2.517  0.00  0.00     0.003 A 
ATOM      7  C6  UNL d   1       0.105  -0.986   1.592  0.00  0.00    -0.001 A 
ENDROOT
TORSDOF 0
ENDMDL
