MODEL 1
REMARK minimizedAffinity -4.47418737
REMARK minimizedRMSD -1
REMARK  0 active torsions:
REMARK  status: ('A' for Active; 'I' for Inactive)
ROOT
ATOM      1  C   UNL d   1       1.170  -0.714   2.602  0.00  0.00     0.078 C 
ATOM      2  C1  UNL d   1       0.800  -0.757   1.149  0.00  0.00    -0.077 A 
ATOM      3  C2  UNL d   1       1.625  -1.394   0.214  0.00  0.00    -0.001 A 
ATOM      4  C3  UNL d   1       1.274  -1.418  -1.136  0.00  0.00     0.003 A 
ATOM      5  C4  UNL d   1       0.097  -0.807  -1.564  0.00  0.00    -0.005 A 
ATOM      6  C5  UNL d   1      -0.730  -0.169  -0.641  0.00  0.00     0.003 A 
ATOM      7  C6  UNL d   1      -0.380  -0.144   0.710  0.00  0.00    -0.001 A 
ENDROOT
TORSDOF 0
ENDMDL
