MODEL 1
REMARK minimizedAffinity -5.41158342
REMARK minimizedRMSD -1
REMARK  0 active torsions:
REMARK  status: ('A' for Active; 'I' for Inactive)
ROOT
ATOM      1  C   UNL d   1      -0.399   0.412  -1.367  0.00  0.00     0.078 C 
ATOM      2  C1  UNL d   1       0.175  -0.017  -0.049  0.00  0.00    -0.077 A 
ATOM      3  C2  UNL d   1      -0.612  -0.033   1.109  0.00  0.00    -0.001 A 
ATOM      4  C3  UNL d   1      -0.062  -0.425   2.331  0.00  0.00     0.003 A 
ATOM      5  C4  UNL d   1       1.277  -0.803   2.406  0.00  0.00    -0.005 A 
ATOM      6  C5  UNL d   1       2.068  -0.789   1.259  0.00  0.00     0.003 A 
ATOM      7  C6  UNL d   1       1.520  -0.397   0.037  0.00  0.00    -0.001 A 
ENDROOT
TORSDOF 0
ENDMDL
