MODEL 1
REMARK minimizedAffinity 11.3093281
REMARK minimizedRMSD -1
REMARK  0 active torsions:
REMARK  status: ('A' for Active; 'I' for Inactive)
ROOT
ATOM      1  O1  BZF d   1       0.412  -0.671  -0.909  0.00  0.00    -0.204 OA
ATOM      2  C2  BZF d   1       1.739  -0.868  -1.238  0.00  0.00     0.174 A 
ATOM      3  C3  BZF d   1       2.441  -1.285  -0.164  0.00  0.00    -0.012 A 
ATOM      4  C3A BZF d   1       1.475  -1.441   0.880  0.00  0.00    -0.107 A 
ATOM      5  C4  BZF d   1       1.556  -1.846   2.181  0.00  0.00     0.055 A 
ATOM      6  C5  BZF d   1       0.438  -1.816   2.953  0.00  0.00    -0.016 A 
ATOM      7  C6  BZF d   1      -0.775  -1.384   2.458  0.00  0.00     0.022 A 
ATOM      8  C7  BZF d   1      -0.906  -0.978   1.172  0.00  0.00     0.029 A 
ATOM      9  C7A BZF d   1       0.215  -1.038   0.380  0.00  0.00     0.058 A 
ENDROOT
TORSDOF 0
ENDMDL
