MODEL 1
REMARK minimizedAffinity 9.21064854
REMARK minimizedRMSD -1
REMARK  0 active torsions:
REMARK  status: ('A' for Active; 'I' for Inactive)
ROOT
ATOM      1  O1  BZF d   1      -0.323  -0.587  -0.333  0.00  0.00    -0.204 OA
ATOM      2  C2  BZF d   1       0.746  -0.516  -1.205  0.00  0.00     0.174 A 
ATOM      3  C3  BZF d   1       1.907  -0.745  -0.559  0.00  0.00    -0.012 A 
ATOM      4  C3A BZF d   1       1.532  -1.065   0.785  0.00  0.00    -0.107 A 
ATOM      5  C4  BZF d   1       2.242  -1.404   1.901  0.00  0.00     0.055 A 
ATOM      6  C5  BZF d   1       1.580  -1.582   3.075  0.00  0.00    -0.016 A 
ATOM      7  C6  BZF d   1       0.213  -1.425   3.169  0.00  0.00     0.022 A 
ATOM      8  C7  BZF d   1      -0.534  -1.095   2.087  0.00  0.00     0.029 A 
ATOM      9  C7A BZF d   1       0.128  -0.946   0.893  0.00  0.00     0.058 A 
ENDROOT
TORSDOF 0
ENDMDL
