MODEL 1
REMARK minimizedAffinity 4.5391798
REMARK minimizedRMSD -1
REMARK  0 active torsions:
REMARK  status: ('A' for Active; 'I' for Inactive)
ROOT
ATOM      1  O1  BZF d   1       3.028   2.997  -0.921  0.00  0.00    -0.204 OA
ATOM      2  C2  BZF d   1       3.362   2.743   0.396  0.00  0.00     0.174 A 
ATOM      3  C3  BZF d   1       3.212   1.434   0.683  0.00  0.00    -0.012 A 
ATOM      4  C3A BZF d   1       2.846   0.816  -0.554  0.00  0.00    -0.107 A 
ATOM      5  C4  BZF d   1       2.575  -0.472  -0.916  0.00  0.00     0.055 A 
ATOM      6  C5  BZF d   1       2.176  -0.731  -2.189  0.00  0.00    -0.016 A 
ATOM      7  C6  BZF d   1       2.033   0.274  -3.124  0.00  0.00     0.022 A 
ATOM      8  C7  BZF d   1       2.295   1.567  -2.813  0.00  0.00     0.029 A 
ATOM      9  C7A BZF d   1       2.730   1.827  -1.536  0.00  0.00     0.058 A 
ENDROOT
TORSDOF 0
ENDMDL
