MODEL 1
REMARK minimizedAffinity 0.402074128
REMARK minimizedRMSD -1
REMARK  0 active torsions:
REMARK  status: ('A' for Active; 'I' for Inactive)
ROOT
ATOM      1  O1  BZF d   1       0.840  -0.997  -0.745  0.00  0.00    -0.204 OA
ATOM      2  C2  BZF d   1       2.010  -1.490  -1.289  0.00  0.00     0.174 A 
ATOM      3  C3  BZF d   1       2.862  -1.880  -0.319  0.00  0.00    -0.012 A 
ATOM      4  C3A BZF d   1       2.145  -1.700   0.906  0.00  0.00    -0.107 A 
ATOM      5  C4  BZF d   1       2.454  -1.926   2.217  0.00  0.00     0.055 A 
ATOM      6  C5  BZF d   1       1.559  -1.574   3.177  0.00  0.00    -0.016 A 
ATOM      7  C6  BZF d   1       0.349  -0.990   2.863  0.00  0.00     0.022 A 
ATOM      8  C7  BZF d   1      -0.004  -0.750   1.576  0.00  0.00     0.029 A 
ATOM      9  C7A BZF d   1       0.885  -1.135   0.602  0.00  0.00     0.058 A 
ENDROOT
TORSDOF 0
ENDMDL
