MODEL 1
REMARK minimizedAffinity -1.4444654
REMARK minimizedRMSD -1
REMARK  0 active torsions:
REMARK  status: ('A' for Active; 'I' for Inactive)
ROOT
ATOM      1  O1  BZF d   1       2.098  -0.185   3.514  0.00  0.00    -0.204 OA
ATOM      2  C2  BZF d   1       2.256   1.147   3.180  0.00  0.00     0.174 A 
ATOM      3  C3  BZF d   1       2.740   1.272   1.928  0.00  0.00    -0.012 A 
ATOM      4  C3A BZF d   1       2.808  -0.062   1.415  0.00  0.00    -0.107 A 
ATOM      5  C4  BZF d   1       3.195  -0.589   0.216  0.00  0.00     0.055 A 
ATOM      6  C5  BZF d   1       3.211  -1.939   0.062  0.00  0.00    -0.016 A 
ATOM      7  C6  BZF d   1       2.852  -2.791   1.086  0.00  0.00     0.022 A 
ATOM      8  C7  BZF d   1       2.457  -2.315   2.292  0.00  0.00     0.029 A 
ATOM      9  C7A BZF d   1       2.408  -0.950   2.440  0.00  0.00     0.058 A 
ENDROOT
TORSDOF 0
ENDMDL
