MODEL 1
REMARK minimizedAffinity 0.122389466
REMARK minimizedRMSD -1
REMARK  0 active torsions:
REMARK  status: ('A' for Active; 'I' for Inactive)
ROOT
ATOM      1  O1  BZF d   1       2.581  -0.309   0.537  0.00  0.00    -0.204 OA
ATOM      2  C2  BZF d   1       2.566  -1.569  -0.031  0.00  0.00     0.174 A 
ATOM      3  C3  BZF d   1       2.467  -1.487  -1.374  0.00  0.00    -0.012 A 
ATOM      4  C3A BZF d   1       2.509  -0.088  -1.669  0.00  0.00    -0.107 A 
ATOM      5  C4  BZF d   1       2.468   0.628  -2.832  0.00  0.00     0.055 A 
ATOM      6  C5  BZF d   1       2.456   1.985  -2.772  0.00  0.00    -0.016 A 
ATOM      7  C6  BZF d   1       2.479   2.659  -1.568  0.00  0.00     0.022 A 
ATOM      8  C7  BZF d   1       2.525   1.993  -0.389  0.00  0.00     0.029 A 
ATOM      9  C7A BZF d   1       2.571   0.621  -0.447  0.00  0.00     0.058 A 
ENDROOT
TORSDOF 0
ENDMDL
