MODEL 1
REMARK minimizedAffinity 6.75980806
REMARK minimizedRMSD -1
REMARK  0 active torsions:
REMARK  status: ('A' for Active; 'I' for Inactive)
ROOT
ATOM      1  O1  BZF d   1      -0.683  -0.555   3.453  0.00  0.00    -0.204 OA
ATOM      2  C2  BZF d   1      -1.624  -1.163   2.645  0.00  0.00     0.174 A 
ATOM      3  C3  BZF d   1      -1.027  -1.886   1.676  0.00  0.00    -0.012 A 
ATOM      4  C3A BZF d   1       0.374  -1.795   1.947  0.00  0.00    -0.107 A 
ATOM      5  C4  BZF d   1       1.483  -2.315   1.344  0.00  0.00     0.055 A 
ATOM      6  C5  BZF d   1       2.712  -1.975   1.814  0.00  0.00    -0.016 A 
ATOM      7  C6  BZF d   1       2.869  -1.113   2.880  0.00  0.00     0.022 A 
ATOM      8  C7  BZF d   1       1.798  -0.576   3.514  0.00  0.00     0.029 A 
ATOM      9  C7A BZF d   1       0.554  -0.944   3.062  0.00  0.00     0.058 A 
ENDROOT
TORSDOF 0
ENDMDL
