MODEL 1
REMARK minimizedAffinity -0.159164578
REMARK minimizedRMSD -1
REMARK  1 active torsions:
REMARK  status: ('A' for Active; 'I' for Inactive)
REMARK    1  A    between atoms: C1_2  and  C2_3 
ROOT
ATOM      1  C2  UNL d   1       0.482  -2.365  -0.129  0.00  0.00    -0.081 A 
ATOM      2  C3  UNL d   1       0.383  -3.454  -1.003  0.00  0.00     0.006 A 
ATOM      3  C4  UNL d   1      -0.868  -3.926  -1.407  0.00  0.00     0.002 A 
ATOM      4  C5  UNL d   1      -2.039  -3.313  -0.950  0.00  0.00    -0.080 A 
ATOM      5  C6  UNL d   1      -3.388  -3.791  -1.400  0.00  0.00     0.076 C 
ATOM      6  C7  UNL d   1      -1.941  -2.236  -0.063  0.00  0.00     0.002 A 
ATOM      7  C8  UNL d   1      -0.690  -1.764   0.342  0.00  0.00     0.006 A 
ENDROOT
BRANCH   1   8
ATOM      8  C1  UNL d   1       1.830  -1.812   0.257  0.00  0.00     0.054 C 
ATOM      9  C   UNL d   1       1.829  -0.290   0.244  0.00  0.00     0.018 C 
ENDBRANCH   1   8
TORSDOF 1
ENDMDL
