MODEL 1
REMARK minimizedAffinity 10.1822309
REMARK minimizedRMSD -1
REMARK  1 active torsions:
REMARK  status: ('A' for Active; 'I' for Inactive)
REMARK    1  A    between atoms: C1_2  and  C2_3 
ROOT
ATOM      1  C2  UNL d   1      -1.617  -2.824  -0.389  0.00  0.00    -0.081 A 
ATOM      2  C3  UNL d   1      -2.389  -3.082  -1.528  0.00  0.00     0.006 A 
ATOM      3  C4  UNL d   1      -3.480  -2.268  -1.842  0.00  0.00     0.002 A 
ATOM      4  C5  UNL d   1      -3.812  -1.180  -1.027  0.00  0.00    -0.080 A 
ATOM      5  C6  UNL d   1      -4.963  -0.281  -1.370  0.00  0.00     0.076 C 
ATOM      6  C7  UNL d   1      -3.051  -0.933   0.120  0.00  0.00     0.002 A 
ATOM      7  C8  UNL d   1      -1.960  -1.747   0.435  0.00  0.00     0.006 A 
ENDROOT
BRANCH   1   8
ATOM      8  C1  UNL d   1      -0.401  -3.661  -0.082  0.00  0.00     0.054 C 
ATOM      9  C   UNL d   1      -0.520  -5.053  -0.686  0.00  0.00     0.018 C 
ENDBRANCH   1   8
TORSDOF 1
ENDMDL
