MODEL 1
REMARK minimizedAffinity 6.90875816
REMARK minimizedRMSD -1
REMARK  1 active torsions:
REMARK  status: ('A' for Active; 'I' for Inactive)
REMARK    1  A    between atoms: C1_2  and  C2_3 
ROOT
ATOM      1  C2  UNL d   1       1.706  -0.544   0.406  0.00  0.00    -0.081 A 
ATOM      2  C3  UNL d   1       0.402  -0.883   0.788  0.00  0.00     0.006 A 
ATOM      3  C4  UNL d   1      -0.158  -2.101   0.392  0.00  0.00     0.002 A 
ATOM      4  C5  UNL d   1       0.579  -3.002  -0.385  0.00  0.00    -0.080 A 
ATOM      5  C6  UNL d   1       0.001  -4.325  -0.791  0.00  0.00     0.076 C 
ATOM      6  C7  UNL d   1       1.875  -2.655  -0.781  0.00  0.00     0.002 A 
ATOM      7  C8  UNL d   1       2.435  -1.438  -0.386  0.00  0.00     0.006 A 
ENDROOT
BRANCH   1   8
ATOM      8  C1  UNL d   1       2.335   0.739   0.885  0.00  0.00     0.054 C 
ATOM      9  C   UNL d   1       1.486   1.405   1.957  0.00  0.00     0.018 C 
ENDBRANCH   1   8
TORSDOF 1
ENDMDL
