MODEL 1
REMARK minimizedAffinity 13.8184891
REMARK minimizedRMSD -1
REMARK  1 active torsions:
REMARK  status: ('A' for Active; 'I' for Inactive)
REMARK    1  A    between atoms: C1_2  and  C2_3 
ROOT
ATOM      1  C2  UNL d   1      -0.590  -3.471  -0.373  0.00  0.00    -0.081 A 
ATOM      2  C3  UNL d   1      -1.873  -2.924  -0.253  0.00  0.00     0.006 A 
ATOM      3  C4  UNL d   1      -3.003  -3.736  -0.375  0.00  0.00     0.002 A 
ATOM      4  C5  UNL d   1      -2.869  -5.108  -0.611  0.00  0.00    -0.080 A 
ATOM      5  C6  UNL d   1      -4.074  -5.996  -0.713  0.00  0.00     0.076 C 
ATOM      6  C7  UNL d   1      -1.587  -5.652  -0.748  0.00  0.00     0.002 A 
ATOM      7  C8  UNL d   1      -0.457  -4.841  -0.627  0.00  0.00     0.006 A 
ENDROOT
BRANCH   1   8
ATOM      8  C1  UNL d   1       0.632  -2.610  -0.178  0.00  0.00     0.054 C 
ATOM      9  C   UNL d   1       0.265  -1.253   0.405  0.00  0.00     0.018 C 
ENDBRANCH   1   8
TORSDOF 1
ENDMDL
