MODEL 1
REMARK minimizedAffinity 1.6696198
REMARK minimizedRMSD -1
REMARK  1 active torsions:
REMARK  status: ('A' for Active; 'I' for Inactive)
REMARK    1  A    between atoms: C1_2  and  C2_3 
ROOT
ATOM      1  C2  UNL d   1       1.656  -2.947  -0.430  0.00  0.00    -0.081 A 
ATOM      2  C3  UNL d   1       2.132  -4.078  -1.104  0.00  0.00     0.006 A 
ATOM      3  C4  UNL d   1       1.248  -5.074  -1.526  0.00  0.00     0.002 A 
ATOM      4  C5  UNL d   1      -0.125  -4.952  -1.289  0.00  0.00    -0.080 A 
ATOM      5  C6  UNL d   1      -1.088  -6.000  -1.764  0.00  0.00     0.076 C 
ATOM      6  C7  UNL d   1      -0.598  -3.830  -0.600  0.00  0.00     0.002 A 
ATOM      7  C8  UNL d   1       0.284  -2.834  -0.177  0.00  0.00     0.006 A 
ENDROOT
BRANCH   1   8
ATOM      8  C1  UNL d   1       2.598  -1.840  -0.030  0.00  0.00     0.054 C 
ATOM      9  C   UNL d   1       1.877  -0.502   0.054  0.00  0.00     0.018 C 
ENDBRANCH   1   8
TORSDOF 1
ENDMDL
