MODEL 1
REMARK minimizedAffinity 11.0421705
REMARK minimizedRMSD -1
REMARK  1 active torsions:
REMARK  status: ('A' for Active; 'I' for Inactive)
REMARK    1  A    between atoms: C1_2  and  C2_3 
ROOT
ATOM      1  C2  UNL d   1       4.618   4.512   2.824  0.00  0.00    -0.081 A 
ATOM      2  C3  UNL d   1       3.473   4.823   2.081  0.00  0.00     0.006 A 
ATOM      3  C4  UNL d   1       2.618   3.810   1.640  0.00  0.00     0.002 A 
ATOM      4  C5  UNL d   1       2.889   2.471   1.941  0.00  0.00    -0.080 A 
ATOM      5  C6  UNL d   1       1.964   1.376   1.499  0.00  0.00     0.076 C 
ATOM      6  C7  UNL d   1       4.043   2.159   2.668  0.00  0.00     0.002 A 
ATOM      7  C8  UNL d   1       4.898   3.171   3.109  0.00  0.00     0.006 A 
ENDROOT
BRANCH   1   8
ATOM      8  C1  UNL d   1       5.507   5.607   3.356  0.00  0.00     0.054 C 
ATOM      9  C   UNL d   1       5.985   5.295   4.767  0.00  0.00     0.018 C 
ENDBRANCH   1   8
TORSDOF 1
ENDMDL
