MODEL 1
REMARK minimizedAffinity 5.72556543
REMARK minimizedRMSD -1
REMARK  1 active torsions:
REMARK  status: ('A' for Active; 'I' for Inactive)
REMARK    1  A    between atoms: C1_2  and  C2_3 
ROOT
ATOM      1  C2  UNL d   1       0.375   1.936  -5.176  0.00  0.00    -0.081 A 
ATOM      2  C3  UNL d   1       1.556   2.674  -5.317  0.00  0.00     0.006 A 
ATOM      3  C4  UNL d   1       2.701   2.323  -4.597  0.00  0.00     0.002 A 
ATOM      4  C5  UNL d   1       2.685   1.225  -3.731  0.00  0.00    -0.080 A 
ATOM      5  C6  UNL d   1       3.916   0.819  -2.975  0.00  0.00     0.076 C 
ATOM      6  C7  UNL d   1       1.500   0.498  -3.576  0.00  0.00     0.002 A 
ATOM      7  C8  UNL d   1       0.355   0.849  -4.295  0.00  0.00     0.006 A 
ENDROOT
BRANCH   1   8
ATOM      8  C1  UNL d   1      -0.842   2.273  -6.000  0.00  0.00     0.054 C 
ATOM      9  C   UNL d   1      -1.853   1.135  -5.984  0.00  0.00     0.018 C 
ENDBRANCH   1   8
TORSDOF 1
ENDMDL
