MODEL 1
REMARK minimizedAffinity 2.28005195
REMARK minimizedRMSD -1
REMARK  1 active torsions:
REMARK  status: ('A' for Active; 'I' for Inactive)
REMARK    1  A    between atoms: C1_2  and  C2_3 
ROOT
ATOM      1  C2  UNL d   1      -0.083  -2.960   0.007  0.00  0.00    -0.081 A 
ATOM      2  C3  UNL d   1      -1.376  -2.637  -0.425  0.00  0.00     0.006 A 
ATOM      3  C4  UNL d   1      -2.198  -3.615  -0.990  0.00  0.00     0.002 A 
ATOM      4  C5  UNL d   1      -1.746  -4.932  -1.125  0.00  0.00    -0.080 A 
ATOM      5  C6  UNL d   1      -2.629  -5.998  -1.702  0.00  0.00     0.076 C 
ATOM      6  C7  UNL d   1      -0.448  -5.250  -0.710  0.00  0.00     0.002 A 
ATOM      7  C8  UNL d   1       0.375  -4.273  -0.146  0.00  0.00     0.006 A 
ENDROOT
BRANCH   1   8
ATOM      8  C1  UNL d   1       0.782  -1.923   0.675  0.00  0.00     0.054 C 
ATOM      9  C   UNL d   1       2.020  -1.616  -0.155  0.00  0.00     0.018 C 
ENDBRANCH   1   8
TORSDOF 1
ENDMDL
