MODEL 1
REMARK minimizedAffinity 10.6350422
REMARK minimizedRMSD -1
REMARK  1 active torsions:
REMARK  status: ('A' for Active; 'I' for Inactive)
REMARK    1  A    between atoms: C1_2  and  C2_3 
ROOT
ATOM      1  C2  UNL d   1       3.478   1.006   1.262  0.00  0.00    -0.081 A 
ATOM      2  C3  UNL d   1       2.175   1.459   1.508  0.00  0.00     0.006 A 
ATOM      3  C4  UNL d   1       1.959   2.644   2.215  0.00  0.00     0.002 A 
ATOM      4  C5  UNL d   1       3.040   3.399   2.682  0.00  0.00    -0.080 A 
ATOM      5  C6  UNL d   1       2.822   4.688   3.416  0.00  0.00     0.076 C 
ATOM      6  C7  UNL d   1       4.341   2.938   2.452  0.00  0.00     0.002 A 
ATOM      7  C8  UNL d   1       4.558   1.753   1.745  0.00  0.00     0.006 A 
ENDROOT
BRANCH   1   8
ATOM      8  C1  UNL d   1       3.715  -0.237   0.444  0.00  0.00     0.054 C 
ATOM      9  C   UNL d   1       2.411  -0.794  -0.109  0.00  0.00     0.018 C 
ENDBRANCH   1   8
TORSDOF 1
ENDMDL
