MODEL 1
REMARK minimizedAffinity -1.13743281
REMARK minimizedRMSD -1
REMARK  1 active torsions:
REMARK  status: ('A' for Active; 'I' for Inactive)
REMARK    1  A    between atoms: N_2  and  C1_3 
ROOT
ATOM      1  C1  UNL d   1       0.225  -0.509   0.020  0.00  0.00     0.143 A 
ATOM      2  C2  UNL d   1       0.404  -0.527   1.408  0.00  0.00    -0.057 A 
ATOM      3  C3  UNL d   1       0.342   0.650   2.163  0.00  0.00     0.033 A 
ATOM      4  C4  UNL d   1       0.129   1.874   1.538  0.00  0.00    -0.042 A 
ATOM      5  C5  UNL d   1      -0.026   1.919   0.157  0.00  0.00     0.033 A 
ATOM      6  C6  UNL d   1       0.029   0.739  -0.591  0.00  0.00    -0.057 A 
ENDROOT
BRANCH   1   7
ATOM      7  N   UNL d   1       0.373  -1.632  -0.798  0.00  0.00    -0.732 N 
ATOM      8  C   UNL d   1      -0.584  -2.716  -0.741  0.00  0.00     0.284 C 
ATOM      9  H3  UNL d   1       0.671  -1.390  -1.740  0.00  0.00     0.395 HD
ENDBRANCH   1   7
TORSDOF 1
ENDMDL
