MODEL 1
REMARK minimizedAffinity -3.25696087
REMARK minimizedRMSD -1
REMARK  1 active torsions:
REMARK  status: ('A' for Active; 'I' for Inactive)
REMARK    1  A    between atoms: N_2  and  C1_3 
ROOT
ATOM      1  C1  UNL d   1       0.185  -1.511  -0.709  0.00  0.00     0.143 A 
ATOM      2  C2  UNL d   1       1.415  -2.171  -0.808  0.00  0.00    -0.057 A 
ATOM      3  C3  UNL d   1       1.482  -3.562  -0.957  0.00  0.00     0.033 A 
ATOM      4  C4  UNL d   1       0.317  -4.322  -0.982  0.00  0.00    -0.042 A 
ATOM      5  C5  UNL d   1      -0.915  -3.689  -0.861  0.00  0.00     0.033 A 
ATOM      6  C6  UNL d   1      -0.976  -2.300  -0.719  0.00  0.00    -0.057 A 
ENDROOT
BRANCH   1   7
ATOM      7  N   UNL d   1       0.055  -0.142  -0.460  0.00  0.00    -0.732 N 
ATOM      8  C   UNL d   1       0.278   0.390   0.867  0.00  0.00     0.284 C 
ATOM      9  H3  UNL d   1       0.446   0.427  -1.207  0.00  0.00     0.395 HD
ENDBRANCH   1   7
TORSDOF 1
ENDMDL
