MODEL 1
REMARK minimizedAffinity -3.19337511
REMARK minimizedRMSD -1
REMARK  1 active torsions:
REMARK  status: ('A' for Active; 'I' for Inactive)
REMARK    1  A    between atoms: N_2  and  C1_3 
ROOT
ATOM      1  C1  UNL d   1       0.565  -0.057  -0.105  0.00  0.00     0.143 A 
ATOM      2  C2  UNL d   1       0.682  -0.311   1.266  0.00  0.00    -0.057 A 
ATOM      3  C3  UNL d   1       0.444   0.692   2.213  0.00  0.00     0.033 A 
ATOM      4  C4  UNL d   1       0.112   1.979   1.804  0.00  0.00    -0.042 A 
ATOM      5  C5  UNL d   1       0.014   2.260   0.446  0.00  0.00     0.033 A 
ATOM      6  C6  UNL d   1       0.246   1.253  -0.495  0.00  0.00    -0.057 A 
ENDROOT
BRANCH   1   7
ATOM      7  N   UNL d   1       0.885  -0.986  -1.098  0.00  0.00    -0.732 N 
ATOM      8  C   UNL d   1       0.336  -2.325  -1.060  0.00  0.00     0.284 C 
ATOM      9  H3  UNL d   1       0.903  -0.571  -2.027  0.00  0.00     0.395 HD
ENDBRANCH   1   7
TORSDOF 1
ENDMDL
