MODEL 1
REMARK minimizedAffinity -4.31960487
REMARK minimizedRMSD -1
REMARK  1 active torsions:
REMARK  status: ('A' for Active; 'I' for Inactive)
REMARK    1  A    between atoms: N_2  and  C1_3 
ROOT
ATOM      1  C1  UNL d   1      -0.427   0.226   0.045  0.00  0.00     0.143 A 
ATOM      2  C2  UNL d   1      -0.280   1.606   0.227  0.00  0.00    -0.057 A 
ATOM      3  C3  UNL d   1      -0.637   2.221   1.433  0.00  0.00     0.033 A 
ATOM      4  C4  UNL d   1      -1.177   1.469   2.471  0.00  0.00    -0.042 A 
ATOM      5  C5  UNL d   1      -1.356   0.101   2.304  0.00  0.00     0.033 A 
ATOM      6  C6  UNL d   1      -0.991  -0.509   1.099  0.00  0.00    -0.057 A 
ENDROOT
BRANCH   1   7
ATOM      7  N   UNL d   1      -0.183  -0.429  -1.164  0.00  0.00    -0.732 N 
ATOM      8  C   UNL d   1      -0.779  -1.719  -1.438  0.00  0.00     0.284 C 
ATOM      9  H3  UNL d   1      -0.186   0.207  -1.958  0.00  0.00     0.395 HD
ENDBRANCH   1   7
TORSDOF 1
ENDMDL
