MODEL 1
REMARK minimizedAffinity 0.629826427
REMARK minimizedRMSD -1
REMARK  1 active torsions:
REMARK  status: ('A' for Active; 'I' for Inactive)
REMARK    1  A    between atoms: N_2  and  C1_3 
ROOT
ATOM      1  C1  UNL d   1       0.221  -0.081   0.259  0.00  0.00     0.143 A 
ATOM      2  C2  UNL d   1       0.392  -1.099   1.204  0.00  0.00    -0.057 A 
ATOM      3  C3  UNL d   1       0.253  -0.848   2.574  0.00  0.00     0.033 A 
ATOM      4  C4  UNL d   1      -0.033   0.435   3.028  0.00  0.00    -0.042 A 
ATOM      5  C5  UNL d   1      -0.183   1.467   2.108  0.00  0.00     0.033 A 
ATOM      6  C6  UNL d   1      -0.049   1.210   0.741  0.00  0.00    -0.057 A 
ENDROOT
BRANCH   1   7
ATOM      7  N   UNL d   1       0.443  -0.245  -1.110  0.00  0.00    -0.732 N 
ATOM      8  C   UNL d   1      -0.002   0.757  -2.054  0.00  0.00     0.284 C 
ATOM      9  H3  UNL d   1       1.365  -0.625  -1.311  0.00  0.00     0.395 HD
ENDBRANCH   1   7
TORSDOF 1
ENDMDL
