MODEL 1
REMARK minimizedAffinity 8.84217644
REMARK minimizedRMSD -1
REMARK  3 active torsions:
REMARK  status: ('A' for Active; 'I' for Inactive)
REMARK    1  A    between atoms: C3'_2  and  C2'_3 
REMARK    2  A    between atoms: C2'_3  and  C1'_4 
REMARK    3  A    between atoms: C1'_4  and  C1_5 
ROOT
ATOM      1  C1  N4B d   1       5.858   4.387  -3.450  0.00  0.00    -0.075 A 
ATOM      2  C2  N4B d   1       5.958   5.225  -4.583  0.00  0.00     0.002 A 
ATOM      3  C3  N4B d   1       5.940   4.680  -5.843  0.00  0.00     0.002 A 
ATOM      4  C4  N4B d   1       5.841   3.305  -5.995  0.00  0.00    -0.004 A 
ATOM      5  C5  N4B d   1       5.719   2.505  -4.897  0.00  0.00     0.002 A 
ATOM      6  C6  N4B d   1       5.732   3.039  -3.624  0.00  0.00     0.002 A 
ENDROOT
BRANCH   1   7
ATOM      7  C1' N4B d   1       5.960   4.928  -2.050  0.00  0.00     0.057 C 
BRANCH   7   8
ATOM      8  C2' N4B d   1       4.888   5.995  -1.847  0.00  0.00     0.009 C 
BRANCH   8   9
ATOM      9  C3' N4B d   1       3.634   5.701  -2.651  0.00  0.00     0.004 C 
ATOM     10  C4' N4B d   1       3.412   4.234  -2.866  0.00  0.00     0.003 C 
ENDBRANCH   8   9
ENDBRANCH   7   8
ENDBRANCH   1   7
TORSDOF 3
ENDMDL
