MODEL 1
REMARK minimizedAffinity 5.75350857
REMARK minimizedRMSD -1
REMARK  3 active torsions:
REMARK  status: ('A' for Active; 'I' for Inactive)
REMARK    1  A    between atoms: C3'_2  and  C2'_3 
REMARK    2  A    between atoms: C2'_3  and  C1'_4 
REMARK    3  A    between atoms: C1'_4  and  C1_5 
ROOT
ATOM      1  C1  N4B d   1      -0.462  -3.587  -3.556  0.00  0.00    -0.075 A 
ATOM      2  C2  N4B d   1      -0.873  -3.045  -2.318  0.00  0.00     0.002 A 
ATOM      3  C3  N4B d   1      -0.136  -2.050  -1.725  0.00  0.00     0.002 A 
ATOM      4  C4  N4B d   1       1.021  -1.595  -2.339  0.00  0.00    -0.004 A 
ATOM      5  C5  N4B d   1       1.398  -2.106  -3.546  0.00  0.00     0.002 A 
ATOM      6  C6  N4B d   1       0.665  -3.104  -4.156  0.00  0.00     0.002 A 
ENDROOT
BRANCH   1   7
ATOM      7  C1' N4B d   1      -1.188  -4.735  -4.201  0.00  0.00     0.057 C 
BRANCH   7   8
ATOM      8  C2' N4B d   1      -2.688  -4.461  -4.168  0.00  0.00     0.009 C 
BRANCH   8   9
ATOM      9  C3' N4B d   1      -3.458  -5.401  -5.080  0.00  0.00     0.004 C 
ATOM     10  C4' N4B d   1      -4.942  -5.314  -4.885  0.00  0.00     0.003 C 
ENDBRANCH   8   9
ENDBRANCH   7   8
ENDBRANCH   1   7
TORSDOF 3
ENDMDL
