MODEL 1
REMARK minimizedAffinity 4.79211378
REMARK minimizedRMSD -1
REMARK  3 active torsions:
REMARK  status: ('A' for Active; 'I' for Inactive)
REMARK    1  A    between atoms: C3'_2  and  C2'_3 
REMARK    2  A    between atoms: C2'_3  and  C1'_4 
REMARK    3  A    between atoms: C1'_4  and  C1_5 
ROOT
ATOM      1  C1  N4B d   1       3.651  -2.528   3.577  0.00  0.00    -0.075 A 
ATOM      2  C2  N4B d   1       3.358  -1.551   4.554  0.00  0.00     0.002 A 
ATOM      3  C3  N4B d   1       4.032  -1.554   5.751  0.00  0.00     0.002 A 
ATOM      4  C4  N4B d   1       4.984  -2.531   6.000  0.00  0.00    -0.004 A 
ATOM      5  C5  N4B d   1       5.279  -3.456   5.041  0.00  0.00     0.002 A 
ATOM      6  C6  N4B d   1       4.613  -3.462   3.832  0.00  0.00     0.002 A 
ENDROOT
BRANCH   1   7
ATOM      7  C1' N4B d   1       2.881  -2.617   2.288  0.00  0.00     0.057 C 
BRANCH   7   8
ATOM      8  C2' N4B d   1       3.026  -1.303   1.526  0.00  0.00     0.009 C 
BRANCH   8   9
ATOM      9  C3' N4B d   1       3.442  -1.526   0.082  0.00  0.00     0.004 C 
ATOM     10  C4' N4B d   1       4.596  -2.473  -0.050  0.00  0.00     0.003 C 
ENDBRANCH   8   9
ENDBRANCH   7   8
ENDBRANCH   1   7
TORSDOF 3
ENDMDL
