MODEL 1
REMARK minimizedAffinity 13.2019482
REMARK minimizedRMSD -1
REMARK  3 active torsions:
REMARK  status: ('A' for Active; 'I' for Inactive)
REMARK    1  A    between atoms: C3'_2  and  C2'_3 
REMARK    2  A    between atoms: C2'_3  and  C1'_4 
REMARK    3  A    between atoms: C1'_4  and  C1_5 
ROOT
ATOM      1  C1  N4B d   1       2.689  -1.968  -2.195  0.00  0.00    -0.075 A 
ATOM      2  C2  N4B d   1       1.933  -2.544  -1.150  0.00  0.00     0.002 A 
ATOM      3  C3  N4B d   1       0.598  -2.247  -1.024  0.00  0.00     0.002 A 
ATOM      4  C4  N4B d   1       0.004  -1.367  -1.916  0.00  0.00    -0.004 A 
ATOM      5  C5  N4B d   1       0.735  -0.835  -2.938  0.00  0.00     0.002 A 
ATOM      6  C6  N4B d   1       2.077  -1.128  -3.079  0.00  0.00     0.002 A 
ENDROOT
BRANCH   1   7
ATOM      7  C1' N4B d   1       4.170  -2.196  -2.322  0.00  0.00     0.057 C 
BRANCH   7   8
ATOM      8  C2' N4B d   1       4.512  -3.583  -1.786  0.00  0.00     0.009 C 
BRANCH   8   9
ATOM      9  C3' N4B d   1       5.871  -3.612  -1.109  0.00  0.00     0.004 C 
ATOM     10  C4' N4B d   1       5.999  -2.588  -0.020  0.00  0.00     0.003 C 
ENDBRANCH   8   9
ENDBRANCH   7   8
ENDBRANCH   1   7
TORSDOF 3
ENDMDL
