MODEL 1
REMARK minimizedAffinity 3.10933542
REMARK minimizedRMSD -1
REMARK  3 active torsions:
REMARK  status: ('A' for Active; 'I' for Inactive)
REMARK    1  A    between atoms: C3'_2  and  C2'_3 
REMARK    2  A    between atoms: C2'_3  and  C1'_4 
REMARK    3  A    between atoms: C1'_4  and  C1_5 
ROOT
ATOM      1  C1  N4B d   1       0.776  -2.350  -0.792  0.00  0.00    -0.075 A 
ATOM      2  C2  N4B d   1       1.327  -2.009  -2.046  0.00  0.00     0.002 A 
ATOM      3  C3  N4B d   1       0.734  -2.457  -3.201  0.00  0.00     0.002 A 
ATOM      4  C4  N4B d   1      -0.394  -3.259  -3.126  0.00  0.00    -0.004 A 
ATOM      5  C5  N4B d   1      -0.935  -3.563  -1.911  0.00  0.00     0.002 A 
ATOM      6  C6  N4B d   1      -0.352  -3.116  -0.742  0.00  0.00     0.002 A 
ENDROOT
BRANCH   1   7
ATOM      7  C1' N4B d   1       1.438  -1.955   0.500  0.00  0.00     0.057 C 
BRANCH   7   8
ATOM      8  C2' N4B d   1       1.288  -3.092   1.507  0.00  0.00     0.009 C 
BRANCH   8   9
ATOM      9  C3' N4B d   1       2.387  -3.070   2.556  0.00  0.00     0.004 C 
ATOM     10  C4' N4B d   1       3.334  -1.920   2.382  0.00  0.00     0.003 C 
ENDBRANCH   8   9
ENDBRANCH   7   8
ENDBRANCH   1   7
TORSDOF 3
ENDMDL
