MODEL 1
REMARK minimizedAffinity 9.14724922
REMARK minimizedRMSD -1
REMARK  3 active torsions:
REMARK  status: ('A' for Active; 'I' for Inactive)
REMARK    1  A    between atoms: C3'_2  and  C2'_3 
REMARK    2  A    between atoms: C2'_3  and  C1'_4 
REMARK    3  A    between atoms: C1'_4  and  C1_5 
ROOT
ATOM      1  C1  N4B d   1      -0.090  -2.932  -2.251  0.00  0.00    -0.075 A 
ATOM      2  C2  N4B d   1       0.523  -3.523  -1.124  0.00  0.00     0.002 A 
ATOM      3  C3  N4B d   1      -0.057  -3.402   0.115  0.00  0.00     0.002 A 
ATOM      4  C4  N4B d   1      -1.234  -2.683   0.254  0.00  0.00    -0.004 A 
ATOM      5  C5  N4B d   1      -1.834  -2.137  -0.843  0.00  0.00     0.002 A 
ATOM      6  C6  N4B d   1      -1.264  -2.254  -2.095  0.00  0.00     0.002 A 
ENDROOT
BRANCH   1   7
ATOM      7  C1' N4B d   1       0.551  -2.963  -3.612  0.00  0.00     0.057 C 
BRANCH   7   8
ATOM      8  C2' N4B d   1      -0.317  -2.179  -4.592  0.00  0.00     0.009 C 
BRANCH   8   9
ATOM      9  C3' N4B d   1      -0.613  -2.975  -5.851  0.00  0.00     0.004 C 
ATOM     10  C4' N4B d   1      -0.715  -4.449  -5.596  0.00  0.00     0.003 C 
ENDBRANCH   8   9
ENDBRANCH   7   8
ENDBRANCH   1   7
TORSDOF 3
ENDMDL
