MODEL 1
REMARK minimizedAffinity 0.431518704
REMARK minimizedRMSD -1
REMARK  3 active torsions:
REMARK  status: ('A' for Active; 'I' for Inactive)
REMARK    1  A    between atoms: C3'_2  and  C2'_3 
REMARK    2  A    between atoms: C2'_3  and  C1'_4 
REMARK    3  A    between atoms: C1'_4  and  C1_5 
ROOT
ATOM      1  C1  N4B d   1      -0.529  -2.905  -2.253  0.00  0.00    -0.075 A 
ATOM      2  C2  N4B d   1       0.535  -1.982  -2.344  0.00  0.00     0.002 A 
ATOM      3  C3  N4B d   1       1.659  -2.298  -3.068  0.00  0.00     0.002 A 
ATOM      4  C4  N4B d   1       1.748  -3.534  -3.691  0.00  0.00    -0.004 A 
ATOM      5  C5  N4B d   1       0.705  -4.410  -3.619  0.00  0.00     0.002 A 
ATOM      6  C6  N4B d   1      -0.432  -4.104  -2.898  0.00  0.00     0.002 A 
ENDROOT
BRANCH   1   7
ATOM      7  C1' N4B d   1      -1.741  -2.639  -1.403  0.00  0.00     0.057 C 
BRANCH   7   8
ATOM      8  C2' N4B d   1      -1.291  -2.213  -0.009  0.00  0.00     0.009 C 
BRANCH   8   9
ATOM      9  C3' N4B d   1      -2.107  -2.884   1.082  0.00  0.00     0.004 C 
ATOM     10  C4' N4B d   1      -3.556  -3.021   0.723  0.00  0.00     0.003 C 
ENDBRANCH   8   9
ENDBRANCH   7   8
ENDBRANCH   1   7
TORSDOF 3
ENDMDL
