MODEL 1
REMARK minimizedAffinity 2.28817987
REMARK minimizedRMSD -1
REMARK  3 active torsions:
REMARK  status: ('A' for Active; 'I' for Inactive)
REMARK    1  A    between atoms: C3'_2  and  C2'_3 
REMARK    2  A    between atoms: C2'_3  and  C1'_4 
REMARK    3  A    between atoms: C1'_4  and  C1_5 
ROOT
ATOM      1  C1  N4B d   1       4.293   5.398  -2.622  0.00  0.00    -0.075 A 
ATOM      2  C2  N4B d   1       5.647   5.468  -3.016  0.00  0.00     0.002 A 
ATOM      3  C3  N4B d   1       5.995   5.230  -4.323  0.00  0.00     0.002 A 
ATOM      4  C4  N4B d   1       5.012   4.903  -5.245  0.00  0.00    -0.004 A 
ATOM      5  C5  N4B d   1       3.703   4.862  -4.862  0.00  0.00     0.002 A 
ATOM      6  C6  N4B d   1       3.339   5.104  -3.552  0.00  0.00     0.002 A 
ENDROOT
BRANCH   1   7
ATOM      7  C1' N4B d   1       3.874   5.566  -1.187  0.00  0.00     0.057 C 
BRANCH   7   8
ATOM      8  C2' N4B d   1       2.527   4.883  -0.975  0.00  0.00     0.009 C 
BRANCH   8   9
ATOM      9  C3' N4B d   1       2.285   4.545   0.486  0.00  0.00     0.004 C 
ATOM     10  C4' N4B d   1       0.844   4.257   0.785  0.00  0.00     0.003 C 
ENDBRANCH   8   9
ENDBRANCH   7   8
ENDBRANCH   1   7
TORSDOF 3
ENDMDL
