MODEL 1
REMARK minimizedAffinity 10.7216702
REMARK minimizedRMSD -1
REMARK  1 active torsions:
REMARK  status: ('A' for Active; 'I' for Inactive)
REMARK    1  A    between atoms: C1_2  and  C2_3 
ROOT
ATOM      1  C2  UNL d   1       2.152  -2.111  -0.257  0.00  0.00    -0.073 A 
ATOM      2  C3  UNL d   1       1.235  -1.086  -0.520  0.00  0.00    -0.002 A 
ATOM      3  C4  UNL d   1      -0.029  -1.385  -1.030  0.00  0.00     0.004 A 
ATOM      4  C5  UNL d   1      -0.392  -2.710  -1.275  0.00  0.00    -0.004 A 
ATOM      5  C6  UNL d   1       0.506  -3.748  -1.007  0.00  0.00    -0.075 A 
ATOM      6  C7  UNL d   1       0.131  -5.178  -1.267  0.00  0.00     0.076 C 
ATOM      7  C8  UNL d   1       1.774  -3.440  -0.498  0.00  0.00     0.001 A 
ENDROOT
BRANCH   1   8
ATOM      8  C1  UNL d   1       3.515  -1.793   0.299  0.00  0.00     0.053 C 
ATOM      9  C   UNL d   1       4.628  -2.410  -0.533  0.00  0.00     0.018 C 
ENDBRANCH   1   8
TORSDOF 1
ENDMDL
