MODEL 1
REMARK minimizedAffinity 2.77350092
REMARK minimizedRMSD -1
REMARK  1 active torsions:
REMARK  status: ('A' for Active; 'I' for Inactive)
REMARK    1  A    between atoms: C1_2  and  C2_3 
ROOT
ATOM      1  C2  UNL d   1      -5.810   1.726  -4.472  0.00  0.00    -0.073 A 
ATOM      2  C3  UNL d   1      -5.798   2.924  -5.196  0.00  0.00    -0.002 A 
ATOM      3  C4  UNL d   1      -5.617   4.142  -4.540  0.00  0.00     0.004 A 
ATOM      4  C5  UNL d   1      -5.438   4.175  -3.157  0.00  0.00    -0.004 A 
ATOM      5  C6  UNL d   1      -5.435   2.988  -2.418  0.00  0.00    -0.075 A 
ATOM      6  C7  UNL d   1      -5.247   3.007  -0.930  0.00  0.00     0.076 C 
ATOM      7  C8  UNL d   1      -5.621   1.769  -3.083  0.00  0.00     0.001 A 
ENDROOT
BRANCH   1   8
ATOM      8  C1  UNL d   1      -6.000   0.408  -5.177  0.00  0.00     0.053 C 
ATOM      9  C   UNL d   1      -4.679  -0.184  -5.643  0.00  0.00     0.018 C 
ENDBRANCH   1   8
TORSDOF 1
ENDMDL
