MODEL 1
REMARK minimizedAffinity 0.364880413
REMARK minimizedRMSD -1
REMARK  1 active torsions:
REMARK  status: ('A' for Active; 'I' for Inactive)
REMARK    1  A    between atoms: C1_2  and  C2_3 
ROOT
ATOM      1  C2  UNL d   1      -5.983   2.186  -1.713  0.00  0.00    -0.073 A 
ATOM      2  C3  UNL d   1      -5.990   3.570  -1.918  0.00  0.00    -0.002 A 
ATOM      3  C4  UNL d   1      -5.993   4.090  -3.214  0.00  0.00     0.004 A 
ATOM      4  C5  UNL d   1      -5.995   3.233  -4.314  0.00  0.00    -0.004 A 
ATOM      5  C6  UNL d   1      -6.000   1.847  -4.129  0.00  0.00    -0.075 A 
ATOM      6  C7  UNL d   1      -6.000   0.911  -5.302  0.00  0.00     0.076 C 
ATOM      7  C8  UNL d   1      -5.994   1.332  -2.825  0.00  0.00     0.001 A 
ENDROOT
BRANCH   1   8
ATOM      8  C1  UNL d   1      -5.986   1.619  -0.316  0.00  0.00     0.053 C 
ATOM      9  C   UNL d   1      -4.629   1.751   0.356  0.00  0.00     0.018 C 
ENDBRANCH   1   8
TORSDOF 1
ENDMDL
