MODEL 1
REMARK minimizedAffinity 14.2236662
REMARK minimizedRMSD -1
REMARK  0 active torsions:
REMARK  status: ('A' for Active; 'I' for Inactive)
ROOT
ATOM      1  C1  BNZ d   1       1.566  -3.461   1.710  0.00  0.00     0.000 A 
ATOM      2  C2  BNZ d   1       1.081  -3.664   0.446  0.00  0.00     0.000 A 
ATOM      3  C3  BNZ d   1       1.339  -2.769  -0.555  0.00  0.00     0.000 A 
ATOM      4  C4  BNZ d   1       2.047  -1.654  -0.281  0.00  0.00     0.000 A 
ATOM      5  C5  BNZ d   1       2.536  -1.432   0.991  0.00  0.00     0.000 A 
ATOM      6  C6  BNZ d   1       2.307  -2.354   1.987  0.00  0.00     0.000 A 
ENDROOT
TORSDOF 0
ENDMDL
