MODEL 1
REMARK minimizedAffinity 5.49428797
REMARK minimizedRMSD -1
REMARK  0 active torsions:
REMARK  status: ('A' for Active; 'I' for Inactive)
ROOT
ATOM      1  C1  BNZ d   1      -1.763  -2.357   5.997  0.00  0.00     0.000 A 
ATOM      2  C2  BNZ d   1      -3.131  -2.283   6.000  0.00  0.00     0.000 A 
ATOM      3  C3  BNZ d   1      -3.873  -3.016   5.116  0.00  0.00     0.000 A 
ATOM      4  C4  BNZ d   1      -3.247  -3.790   4.206  0.00  0.00     0.000 A 
ATOM      5  C5  BNZ d   1      -1.868  -3.868   4.185  0.00  0.00     0.000 A 
ATOM      6  C6  BNZ d   1      -1.126  -3.159   5.101  0.00  0.00     0.000 A 
ENDROOT
TORSDOF 0
ENDMDL
