MODEL 1
REMARK minimizedAffinity 11.2160149
REMARK minimizedRMSD -1
REMARK  0 active torsions:
REMARK  status: ('A' for Active; 'I' for Inactive)
ROOT
ATOM      1  C1  BNZ d   1       3.062  -3.048  -5.951  0.00  0.00     0.000 A 
ATOM      2  C2  BNZ d   1       1.807  -3.595  -5.952  0.00  0.00     0.000 A 
ATOM      3  C3  BNZ d   1       0.697  -2.800  -5.996  0.00  0.00     0.000 A 
ATOM      4  C4  BNZ d   1       0.842  -1.459  -5.999  0.00  0.00     0.000 A 
ATOM      5  C5  BNZ d   1       2.100  -0.892  -5.990  0.00  0.00     0.000 A 
ATOM      6  C6  BNZ d   1       3.217  -1.696  -5.984  0.00  0.00     0.000 A 
ENDROOT
TORSDOF 0
ENDMDL
