MODEL 1
REMARK minimizedAffinity 10.0041018
REMARK minimizedRMSD -1
REMARK  0 active torsions:
REMARK  status: ('A' for Active; 'I' for Inactive)
ROOT
ATOM      1  C1  BNZ d   1      -5.125   5.328   2.535  0.00  0.00     0.000 A 
ATOM      2  C2  BNZ d   1      -4.052   4.681   1.984  0.00  0.00     0.000 A 
ATOM      3  C3  BNZ d   1      -3.837   4.707   0.634  0.00  0.00     0.000 A 
ATOM      4  C4  BNZ d   1      -4.716   5.345  -0.165  0.00  0.00     0.000 A 
ATOM      5  C5  BNZ d   1      -5.808   5.995   0.375  0.00  0.00     0.000 A 
ATOM      6  C6  BNZ d   1      -6.000   6.000   1.738  0.00  0.00     0.000 A 
ENDROOT
TORSDOF 0
ENDMDL
