MODEL 1
REMARK minimizedAffinity 11.4957952
REMARK minimizedRMSD -1
REMARK  0 active torsions:
REMARK  status: ('A' for Active; 'I' for Inactive)
ROOT
ATOM      1  C1  BNZ d   1       1.002   5.793  -3.436  0.00  0.00     0.000 A 
ATOM      2  C2  BNZ d   1       0.135   5.810  -4.495  0.00  0.00     0.000 A 
ATOM      3  C3  BNZ d   1       0.600   5.891  -5.778  0.00  0.00     0.000 A 
ATOM      4  C4  BNZ d   1       1.926   5.996  -5.998  0.00  0.00     0.000 A 
ATOM      5  C5  BNZ d   1       2.813   5.991  -4.939  0.00  0.00     0.000 A 
ATOM      6  C6  BNZ d   1       2.344   5.869  -3.651  0.00  0.00     0.000 A 
ENDROOT
TORSDOF 0
ENDMDL
