MODEL 1
REMARK minimizedAffinity 7.94625759
REMARK minimizedRMSD -1
REMARK  0 active torsions:
REMARK  status: ('A' for Active; 'I' for Inactive)
ROOT
ATOM      1  C1  BNZ d   1       1.202  -0.840  -5.977  0.00  0.00     0.000 A 
ATOM      2  C2  BNZ d   1       2.546  -1.100  -5.970  0.00  0.00     0.000 A 
ATOM      3  C3  BNZ d   1       3.010  -2.386  -5.996  0.00  0.00     0.000 A 
ATOM      4  C4  BNZ d   1       2.131  -3.408  -5.987  0.00  0.00     0.000 A 
ATOM      5  C5  BNZ d   1       0.773  -3.162  -5.984  0.00  0.00     0.000 A 
ATOM      6  C6  BNZ d   1       0.309  -1.867  -5.998  0.00  0.00     0.000 A 
ENDROOT
TORSDOF 0
ENDMDL
