MODEL 1
REMARK minimizedAffinity 6.51380157
REMARK minimizedRMSD -1
REMARK  0 active torsions:
REMARK  status: ('A' for Active; 'I' for Inactive)
ROOT
ATOM      1  C1  BNZ d   1      -1.300   2.396  -0.542  0.00  0.00     0.000 A 
ATOM      2  C2  BNZ d   1      -2.095   2.307  -1.654  0.00  0.00     0.000 A 
ATOM      3  C3  BNZ d   1      -1.612   2.642  -2.888  0.00  0.00     0.000 A 
ATOM      4  C4  BNZ d   1      -0.350   3.103  -3.003  0.00  0.00     0.000 A 
ATOM      5  C5  BNZ d   1       0.461   3.206  -1.891  0.00  0.00     0.000 A 
ATOM      6  C6  BNZ d   1      -0.016   2.832  -0.656  0.00  0.00     0.000 A 
ENDROOT
TORSDOF 0
ENDMDL
