MODEL 1
REMARK minimizedAffinity 14.2093143
REMARK minimizedRMSD -1
REMARK  0 active torsions:
REMARK  status: ('A' for Active; 'I' for Inactive)
ROOT
ATOM      1  C1  BNZ d   1       3.479  -1.858  -5.947  0.00  0.00     0.000 A 
ATOM      2  C2  BNZ d   1       4.019  -3.116  -5.938  0.00  0.00     0.000 A 
ATOM      3  C3  BNZ d   1       3.216  -4.222  -5.984  0.00  0.00     0.000 A 
ATOM      4  C4  BNZ d   1       1.876  -4.069  -5.998  0.00  0.00     0.000 A 
ATOM      5  C5  BNZ d   1       1.317  -2.807  -5.999  0.00  0.00     0.000 A 
ATOM      6  C6  BNZ d   1       2.129  -1.696  -5.992  0.00  0.00     0.000 A 
ENDROOT
TORSDOF 0
ENDMDL
