MODEL 1
REMARK minimizedAffinity 8.64602184
REMARK minimizedRMSD -1
REMARK  0 active torsions:
REMARK  status: ('A' for Active; 'I' for Inactive)
ROOT
ATOM      1  C1  BNZ d   1      -1.396   3.117  -2.663  0.00  0.00     0.000 A 
ATOM      2  C2  BNZ d   1      -1.707   2.524  -1.469  0.00  0.00     0.000 A 
ATOM      3  C3  BNZ d   1      -0.810   2.512  -0.438  0.00  0.00     0.000 A 
ATOM      4  C4  BNZ d   1       0.411   3.057  -0.615  0.00  0.00     0.000 A 
ATOM      5  C5  BNZ d   1       0.743   3.652  -1.816  0.00  0.00     0.000 A 
ATOM      6  C6  BNZ d   1      -0.177   3.696  -2.839  0.00  0.00     0.000 A 
ENDROOT
TORSDOF 0
ENDMDL
