MODEL 1
REMARK minimizedAffinity 7.42449093
REMARK minimizedRMSD -1
REMARK  0 active torsions:
REMARK  status: ('A' for Active; 'I' for Inactive)
ROOT
ATOM      1  C1  BNZ d   1       2.263  -3.380  -4.456  0.00  0.00     0.000 A 
ATOM      2  C2  BNZ d   1       2.949  -2.197  -4.530  0.00  0.00     0.000 A 
ATOM      3  C3  BNZ d   1       2.477  -1.161  -5.287  0.00  0.00     0.000 A 
ATOM      4  C4  BNZ d   1       1.344  -1.323  -6.000  0.00  0.00     0.000 A 
ATOM      5  C5  BNZ d   1       0.647  -2.513  -5.943  0.00  0.00     0.000 A 
ATOM      6  C6  BNZ d   1       1.103  -3.540  -5.149  0.00  0.00     0.000 A 
ENDROOT
TORSDOF 0
ENDMDL
