MODEL 1
REMARK minimizedAffinity 9.01138592
REMARK minimizedRMSD -1
REMARK  0 active torsions:
REMARK  status: ('A' for Active; 'I' for Inactive)
ROOT
ATOM      1  C1  BNZ d   1       0.761   3.036  -0.724  0.00  0.00     0.000 A 
ATOM      2  C2  BNZ d   1       0.818   3.333  -2.059  0.00  0.00     0.000 A 
ATOM      3  C3  BNZ d   1      -0.309   3.305  -2.831  0.00  0.00     0.000 A 
ATOM      4  C4  BNZ d   1      -1.484   2.942  -2.277  0.00  0.00     0.000 A 
ATOM      5  C5  BNZ d   1      -1.556   2.630  -0.933  0.00  0.00     0.000 A 
ATOM      6  C6  BNZ d   1      -0.426   2.698  -0.151  0.00  0.00     0.000 A 
ENDROOT
TORSDOF 0
ENDMDL
