MODEL 1
REMARK minimizedAffinity 2.99437881
REMARK minimizedRMSD -1
REMARK  0 active torsions:
REMARK  status: ('A' for Active; 'I' for Inactive)
ROOT
ATOM      1  C1  BNZ d   1       2.049  -2.273  -6.000  0.00  0.00     0.000 A 
ATOM      2  C2  BNZ d   1       1.355  -2.818  -4.952  0.00  0.00     0.000 A 
ATOM      3  C3  BNZ d   1       2.013  -3.376  -3.892  0.00  0.00     0.000 A 
ATOM      4  C4  BNZ d   1       3.361  -3.425  -3.899  0.00  0.00     0.000 A 
ATOM      5  C5  BNZ d   1       4.074  -2.889  -4.953  0.00  0.00     0.000 A 
ATOM      6  C6  BNZ d   1       3.410  -2.292  -6.000  0.00  0.00     0.000 A 
ENDROOT
TORSDOF 0
ENDMDL
