MODEL 1
REMARK minimizedAffinity 5.78246212
REMARK minimizedRMSD -1
REMARK  0 active torsions:
REMARK  status: ('A' for Active; 'I' for Inactive)
ROOT
ATOM      1  C1  BNZ d   1      -3.348   5.943   0.275  0.00  0.00     0.000 A 
ATOM      2  C2  BNZ d   1      -4.343   5.934  -0.666  0.00  0.00     0.000 A 
ATOM      3  C3  BNZ d   1      -5.658   5.983  -0.294  0.00  0.00     0.000 A 
ATOM      4  C4  BNZ d   1      -5.976   6.000   1.017  0.00  0.00     0.000 A 
ATOM      5  C5  BNZ d   1      -4.984   6.000   1.977  0.00  0.00     0.000 A 
ATOM      6  C6  BNZ d   1      -3.661   5.990   1.598  0.00  0.00     0.000 A 
ENDROOT
TORSDOF 0
ENDMDL
