MODEL 1
REMARK minimizedAffinity 2.8926394
REMARK minimizedRMSD -1
REMARK  0 active torsions:
REMARK  status: ('A' for Active; 'I' for Inactive)
ROOT
ATOM      1  C1  BNZ d   1      -0.066   3.021  -0.735  0.00  0.00     0.000 A 
ATOM      2  C2  BNZ d   1       0.332   4.141  -0.054  0.00  0.00     0.000 A 
ATOM      3  C3  BNZ d   1      -0.070   5.384  -0.455  0.00  0.00     0.000 A 
ATOM      4  C4  BNZ d   1      -0.835   5.510  -1.558  0.00  0.00     0.000 A 
ATOM      5  C5  BNZ d   1      -1.237   4.392  -2.261  0.00  0.00     0.000 A 
ATOM      6  C6  BNZ d   1      -0.863   3.139  -1.832  0.00  0.00     0.000 A 
ENDROOT
TORSDOF 0
ENDMDL
