MODEL 1
REMARK minimizedAffinity 6.34488058
REMARK minimizedRMSD -1
REMARK  0 active torsions:
REMARK  status: ('A' for Active; 'I' for Inactive)
ROOT
ATOM      1  C1  BNZ d   1      -0.545   1.336   2.776  0.00  0.00     0.000 A 
ATOM      2  C2  BNZ d   1      -1.624   1.871   3.429  0.00  0.00     0.000 A 
ATOM      3  C3  BNZ d   1      -2.898   1.511   3.088  0.00  0.00     0.000 A 
ATOM      4  C4  BNZ d   1      -3.093   0.648   2.070  0.00  0.00     0.000 A 
ATOM      5  C5  BNZ d   1      -2.016   0.107   1.396  0.00  0.00     0.000 A 
ATOM      6  C6  BNZ d   1      -0.734   0.442   1.767  0.00  0.00     0.000 A 
ENDROOT
TORSDOF 0
ENDMDL
