MODEL 1
REMARK minimizedAffinity 7.53820133
REMARK minimizedRMSD -1
REMARK  0 active torsions:
REMARK  status: ('A' for Active; 'I' for Inactive)
ROOT
ATOM      1  N1  IND d   1       1.411   0.831   0.989  0.00  0.00    -0.196 N 
ATOM      2  C2  IND d   1       0.427   1.253   1.839  0.00  0.00     0.054 A 
ATOM      3  C3  IND d   1      -0.695   1.554   1.147  0.00  0.00    -0.031 A 
ATOM      4  C4  IND d   1      -1.172   1.330  -1.373  0.00  0.00     0.051 A 
ATOM      5  C5  IND d   1      -0.569   1.022  -2.560  0.00  0.00    -0.031 A 
ATOM      6  C6  IND d   1       0.751   0.624  -2.626  0.00  0.00     0.015 A 
ATOM      7  C7  IND d   1       1.517   0.508  -1.501  0.00  0.00    -0.016 A 
ATOM      8  C8  IND d   1       0.910   0.827  -0.294  0.00  0.00    -0.047 A 
ATOM      9  C9  IND d   1      -0.416   1.272  -0.225  0.00  0.00    -0.096 A 
ATOM     10  HN1 IND d   1       2.209   0.607   1.217  0.00  0.00     0.298 HD
ENDROOT
TORSDOF 0
ENDMDL
