MODEL 1
REMARK minimizedAffinity 6.35073185
REMARK minimizedRMSD -1
REMARK  0 active torsions:
REMARK  status: ('A' for Active; 'I' for Inactive)
ROOT
ATOM      1  N1  IND d   1      -3.238   4.033  -3.752  0.00  0.00    -0.196 N 
ATOM      2  C2  IND d   1      -2.656   3.097  -2.943  0.00  0.00     0.054 A 
ATOM      3  C3  IND d   1      -3.250   1.894  -3.113  0.00  0.00    -0.031 A 
ATOM      4  C4  IND d   1      -5.126   1.211  -4.739  0.00  0.00     0.051 A 
ATOM      5  C5  IND d   1      -6.000   1.728  -5.653  0.00  0.00    -0.031 A 
ATOM      6  C6  IND d   1      -5.996   3.067  -5.990  0.00  0.00     0.015 A 
ATOM      7  C7  IND d   1      -5.106   3.939  -5.430  0.00  0.00    -0.016 A 
ATOM      8  C8  IND d   1      -4.222   3.419  -4.496  0.00  0.00    -0.047 A 
ATOM      9  C9  IND d   1      -4.249   2.070  -4.119  0.00  0.00    -0.096 A 
ATOM     10  HN1 IND d   1      -3.025   4.865  -3.790  0.00  0.00     0.298 HD
ENDROOT
TORSDOF 0
ENDMDL
