MODEL 1
REMARK minimizedAffinity 2.69958925
REMARK minimizedRMSD -1
REMARK  0 active torsions:
REMARK  status: ('A' for Active; 'I' for Inactive)
ROOT
ATOM      1  N1  IND d   1      -3.419   4.514  -5.997  0.00  0.00    -0.196 N 
ATOM      2  C2  IND d   1      -2.242   4.470  -5.302  0.00  0.00     0.054 A 
ATOM      3  C3  IND d   1      -2.240   3.425  -4.445  0.00  0.00    -0.031 A 
ATOM      4  C4  IND d   1      -4.018   1.597  -4.091  0.00  0.00     0.051 A 
ATOM      5  C5  IND d   1      -5.280   1.234  -4.470  0.00  0.00    -0.031 A 
ATOM      6  C6  IND d   1      -6.000   1.959  -5.398  0.00  0.00     0.015 A 
ATOM      7  C7  IND d   1      -5.477   3.072  -5.993  0.00  0.00    -0.016 A 
ATOM      8  C8  IND d   1      -4.199   3.448  -5.605  0.00  0.00    -0.047 A 
ATOM      9  C9  IND d   1      -3.480   2.741  -4.632  0.00  0.00    -0.096 A 
ATOM     10  HN1 IND d   1      -3.635   5.107  -6.580  0.00  0.00     0.298 HD
ENDROOT
TORSDOF 0
ENDMDL
