MODEL 1
REMARK minimizedAffinity 7.52201748
REMARK minimizedRMSD -1
REMARK  0 active torsions:
REMARK  status: ('A' for Active; 'I' for Inactive)
ROOT
ATOM      1  N1  IND d   1      -5.112   4.175  -5.999  0.00  0.00    -0.196 N 
ATOM      2  C2  IND d   1      -4.332   4.884  -5.128  0.00  0.00     0.054 A 
ATOM      3  C3  IND d   1      -4.007   4.121  -4.061  0.00  0.00    -0.031 A 
ATOM      4  C4  IND d   1      -4.559   1.651  -3.586  0.00  0.00     0.051 A 
ATOM      5  C5  IND d   1      -5.277   0.595  -4.073  0.00  0.00    -0.031 A 
ATOM      6  C6  IND d   1      -5.989   0.679  -5.253  0.00  0.00     0.015 A 
ATOM      7  C7  IND d   1      -6.000   1.824  -5.998  0.00  0.00    -0.016 A 
ATOM      8  C8  IND d   1      -5.278   2.901  -5.503  0.00  0.00    -0.047 A 
ATOM      9  C9  IND d   1      -4.588   2.835  -4.285  0.00  0.00    -0.096 A 
ATOM     10  HN1 IND d   1      -5.443   4.475  -6.734  0.00  0.00     0.298 HD
ENDROOT
TORSDOF 0
ENDMDL
