MODEL 1
REMARK minimizedAffinity 4.26690817
REMARK minimizedRMSD -1
REMARK  0 active torsions:
REMARK  status: ('A' for Active; 'I' for Inactive)
ROOT
ATOM      1  N1  IND d   1      -3.272   1.876  -3.432  0.00  0.00    -0.196 N 
ATOM      2  C2  IND d   1      -2.652   3.015  -3.002  0.00  0.00     0.054 A 
ATOM      3  C3  IND d   1      -3.181   4.099  -3.614  0.00  0.00    -0.031 A 
ATOM      4  C4  IND d   1      -5.140   4.242  -5.278  0.00  0.00     0.051 A 
ATOM      5  C5  IND d   1      -6.000   3.463  -5.999  0.00  0.00    -0.031 A 
ATOM      6  C6  IND d   1      -5.996   2.087  -5.898  0.00  0.00     0.015 A 
ATOM      7  C7  IND d   1      -5.136   1.437  -5.059  0.00  0.00    -0.016 A 
ATOM      8  C8  IND d   1      -4.257   2.225  -4.330  0.00  0.00    -0.047 A 
ATOM      9  C9  IND d   1      -4.227   3.619  -4.460  0.00  0.00    -0.096 A 
ATOM     10  HN1 IND d   1      -3.079   1.075  -3.184  0.00  0.00     0.298 HD
ENDROOT
TORSDOF 0
ENDMDL
