MODEL 1
REMARK minimizedAffinity 4.5570178
REMARK minimizedRMSD -1
REMARK  0 active torsions:
REMARK  status: ('A' for Active; 'I' for Inactive)
ROOT
ATOM      1  N1  IND d   1       0.197   1.292   2.171  0.00  0.00    -0.196 N 
ATOM      2  C2  IND d   1       0.157   2.659   2.173  0.00  0.00     0.054 A 
ATOM      3  C3  IND d   1       0.321   3.136   0.919  0.00  0.00    -0.031 A 
ATOM      4  C4  IND d   1       0.570   1.854  -1.299  0.00  0.00     0.051 A 
ATOM      5  C5  IND d   1       0.701   0.591  -1.805  0.00  0.00    -0.031 A 
ATOM      6  C6  IND d   1       0.667  -0.526  -0.994  0.00  0.00     0.015 A 
ATOM      7  C7  IND d   1       0.489  -0.421   0.356  0.00  0.00    -0.016 A 
ATOM      8  C8  IND d   1       0.363   0.861   0.874  0.00  0.00    -0.047 A 
ATOM      9  C9  IND d   1       0.439   2.000   0.062  0.00  0.00    -0.096 A 
ATOM     10  HN1 IND d   1       0.130   0.787   2.864  0.00  0.00     0.298 HD
ENDROOT
TORSDOF 0
ENDMDL
