MODEL 1
REMARK minimizedAffinity 2.39548182
REMARK minimizedRMSD -1
REMARK  0 active torsions:
REMARK  status: ('A' for Active; 'I' for Inactive)
ROOT
ATOM      1  N1  IND d   1      -3.704   3.381  -3.289  0.00  0.00    -0.196 N 
ATOM      2  C2  IND d   1      -3.492   2.659  -2.148  0.00  0.00     0.054 A 
ATOM      3  C3  IND d   1      -4.130   1.469  -2.219  0.00  0.00    -0.031 A 
ATOM      4  C4  IND d   1      -5.497   0.458  -4.152  0.00  0.00     0.051 A 
ATOM      5  C5  IND d   1      -6.000   0.757  -5.387  0.00  0.00    -0.031 A 
ATOM      6  C6  IND d   1      -5.755   1.969  -6.000  0.00  0.00     0.015 A 
ATOM      7  C7  IND d   1      -4.987   2.927  -5.402  0.00  0.00    -0.016 A 
ATOM      8  C8  IND d   1      -4.481   2.630  -4.145  0.00  0.00    -0.047 A 
ATOM      9  C9  IND d   1      -4.760   1.419  -3.500  0.00  0.00    -0.096 A 
ATOM     10  HN1 IND d   1      -3.404   4.171  -3.446  0.00  0.00     0.298 HD
ENDROOT
TORSDOF 0
ENDMDL
