MODEL 1
REMARK minimizedAffinity 5.93912745
REMARK minimizedRMSD -1
REMARK  0 active torsions:
REMARK  status: ('A' for Active; 'I' for Inactive)
ROOT
ATOM      1  N1  IND d   1       1.124   0.470   2.607  0.00  0.00    -0.196 N 
ATOM      2  C2  IND d   1       1.525  -0.723   2.074  0.00  0.00     0.054 A 
ATOM      3  C3  IND d   1       1.341  -0.725   0.734  0.00  0.00    -0.031 A 
ATOM      4  C4  IND d   1       0.492   1.157  -0.803  0.00  0.00     0.051 A 
ATOM      5  C5  IND d   1      -0.030   2.420  -0.773  0.00  0.00    -0.031 A 
ATOM      6  C6  IND d   1      -0.194   3.112   0.409  0.00  0.00     0.015 A 
ATOM      7  C7  IND d   1       0.169   2.570   1.609  0.00  0.00    -0.016 A 
ATOM      8  C8  IND d   1       0.693   1.285   1.583  0.00  0.00    -0.047 A 
ATOM      9  C9  IND d   1       0.823   0.561   0.391  0.00  0.00    -0.096 A 
ATOM     10  HN1 IND d   1       1.139   0.677   3.441  0.00  0.00     0.298 HD
ENDROOT
TORSDOF 0
ENDMDL
