MODEL 1
REMARK minimizedAffinity 7.26330948
REMARK minimizedRMSD -1
REMARK  0 active torsions:
REMARK  status: ('A' for Active; 'I' for Inactive)
ROOT
ATOM      1  N1  IND d   1      -0.140   0.956   2.001  0.00  0.00    -0.196 N 
ATOM      2  C2  IND d   1      -0.452   0.620   0.713  0.00  0.00     0.054 A 
ATOM      3  C3  IND d   1      -0.249   1.672  -0.110  0.00  0.00    -0.031 A 
ATOM      4  C4  IND d   1       0.687   4.010   0.424  0.00  0.00     0.051 A 
ATOM      5  C5  IND d   1       1.081   4.800   1.467  0.00  0.00    -0.031 A 
ATOM      6  C6  IND d   1       1.090   4.339   2.768  0.00  0.00     0.015 A 
ATOM      7  C7  IND d   1       0.716   3.061   3.073  0.00  0.00    -0.016 A 
ATOM      8  C8  IND d   1       0.309   2.258   2.017  0.00  0.00    -0.047 A 
ATOM      9  C9  IND d   1       0.256   2.734   0.701  0.00  0.00    -0.096 A 
ATOM     10  HN1 IND d   1      -0.212   0.441   2.686  0.00  0.00     0.298 HD
ENDROOT
TORSDOF 0
ENDMDL
