MODEL 1
REMARK minimizedAffinity -1.52909851
REMARK minimizedRMSD -1
REMARK  0 active torsions:
REMARK  status: ('A' for Active; 'I' for Inactive)
ROOT
ATOM      1  N1  IND d   1      -5.968   1.289  -5.838  0.00  0.00    -0.196 N 
ATOM      2  C2  IND d   1      -4.964   0.366  -5.736  0.00  0.00     0.054 A 
ATOM      3  C3  IND d   1      -3.760   0.980  -5.724  0.00  0.00    -0.031 A 
ATOM      4  C4  IND d   1      -3.205   3.494  -5.758  0.00  0.00     0.051 A 
ATOM      5  C5  IND d   1      -3.787   4.724  -5.883  0.00  0.00    -0.031 A 
ATOM      6  C6  IND d   1      -5.154   4.875  -6.000  0.00  0.00     0.015 A 
ATOM      7  C7  IND d   1      -5.994   3.798  -5.984  0.00  0.00    -0.016 A 
ATOM      8  C8  IND d   1      -5.406   2.547  -5.863  0.00  0.00    -0.047 A 
ATOM      9  C9  IND d   1      -4.016   2.384  -5.787  0.00  0.00    -0.096 A 
ATOM     10  HN1 IND d   1      -6.808   1.114  -5.880  0.00  0.00     0.298 HD
ENDROOT
TORSDOF 0
ENDMDL
