MODEL 1
REMARK minimizedAffinity 9.36204147
REMARK minimizedRMSD -1
REMARK  0 active torsions:
REMARK  status: ('A' for Active; 'I' for Inactive)
ROOT
ATOM      1  N1  IND d   1      -3.212   4.388  -5.998  0.00  0.00    -0.196 N 
ATOM      2  C2  IND d   1      -2.153   4.503  -5.142  0.00  0.00     0.054 A 
ATOM      3  C3  IND d   1      -2.302   3.662  -4.094  0.00  0.00    -0.031 A 
ATOM      4  C4  IND d   1      -4.156   1.936  -3.634  0.00  0.00     0.051 A 
ATOM      5  C5  IND d   1      -5.356   1.490  -4.113  0.00  0.00    -0.031 A 
ATOM      6  C6  IND d   1      -5.912   1.996  -5.270  0.00  0.00     0.015 A 
ATOM      7  C7  IND d   1      -5.281   2.963  -6.000  0.00  0.00    -0.016 A 
ATOM      8  C8  IND d   1      -4.066   3.423  -5.513  0.00  0.00    -0.047 A 
ATOM      9  C9  IND d   1      -3.517   2.943  -4.317  0.00  0.00    -0.096 A 
ATOM     10  HN1 IND d   1      -3.325   4.843  -6.719  0.00  0.00     0.298 HD
ENDROOT
TORSDOF 0
ENDMDL
