MODEL 1
REMARK minimizedAffinity 12.0441446
REMARK minimizedRMSD -1
REMARK  0 active torsions:
REMARK  status: ('A' for Active; 'I' for Inactive)
ROOT
ATOM      1  N1  IND d   1      -5.711  -0.314  -4.544  0.00  0.00    -0.196 N 
ATOM      2  C2  IND d   1      -5.199  -0.508  -3.292  0.00  0.00     0.054 A 
ATOM      3  C3  IND d   1      -4.761   0.662  -2.776  0.00  0.00    -0.031 A 
ATOM      4  C4  IND d   1      -4.880   3.034  -3.770  0.00  0.00     0.051 A 
ATOM      5  C5  IND d   1      -5.230   3.710  -4.906  0.00  0.00    -0.031 A 
ATOM      6  C6  IND d   1      -5.771   3.066  -6.000  0.00  0.00     0.015 A 
ATOM      7  C7  IND d   1      -5.995   1.718  -5.995  0.00  0.00    -0.016 A 
ATOM      8  C8  IND d   1      -5.634   1.028  -4.846  0.00  0.00    -0.047 A 
ATOM      9  C9  IND d   1      -5.045   1.669  -3.749  0.00  0.00    -0.096 A 
ATOM     10  HN1 IND d   1      -6.028  -0.927  -5.057  0.00  0.00     0.298 HD
ENDROOT
TORSDOF 0
ENDMDL
