MODEL 1
REMARK minimizedAffinity 12.7114992
REMARK minimizedRMSD -1
REMARK  0 active torsions:
REMARK  status: ('A' for Active; 'I' for Inactive)
ROOT
ATOM      1  N1  IND d   1      -4.251   1.042  -2.925  0.00  0.00    -0.196 N 
ATOM      2  C2  IND d   1      -3.384   1.890  -2.295  0.00  0.00     0.054 A 
ATOM      3  C3  IND d   1      -3.308   3.065  -2.960  0.00  0.00    -0.031 A 
ATOM      4  C4  IND d   1      -4.595   3.849  -5.047  0.00  0.00     0.051 A 
ATOM      5  C5  IND d   1      -5.472   3.411  -5.999  0.00  0.00    -0.031 A 
ATOM      6  C6  IND d   1      -6.000   2.137  -5.973  0.00  0.00     0.015 A 
ATOM      7  C7  IND d   1      -5.677   1.252  -4.984  0.00  0.00    -0.016 A 
ATOM      8  C8  IND d   1      -4.782   1.691  -4.019  0.00  0.00    -0.047 A 
ATOM      9  C9  IND d   1      -4.210   2.969  -4.063  0.00  0.00    -0.096 A 
ATOM     10  HN1 IND d   1      -4.435   0.239  -2.680  0.00  0.00     0.298 HD
ENDROOT
TORSDOF 0
ENDMDL
