MODEL 1
REMARK minimizedAffinity 3.70666933
REMARK minimizedRMSD -1
REMARK  0 active torsions:
REMARK  status: ('A' for Active; 'I' for Inactive)
ROOT
ATOM      1  N1  IND d   1      -2.415   4.505  -5.275  0.00  0.00    -0.196 N 
ATOM      2  C2  IND d   1      -1.666   3.634  -4.535  0.00  0.00     0.054 A 
ATOM      3  C3  IND d   1      -2.424   2.591  -4.127  0.00  0.00    -0.031 A 
ATOM      4  C4  IND d   1      -4.890   2.062  -4.642  0.00  0.00     0.051 A 
ATOM      5  C5  IND d   1      -5.999   2.581  -5.248  0.00  0.00    -0.031 A 
ATOM      6  C6  IND d   1      -5.970   3.792  -5.909  0.00  0.00     0.015 A 
ATOM      7  C7  IND d   1      -4.821   4.526  -6.000  0.00  0.00    -0.016 A 
ATOM      8  C8  IND d   1      -3.694   4.005  -5.380  0.00  0.00    -0.047 A 
ATOM      9  C9  IND d   1      -3.729   2.797  -4.671  0.00  0.00    -0.096 A 
ATOM     10  HN1 IND d   1      -2.134   5.242  -5.618  0.00  0.00     0.298 HD
ENDROOT
TORSDOF 0
ENDMDL
