MODEL 1
REMARK minimizedAffinity 11.0978718
REMARK minimizedRMSD -1
REMARK  0 active torsions:
REMARK  status: ('A' for Active; 'I' for Inactive)
ROOT
ATOM      1  N1  IND d   1       0.822  -0.324  -2.452  0.00  0.00    -0.196 N 
ATOM      2  C2  IND d   1       0.640   0.644  -3.400  0.00  0.00     0.054 A 
ATOM      3  C3  IND d   1       0.236   1.798  -2.822  0.00  0.00    -0.031 A 
ATOM      4  C4  IND d   1      -0.095   2.350  -0.330  0.00  0.00     0.051 A 
ATOM      5  C5  IND d   1      -0.085   1.778   0.911  0.00  0.00    -0.031 A 
ATOM      6  C6  IND d   1       0.236   0.449   1.098  0.00  0.00     0.015 A 
ATOM      7  C7  IND d   1       0.573  -0.358   0.048  0.00  0.00    -0.016 A 
ATOM      8  C8  IND d   1       0.557   0.219  -1.214  0.00  0.00    -0.047 A 
ATOM      9  C9  IND d   1       0.191   1.556  -1.415  0.00  0.00    -0.096 A 
ATOM     10  HN1 IND d   1       1.061  -1.136  -2.604  0.00  0.00     0.298 HD
ENDROOT
TORSDOF 0
ENDMDL
