MODEL 1
REMARK minimizedAffinity 0.740190029
REMARK minimizedRMSD -1
REMARK  0 active torsions:
REMARK  status: ('A' for Active; 'I' for Inactive)
ROOT
ATOM      1  N1  IND d   1      -5.304   4.118  -6.000  0.00  0.00    -0.196 N 
ATOM      2  C2  IND d   1      -6.000   3.014  -5.592  0.00  0.00     0.054 A 
ATOM      3  C3  IND d   1      -5.183   2.159  -4.937  0.00  0.00    -0.031 A 
ATOM      4  C4  IND d   1      -2.694   2.413  -4.331  0.00  0.00     0.051 A 
ATOM      5  C5  IND d   1      -1.618   3.234  -4.521  0.00  0.00    -0.031 A 
ATOM      6  C6  IND d   1      -1.718   4.417  -5.225  0.00  0.00     0.015 A 
ATOM      7  C7  IND d   1      -2.906   4.830  -5.758  0.00  0.00    -0.016 A 
ATOM      8  C8  IND d   1      -3.999   3.996  -5.574  0.00  0.00    -0.047 A 
ATOM      9  C9  IND d   1      -3.894   2.774  -4.897  0.00  0.00    -0.096 A 
ATOM     10  HN1 IND d   1      -5.626   4.778  -6.447  0.00  0.00     0.298 HD
ENDROOT
TORSDOF 0
ENDMDL
