MODEL 1
REMARK minimizedAffinity 4.46325684
REMARK minimizedRMSD -1
REMARK  0 active torsions:
REMARK  status: ('A' for Active; 'I' for Inactive)
ROOT
ATOM      1  N1  IND d   1       1.184   2.529   2.974  0.00  0.00    -0.196 N 
ATOM      2  C2  IND d   1       1.230   3.885   2.807  0.00  0.00     0.054 A 
ATOM      3  C3  IND d   1       0.669   4.233   1.627  0.00  0.00    -0.031 A 
ATOM      4  C4  IND d   1      -0.478   2.751  -0.138  0.00  0.00     0.051 A 
ATOM      5  C5  IND d   1      -0.734   1.444  -0.446  0.00  0.00    -0.031 A 
ATOM      6  C6  IND d   1      -0.359   0.412   0.389  0.00  0.00     0.015 A 
ATOM      7  C7  IND d   1       0.280   0.649   1.573  0.00  0.00    -0.016 A 
ATOM      8  C8  IND d   1       0.548   1.975   1.886  0.00  0.00    -0.047 A 
ATOM      9  C9  IND d   1       0.207   3.024   1.022  0.00  0.00    -0.096 A 
ATOM     10  HN1 IND d   1       1.500   2.096   3.646  0.00  0.00     0.298 HD
ENDROOT
TORSDOF 0
ENDMDL
