MODEL 1
REMARK minimizedAffinity 0.214601383
REMARK minimizedRMSD -1
REMARK  0 active torsions:
REMARK  status: ('A' for Active; 'I' for Inactive)
ROOT
ATOM      1  N1  IND d   1      -4.493   4.368  -6.000  0.00  0.00    -0.196 N 
ATOM      2  C2  IND d   1      -5.608   3.588  -5.868  0.00  0.00     0.054 A 
ATOM      3  C3  IND d   1      -5.347   2.526  -5.072  0.00  0.00    -0.031 A 
ATOM      4  C4  IND d   1      -3.192   1.927  -3.798  0.00  0.00     0.051 A 
ATOM      5  C5  IND d   1      -1.892   2.318  -3.635  0.00  0.00    -0.031 A 
ATOM      6  C6  IND d   1      -1.384   3.437  -4.263  0.00  0.00     0.015 A 
ATOM      7  C7  IND d   1      -2.163   4.216  -5.071  0.00  0.00    -0.016 A 
ATOM      8  C8  IND d   1      -3.481   3.818  -5.244  0.00  0.00    -0.047 A 
ATOM      9  C9  IND d   1      -3.991   2.659  -4.644  0.00  0.00    -0.096 A 
ATOM     10  HN1 IND d   1      -4.434   5.082  -6.475  0.00  0.00     0.298 HD
ENDROOT
TORSDOF 0
ENDMDL
