MODEL 1
REMARK minimizedAffinity 1.5676595
REMARK minimizedRMSD -1
REMARK  0 active torsions:
REMARK  status: ('A' for Active; 'I' for Inactive)
ROOT
ATOM      1  C4' PXY d   1       0.450  -1.048  -1.275  0.00  0.00     0.077 C 
ATOM      2  C1' PXY d   1      -2.238   3.258   1.491  0.00  0.00     0.077 C 
ATOM      3  C1  PXY d   1      -1.523   2.130   0.774  0.00  0.00    -0.082 A 
ATOM      4  C2  PXY d   1      -1.828   1.857  -0.485  0.00  0.00     0.003 A 
ATOM      5  C3  PXY d   1      -1.214   0.820  -1.138  0.00  0.00     0.003 A 
ATOM      6  C4  PXY d   1      -0.239   0.088  -0.514  0.00  0.00    -0.082 A 
ATOM      7  C5  PXY d   1       0.086   0.367   0.766  0.00  0.00     0.003 A 
ATOM      8  C6  PXY d   1      -0.579   1.398   1.425  0.00  0.00     0.003 A 
ENDROOT
TORSDOF 0
ENDMDL
