MODEL 1
REMARK minimizedAffinity -4.68943405
REMARK minimizedRMSD -1
REMARK  0 active torsions:
REMARK  status: ('A' for Active; 'I' for Inactive)
ROOT
ATOM      1  C4' PXY d   1       1.621  -1.015  -1.037  0.00  0.00     0.077 C 
ATOM      2  C1' PXY d   1      -2.469   2.133   1.566  0.00  0.00     0.077 C 
ATOM      3  C1  PXY d   1      -1.393   1.302   0.895  0.00  0.00    -0.082 A 
ATOM      4  C2  PXY d   1      -0.923   1.672  -0.285  0.00  0.00     0.003 A 
ATOM      5  C3  PXY d   1       0.028   0.915  -0.921  0.00  0.00     0.003 A 
ATOM      6  C4  PXY d   1       0.541  -0.202  -0.318  0.00  0.00    -0.082 A 
ATOM      7  C5  PXY d   1       0.075  -0.579   0.891  0.00  0.00     0.003 A 
ATOM      8  C6  PXY d   1      -0.920   0.179   1.501  0.00  0.00     0.003 A 
ENDROOT
TORSDOF 0
ENDMDL
