MODEL 1
REMARK minimizedAffinity -2.96070457
REMARK minimizedRMSD -1
REMARK  0 active torsions:
REMARK  status: ('A' for Active; 'I' for Inactive)
ROOT
ATOM      1  C4' PXY d   1      -1.869   2.317   1.420  0.00  0.00     0.077 C 
ATOM      2  C1' PXY d   1       1.342  -1.880  -0.924  0.00  0.00     0.077 C 
ATOM      3  C1  PXY d   1       0.504  -0.771  -0.318  0.00  0.00    -0.082 A 
ATOM      4  C2  PXY d   1       0.148  -0.841   0.954  0.00  0.00     0.003 A 
ATOM      5  C3  PXY d   1      -0.636   0.137   1.510  0.00  0.00     0.003 A 
ATOM      6  C4  PXY d   1      -1.016   1.225   0.769  0.00  0.00    -0.082 A 
ATOM      7  C5  PXY d   1      -0.648   1.308  -0.527  0.00  0.00     0.003 A 
ATOM      8  C6  PXY d   1       0.114   0.285  -1.083  0.00  0.00     0.003 A 
ENDROOT
TORSDOF 0
ENDMDL
