MODEL 1
REMARK minimizedAffinity -3.3672328
REMARK minimizedRMSD -1
REMARK  0 active torsions:
REMARK  status: ('A' for Active; 'I' for Inactive)
ROOT
ATOM      1  C4' PXY d   1       1.123  -1.551  -1.145  0.00  0.00     0.077 C 
ATOM      2  C1' PXY d   1      -2.091   2.279   1.756  0.00  0.00     0.077 C 
ATOM      3  C1  PXY d   1      -1.253   1.279   0.984  0.00  0.00    -0.082 A 
ATOM      4  C2  PXY d   1      -0.813   0.188   1.590  0.00  0.00     0.003 A 
ATOM      5  C3  PXY d   1      -0.027  -0.711   0.916  0.00  0.00     0.003 A 
ATOM      6  C4  PXY d   1       0.266  -0.518  -0.408  0.00  0.00    -0.082 A 
ATOM      7  C5  PXY d   1      -0.188   0.587  -1.036  0.00  0.00     0.003 A 
ATOM      8  C6  PXY d   1      -0.949   1.508  -0.323  0.00  0.00     0.003 A 
ENDROOT
TORSDOF 0
ENDMDL
