MODEL 1
REMARK minimizedAffinity -4.43854618
REMARK minimizedRMSD -1
REMARK  0 active torsions:
REMARK  status: ('A' for Active; 'I' for Inactive)
ROOT
ATOM      1  C4' PXY d   1       1.492  -1.519  -0.692  0.00  0.00     0.077 C 
ATOM      2  C1' PXY d   1      -2.214   2.333   1.508  0.00  0.00     0.077 C 
ATOM      3  C1  PXY d   1      -1.238   1.320   0.943  0.00  0.00    -0.082 A 
ATOM      4  C2  PXY d   1      -0.797   1.458  -0.296  0.00  0.00     0.003 A 
ATOM      5  C3  PXY d   1       0.061   0.533  -0.834  0.00  0.00     0.003 A 
ATOM      6  C4  PXY d   1       0.513  -0.515  -0.077  0.00  0.00    -0.082 A 
ATOM      7  C5  PXY d   1       0.075  -0.656   1.192  0.00  0.00     0.003 A 
ATOM      8  C6  PXY d   1      -0.827   0.271   1.705  0.00  0.00     0.003 A 
ENDROOT
TORSDOF 0
ENDMDL
