MODEL 1
REMARK minimizedAffinity -1.689201
REMARK minimizedRMSD -1
REMARK  0 active torsions:
REMARK  status: ('A' for Active; 'I' for Inactive)
ROOT
ATOM      1  C4' PXY d   1       1.405  -1.671  -1.262  0.00  0.00     0.077 C 
ATOM      2  C1' PXY d   1      -1.587   1.853   2.208  0.00  0.00     0.077 C 
ATOM      3  C1  PXY d   1      -0.805   0.937   1.288  0.00  0.00    -0.082 A 
ATOM      4  C2  PXY d   1      -0.674  -0.343   1.596  0.00  0.00     0.003 A 
ATOM      5  C3  PXY d   1       0.058  -1.179   0.792  0.00  0.00     0.003 A 
ATOM      6  C4  PXY d   1       0.616  -0.711  -0.368  0.00  0.00    -0.082 A 
ATOM      7  C5  PXY d   1       0.477   0.591  -0.695  0.00  0.00     0.003 A 
ATOM      8  C6  PXY d   1      -0.234   1.432   0.156  0.00  0.00     0.003 A 
ENDROOT
TORSDOF 0
ENDMDL
