MODEL 1
REMARK minimizedAffinity -5.09475708
REMARK minimizedRMSD -1
REMARK  0 active torsions:
REMARK  status: ('A' for Active; 'I' for Inactive)
ROOT
ATOM      1  C4' PXY d   1      -2.244   2.962   1.648  0.00  0.00     0.077 C 
ATOM      2  C1' PXY d   1       1.154  -1.314  -0.246  0.00  0.00     0.077 C 
ATOM      3  C1  PXY d   1       0.259  -0.201   0.260  0.00  0.00    -0.082 A 
ATOM      4  C2  PXY d   1      -0.093   0.779  -0.557  0.00  0.00     0.003 A 
ATOM      5  C3  PXY d   1      -0.876   1.810  -0.107  0.00  0.00     0.003 A 
ATOM      6  C4  PXY d   1      -1.348   1.812   1.178  0.00  0.00    -0.082 A 
ATOM      7  C5  PXY d   1      -1.004   0.810   2.015  0.00  0.00     0.003 A 
ATOM      8  C6  PXY d   1      -0.174  -0.206   1.551  0.00  0.00     0.003 A 
ENDROOT
TORSDOF 0
ENDMDL
