MODEL 1
REMARK minimizedAffinity -4.66528416
REMARK minimizedRMSD -1
REMARK  0 active torsions:
REMARK  status: ('A' for Active; 'I' for Inactive)
ROOT
ATOM      1  C4' PXY d   1       1.311  -1.535  -0.648  0.00  0.00     0.077 C 
ATOM      2  C1' PXY d   1      -2.496   2.371   1.267  0.00  0.00     0.077 C 
ATOM      3  C1  PXY d   1      -1.500   1.350   0.753  0.00  0.00    -0.082 A 
ATOM      4  C2  PXY d   1      -1.156   0.328   1.520  0.00  0.00     0.003 A 
ATOM      5  C3  PXY d   1      -0.233  -0.587   1.083  0.00  0.00     0.003 A 
ATOM      6  C4  PXY d   1       0.303  -0.485  -0.173  0.00  0.00    -0.082 A 
ATOM      7  C5  PXY d   1      -0.052   0.549  -0.966  0.00  0.00     0.003 A 
ATOM      8  C6  PXY d   1      -0.959   1.490  -0.488  0.00  0.00     0.003 A 
ENDROOT
TORSDOF 0
ENDMDL
