MODEL 1
REMARK minimizedAffinity -2.31285501
REMARK minimizedRMSD -1
REMARK  0 active torsions:
REMARK  status: ('A' for Active; 'I' for Inactive)
ROOT
ATOM      1  C4' PXY d   1       0.647  -1.007  -1.391  0.00  0.00     0.077 C 
ATOM      2  C1' PXY d   1      -2.487   2.860   1.548  0.00  0.00     0.077 C 
ATOM      3  C1  PXY d   1      -1.670   1.851   0.766  0.00  0.00    -0.082 A 
ATOM      4  C2  PXY d   1      -1.344   0.697   1.327  0.00  0.00     0.003 A 
ATOM      5  C3  PXY d   1      -0.578  -0.213   0.646  0.00  0.00     0.003 A 
ATOM      6  C4  PXY d   1      -0.186   0.038  -0.642  0.00  0.00    -0.082 A 
ATOM      7  C5  PXY d   1      -0.522   1.208  -1.225  0.00  0.00     0.003 A 
ATOM      8  C6  PXY d   1      -1.266   2.136  -0.501  0.00  0.00     0.003 A 
ENDROOT
TORSDOF 0
ENDMDL
