MODEL 1
REMARK minimizedAffinity -1.161111
REMARK minimizedRMSD -1
REMARK  0 active torsions:
REMARK  status: ('A' for Active; 'I' for Inactive)
ROOT
ATOM      1  C4' PXY d   1       0.413   0.088   1.370  0.00  0.00     0.077 C 
ATOM      2  C1' PXY d   1      -0.619  -3.499  -3.044  0.00  0.00     0.077 C 
ATOM      3  C1  PXY d   1      -0.339  -2.553  -1.894  0.00  0.00    -0.082 A 
ATOM      4  C2  PXY d   1      -0.677  -2.901  -0.663  0.00  0.00     0.003 A 
ATOM      5  C3  PXY d   1      -0.460  -2.044   0.385  0.00  0.00     0.003 A 
ATOM      6  C4  PXY d   1       0.158  -0.840   0.179  0.00  0.00    -0.082 A 
ATOM      7  C5  PXY d   1       0.516  -0.482  -1.073  0.00  0.00     0.003 A 
ATOM      8  C6  PXY d   1       0.249  -1.348  -2.128  0.00  0.00     0.003 A 
ENDROOT
TORSDOF 0
ENDMDL
