MODEL 1
REMARK minimizedAffinity -4.97533703
REMARK minimizedRMSD -1
REMARK  0 active torsions:
REMARK  status: ('A' for Active; 'I' for Inactive)
ROOT
ATOM      1  C4' PXY d   1      -2.084   2.565   1.581  0.00  0.00     0.077 C 
ATOM      2  C1' PXY d   1       1.092  -1.644  -0.788  0.00  0.00     0.077 C 
ATOM      3  C1  PXY d   1       0.256  -0.548  -0.157  0.00  0.00    -0.082 A 
ATOM      4  C2  PXY d   1      -0.190   0.448  -0.906  0.00  0.00     0.003 A 
ATOM      5  C3  PXY d   1      -0.921   1.464  -0.346  0.00  0.00     0.003 A 
ATOM      6  C4  PXY d   1      -1.244   1.433   0.985  0.00  0.00    -0.082 A 
ATOM      7  C5  PXY d   1      -0.803   0.414   1.753  0.00  0.00     0.003 A 
ATOM      8  C6  PXY d   1      -0.027  -0.586   1.173  0.00  0.00     0.003 A 
ENDROOT
TORSDOF 0
ENDMDL
