MODEL 1
REMARK minimizedAffinity -5.1333847
REMARK minimizedRMSD -1
REMARK  0 active torsions:
REMARK  status: ('A' for Active; 'I' for Inactive)
ROOT
ATOM      1  C4' PXY d   1       1.488  -1.240  -1.013  0.00  0.00     0.077 C 
ATOM      2  C1' PXY d   1      -2.312   2.019   1.877  0.00  0.00     0.077 C 
ATOM      3  C1  PXY d   1      -1.311   1.159   1.130  0.00  0.00    -0.082 A 
ATOM      4  C2  PXY d   1      -0.867   1.550  -0.053  0.00  0.00     0.003 A 
ATOM      5  C3  PXY d   1       0.014   0.769  -0.756  0.00  0.00     0.003 A 
ATOM      6  C4  PXY d   1       0.485  -0.399  -0.219  0.00  0.00    -0.082 A 
ATOM      7  C5  PXY d   1       0.045  -0.800   0.993  0.00  0.00     0.003 A 
ATOM      8  C6  PXY d   1      -0.880  -0.013   1.672  0.00  0.00     0.003 A 
ENDROOT
TORSDOF 0
ENDMDL
