MODEL 1
REMARK minimizedAffinity -3.901402
REMARK minimizedRMSD -1
REMARK  0 active torsions:
REMARK  status: ('A' for Active; 'I' for Inactive)
ROOT
ATOM      1  C4' PXY d   1       1.520  -1.566  -0.859  0.00  0.00     0.077 C 
ATOM      2  C1' PXY d   1      -2.087   2.305   1.468  0.00  0.00     0.077 C 
ATOM      3  C1  PXY d   1      -1.141   1.297   0.847  0.00  0.00    -0.082 A 
ATOM      4  C2  PXY d   1      -1.077   0.070   1.339  0.00  0.00     0.003 A 
ATOM      5  C3  PXY d   1      -0.204  -0.845   0.810  0.00  0.00     0.003 A 
ATOM      6  C4  PXY d   1       0.573  -0.518  -0.269  0.00  0.00    -0.082 A 
ATOM      7  C5  PXY d   1       0.506   0.728  -0.784  0.00  0.00     0.003 A 
ATOM      8  C6  PXY d   1      -0.357   1.655  -0.206  0.00  0.00     0.003 A 
ENDROOT
TORSDOF 0
ENDMDL
