MODEL 1
REMARK minimizedAffinity -3.96673417
REMARK minimizedRMSD -1
REMARK  0 active torsions:
REMARK  status: ('A' for Active; 'I' for Inactive)
ROOT
ATOM      1  C4' PXY d   1       1.425  -0.892  -1.172  0.00  0.00     0.077 C 
ATOM      2  C1' PXY d   1      -2.638   2.227   1.508  0.00  0.00     0.077 C 
ATOM      3  C1  PXY d   1      -1.576   1.414   0.794  0.00  0.00    -0.082 A 
ATOM      4  C2  PXY d   1      -1.083   0.331   1.372  0.00  0.00     0.003 A 
ATOM      5  C3  PXY d   1      -0.100  -0.398   0.754  0.00  0.00     0.003 A 
ATOM      6  C4  PXY d   1       0.345  -0.045  -0.492  0.00  0.00    -0.082 A 
ATOM      7  C5  PXY d   1      -0.161   1.052  -1.093  0.00  0.00     0.003 A 
ATOM      8  C6  PXY d   1      -1.129   1.802  -0.431  0.00  0.00     0.003 A 
ENDROOT
TORSDOF 0
ENDMDL
