MODEL 1
REMARK minimizedAffinity -4.36051035
REMARK minimizedRMSD -1
REMARK  0 active torsions:
REMARK  status: ('A' for Active; 'I' for Inactive)
ROOT
ATOM      1  C4' PXY d   1       1.274  -1.534  -0.943  0.00  0.00     0.077 C 
ATOM      2  C1' PXY d   1      -2.418   2.019   1.734  0.00  0.00     0.077 C 
ATOM      3  C1  PXY d   1      -1.446   1.083   1.044  0.00  0.00    -0.082 A 
ATOM      4  C2  PXY d   1      -0.985   1.388  -0.159  0.00  0.00     0.003 A 
ATOM      5  C3  PXY d   1      -0.131   0.537  -0.811  0.00  0.00     0.003 A 
ATOM      6  C4  PXY d   1       0.298  -0.613  -0.204  0.00  0.00    -0.082 A 
ATOM      7  C5  PXY d   1      -0.159  -0.927   1.027  0.00  0.00     0.003 A 
ATOM      8  C6  PXY d   1      -1.058  -0.070   1.655  0.00  0.00     0.003 A 
ENDROOT
TORSDOF 0
ENDMDL
