MODEL 1
REMARK minimizedAffinity -4.03304815
REMARK minimizedRMSD -1
REMARK  0 active torsions:
REMARK  status: ('A' for Active; 'I' for Inactive)
ROOT
ATOM      1  C4' PXY d   1       1.275  -0.919  -1.122  0.00  0.00     0.077 C 
ATOM      2  C1' PXY d   1      -2.209   2.715   1.720  0.00  0.00     0.077 C 
ATOM      3  C1  PXY d   1      -1.294   1.755   0.985  0.00  0.00    -0.082 A 
ATOM      4  C2  PXY d   1      -0.643   2.165  -0.091  0.00  0.00     0.003 A 
ATOM      5  C3  PXY d   1       0.164   1.301  -0.786  0.00  0.00     0.003 A 
ATOM      6  C4  PXY d   1       0.348   0.019  -0.344  0.00  0.00    -0.082 A 
ATOM      7  C5  PXY d   1      -0.304  -0.405   0.760  0.00  0.00     0.003 A 
ATOM      8  C6  PXY d   1      -1.150   0.476   1.427  0.00  0.00     0.003 A 
ENDROOT
TORSDOF 0
ENDMDL
