MODEL 1
REMARK minimizedAffinity -5.73417425
REMARK minimizedRMSD -1
REMARK  0 active torsions:
REMARK  status: ('A' for Active; 'I' for Inactive)
ROOT
ATOM      1  C4' PXY d   1      -1.495   3.165   0.892  0.00  0.00     0.077 C 
ATOM      2  C1' PXY d   1       1.599  -1.297  -1.091  0.00  0.00     0.077 C 
ATOM      3  C1  PXY d   1       0.793  -0.119  -0.580  0.00  0.00    -0.082 A 
ATOM      4  C2  PXY d   1       0.345  -0.125   0.665  0.00  0.00     0.003 A 
ATOM      5  C3  PXY d   1      -0.413   0.918   1.133  0.00  0.00     0.003 A 
ATOM      6  C4  PXY d   1      -0.669   2.001   0.336  0.00  0.00    -0.082 A 
ATOM      7  C5  PXY d   1      -0.206   2.019  -0.931  0.00  0.00     0.003 A 
ATOM      8  C6  PXY d   1       0.526   0.933  -1.401  0.00  0.00     0.003 A 
ENDROOT
TORSDOF 0
ENDMDL
