MODEL 1
REMARK minimizedAffinity -3.24055028
REMARK minimizedRMSD -1
REMARK  0 active torsions:
REMARK  status: ('A' for Active; 'I' for Inactive)
ROOT
ATOM      1  C4' PXY d   1       1.008  -1.893  -1.072  0.00  0.00     0.077 C 
ATOM      2  C1' PXY d   1      -1.249   2.404   2.067  0.00  0.00     0.077 C 
ATOM      3  C1  PXY d   1      -0.662   1.283   1.233  0.00  0.00    -0.082 A 
ATOM      4  C2  PXY d   1      -0.444   0.101   1.786  0.00  0.00     0.003 A 
ATOM      5  C3  PXY d   1       0.116  -0.915   1.055  0.00  0.00     0.003 A 
ATOM      6  C4  PXY d   1       0.408  -0.735  -0.270  0.00  0.00    -0.082 A 
ATOM      7  C5  PXY d   1       0.178   0.465  -0.845  0.00  0.00     0.003 A 
ATOM      8  C6  PXY d   1      -0.353   1.495  -0.075  0.00  0.00     0.003 A 
ENDROOT
TORSDOF 0
ENDMDL
