MODEL 1
REMARK minimizedAffinity -3.44123888
REMARK minimizedRMSD -1
REMARK  0 active torsions:
REMARK  status: ('A' for Active; 'I' for Inactive)
ROOT
ATOM      1  C4' PXY d   1      -2.156   2.643   1.884  0.00  0.00     0.077 C 
ATOM      2  C1' PXY d   1       1.131  -1.091  -1.060  0.00  0.00     0.077 C 
ATOM      3  C1  PXY d   1       0.270  -0.104  -0.298  0.00  0.00    -0.082 A 
ATOM      4  C2  PXY d   1       0.178  -0.196   1.019  0.00  0.00     0.003 A 
ATOM      5  C3  PXY d   1      -0.622   0.669   1.721  0.00  0.00     0.003 A 
ATOM      6  C4  PXY d   1      -1.291   1.673   1.074  0.00  0.00    -0.082 A 
ATOM      7  C5  PXY d   1      -1.193   1.781  -0.268  0.00  0.00     0.003 A 
ATOM      8  C6  PXY d   1      -0.409   0.867  -0.967  0.00  0.00     0.003 A 
ENDROOT
TORSDOF 0
ENDMDL
