MODEL 1
REMARK minimizedAffinity -4.12683439
REMARK minimizedRMSD -1
REMARK  0 active torsions:
REMARK  status: ('A' for Active; 'I' for Inactive)
ROOT
ATOM      1  C4' PXY d   1       1.298  -1.665  -0.773  0.00  0.00     0.077 C 
ATOM      2  C1' PXY d   1      -2.275   2.337   1.380  0.00  0.00     0.077 C 
ATOM      3  C1  PXY d   1      -1.335   1.284   0.827  0.00  0.00    -0.082 A 
ATOM      4  C2  PXY d   1      -0.829   1.430  -0.387  0.00  0.00     0.003 A 
ATOM      5  C3  PXY d   1      -0.003   0.472  -0.914  0.00  0.00     0.003 A 
ATOM      6  C4  PXY d   1       0.352  -0.622  -0.171  0.00  0.00    -0.082 A 
ATOM      7  C5  PXY d   1      -0.151  -0.773   1.073  0.00  0.00     0.003 A 
ATOM      8  C6  PXY d   1      -1.021   0.191   1.574  0.00  0.00     0.003 A 
ENDROOT
TORSDOF 0
ENDMDL
