MODEL 1
REMARK minimizedAffinity 5.9110527
REMARK minimizedRMSD -1
REMARK  0 active torsions:
REMARK  status: ('A' for Active; 'I' for Inactive)
ROOT
ATOM      1  C   UNL d   1       1.122   2.597  -2.355  0.00  0.00     0.077 C 
ATOM      2  C1  UNL d   1       1.051   3.665  -3.405  0.00  0.00    -0.074 A 
ATOM      3  C2  UNL d   1       2.133   4.519  -3.637  0.00  0.00    -0.005 A 
ATOM      4  C3  UNL d   1       2.055   5.502  -4.623  0.00  0.00     0.006 A 
ATOM      5  C4  UNL d   1       0.896   5.640  -5.388  0.00  0.00    -0.005 A 
ATOM      6  C5  UNL d   1      -0.196   4.794  -5.172  0.00  0.00    -0.074 A 
ATOM      7  C6  UNL d   1      -1.446   4.922  -5.991  0.00  0.00     0.077 C 
ATOM      8  C7  UNL d   1      -0.108   3.804  -4.183  0.00  0.00    -0.001 A 
ENDROOT
TORSDOF 0
ENDMDL
