MODEL 1
REMARK minimizedAffinity 4.71101904
REMARK minimizedRMSD -1
REMARK  0 active torsions:
REMARK  status: ('A' for Active; 'I' for Inactive)
ROOT
ATOM      1  C   UNL d   1       1.772   3.360  -3.005  0.00  0.00     0.077 C 
ATOM      2  C1  UNL d   1       0.754   4.209  -3.708  0.00  0.00    -0.074 A 
ATOM      3  C2  UNL d   1       0.885   4.511  -5.067  0.00  0.00    -0.005 A 
ATOM      4  C3  UNL d   1      -0.074   5.293  -5.709  0.00  0.00     0.006 A 
ATOM      5  C4  UNL d   1      -1.173   5.780  -5.000  0.00  0.00    -0.005 A 
ATOM      6  C5  UNL d   1      -1.322   5.488  -3.641  0.00  0.00    -0.074 A 
ATOM      7  C6  UNL d   1      -2.502   5.995  -2.866  0.00  0.00     0.077 C 
ATOM      8  C7  UNL d   1      -0.357   4.695  -3.004  0.00  0.00    -0.001 A 
ENDROOT
TORSDOF 0
ENDMDL
