MODEL 1
REMARK minimizedAffinity -0.345349014
REMARK minimizedRMSD -1
REMARK  0 active torsions:
REMARK  status: ('A' for Active; 'I' for Inactive)
ROOT
ATOM      1  C   UNL d   1      -3.058   4.923  -3.529  0.00  0.00     0.077 C 
ATOM      2  C1  UNL d   1      -1.679   4.739  -4.090  0.00  0.00    -0.074 A 
ATOM      3  C2  UNL d   1      -1.417   4.969  -5.444  0.00  0.00    -0.005 A 
ATOM      4  C3  UNL d   1      -0.127   4.803  -5.949  0.00  0.00     0.006 A 
ATOM      5  C4  UNL d   1       0.912   4.406  -5.106  0.00  0.00    -0.005 A 
ATOM      6  C5  UNL d   1       0.669   4.172  -3.749  0.00  0.00    -0.074 A 
ATOM      7  C6  UNL d   1       1.776   3.754  -2.827  0.00  0.00     0.077 C 
ATOM      8  C7  UNL d   1      -0.628   4.348  -3.247  0.00  0.00    -0.001 A 
ENDROOT
TORSDOF 0
ENDMDL
