MODEL 1
REMARK minimizedAffinity 2.28578472
REMARK minimizedRMSD -1
REMARK  0 active torsions:
REMARK  status: ('A' for Active; 'I' for Inactive)
ROOT
ATOM      1  C   UNL d   1      -5.554  -0.843  -1.589  0.00  0.00     0.077 C 
ATOM      2  C1  UNL d   1      -5.703  -0.243  -2.955  0.00  0.00    -0.074 A 
ATOM      3  C2  UNL d   1      -5.801  -1.054  -4.090  0.00  0.00    -0.005 A 
ATOM      4  C3  UNL d   1      -5.949  -0.482  -5.353  0.00  0.00     0.006 A 
ATOM      5  C4  UNL d   1      -5.999   0.905  -5.495  0.00  0.00    -0.005 A 
ATOM      6  C5  UNL d   1      -5.904   1.733  -4.371  0.00  0.00    -0.074 A 
ATOM      7  C6  UNL d   1      -5.966   3.225  -4.505  0.00  0.00     0.077 C 
ATOM      8  C7  UNL d   1      -5.762   1.150  -3.105  0.00  0.00    -0.001 A 
ENDROOT
TORSDOF 0
ENDMDL
