MODEL 1
REMARK minimizedAffinity 0.732284606
REMARK minimizedRMSD -1
REMARK  0 active torsions:
REMARK  status: ('A' for Active; 'I' for Inactive)
ROOT
ATOM      1  C   UNL d   1      -2.898   5.735  -0.328  0.00  0.00     0.077 C 
ATOM      2  C1  UNL d   1      -3.975   4.747  -0.665  0.00  0.00    -0.074 A 
ATOM      3  C2  UNL d   1      -4.506   3.901   0.314  0.00  0.00    -0.005 A 
ATOM      4  C3  UNL d   1      -5.514   2.994  -0.012  0.00  0.00     0.006 A 
ATOM      5  C4  UNL d   1      -6.000   2.923  -1.318  0.00  0.00    -0.005 A 
ATOM      6  C5  UNL d   1      -5.482   3.761  -2.310  0.00  0.00    -0.074 A 
ATOM      7  C6  UNL d   1      -6.000   3.705  -3.717  0.00  0.00     0.077 C 
ATOM      8  C7  UNL d   1      -4.474   4.675  -1.973  0.00  0.00    -0.001 A 
ENDROOT
TORSDOF 0
ENDMDL
