MODEL 1
REMARK minimizedAffinity 12.0170431
REMARK minimizedRMSD -1
REMARK  0 active torsions:
REMARK  status: ('A' for Active; 'I' for Inactive)
ROOT
ATOM      1  C   UNL d   1       3.037  -0.247   1.419  0.00  0.00     0.077 C 
ATOM      2  C1  UNL d   1       2.849   0.631   0.218  0.00  0.00    -0.074 A 
ATOM      3  C2  UNL d   1       1.638   1.293  -0.007  0.00  0.00    -0.005 A 
ATOM      4  C3  UNL d   1       1.482   2.114  -1.123  0.00  0.00     0.006 A 
ATOM      5  C4  UNL d   1       2.533   2.280  -2.026  0.00  0.00    -0.005 A 
ATOM      6  C5  UNL d   1       3.752   1.626  -1.818  0.00  0.00    -0.074 A 
ATOM      7  C6  UNL d   1       4.895   1.801  -2.773  0.00  0.00     0.077 C 
ATOM      8  C7  UNL d   1       3.903   0.809  -0.689  0.00  0.00    -0.001 A 
ENDROOT
TORSDOF 0
ENDMDL
