MODEL 1
REMARK minimizedAffinity 6.37214375
REMARK minimizedRMSD -1
REMARK  0 active torsions:
REMARK  status: ('A' for Active; 'I' for Inactive)
ROOT
ATOM      1  C   UNL d   1      -4.058   0.537   4.827  0.00  0.00     0.077 C 
ATOM      2  C1  UNL d   1      -2.910  -0.057   4.067  0.00  0.00    -0.074 A 
ATOM      3  C2  UNL d   1      -1.592   0.320   4.344  0.00  0.00    -0.005 A 
ATOM      4  C3  UNL d   1      -0.534  -0.249   3.636  0.00  0.00     0.006 A 
ATOM      5  C4  UNL d   1      -0.782  -1.199   2.644  0.00  0.00    -0.005 A 
ATOM      6  C5  UNL d   1      -2.093  -1.589   2.353  0.00  0.00    -0.074 A 
ATOM      7  C6  UNL d   1      -2.377  -2.616   1.298  0.00  0.00     0.077 C 
ATOM      8  C7  UNL d   1      -3.151  -1.018   3.075  0.00  0.00    -0.001 A 
ENDROOT
TORSDOF 0
ENDMDL
