MODEL 1
REMARK minimizedAffinity 7.48703003
REMARK minimizedRMSD -1
REMARK  0 active torsions:
REMARK  status: ('A' for Active; 'I' for Inactive)
ROOT
ATOM      1  C   UNL d   1      -0.714   5.215  -6.000  0.00  0.00     0.077 C 
ATOM      2  C1  UNL d   1       0.280   4.731  -4.986  0.00  0.00    -0.074 A 
ATOM      3  C2  UNL d   1       1.526   5.351  -4.848  0.00  0.00    -0.005 A 
ATOM      4  C3  UNL d   1       2.436   4.895  -3.894  0.00  0.00     0.006 A 
ATOM      5  C4  UNL d   1       2.110   3.817  -3.070  0.00  0.00    -0.005 A 
ATOM      6  C5  UNL d   1       0.869   3.186  -3.193  0.00  0.00    -0.074 A 
ATOM      7  C6  UNL d   1       0.499   2.032  -2.309  0.00  0.00     0.077 C 
ATOM      8  C7  UNL d   1      -0.043   3.653  -4.149  0.00  0.00    -0.001 A 
ENDROOT
TORSDOF 0
ENDMDL
