MODEL 1
REMARK minimizedAffinity 10.1107998
REMARK minimizedRMSD -1
REMARK  0 active torsions:
REMARK  status: ('A' for Active; 'I' for Inactive)
ROOT
ATOM      1  C   UNL d   1       3.744   1.456  -2.807  0.00  0.00     0.077 C 
ATOM      2  C1  UNL d   1       2.991   1.256  -1.525  0.00  0.00    -0.074 A 
ATOM      3  C2  UNL d   1       1.853   2.015  -1.234  0.00  0.00    -0.005 A 
ATOM      4  C3  UNL d   1       1.158   1.812  -0.043  0.00  0.00     0.006 A 
ATOM      5  C4  UNL d   1       1.592   0.849   0.869  0.00  0.00    -0.005 A 
ATOM      6  C5  UNL d   1       2.727   0.079   0.595  0.00  0.00    -0.074 A 
ATOM      7  C6  UNL d   1       3.202  -0.967   1.559  0.00  0.00     0.077 C 
ATOM      8  C7  UNL d   1       3.417   0.285  -0.608  0.00  0.00    -0.001 A 
ENDROOT
TORSDOF 0
ENDMDL
