MODEL 1
REMARK minimizedAffinity 6.54531765
REMARK minimizedRMSD -1
REMARK  0 active torsions:
REMARK  status: ('A' for Active; 'I' for Inactive)
ROOT
ATOM      1  C   UNL d   1      -0.905   4.861  -6.000  0.00  0.00     0.077 C 
ATOM      2  C1  UNL d   1       0.209   4.529  -5.051  0.00  0.00    -0.074 A 
ATOM      3  C2  UNL d   1       1.403   5.257  -5.061  0.00  0.00    -0.005 A 
ATOM      4  C3  UNL d   1       2.425   4.943  -4.166  0.00  0.00     0.006 A 
ATOM      5  C4  UNL d   1       2.265   3.899  -3.254  0.00  0.00    -0.005 A 
ATOM      6  C5  UNL d   1       1.077   3.161  -3.229  0.00  0.00    -0.074 A 
ATOM      7  C6  UNL d   1       0.885   2.042  -2.248  0.00  0.00     0.077 C 
ATOM      8  C7  UNL d   1       0.052   3.487  -4.126  0.00  0.00    -0.001 A 
ENDROOT
TORSDOF 0
ENDMDL
