MODEL 1
REMARK minimizedAffinity 11.1331043
REMARK minimizedRMSD -1
REMARK  0 active torsions:
REMARK  status: ('A' for Active; 'I' for Inactive)
ROOT
ATOM      1  C   UNL d   1       1.289   1.878  -2.300  0.00  0.00     0.077 C 
ATOM      2  C1  UNL d   1       1.799   1.677  -0.904  0.00  0.00    -0.074 A 
ATOM      3  C2  UNL d   1       1.539   2.617   0.098  0.00  0.00    -0.005 A 
ATOM      4  C3  UNL d   1       2.012   2.411   1.395  0.00  0.00     0.006 A 
ATOM      5  C4  UNL d   1       2.748   1.266   1.701  0.00  0.00    -0.005 A 
ATOM      6  C5  UNL d   1       3.016   0.315   0.712  0.00  0.00    -0.074 A 
ATOM      7  C6  UNL d   1       3.797  -0.927   1.027  0.00  0.00     0.077 C 
ATOM      8  C7  UNL d   1       2.532   0.525  -0.587  0.00  0.00    -0.001 A 
ENDROOT
TORSDOF 0
ENDMDL
