MODEL 1
REMARK minimizedAffinity -0.238290429
REMARK minimizedRMSD -1
REMARK  0 active torsions:
REMARK  status: ('A' for Active; 'I' for Inactive)
ROOT
ATOM      1  C   UNL d   1       0.937   1.228  -1.772  0.00  0.00     0.077 C 
ATOM      2  C1  UNL d   1       1.256   2.352  -2.712  0.00  0.00    -0.074 A 
ATOM      3  C2  UNL d   1       2.516   2.960  -2.704  0.00  0.00    -0.005 A 
ATOM      4  C3  UNL d   1       2.802   3.998  -3.591  0.00  0.00     0.006 A 
ATOM      5  C4  UNL d   1       1.833   4.437  -4.494  0.00  0.00    -0.005 A 
ATOM      6  C5  UNL d   1       0.568   3.841  -4.517  0.00  0.00    -0.074 A 
ATOM      7  C6  UNL d   1      -0.481   4.295  -5.487  0.00  0.00     0.077 C 
ATOM      8  C7  UNL d   1       0.291   2.794  -3.627  0.00  0.00    -0.001 A 
ENDROOT
TORSDOF 0
ENDMDL
