MODEL 1
REMARK minimizedAffinity 0.6679492
REMARK minimizedRMSD -1
REMARK  0 active torsions:
REMARK  status: ('A' for Active; 'I' for Inactive)
ROOT
ATOM      1  C   UNL d   1       2.551   1.517  -0.875  0.00  0.00     0.077 C 
ATOM      2  C1  UNL d   1       2.788   2.304  -2.130  0.00  0.00    -0.074 A 
ATOM      3  C2  UNL d   1       3.992   2.191  -2.833  0.00  0.00    -0.005 A 
ATOM      4  C3  UNL d   1       4.194   2.923  -4.003  0.00  0.00     0.006 A 
ATOM      5  C4  UNL d   1       3.197   3.773  -4.481  0.00  0.00    -0.005 A 
ATOM      6  C5  UNL d   1       1.987   3.899  -3.792  0.00  0.00    -0.074 A 
ATOM      7  C6  UNL d   1       0.900   4.801  -4.298  0.00  0.00     0.077 C 
ATOM      8  C7  UNL d   1       1.788   3.155  -2.621  0.00  0.00    -0.001 A 
ENDROOT
TORSDOF 0
ENDMDL
