MODEL 1
REMARK minimizedAffinity 6.34942913
REMARK minimizedRMSD -1
REMARK  0 active torsions:
REMARK  status: ('A' for Active; 'I' for Inactive)
ROOT
ATOM      1  C   UNL d   1       4.128   2.248  -3.231  0.00  0.00     0.077 C 
ATOM      2  C1  UNL d   1       3.231   1.991  -2.057  0.00  0.00    -0.074 A 
ATOM      3  C2  UNL d   1       1.843   1.919  -2.215  0.00  0.00    -0.005 A 
ATOM      4  C3  UNL d   1       1.022   1.671  -1.116  0.00  0.00     0.006 A 
ATOM      5  C4  UNL d   1       1.579   1.493   0.151  0.00  0.00    -0.005 A 
ATOM      6  C5  UNL d   1       2.964   1.560   0.328  0.00  0.00    -0.074 A 
ATOM      7  C6  UNL d   1       3.580   1.361   1.682  0.00  0.00     0.077 C 
ATOM      8  C7  UNL d   1       3.783   1.803  -0.783  0.00  0.00    -0.001 A 
ENDROOT
TORSDOF 0
ENDMDL
