MODEL 1
REMARK minimizedAffinity 10.7614574
REMARK minimizedRMSD -1
REMARK  0 active torsions:
REMARK  status: ('A' for Active; 'I' for Inactive)
ROOT
ATOM      1  C   UNL d   1      -2.904   0.429   5.244  0.00  0.00     0.077 C 
ATOM      2  C1  UNL d   1      -2.216   0.292   3.918  0.00  0.00    -0.074 A 
ATOM      3  C2  UNL d   1      -2.518   1.154   2.859  0.00  0.00    -0.005 A 
ATOM      4  C3  UNL d   1      -1.864   1.020   1.635  0.00  0.00     0.006 A 
ATOM      5  C4  UNL d   1      -0.902   0.025   1.457  0.00  0.00    -0.005 A 
ATOM      6  C5  UNL d   1      -0.586  -0.846   2.505  0.00  0.00    -0.074 A 
ATOM      7  C6  UNL d   1       0.452  -1.915   2.334  0.00  0.00     0.077 C 
ATOM      8  C7  UNL d   1      -1.243  -0.701   3.734  0.00  0.00    -0.001 A 
ENDROOT
TORSDOF 0
ENDMDL
