MODEL 1
REMARK minimizedAffinity 7.63060904
REMARK minimizedRMSD -1
REMARK  0 active torsions:
REMARK  status: ('A' for Active; 'I' for Inactive)
ROOT
ATOM      1  C   UNL d   1      -5.987   3.045  -3.128  0.00  0.00     0.077 C 
ATOM      2  C1  UNL d   1      -5.997   1.738  -3.863  0.00  0.00    -0.074 A 
ATOM      3  C2  UNL d   1      -5.997   1.700  -5.261  0.00  0.00    -0.005 A 
ATOM      4  C3  UNL d   1      -5.996   0.477  -5.932  0.00  0.00     0.006 A 
ATOM      5  C4  UNL d   1      -5.997  -0.719  -5.212  0.00  0.00    -0.005 A 
ATOM      6  C5  UNL d   1      -5.996  -0.701  -3.814  0.00  0.00    -0.074 A 
ATOM      7  C6  UNL d   1      -5.987  -1.976  -3.025  0.00  0.00     0.077 C 
ATOM      8  C7  UNL d   1      -5.990   0.533  -3.147  0.00  0.00    -0.001 A 
ENDROOT
TORSDOF 0
ENDMDL
