MODEL 1
REMARK minimizedAffinity -1.28577256
REMARK minimizedRMSD -1
REMARK  0 active torsions:
REMARK  status: ('A' for Active; 'I' for Inactive)
ROOT
ATOM      1  C   UNL d   1       3.251   2.994  -3.352  0.00  0.00     0.077 C 
ATOM      2  C1  UNL d   1       2.629   2.459  -2.096  0.00  0.00    -0.074 A 
ATOM      3  C2  UNL d   1       1.640   1.471  -2.147  0.00  0.00    -0.005 A 
ATOM      4  C3  UNL d   1       1.078   0.977  -0.971  0.00  0.00     0.006 A 
ATOM      5  C4  UNL d   1       1.497   1.465   0.268  0.00  0.00    -0.005 A 
ATOM      6  C5  UNL d   1       2.485   2.453   0.339  0.00  0.00    -0.074 A 
ATOM      7  C6  UNL d   1       2.954   2.981   1.662  0.00  0.00     0.077 C 
ATOM      8  C7  UNL d   1       3.050   2.939  -0.848  0.00  0.00    -0.001 A 
ENDROOT
TORSDOF 0
ENDMDL
