MODEL 1
REMARK minimizedAffinity 0.95779866
REMARK minimizedRMSD -1
REMARK  0 active torsions:
REMARK  status: ('A' for Active; 'I' for Inactive)
ROOT
ATOM      1  C   UNL d   1       1.291   5.165  -5.520  0.00  0.00     0.077 C 
ATOM      2  C1  UNL d   1       1.792   4.205  -4.483  0.00  0.00    -0.074 A 
ATOM      3  C2  UNL d   1       0.933   3.687  -3.508  0.00  0.00    -0.005 A 
ATOM      4  C3  UNL d   1       1.411   2.788  -2.555  0.00  0.00     0.006 A 
ATOM      5  C4  UNL d   1       2.751   2.398  -2.567  0.00  0.00    -0.005 A 
ATOM      6  C5  UNL d   1       3.625   2.904  -3.535  0.00  0.00    -0.074 A 
ATOM      7  C6  UNL d   1       5.065   2.488  -3.568  0.00  0.00     0.077 C 
ATOM      8  C7  UNL d   1       3.135   3.802  -4.493  0.00  0.00    -0.001 A 
ENDROOT
TORSDOF 0
ENDMDL
