MODEL 1
REMARK minimizedAffinity -4.73173237
REMARK minimizedRMSD -1
REMARK  0 active torsions:
REMARK  status: ('A' for Active; 'I' for Inactive)
ROOT
ATOM      1  C   UNL d   1      -2.250  -0.708  -2.864  0.00  0.00     0.023 A 
ATOM      2  C1  UNL d   1      -0.953  -0.590  -3.365  0.00  0.00     0.003 A 
ATOM      3  C2  UNL d   1       0.086  -0.185  -2.525  0.00  0.00     0.048 A 
ATOM      4  C3  UNL d   1      -0.177   0.098  -1.185  0.00  0.00     0.023 A 
ATOM      5  C4  UNL d   1      -1.473  -0.021  -0.680  0.00  0.00     0.048 A 
ATOM      6  C5  UNL d   1      -2.510  -0.424  -1.524  0.00  0.00     0.003 A 
ATOM      7  I   UNL d   1       1.368   0.700   0.067  0.00  0.00    -0.146 I 
ENDROOT
TORSDOF 0
ENDMDL
