MODEL 1
REMARK minimizedAffinity -3.08221292
REMARK minimizedRMSD -1
REMARK  0 active torsions:
REMARK  status: ('A' for Active; 'I' for Inactive)
ROOT
ATOM      1  C   UNL d   1       2.610   0.324   0.769  0.00  0.00     0.023 A 
ATOM      2  C1  UNL d   1       2.166  -0.794   0.063  0.00  0.00     0.003 A 
ATOM      3  C2  UNL d   1       0.872  -0.820  -0.462  0.00  0.00     0.048 A 
ATOM      4  C3  UNL d   1       0.028   0.275  -0.278  0.00  0.00     0.023 A 
ATOM      5  C4  UNL d   1       0.469   1.395   0.428  0.00  0.00     0.048 A 
ATOM      6  C5  UNL d   1       1.763   1.417   0.952  0.00  0.00     0.003 A 
ATOM      7  I   UNL d   1      -1.898   0.238  -1.058  0.00  0.00    -0.146 I 
ENDROOT
TORSDOF 0
ENDMDL
