MODEL 1
REMARK minimizedAffinity -4.59190512
REMARK minimizedRMSD -1
REMARK  0 active torsions:
REMARK  status: ('A' for Active; 'I' for Inactive)
ROOT
ATOM      1  C   UNL d   1       2.627   0.333   0.685  0.00  0.00     0.023 A 
ATOM      2  C1  UNL d   1       1.978  -0.901   0.721  0.00  0.00     0.003 A 
ATOM      3  C2  UNL d   1       0.640  -0.999   0.334  0.00  0.00     0.048 A 
ATOM      4  C3  UNL d   1      -0.043   0.141  -0.088  0.00  0.00     0.023 A 
ATOM      5  C4  UNL d   1       0.603   1.378  -0.126  0.00  0.00     0.048 A 
ATOM      6  C5  UNL d   1       1.940   1.471   0.262  0.00  0.00     0.003 A 
ATOM      7  I   UNL d   1      -2.035  -0.003  -0.664  0.00  0.00    -0.146 I 
ENDROOT
TORSDOF 0
ENDMDL
