MODEL 1
REMARK minimizedAffinity -3.11709332
REMARK minimizedRMSD -1
REMARK  0 active torsions:
REMARK  status: ('A' for Active; 'I' for Inactive)
ROOT
ATOM      1  C   UNL d   1       3.226   0.098   1.298  0.00  0.00     0.023 A 
ATOM      2  C1  UNL d   1       2.508  -1.087   1.463  0.00  0.00     0.003 A 
ATOM      3  C2  UNL d   1       1.178  -1.163   1.045  0.00  0.00     0.048 A 
ATOM      4  C3  UNL d   1       0.572  -0.050   0.461  0.00  0.00     0.023 A 
ATOM      5  C4  UNL d   1       1.287   1.137   0.293  0.00  0.00     0.048 A 
ATOM      6  C5  UNL d   1       2.617   1.208   0.714  0.00  0.00     0.003 A 
ATOM      7  I   UNL d   1      -1.407  -0.161  -0.163  0.00  0.00    -0.146 I 
ENDROOT
TORSDOF 0
ENDMDL
