MODEL 1
REMARK minimizedAffinity -2.94179773
REMARK minimizedRMSD -1
REMARK  0 active torsions:
REMARK  status: ('A' for Active; 'I' for Inactive)
ROOT
ATOM      1  C   UNL d   1       3.236   0.070   0.806  0.00  0.00     0.023 A 
ATOM      2  C1  UNL d   1       2.489   1.247   0.772  0.00  0.00     0.003 A 
ATOM      3  C2  UNL d   1       1.131   1.206   0.450  0.00  0.00     0.048 A 
ATOM      4  C3  UNL d   1       0.526  -0.018   0.164  0.00  0.00     0.023 A 
ATOM      5  C4  UNL d   1       1.269  -1.199   0.198  0.00  0.00     0.048 A 
ATOM      6  C5  UNL d   1       2.626  -1.152   0.519  0.00  0.00     0.003 A 
ATOM      7  I   UNL d   1      -1.496  -0.083  -0.315  0.00  0.00    -0.146 I 
ENDROOT
TORSDOF 0
ENDMDL
