MODEL 1
REMARK minimizedAffinity -3.31499434
REMARK minimizedRMSD -1
REMARK  0 active torsions:
REMARK  status: ('A' for Active; 'I' for Inactive)
ROOT
ATOM      1  C   UNL d   1       2.015  -0.070   0.459  0.00  0.00     0.023 A 
ATOM      2  C1  UNL d   1       1.740   1.180  -0.094  0.00  0.00     0.003 A 
ATOM      3  C2  UNL d   1       0.494   1.430  -0.673  0.00  0.00     0.048 A 
ATOM      4  C3  UNL d   1      -0.472   0.425  -0.695  0.00  0.00     0.023 A 
ATOM      5  C4  UNL d   1      -0.201  -0.828  -0.142  0.00  0.00     0.048 A 
ATOM      6  C5  UNL d   1       1.046  -1.073   0.435  0.00  0.00     0.003 A 
ATOM      7  I   UNL d   1      -2.328   0.794  -1.556  0.00  0.00    -0.146 I 
ENDROOT
TORSDOF 0
ENDMDL
