MODEL 1
REMARK minimizedAffinity 6.27437973
REMARK minimizedRMSD -1
REMARK  0 active torsions:
REMARK  status: ('A' for Active; 'I' for Inactive)
ROOT
ATOM      1  C4' PXY d   1       2.882   1.771   0.016  0.00  0.00     0.077 C 
ATOM      2  C1' PXY d   1       3.060  -2.950  -3.316  0.00  0.00     0.077 C 
ATOM      3  C1  PXY d   1       3.004  -1.717  -2.435  0.00  0.00    -0.082 A 
ATOM      4  C2  PXY d   1       3.424  -0.556  -2.908  0.00  0.00     0.003 A 
ATOM      5  C3  PXY d   1       3.410   0.563  -2.114  0.00  0.00     0.003 A 
ATOM      6  C4  PXY d   1       2.911   0.502  -0.841  0.00  0.00    -0.082 A 
ATOM      7  C5  PXY d   1       2.471  -0.678  -0.354  0.00  0.00     0.003 A 
ATOM      8  C6  PXY d   1       2.532  -1.810  -1.162  0.00  0.00     0.003 A 
ENDROOT
TORSDOF 0
ENDMDL
