MODEL 1
REMARK minimizedAffinity 12.110363
REMARK minimizedRMSD -1
REMARK  0 active torsions:
REMARK  status: ('A' for Active; 'I' for Inactive)
ROOT
ATOM      1  C4' PXY d   1      -5.337   4.247  -1.283  0.00  0.00     0.077 C 
ATOM      2  C1' PXY d   1      -4.504  -1.460  -0.903  0.00  0.00     0.077 C 
ATOM      3  C1  PXY d   1      -4.718   0.038  -0.990  0.00  0.00    -0.082 A 
ATOM      4  C2  PXY d   1      -5.554   0.528  -1.892  0.00  0.00     0.003 A 
ATOM      5  C3  PXY d   1      -5.736   1.882  -2.006  0.00  0.00     0.003 A 
ATOM      6  C4  PXY d   1      -5.096   2.741  -1.153  0.00  0.00    -0.082 A 
ATOM      7  C5  PXY d   1      -4.251   2.249  -0.223  0.00  0.00     0.003 A 
ATOM      8  C6  PXY d   1      -4.048   0.873  -0.151  0.00  0.00     0.003 A 
ENDROOT
TORSDOF 0
ENDMDL
