MODEL 1
REMARK minimizedAffinity 6.37488079
REMARK minimizedRMSD -1
REMARK  0 active torsions:
REMARK  status: ('A' for Active; 'I' for Inactive)
ROOT
ATOM      1  C4' PXY d   1       5.999  -1.519   1.796  0.00  0.00     0.077 C 
ATOM      2  C1' PXY d   1       1.245   0.915  -0.416  0.00  0.00     0.077 C 
ATOM      3  C1  PXY d   1       2.485   0.269   0.172  0.00  0.00    -0.082 A 
ATOM      4  C2  PXY d   1       3.642   0.909   0.123  0.00  0.00     0.003 A 
ATOM      5  C3  PXY d   1       4.778   0.326   0.621  0.00  0.00     0.003 A 
ATOM      6  C4  PXY d   1       4.720  -0.902   1.224  0.00  0.00    -0.082 A 
ATOM      7  C5  PXY d   1       3.541  -1.556   1.288  0.00  0.00     0.003 A 
ATOM      8  C6  PXY d   1       2.407  -0.965   0.739  0.00  0.00     0.003 A 
ENDROOT
TORSDOF 0
ENDMDL
