MODEL 1
REMARK minimizedAffinity 13.2777166
REMARK minimizedRMSD -1
REMARK  0 active torsions:
REMARK  status: ('A' for Active; 'I' for Inactive)
ROOT
ATOM      1  C4' PXY d   1       5.311   3.731   3.733  0.00  0.00     0.077 C 
ATOM      2  C1' PXY d   1       4.296   2.106  -1.721  0.00  0.00     0.077 C 
ATOM      3  C1  PXY d   1       4.573   2.538  -0.295  0.00  0.00    -0.082 A 
ATOM      4  C2  PXY d   1       4.045   1.858   0.709  0.00  0.00     0.003 A 
ATOM      5  C3  PXY d   1       4.259   2.254   2.004  0.00  0.00     0.003 A 
ATOM      6  C4  PXY d   1       5.066   3.326   2.277  0.00  0.00    -0.082 A 
ATOM      7  C5  PXY d   1       5.618   4.019   1.258  0.00  0.00     0.003 A 
ATOM      8  C6  PXY d   1       5.355   3.625  -0.051  0.00  0.00     0.003 A 
ENDROOT
TORSDOF 0
ENDMDL
