MODEL 1
REMARK minimizedAffinity 7.98982048
REMARK minimizedRMSD -1
REMARK  0 active torsions:
REMARK  status: ('A' for Active; 'I' for Inactive)
ROOT
ATOM      1  C4' PXY d   1       5.426   4.119  -1.609  0.00  0.00     0.077 C 
ATOM      2  C1' PXY d   1       2.194  -0.452  -0.169  0.00  0.00     0.077 C 
ATOM      3  C1  PXY d   1       3.048   0.739  -0.556  0.00  0.00    -0.082 A 
ATOM      4  C2  PXY d   1       3.273   1.697   0.329  0.00  0.00     0.003 A 
ATOM      5  C3  PXY d   1       4.016   2.798  -0.015  0.00  0.00     0.003 A 
ATOM      6  C4  PXY d   1       4.578   2.893  -1.259  0.00  0.00    -0.082 A 
ATOM      7  C5  PXY d   1       4.362   1.914  -2.164  0.00  0.00     0.003 A 
ATOM      8  C6  PXY d   1       3.571   0.826  -1.809  0.00  0.00     0.003 A 
ENDROOT
TORSDOF 0
ENDMDL
