MODEL 1
REMARK minimizedAffinity 11.8376865
REMARK minimizedRMSD -1
REMARK  0 active torsions:
REMARK  status: ('A' for Active; 'I' for Inactive)
ROOT
ATOM      1  C4' PXY d   1      -4.900   5.139   0.197  0.00  0.00     0.077 C 
ATOM      2  C1' PXY d   1      -6.000   4.425   5.827  0.00  0.00     0.077 C 
ATOM      3  C1  PXY d   1      -5.720   4.621   4.350  0.00  0.00    -0.082 A 
ATOM      4  C2  PXY d   1      -5.197   3.631   3.646  0.00  0.00     0.003 A 
ATOM      5  C3  PXY d   1      -4.909   3.802   2.316  0.00  0.00     0.003 A 
ATOM      6  C4  PXY d   1      -5.208   4.982   1.689  0.00  0.00    -0.082 A 
ATOM      7  C5  PXY d   1      -5.751   5.994   2.398  0.00  0.00     0.003 A 
ATOM      8  C6  PXY d   1      -5.999   5.813   3.756  0.00  0.00     0.003 A 
ENDROOT
TORSDOF 0
ENDMDL
