MODEL 1
REMARK minimizedAffinity 13.0487146
REMARK minimizedRMSD -1
REMARK  0 active torsions:
REMARK  status: ('A' for Active; 'I' for Inactive)
ROOT
ATOM      1  C4' PXY d   1       3.756   2.157  -1.543  0.00  0.00     0.077 C 
ATOM      2  C1' PXY d   1       2.523  -2.446   1.729  0.00  0.00     0.077 C 
ATOM      3  C1  PXY d   1       2.843  -1.245   0.861  0.00  0.00    -0.082 A 
ATOM      4  C2  PXY d   1       3.701  -0.335   1.292  0.00  0.00     0.003 A 
ATOM      5  C3  PXY d   1       3.977   0.773   0.534  0.00  0.00     0.003 A 
ATOM      6  C4  PXY d   1       3.410   0.924  -0.704  0.00  0.00    -0.082 A 
ATOM      7  C5  PXY d   1       2.542  -0.006  -1.156  0.00  0.00     0.003 A 
ATOM      8  C6  PXY d   1       2.243  -1.102  -0.353  0.00  0.00     0.003 A 
ENDROOT
TORSDOF 0
ENDMDL
