MODEL 1
REMARK minimizedAffinity 15.1144772
REMARK minimizedRMSD -1
REMARK  0 active torsions:
REMARK  status: ('A' for Active; 'I' for Inactive)
ROOT
ATOM      1  C4' PXY d   1       4.908   1.997   1.433  0.00  0.00     0.077 C 
ATOM      2  C1' PXY d   1       1.061  -1.227  -1.434  0.00  0.00     0.077 C 
ATOM      3  C1  PXY d   1       2.066  -0.387  -0.671  0.00  0.00    -0.082 A 
ATOM      4  C2  PXY d   1       2.510   0.742  -1.199  0.00  0.00     0.003 A 
ATOM      5  C3  PXY d   1       3.443   1.498  -0.537  0.00  0.00     0.003 A 
ATOM      6  C4  PXY d   1       3.886   1.122   0.703  0.00  0.00    -0.082 A 
ATOM      7  C5  PXY d   1       3.429  -0.023   1.253  0.00  0.00     0.003 A 
ATOM      8  C6  PXY d   1       2.514  -0.797   0.547  0.00  0.00     0.003 A 
ENDROOT
TORSDOF 0
ENDMDL
