MODEL 1
REMARK minimizedAffinity 10.5344048
REMARK minimizedRMSD -1
REMARK  0 active torsions:
REMARK  status: ('A' for Active; 'I' for Inactive)
ROOT
ATOM      1  C4' PXY d   1       3.633   1.893   1.944  0.00  0.00     0.077 C 
ATOM      2  C1' PXY d   1       1.877   5.999   5.614  0.00  0.00     0.077 C 
ATOM      3  C1  PXY d   1       2.342   4.931   4.644  0.00  0.00    -0.082 A 
ATOM      4  C2  PXY d   1       1.779   3.734   4.669  0.00  0.00     0.003 A 
ATOM      5  C3  PXY d   1       2.209   2.747   3.819  0.00  0.00     0.003 A 
ATOM      6  C4  PXY d   1       3.189   3.004   2.899  0.00  0.00    -0.082 A 
ATOM      7  C5  PXY d   1       3.761   4.226   2.860  0.00  0.00     0.003 A 
ATOM      8  C6  PXY d   1       3.339   5.202   3.758  0.00  0.00     0.003 A 
ENDROOT
TORSDOF 0
ENDMDL
