MODEL 1
REMARK minimizedAffinity 8.78888702
REMARK minimizedRMSD -1
REMARK  0 active torsions:
REMARK  status: ('A' for Active; 'I' for Inactive)
ROOT
ATOM      1  C4' PXY d   1      -0.464  -1.303  -3.538  0.00  0.00     0.077 C 
ATOM      2  C1' PXY d   1      -5.457   0.913  -5.430  0.00  0.00     0.077 C 
ATOM      3  C1  PXY d   1      -4.149   0.339  -4.923  0.00  0.00    -0.082 A 
ATOM      4  C2  PXY d   1      -3.268  -0.144  -5.785  0.00  0.00     0.003 A 
ATOM      5  C3  PXY d   1      -2.094  -0.696  -5.342  0.00  0.00     0.003 A 
ATOM      6  C4  PXY d   1      -1.794  -0.705  -4.006  0.00  0.00    -0.082 A 
ATOM      7  C5  PXY d   1      -2.682  -0.205  -3.121  0.00  0.00     0.003 A 
ATOM      8  C6  PXY d   1      -3.887   0.313  -3.588  0.00  0.00     0.003 A 
ENDROOT
TORSDOF 0
ENDMDL
