MODEL 1
REMARK minimizedAffinity 3.50668907
REMARK minimizedRMSD -1
REMARK  0 active torsions:
REMARK  status: ('A' for Active; 'I' for Inactive)
ROOT
ATOM      1  C4' PXY d   1      -4.961   2.701   2.299  0.00  0.00     0.077 C 
ATOM      2  C1' PXY d   1      -3.021  -0.439  -2.150  0.00  0.00     0.077 C 
ATOM      3  C1  PXY d   1      -3.518   0.383  -0.977  0.00  0.00    -0.082 A 
ATOM      4  C2  PXY d   1      -4.817   0.471  -0.744  0.00  0.00     0.003 A 
ATOM      5  C3  PXY d   1      -5.286   1.236   0.293  0.00  0.00     0.003 A 
ATOM      6  C4  PXY d   1      -4.413   1.874   1.132  0.00  0.00    -0.082 A 
ATOM      7  C5  PXY d   1      -3.085   1.781   0.907  0.00  0.00     0.003 A 
ATOM      8  C6  PXY d   1      -2.632   1.033  -0.175  0.00  0.00     0.003 A 
ENDROOT
TORSDOF 0
ENDMDL
