MODEL 1
REMARK minimizedAffinity 8.40267372
REMARK minimizedRMSD -1
REMARK  0 active torsions:
REMARK  status: ('A' for Active; 'I' for Inactive)
ROOT
ATOM      1  C4' PXY d   1      -3.825  -1.397  -2.644  0.00  0.00     0.077 C 
ATOM      2  C1' PXY d   1      -4.453   2.533   1.548  0.00  0.00     0.077 C 
ATOM      3  C1  PXY d   1      -4.300   1.498   0.451  0.00  0.00    -0.082 A 
ATOM      4  C2  PXY d   1      -3.090   1.126   0.067  0.00  0.00     0.003 A 
ATOM      5  C3  PXY d   1      -2.934   0.214  -0.945  0.00  0.00     0.003 A 
ATOM      6  C4  PXY d   1      -4.027  -0.362  -1.534  0.00  0.00    -0.082 A 
ATOM      7  C5  PXY d   1      -5.265   0.005  -1.140  0.00  0.00     0.003 A 
ATOM      8  C6  PXY d   1      -5.403   0.962  -0.139  0.00  0.00     0.003 A 
ENDROOT
TORSDOF 0
ENDMDL
