MODEL 1
REMARK minimizedAffinity -3.26689363
REMARK minimizedRMSD -1
REMARK  0 active torsions:
REMARK  status: ('A' for Active; 'I' for Inactive)
ROOT
ATOM      1  C4' PXY d   1       3.858  -0.751   1.147  0.00  0.00     0.077 C 
ATOM      2  C1' PXY d   1      -1.381   0.962  -0.595  0.00  0.00     0.077 C 
ATOM      3  C1  PXY d   1      -0.002   0.524  -0.141  0.00  0.00    -0.082 A 
ATOM      4  C2  PXY d   1       0.319  -0.759  -0.168  0.00  0.00     0.003 A 
ATOM      5  C3  PXY d   1       1.550  -1.175   0.269  0.00  0.00     0.003 A 
ATOM      6  C4  PXY d   1       2.481  -0.263   0.689  0.00  0.00    -0.082 A 
ATOM      7  C5  PXY d   1       2.165   1.049   0.709  0.00  0.00     0.003 A 
ATOM      8  C6  PXY d   1       0.896   1.447   0.300  0.00  0.00     0.003 A 
ENDROOT
TORSDOF 0
ENDMDL
