MODEL 1
REMARK minimizedAffinity -2.58122611
REMARK minimizedRMSD -1
REMARK  0 active torsions:
REMARK  status: ('A' for Active; 'I' for Inactive)
ROOT
ATOM      1  C4' PXY d   1       2.852  -1.486   0.596  0.00  0.00     0.077 C 
ATOM      2  C1' PXY d   1      -2.253   1.120  -0.159  0.00  0.00     0.077 C 
ATOM      3  C1  PXY d   1      -0.908   0.448   0.039  0.00  0.00    -0.082 A 
ATOM      4  C2  PXY d   1      -0.726  -0.790  -0.390  0.00  0.00     0.003 A 
ATOM      5  C3  PXY d   1       0.474  -1.424  -0.190  0.00  0.00     0.003 A 
ATOM      6  C4  PXY d   1       1.514  -0.765   0.408  0.00  0.00    -0.082 A 
ATOM      7  C5  PXY d   1       1.339   0.502   0.840  0.00  0.00     0.003 A 
ATOM      8  C6  PXY d   1       0.101   1.113   0.664  0.00  0.00     0.003 A 
ENDROOT
TORSDOF 0
ENDMDL
