MODEL 1
REMARK minimizedAffinity -4.76165724
REMARK minimizedRMSD -1
REMARK  0 active torsions:
REMARK  status: ('A' for Active; 'I' for Inactive)
ROOT
ATOM      1  C4' PXY d   1       3.004  -1.517  -0.001  0.00  0.00     0.077 C 
ATOM      2  C1' PXY d   1      -2.344   0.673  -0.134  0.00  0.00     0.077 C 
ATOM      3  C1  PXY d   1      -0.936   0.111  -0.099  0.00  0.00    -0.082 A 
ATOM      4  C2  PXY d   1      -0.713  -1.120  -0.529  0.00  0.00     0.003 A 
ATOM      5  C3  PXY d   1       0.548  -1.656  -0.475  0.00  0.00     0.003 A 
ATOM      6  C4  PXY d   1       1.601  -0.905  -0.026  0.00  0.00    -0.082 A 
ATOM      7  C5  PXY d   1       1.383   0.356   0.404  0.00  0.00     0.003 A 
ATOM      8  C6  PXY d   1       0.089   0.867   0.379  0.00  0.00     0.003 A 
ENDROOT
TORSDOF 0
ENDMDL
