MODEL 1
REMARK minimizedAffinity -0.984680057
REMARK minimizedRMSD -1
REMARK  0 active torsions:
REMARK  status: ('A' for Active; 'I' for Inactive)
ROOT
ATOM      1  C4' PXY d   1      -2.707   1.108  -0.385  0.00  0.00     0.077 C 
ATOM      2  C1' PXY d   1       2.376  -1.643  -0.280  0.00  0.00     0.077 C 
ATOM      3  C1  PXY d   1       1.048  -0.912  -0.301  0.00  0.00    -0.082 A 
ATOM      4  C2  PXY d   1      -0.072  -1.594  -0.478  0.00  0.00     0.003 A 
ATOM      5  C3  PXY d   1      -1.278  -0.945  -0.531  0.00  0.00     0.003 A 
ATOM      6  C4  PXY d   1      -1.345   0.410  -0.348  0.00  0.00    -0.082 A 
ATOM      7  C5  PXY d   1      -0.208   1.112  -0.156  0.00  0.00     0.003 A 
ATOM      8  C6  PXY d   1       1.011   0.439  -0.147  0.00  0.00     0.003 A 
ENDROOT
TORSDOF 0
ENDMDL
