MODEL 1
REMARK minimizedAffinity 0.318380445
REMARK minimizedRMSD -1
REMARK  0 active torsions:
REMARK  status: ('A' for Active; 'I' for Inactive)
ROOT
ATOM      1  C4' PXY d   1       0.961   2.185   0.456  0.00  0.00     0.077 C 
ATOM      2  C1' PXY d   1      -0.562  -3.257  -0.761  0.00  0.00     0.077 C 
ATOM      3  C1  PXY d   1      -0.172  -1.825  -0.449  0.00  0.00    -0.082 A 
ATOM      4  C2  PXY d   1       1.062  -1.554  -0.054  0.00  0.00     0.003 A 
ATOM      5  C3  PXY d   1       1.422  -0.270   0.262  0.00  0.00     0.003 A 
ATOM      6  C4  PXY d   1       0.526   0.756   0.122  0.00  0.00    -0.082 A 
ATOM      7  C5  PXY d   1      -0.731   0.489  -0.291  0.00  0.00     0.003 A 
ATOM      8  C6  PXY d   1      -1.089  -0.827  -0.568  0.00  0.00     0.003 A 
ENDROOT
TORSDOF 0
ENDMDL
