MODEL 1
REMARK minimizedAffinity -4.85297108
REMARK minimizedRMSD -1
REMARK  0 active torsions:
REMARK  status: ('A' for Active; 'I' for Inactive)
ROOT
ATOM      1  C4' PXY d   1      -2.463   0.968   0.020  0.00  0.00     0.077 C 
ATOM      2  C1' PXY d   1       2.635  -1.757   0.084  0.00  0.00     0.077 C 
ATOM      3  C1  PXY d   1       1.302  -1.034   0.076  0.00  0.00    -0.082 A 
ATOM      4  C2  PXY d   1       0.211  -1.677  -0.306  0.00  0.00     0.003 A 
ATOM      5  C3  PXY d   1      -0.997  -1.030  -0.350  0.00  0.00     0.003 A 
ATOM      6  C4  PXY d   1      -1.098   0.275   0.052  0.00  0.00    -0.082 A 
ATOM      7  C5  PXY d   1       0.009   0.936   0.454  0.00  0.00     0.003 A 
ATOM      8  C6  PXY d   1       1.233   0.272   0.452  0.00  0.00     0.003 A 
ENDROOT
TORSDOF 0
ENDMDL
