MODEL 1
REMARK minimizedAffinity -4.10724688
REMARK minimizedRMSD -1
REMARK  0 active torsions:
REMARK  status: ('A' for Active; 'I' for Inactive)
ROOT
ATOM      1  C4' PXY d   1      -2.981   0.680   0.263  0.00  0.00     0.077 C 
ATOM      2  C1' PXY d   1       1.999  -2.243  -0.001  0.00  0.00     0.077 C 
ATOM      3  C1  PXY d   1       0.700  -1.466   0.073  0.00  0.00    -0.082 A 
ATOM      4  C2  PXY d   1      -0.446  -2.117   0.193  0.00  0.00     0.003 A 
ATOM      5  C3  PXY d   1      -1.633  -1.432   0.229  0.00  0.00     0.003 A 
ATOM      6  C4  PXY d   1      -1.644  -0.063   0.195  0.00  0.00    -0.082 A 
ATOM      7  C5  PXY d   1      -0.478   0.609   0.083  0.00  0.00     0.003 A 
ATOM      8  C6  PXY d   1       0.713  -0.107   0.007  0.00  0.00     0.003 A 
ENDROOT
TORSDOF 0
ENDMDL
