MODEL 1
REMARK minimizedAffinity -4.72500515
REMARK minimizedRMSD -1
REMARK  0 active torsions:
REMARK  status: ('A' for Active; 'I' for Inactive)
ROOT
ATOM      1  C4' PXY d   1       3.140  -1.514   0.910  0.00  0.00     0.077 C 
ATOM      2  C1' PXY d   1      -1.234   1.733  -1.023  0.00  0.00     0.077 C 
ATOM      3  C1  PXY d   1      -0.095   0.871  -0.517  0.00  0.00    -0.082 A 
ATOM      4  C2  PXY d   1       0.882   1.424   0.183  0.00  0.00     0.003 A 
ATOM      5  C3  PXY d   1       1.937   0.664   0.621  0.00  0.00     0.003 A 
ATOM      6  C4  PXY d   1       1.965  -0.684   0.386  0.00  0.00    -0.082 A 
ATOM      7  C5  PXY d   1       0.966  -1.257  -0.318  0.00  0.00     0.003 A 
ATOM      8  C6  PXY d   1      -0.075  -0.462  -0.789  0.00  0.00     0.003 A 
ENDROOT
TORSDOF 0
ENDMDL
