MODEL 1
REMARK minimizedAffinity -1.62851775
REMARK minimizedRMSD -1
REMARK  0 active torsions:
REMARK  status: ('A' for Active; 'I' for Inactive)
ROOT
ATOM      1  C4' PXY d   1      -2.906   1.673   0.780  0.00  0.00     0.077 C 
ATOM      2  C1' PXY d   1       1.058  -2.354  -0.439  0.00  0.00     0.077 C 
ATOM      3  C1  PXY d   1       0.026  -1.289  -0.125  0.00  0.00    -0.082 A 
ATOM      4  C2  PXY d   1      -0.812  -1.467   0.883  0.00  0.00     0.003 A 
ATOM      5  C3  PXY d   1      -1.772  -0.529   1.161  0.00  0.00     0.003 A 
ATOM      6  C4  PXY d   1      -1.841   0.629   0.432  0.00  0.00    -0.082 A 
ATOM      7  C5  PXY d   1      -0.983   0.823  -0.591  0.00  0.00     0.003 A 
ATOM      8  C6  PXY d   1      -0.042  -0.161  -0.883  0.00  0.00     0.003 A 
ENDROOT
TORSDOF 0
ENDMDL
