MODEL 1
REMARK minimizedAffinity -2.97788715
REMARK minimizedRMSD -1
REMARK  0 active torsions:
REMARK  status: ('A' for Active; 'I' for Inactive)
ROOT
ATOM      1  C4' PXY d   1      -2.728   0.991  -0.121  0.00  0.00     0.077 C 
ATOM      2  C1' PXY d   1       2.487  -1.450  -0.629  0.00  0.00     0.077 C 
ATOM      3  C1  PXY d   1       1.125  -0.799  -0.491  0.00  0.00    -0.082 A 
ATOM      4  C2  PXY d   1       0.044  -1.556  -0.398  0.00  0.00     0.003 A 
ATOM      5  C3  PXY d   1      -1.198  -0.984  -0.304  0.00  0.00     0.003 A 
ATOM      6  C4  PXY d   1      -1.331   0.378  -0.252  0.00  0.00    -0.082 A 
ATOM      7  C5  PXY d   1      -0.233   1.157  -0.336  0.00  0.00     0.003 A 
ATOM      8  C6  PXY d   1       1.016   0.557  -0.472  0.00  0.00     0.003 A 
ENDROOT
TORSDOF 0
ENDMDL
