MODEL 1
REMARK minimizedAffinity -4.5504632
REMARK minimizedRMSD -1
REMARK  0 active torsions:
REMARK  status: ('A' for Active; 'I' for Inactive)
ROOT
ATOM      1  C4' PXY d   1      -3.176   0.727  -0.777  0.00  0.00     0.077 C 
ATOM      2  C1' PXY d   1       2.198  -1.163   0.203  0.00  0.00     0.077 C 
ATOM      3  C1  PXY d   1       0.792  -0.656  -0.049  0.00  0.00    -0.082 A 
ATOM      4  C2  PXY d   1      -0.204  -1.519  -0.164  0.00  0.00     0.003 A 
ATOM      5  C3  PXY d   1      -1.476  -1.079  -0.423  0.00  0.00     0.003 A 
ATOM      6  C4  PXY d   1      -1.741   0.261  -0.513  0.00  0.00    -0.082 A 
ATOM      7  C5  PXY d   1      -0.732   1.149  -0.387  0.00  0.00     0.003 A 
ATOM      8  C6  PXY d   1       0.559   0.680  -0.165  0.00  0.00     0.003 A 
ENDROOT
TORSDOF 0
ENDMDL
