MODEL 1
REMARK minimizedAffinity -3.60434127
REMARK minimizedRMSD -1
REMARK  0 active torsions:
REMARK  status: ('A' for Active; 'I' for Inactive)
ROOT
ATOM      1  C4' PXY d   1       2.752  -1.187  -0.239  0.00  0.00     0.077 C 
ATOM      2  C1' PXY d   1      -2.562   0.795   0.878  0.00  0.00     0.077 C 
ATOM      3  C1  PXY d   1      -1.164   0.281   0.596  0.00  0.00    -0.082 A 
ATOM      4  C2  PXY d   1      -0.803   0.017  -0.649  0.00  0.00     0.003 A 
ATOM      5  C3  PXY d   1       0.447  -0.480  -0.918  0.00  0.00     0.003 A 
ATOM      6  C4  PXY d   1       1.354  -0.657   0.091  0.00  0.00    -0.082 A 
ATOM      7  C5  PXY d   1       0.997  -0.379   1.363  0.00  0.00     0.003 A 
ATOM      8  C6  PXY d   1      -0.290   0.084   1.620  0.00  0.00     0.003 A 
ENDROOT
TORSDOF 0
ENDMDL
