MODEL 1
REMARK minimizedAffinity -4.0393815
REMARK minimizedRMSD -1
REMARK  0 active torsions:
REMARK  status: ('A' for Active; 'I' for Inactive)
ROOT
ATOM      1  C4' PXY d   1       2.751  -1.786   0.142  0.00  0.00     0.077 C 
ATOM      2  C1' PXY d   1      -2.308   0.978  -0.275  0.00  0.00     0.077 C 
ATOM      3  C1  PXY d   1      -0.988   0.242  -0.167  0.00  0.00    -0.082 A 
ATOM      4  C2  PXY d   1       0.034   0.817   0.448  0.00  0.00     0.003 A 
ATOM      5  C3  PXY d   1       1.244   0.178   0.526  0.00  0.00     0.003 A 
ATOM      6  C4  PXY d   1       1.396  -1.084   0.017  0.00  0.00    -0.082 A 
ATOM      7  C5  PXY d   1       0.356  -1.681  -0.602  0.00  0.00     0.003 A 
ATOM      8  C6  PXY d   1      -0.853  -1.000  -0.707  0.00  0.00     0.003 A 
ENDROOT
TORSDOF 0
ENDMDL
