MODEL 1
REMARK minimizedAffinity -2.44329691
REMARK minimizedRMSD -1
REMARK  2 active torsions:
REMARK  status: ('A' for Active; 'I' for Inactive)
REMARK    1  A    between atoms: C2'_3  and  C1'_4 
REMARK    2  A    between atoms: C1'_4  and  C1_5 
ROOT
ATOM      1  C1  I4B d   1       0.054   0.105  -0.165  0.00  0.00    -0.075 A 
ATOM      2  C2  I4B d   1      -1.243  -0.198   0.167  0.00  0.00     0.003 A 
ATOM      3  C3  I4B d   1      -1.811   0.314   1.359  0.00  0.00     0.002 A 
ATOM      4  C4  I4B d   1      -1.036   1.077   2.208  0.00  0.00    -0.004 A 
ATOM      5  C5  I4B d   1       0.271   1.402   1.858  0.00  0.00     0.002 A 
ATOM      6  C6  I4B d   1       0.816   0.923   0.658  0.00  0.00     0.003 A 
ENDROOT
BRANCH   1   7
ATOM      7  C1' I4B d   1       0.633  -0.480  -1.414  0.00  0.00     0.060 C 
BRANCH   7   8
ATOM      8  C2' I4B d   1       0.668   0.610  -2.467  0.00  0.00    -0.013 C 
ATOM      9  C4' I4B d   1       2.084   1.001  -2.799  0.00  0.00     0.013 C 
ATOM     10  C3' I4B d   1      -0.053   0.105  -3.680  0.00  0.00     0.013 C 
ENDBRANCH   7   8
ENDBRANCH   1   7
TORSDOF 2
ENDMDL
