MODEL 1
REMARK minimizedAffinity -2.35901976
REMARK minimizedRMSD -1
REMARK  2 active torsions:
REMARK  status: ('A' for Active; 'I' for Inactive)
REMARK    1  A    between atoms: C2'_3  and  C1'_4 
REMARK    2  A    between atoms: C1'_4  and  C1_5 
ROOT
ATOM      1  C1  I4B d   1      -0.326   0.498   0.524  0.00  0.00    -0.075 A 
ATOM      2  C2  I4B d   1       0.109   0.958   1.742  0.00  0.00     0.003 A 
ATOM      3  C3  I4B d   1      -0.728   0.863   2.880  0.00  0.00     0.002 A 
ATOM      4  C4  I4B d   1      -2.002   0.350   2.745  0.00  0.00    -0.004 A 
ATOM      5  C5  I4B d   1      -2.433  -0.137   1.515  0.00  0.00     0.002 A 
ATOM      6  C6  I4B d   1      -1.585  -0.075   0.399  0.00  0.00     0.003 A 
ENDROOT
BRANCH   1   7
ATOM      7  C1' I4B d   1       0.572   0.644  -0.664  0.00  0.00     0.060 C 
BRANCH   7   8
ATOM      8  C2' I4B d   1       0.614  -0.689  -1.384  0.00  0.00    -0.013 C 
ATOM      9  C4' I4B d   1       0.917  -0.508  -2.848  0.00  0.00     0.013 C 
ATOM     10  C3' I4B d   1       1.652  -1.542  -0.718  0.00  0.00     0.013 C 
ENDBRANCH   7   8
ENDBRANCH   1   7
TORSDOF 2
ENDMDL
