MODEL 1
REMARK minimizedAffinity -4.09218311
REMARK minimizedRMSD -1
REMARK  2 active torsions:
REMARK  status: ('A' for Active; 'I' for Inactive)
REMARK    1  A    between atoms: C2'_3  and  C1'_4 
REMARK    2  A    between atoms: C1'_4  and  C1_5 
ROOT
ATOM      1  C1  I4B d   1       0.286   0.077   0.323  0.00  0.00    -0.075 A 
ATOM      2  C2  I4B d   1      -0.870  -0.459   0.833  0.00  0.00     0.003 A 
ATOM      3  C3  I4B d   1      -1.557   0.198   1.883  0.00  0.00     0.002 A 
ATOM      4  C4  I4B d   1      -1.028   1.352   2.423  0.00  0.00    -0.004 A 
ATOM      5  C5  I4B d   1       0.132   1.906   1.890  0.00  0.00     0.002 A 
ATOM      6  C6  I4B d   1       0.787   1.271   0.824  0.00  0.00     0.003 A 
ENDROOT
BRANCH   1   7
ATOM      7  C1' I4B d   1       1.003  -0.660  -0.764  0.00  0.00     0.060 C 
BRANCH   7   8
ATOM      8  C2' I4B d   1       0.764   0.079  -2.065  0.00  0.00    -0.013 C 
ATOM      9  C4' I4B d   1       2.046   0.652  -2.610  0.00  0.00     0.013 C 
ATOM     10  C3' I4B d   1       0.145  -0.882  -3.036  0.00  0.00     0.013 C 
ENDBRANCH   7   8
ENDBRANCH   1   7
TORSDOF 2
ENDMDL
