MODEL 1
REMARK minimizedAffinity -4.18946457
REMARK minimizedRMSD -1
REMARK  2 active torsions:
REMARK  status: ('A' for Active; 'I' for Inactive)
REMARK    1  A    between atoms: C2'_3  and  C1'_4 
REMARK    2  A    between atoms: C1'_4  and  C1_5 
ROOT
ATOM      1  C1  I4B d   1       0.147   0.099   0.029  0.00  0.00    -0.075 A 
ATOM      2  C2  I4B d   1      -1.223   0.027   0.068  0.00  0.00     0.003 A 
ATOM      3  C3  I4B d   1      -1.940   0.653   1.116  0.00  0.00     0.002 A 
ATOM      4  C4  I4B d   1      -1.249   1.294   2.124  0.00  0.00    -0.004 A 
ATOM      5  C5  I4B d   1       0.139   1.385   2.071  0.00  0.00     0.002 A 
ATOM      6  C6  I4B d   1       0.841   0.795   1.010  0.00  0.00     0.003 A 
ENDROOT
BRANCH   1   7
ATOM      7  C1' I4B d   1       0.875  -0.602  -1.074  0.00  0.00     0.060 C 
BRANCH   7   8
ATOM      8  C2' I4B d   1       0.456   0.030  -2.385  0.00  0.00    -0.013 C 
ATOM      9  C4' I4B d   1       1.564   0.871  -2.964  0.00  0.00     0.013 C 
ATOM     10  C3' I4B d   1       0.064  -1.070  -3.326  0.00  0.00     0.013 C 
ENDBRANCH   7   8
ENDBRANCH   1   7
TORSDOF 2
ENDMDL
