MODEL 1
REMARK minimizedAffinity -3.15506744
REMARK minimizedRMSD -1
REMARK  1 active torsions:
REMARK  status: ('A' for Active; 'I' for Inactive)
REMARK    1  A    between atoms: C1_2  and  C2_3 
ROOT
ATOM      1  C2  UNL d   1       2.721   0.359  -1.561  0.00  0.00    -0.077 A 
ATOM      2  C3  UNL d   1       1.717   0.554  -0.602  0.00  0.00     0.002 A 
ATOM      3  C4  UNL d   1       0.404   0.155  -0.862  0.00  0.00     0.002 A 
ATOM      4  C5  UNL d   1       0.085  -0.445  -2.078  0.00  0.00    -0.004 A 
ATOM      5  C6  UNL d   1       1.076  -0.642  -3.039  0.00  0.00     0.002 A 
ATOM      6  C7  UNL d   1       2.388  -0.242  -2.782  0.00  0.00     0.002 A 
ENDROOT
BRANCH   1   7
ATOM      7  C1  UNL d   1       4.146   0.744  -1.263  0.00  0.00     0.055 C 
ATOM      8  C   UNL d   1       4.971  -0.466  -0.848  0.00  0.00     0.019 C 
ENDBRANCH   1   7
TORSDOF 1
ENDMDL
