MODEL 1
REMARK minimizedAffinity -4.69692469
REMARK minimizedRMSD -1
REMARK  1 active torsions:
REMARK  status: ('A' for Active; 'I' for Inactive)
REMARK    1  A    between atoms: C1_2  and  C2_3 
ROOT
ATOM      1  C2  UNL d   1      -1.418   0.485   1.506  0.00  0.00    -0.077 A 
ATOM      2  C3  UNL d   1      -2.703   0.016   1.200  0.00  0.00     0.002 A 
ATOM      3  C4  UNL d   1      -3.831   0.719   1.627  0.00  0.00     0.002 A 
ATOM      4  C5  UNL d   1      -3.685   1.896   2.359  0.00  0.00    -0.004 A 
ATOM      5  C6  UNL d   1      -2.411   2.369   2.670  0.00  0.00     0.002 A 
ATOM      6  C7  UNL d   1      -1.283   1.667   2.245  0.00  0.00     0.002 A 
ENDROOT
BRANCH   1   7
ATOM      7  C1  UNL d   1      -0.199  -0.245   1.004  0.00  0.00     0.055 C 
ATOM      8  C   UNL d   1       0.712   0.679   0.210  0.00  0.00     0.019 C 
ENDBRANCH   1   7
TORSDOF 1
ENDMDL
