MODEL 1
REMARK minimizedAffinity -4.19283438
REMARK minimizedRMSD -1
REMARK  1 active torsions:
REMARK  status: ('A' for Active; 'I' for Inactive)
REMARK    1  A    between atoms: C1_2  and  C2_3 
ROOT
ATOM      1  C2  UNL d   1       0.205  -0.046  -0.455  0.00  0.00    -0.077 A 
ATOM      2  C3  UNL d   1       1.561   0.306  -0.428  0.00  0.00     0.002 A 
ATOM      3  C4  UNL d   1       2.297   0.374  -1.613  0.00  0.00     0.002 A 
ATOM      4  C5  UNL d   1       1.683   0.097  -2.833  0.00  0.00    -0.004 A 
ATOM      5  C6  UNL d   1       0.335  -0.257  -2.869  0.00  0.00     0.002 A 
ATOM      6  C7  UNL d   1      -0.401  -0.327  -1.686  0.00  0.00     0.002 A 
ENDROOT
BRANCH   1   7
ATOM      7  C1  UNL d   1      -0.602  -0.073   0.817  0.00  0.00     0.055 C 
ATOM      8  C   UNL d   1       0.246  -0.511   2.002  0.00  0.00     0.019 C 
ENDBRANCH   1   7
TORSDOF 1
ENDMDL
