MODEL 1
REMARK minimizedAffinity -3.67365193
REMARK minimizedRMSD -1
REMARK  1 active torsions:
REMARK  status: ('A' for Active; 'I' for Inactive)
REMARK    1  A    between atoms: C1_2  and  C2_3 
ROOT
ATOM      1  C2  UNL d   1       0.049   0.015  -0.176  0.00  0.00    -0.077 A 
ATOM      2  C3  UNL d   1      -0.585  -0.391  -1.358  0.00  0.00     0.002 A 
ATOM      3  C4  UNL d   1       0.092  -0.336  -2.578  0.00  0.00     0.002 A 
ATOM      4  C5  UNL d   1       1.408   0.120  -2.626  0.00  0.00    -0.004 A 
ATOM      5  C6  UNL d   1       2.047   0.528  -1.456  0.00  0.00     0.002 A 
ATOM      6  C7  UNL d   1       1.371   0.475  -0.236  0.00  0.00     0.002 A 
ENDROOT
BRANCH   1   7
ATOM      7  C1  UNL d   1      -0.663  -0.089   1.147  0.00  0.00     0.055 C 
ATOM      8  C   UNL d   1      -2.067   0.493   1.068  0.00  0.00     0.019 C 
ENDBRANCH   1   7
TORSDOF 1
ENDMDL
