MODEL 1
REMARK minimizedAffinity -4.90355921
REMARK minimizedRMSD -1
REMARK  1 active torsions:
REMARK  status: ('A' for Active; 'I' for Inactive)
REMARK    1  A    between atoms: C1_2  and  C2_3 
ROOT
ATOM      1  C2  UNL d   1       0.420  -0.226  -0.005  0.00  0.00    -0.077 A 
ATOM      2  C3  UNL d   1       0.556  -1.304  -0.892  0.00  0.00     0.002 A 
ATOM      3  C4  UNL d   1       1.340  -1.179  -2.040  0.00  0.00     0.002 A 
ATOM      4  C5  UNL d   1       1.997   0.020  -2.310  0.00  0.00    -0.004 A 
ATOM      5  C6  UNL d   1       1.866   1.098  -1.436  0.00  0.00     0.002 A 
ATOM      6  C7  UNL d   1       1.082   0.975  -0.288  0.00  0.00     0.002 A 
ENDROOT
BRANCH   1   7
ATOM      7  C1  UNL d   1      -0.386  -0.375   1.259  0.00  0.00     0.055 C 
ATOM      8  C   UNL d   1      -1.847  -0.016   1.030  0.00  0.00     0.019 C 
ENDBRANCH   1   7
TORSDOF 1
ENDMDL
