MODEL 1
REMARK minimizedAffinity -5.040802
REMARK minimizedRMSD -1
REMARK  1 active torsions:
REMARK  status: ('A' for Active; 'I' for Inactive)
REMARK    1  A    between atoms: C1_2  and  C2_3 
ROOT
ATOM      1  C2  UNL d   1       0.065   0.090   0.224  0.00  0.00    -0.077 A 
ATOM      2  C3  UNL d   1      -0.683  -0.231  -0.917  0.00  0.00     0.002 A 
ATOM      3  C4  UNL d   1      -0.144  -0.042  -2.191  0.00  0.00     0.002 A 
ATOM      4  C5  UNL d   1       1.145   0.465  -2.336  0.00  0.00    -0.004 A 
ATOM      5  C6  UNL d   1       1.897   0.790  -1.207  0.00  0.00     0.002 A 
ATOM      6  C7  UNL d   1       1.359   0.603   0.067  0.00  0.00     0.002 A 
ENDROOT
BRANCH   1   7
ATOM      7  C1  UNL d   1      -0.496  -0.159   1.600  0.00  0.00     0.055 C 
ATOM      8  C   UNL d   1      -1.845   0.521   1.779  0.00  0.00     0.019 C 
ENDBRANCH   1   7
TORSDOF 1
ENDMDL
