MODEL 1
REMARK minimizedAffinity -4.87369728
REMARK minimizedRMSD -1
REMARK  1 active torsions:
REMARK  status: ('A' for Active; 'I' for Inactive)
REMARK    1  A    between atoms: C1_2  and  C2_3 
ROOT
ATOM      1  C2  UNL d   1       1.296  -0.086  -1.264  0.00  0.00    -0.077 A 
ATOM      2  C3  UNL d   1       0.953   0.805  -0.238  0.00  0.00     0.002 A 
ATOM      3  C4  UNL d   1       0.299   0.346   0.907  0.00  0.00     0.002 A 
ATOM      4  C5  UNL d   1      -0.013  -1.005   1.038  0.00  0.00    -0.004 A 
ATOM      5  C6  UNL d   1       0.321  -1.899   0.022  0.00  0.00     0.002 A 
ATOM      6  C7  UNL d   1       0.974  -1.442  -1.124  0.00  0.00     0.002 A 
ENDROOT
BRANCH   1   7
ATOM      7  C1  UNL d   1       2.045   0.399  -2.478  0.00  0.00     0.055 C 
ATOM      8  C   UNL d   1       2.277  -0.729  -3.472  0.00  0.00     0.019 C 
ENDBRANCH   1   7
TORSDOF 1
ENDMDL
