MODEL 1
REMARK minimizedAffinity -4.74753523
REMARK minimizedRMSD -1
REMARK  1 active torsions:
REMARK  status: ('A' for Active; 'I' for Inactive)
REMARK    1  A    between atoms: C1_2  and  C2_3 
ROOT
ATOM      1  C2  UNL d   1       0.468   0.150  -0.398  0.00  0.00    -0.077 A 
ATOM      2  C3  UNL d   1       0.155  -1.011  -1.117  0.00  0.00     0.002 A 
ATOM      3  C4  UNL d   1       0.898  -1.367  -2.244  0.00  0.00     0.002 A 
ATOM      4  C5  UNL d   1       1.962  -0.568  -2.659  0.00  0.00    -0.004 A 
ATOM      5  C6  UNL d   1       2.280   0.590  -1.952  0.00  0.00     0.002 A 
ATOM      6  C7  UNL d   1       1.538   0.947  -0.826  0.00  0.00     0.002 A 
ENDROOT
BRANCH   1   7
ATOM      7  C1  UNL d   1      -0.301   0.509   0.847  0.00  0.00     0.055 C 
ATOM      8  C   UNL d   1      -1.672  -0.151   0.859  0.00  0.00     0.019 C 
ENDBRANCH   1   7
TORSDOF 1
ENDMDL
