MODEL 1
REMARK minimizedAffinity -3.40395451
REMARK minimizedRMSD -1
REMARK  1 active torsions:
REMARK  status: ('A' for Active; 'I' for Inactive)
REMARK    1  A    between atoms: C1_2  and  C2_3 
ROOT
ATOM      1  C2  UNL d   1       1.852   0.262  -1.437  0.00  0.00    -0.077 A 
ATOM      2  C3  UNL d   1       0.597   0.018  -0.864  0.00  0.00     0.002 A 
ATOM      3  C4  UNL d   1      -0.113  -1.141  -1.185  0.00  0.00     0.002 A 
ATOM      4  C5  UNL d   1       0.427  -2.066  -2.077  0.00  0.00    -0.004 A 
ATOM      5  C6  UNL d   1       1.675  -1.830  -2.653  0.00  0.00     0.002 A 
ATOM      6  C7  UNL d   1       2.385  -0.672  -2.334  0.00  0.00     0.002 A 
ENDROOT
BRANCH   1   7
ATOM      7  C1  UNL d   1       2.641   1.488  -1.054  0.00  0.00     0.055 C 
ATOM      8  C   UNL d   1       4.036   1.119  -0.571  0.00  0.00     0.019 C 
ENDBRANCH   1   7
TORSDOF 1
ENDMDL
