MODEL 1
REMARK minimizedAffinity -4.67646551
REMARK minimizedRMSD -1
REMARK  1 active torsions:
REMARK  status: ('A' for Active; 'I' for Inactive)
REMARK    1  A    between atoms: C1_2  and  C2_3 
ROOT
ATOM      1  C2  UNL d   1       0.190  -0.388  -0.634  0.00  0.00    -0.077 A 
ATOM      2  C3  UNL d   1       0.271  -1.787  -0.679  0.00  0.00     0.002 A 
ATOM      3  C4  UNL d   1       1.192  -2.415  -1.520  0.00  0.00     0.002 A 
ATOM      4  C5  UNL d   1       2.041  -1.651  -2.319  0.00  0.00    -0.004 A 
ATOM      5  C6  UNL d   1       1.967  -0.260  -2.282  0.00  0.00     0.002 A 
ATOM      6  C7  UNL d   1       1.046   0.369  -1.443  0.00  0.00     0.002 A 
ENDROOT
BRANCH   1   7
ATOM      7  C1  UNL d   1      -0.769   0.291   0.309  0.00  0.00     0.055 C 
ATOM      8  C   UNL d   1      -0.780  -0.388   1.671  0.00  0.00     0.019 C 
ENDBRANCH   1   7
TORSDOF 1
ENDMDL
