MODEL 1
REMARK minimizedAffinity 25.907608
REMARK minimizedRMSD -1
REMARK  0 active torsions:
REMARK  status: ('A' for Active; 'I' for Inactive)
ROOT
ATOM      1  C   UNL d   1       1.835  -4.484  -3.963  0.00  0.00     0.077 C 
ATOM      2  C1  UNL d   1       0.838  -3.719  -3.144  0.00  0.00    -0.074 A 
ATOM      3  C2  UNL d   1      -0.265  -4.361  -2.572  0.00  0.00    -0.005 A 
ATOM      4  C3  UNL d   1      -1.179  -3.639  -1.805  0.00  0.00     0.006 A 
ATOM      5  C4  UNL d   1      -1.000  -2.270  -1.603  0.00  0.00    -0.005 A 
ATOM      6  C5  UNL d   1       0.097  -1.611  -2.167  0.00  0.00    -0.074 A 
ATOM      7  C6  UNL d   1       0.309  -0.142  -1.951  0.00  0.00     0.077 C 
ATOM      8  C7  UNL d   1       1.015  -2.345  -2.930  0.00  0.00    -0.001 A 
ENDROOT
TORSDOF 0
ENDMDL
