MODEL 1
REMARK minimizedAffinity 17.6451893
REMARK minimizedRMSD -1
REMARK  0 active torsions:
REMARK  status: ('A' for Active; 'I' for Inactive)
ROOT
ATOM      1  C   UNL d   1      -5.991  -2.223   1.103  0.00  0.00     0.077 C 
ATOM      2  C1  UNL d   1      -4.661  -1.530   1.078  0.00  0.00    -0.074 A 
ATOM      3  C2  UNL d   1      -3.803  -1.662  -0.019  0.00  0.00    -0.005 A 
ATOM      4  C3  UNL d   1      -2.573  -1.005  -0.033  0.00  0.00     0.006 A 
ATOM      5  C4  UNL d   1      -2.189  -0.210   1.048  0.00  0.00    -0.005 A 
ATOM      6  C5  UNL d   1      -3.034  -0.066   2.153  0.00  0.00    -0.074 A 
ATOM      7  C6  UNL d   1      -2.640   0.792   3.319  0.00  0.00     0.077 C 
ATOM      8  C7  UNL d   1      -4.271  -0.724   2.156  0.00  0.00    -0.001 A 
ENDROOT
TORSDOF 0
ENDMDL
