MODEL 1
REMARK minimizedAffinity 11.416893
REMARK minimizedRMSD -1
REMARK  0 active torsions:
REMARK  status: ('A' for Active; 'I' for Inactive)
ROOT
ATOM      1  C   UNL d   1       0.997   1.858  -1.716  0.00  0.00     0.077 C 
ATOM      2  C1  UNL d   1       1.442   0.426  -1.750  0.00  0.00    -0.074 A 
ATOM      3  C2  UNL d   1       2.496  -0.018  -0.945  0.00  0.00    -0.005 A 
ATOM      4  C3  UNL d   1       2.893  -1.355  -0.981  0.00  0.00     0.006 A 
ATOM      5  C4  UNL d   1       2.242  -2.259  -1.820  0.00  0.00    -0.005 A 
ATOM      6  C5  UNL d   1       1.185  -1.833  -2.632  0.00  0.00    -0.074 A 
ATOM      7  C6  UNL d   1       0.467  -2.794  -3.532  0.00  0.00     0.077 C 
ATOM      8  C7  UNL d   1       0.787  -0.490  -2.585  0.00  0.00    -0.001 A 
ENDROOT
TORSDOF 0
ENDMDL
