MODEL 1
REMARK minimizedAffinity 11.8300934
REMARK minimizedRMSD -1
REMARK  0 active torsions:
REMARK  status: ('A' for Active; 'I' for Inactive)
ROOT
ATOM      1  C   UNL d   1       2.504   4.316  -1.134  0.00  0.00     0.077 C 
ATOM      2  C1  UNL d   1       1.085   4.607  -0.745  0.00  0.00    -0.074 A 
ATOM      3  C2  UNL d   1       0.766   5.737   0.015  0.00  0.00    -0.005 A 
ATOM      4  C3  UNL d   1      -0.559   6.000   0.362  0.00  0.00     0.006 A 
ATOM      5  C4  UNL d   1      -1.577   5.137  -0.047  0.00  0.00    -0.005 A 
ATOM      6  C5  UNL d   1      -1.277   4.003  -0.809  0.00  0.00    -0.074 A 
ATOM      7  C6  UNL d   1      -2.359   3.071  -1.265  0.00  0.00     0.077 C 
ATOM      8  C7  UNL d   1       0.057   3.750  -1.159  0.00  0.00    -0.001 A 
ENDROOT
TORSDOF 0
ENDMDL
