MODEL 1
REMARK minimizedAffinity 7.50049496
REMARK minimizedRMSD -1
REMARK  0 active torsions:
REMARK  status: ('A' for Active; 'I' for Inactive)
ROOT
ATOM      1  C   UNL d   1       4.362   6.000  -2.638  0.00  0.00     0.077 C 
ATOM      2  C1  UNL d   1       3.621   5.796  -1.350  0.00  0.00    -0.074 A 
ATOM      3  C2  UNL d   1       2.239   6.000  -1.276  0.00  0.00    -0.005 A 
ATOM      4  C3  UNL d   1       1.562   5.797  -0.074  0.00  0.00     0.006 A 
ATOM      5  C4  UNL d   1       2.258   5.388   1.064  0.00  0.00    -0.005 A 
ATOM      6  C5  UNL d   1       3.640   5.178   1.009  0.00  0.00    -0.074 A 
ATOM      7  C6  UNL d   1       4.402   4.729   2.220  0.00  0.00     0.077 C 
ATOM      8  C7  UNL d   1       4.312   5.377  -0.205  0.00  0.00    -0.001 A 
ENDROOT
TORSDOF 0
ENDMDL
