MODEL 1
REMARK minimizedAffinity 16.4349194
REMARK minimizedRMSD -1
REMARK  0 active torsions:
REMARK  status: ('A' for Active; 'I' for Inactive)
ROOT
ATOM      1  C   UNL d   1       0.981   4.863  -0.784  0.00  0.00     0.077 C 
ATOM      2  C1  UNL d   1       2.448   4.778  -0.485  0.00  0.00    -0.074 A 
ATOM      3  C2  UNL d   1       3.400   4.972  -1.491  0.00  0.00    -0.005 A 
ATOM      4  C3  UNL d   1       4.761   4.899  -1.196  0.00  0.00     0.006 A 
ATOM      5  C4  UNL d   1       5.184   4.632   0.107  0.00  0.00    -0.005 A 
ATOM      6  C5  UNL d   1       4.247   4.437   1.127  0.00  0.00    -0.074 A 
ATOM      7  C6  UNL d   1       4.684   4.159   2.534  0.00  0.00     0.077 C 
ATOM      8  C7  UNL d   1       2.881   4.518   0.823  0.00  0.00    -0.001 A 
ENDROOT
TORSDOF 0
ENDMDL
