MODEL 1
REMARK minimizedAffinity -0.888528228
REMARK minimizedRMSD -1
REMARK  0 active torsions:
REMARK  status: ('A' for Active; 'I' for Inactive)
ROOT
ATOM      1  C   UNL d   1       6.000   6.000  -2.249  0.00  0.00     0.077 C 
ATOM      2  C1  UNL d   1       4.841   5.737  -1.334  0.00  0.00    -0.074 A 
ATOM      3  C2  UNL d   1       3.526   5.779  -1.809  0.00  0.00    -0.005 A 
ATOM      4  C3  UNL d   1       2.459   5.523  -0.948  0.00  0.00     0.006 A 
ATOM      5  C4  UNL d   1       2.695   5.223   0.394  0.00  0.00    -0.005 A 
ATOM      6  C5  UNL d   1       4.003   5.176   0.887  0.00  0.00    -0.074 A 
ATOM      7  C6  UNL d   1       4.274   4.846   2.324  0.00  0.00     0.077 C 
ATOM      8  C7  UNL d   1       5.070   5.427   0.014  0.00  0.00    -0.001 A 
ENDROOT
TORSDOF 0
ENDMDL
