MODEL 1
REMARK minimizedAffinity 12.0546522
REMARK minimizedRMSD -1
REMARK  0 active torsions:
REMARK  status: ('A' for Active; 'I' for Inactive)
ROOT
ATOM      1  C   UNL d   1      -6.000   2.216   1.863  0.00  0.00     0.077 C 
ATOM      2  C1  UNL d   1      -5.240   1.311   2.787  0.00  0.00    -0.074 A 
ATOM      3  C2  UNL d   1      -3.844   1.237   2.733  0.00  0.00    -0.005 A 
ATOM      4  C3  UNL d   1      -3.151   0.398   3.606  0.00  0.00     0.006 A 
ATOM      5  C4  UNL d   1      -3.844  -0.374   4.539  0.00  0.00    -0.005 A 
ATOM      6  C5  UNL d   1      -5.240  -0.312   4.607  0.00  0.00    -0.074 A 
ATOM      7  C6  UNL d   1      -6.000  -1.128   5.611  0.00  0.00     0.077 C 
ATOM      8  C7  UNL d   1      -5.929   0.538   3.732  0.00  0.00    -0.001 A 
ENDROOT
TORSDOF 0
ENDMDL
