MODEL 1
REMARK minimizedAffinity 17.9024258
REMARK minimizedRMSD -1
REMARK  0 active torsions:
REMARK  status: ('A' for Active; 'I' for Inactive)
ROOT
ATOM      1  C   UNL d   1      -5.086   3.738   2.380  0.00  0.00     0.077 C 
ATOM      2  C1  UNL d   1      -4.841   4.534   3.627  0.00  0.00    -0.074 A 
ATOM      3  C2  UNL d   1      -5.871   5.268   4.225  0.00  0.00    -0.005 A 
ATOM      4  C3  UNL d   1      -5.631   5.996   5.390  0.00  0.00     0.006 A 
ATOM      5  C4  UNL d   1      -4.361   5.997   5.969  0.00  0.00    -0.005 A 
ATOM      6  C5  UNL d   1      -3.319   5.269   5.386  0.00  0.00    -0.074 A 
ATOM      7  C6  UNL d   1      -1.951   5.252   6.000  0.00  0.00     0.077 C 
ATOM      8  C7  UNL d   1      -3.570   4.534   4.219  0.00  0.00    -0.001 A 
ENDROOT
TORSDOF 0
ENDMDL
