MODEL 1
REMARK minimizedAffinity 22.4745293
REMARK minimizedRMSD -1
REMARK  0 active torsions:
REMARK  status: ('A' for Active; 'I' for Inactive)
ROOT
ATOM      1  C   UNL d   1      -0.156   0.274  -5.328  0.00  0.00     0.077 C 
ATOM      2  C1  UNL d   1       0.290  -0.393  -4.061  0.00  0.00    -0.074 A 
ATOM      3  C2  UNL d   1       0.022  -1.746  -3.828  0.00  0.00    -0.005 A 
ATOM      4  C3  UNL d   1       0.451  -2.355  -2.649  0.00  0.00     0.006 A 
ATOM      5  C4  UNL d   1       1.151  -1.619  -1.693  0.00  0.00    -0.005 A 
ATOM      6  C5  UNL d   1       1.429  -0.266  -1.908  0.00  0.00    -0.074 A 
ATOM      7  C6  UNL d   1       2.188   0.537  -0.894  0.00  0.00     0.077 C 
ATOM      8  C7  UNL d   1       1.000   0.337  -3.098  0.00  0.00    -0.001 A 
ENDROOT
TORSDOF 0
ENDMDL
