MODEL 1
REMARK minimizedAffinity 10.7182503
REMARK minimizedRMSD -1
REMARK  0 active torsions:
REMARK  status: ('A' for Active; 'I' for Inactive)
ROOT
ATOM      1  C   UNL d   1       2.497   4.659  -1.623  0.00  0.00     0.077 C 
ATOM      2  C1  UNL d   1       2.238   3.428  -2.438  0.00  0.00    -0.074 A 
ATOM      3  C2  UNL d   1       2.608   3.366  -3.786  0.00  0.00    -0.005 A 
ATOM      4  C3  UNL d   1       2.369   2.211  -4.529  0.00  0.00     0.006 A 
ATOM      5  C4  UNL d   1       1.758   1.106  -3.934  0.00  0.00    -0.005 A 
ATOM      6  C5  UNL d   1       1.382   1.148  -2.587  0.00  0.00    -0.074 A 
ATOM      7  C6  UNL d   1       0.734  -0.034  -1.929  0.00  0.00     0.077 C 
ATOM      8  C7  UNL d   1       1.632   2.311  -1.845  0.00  0.00    -0.001 A 
ENDROOT
TORSDOF 0
ENDMDL
