MODEL 1
REMARK minimizedAffinity 7.51292658
REMARK minimizedRMSD -1
REMARK  0 active torsions:
REMARK  status: ('A' for Active; 'I' for Inactive)
ROOT
ATOM      1  C   UNL d   1       1.152  -2.059  -2.231  0.00  0.00     0.077 C 
ATOM      2  C1  UNL d   1       1.433  -0.586  -2.239  0.00  0.00    -0.074 A 
ATOM      3  C2  UNL d   1       2.404  -0.035  -1.396  0.00  0.00    -0.005 A 
ATOM      4  C3  UNL d   1       2.661   1.336  -1.421  0.00  0.00     0.006 A 
ATOM      5  C4  UNL d   1       1.951   2.168  -2.288  0.00  0.00    -0.005 A 
ATOM      6  C5  UNL d   1       0.978   1.635  -3.139  0.00  0.00    -0.074 A 
ATOM      7  C6  UNL d   1       0.213   2.513  -4.084  0.00  0.00     0.077 C 
ATOM      8  C7  UNL d   1       0.730   0.255  -3.113  0.00  0.00    -0.001 A 
ENDROOT
TORSDOF 0
ENDMDL
