MODEL 1
REMARK minimizedAffinity 8.22872448
REMARK minimizedRMSD -1
REMARK  0 active torsions:
REMARK  status: ('A' for Active; 'I' for Inactive)
ROOT
ATOM      1  C   UNL d   1       5.958  -0.952   5.887  0.00  0.00     0.077 C 
ATOM      2  C1  UNL d   1       5.296  -2.254   5.543  0.00  0.00    -0.074 A 
ATOM      3  C2  UNL d   1       4.083  -2.281   4.846  0.00  0.00    -0.005 A 
ATOM      4  C3  UNL d   1       3.484  -3.499   4.525  0.00  0.00     0.006 A 
ATOM      5  C4  UNL d   1       4.090  -4.700   4.897  0.00  0.00    -0.005 A 
ATOM      6  C5  UNL d   1       5.303  -4.692   5.594  0.00  0.00    -0.074 A 
ATOM      7  C6  UNL d   1       5.972  -5.974   5.992  0.00  0.00     0.077 C 
ATOM      8  C7  UNL d   1       5.902  -3.464   5.906  0.00  0.00    -0.001 A 
ENDROOT
TORSDOF 0
ENDMDL
