MODEL 1
REMARK minimizedAffinity 0.904645801
REMARK minimizedRMSD -1
REMARK  0 active torsions:
REMARK  status: ('A' for Active; 'I' for Inactive)
ROOT
ATOM      1  C   UNL d   1       6.000  -0.394   5.627  0.00  0.00     0.077 C 
ATOM      2  C1  UNL d   1       5.346  -1.692   5.256  0.00  0.00    -0.074 A 
ATOM      3  C2  UNL d   1       4.160  -1.714   4.517  0.00  0.00    -0.005 A 
ATOM      4  C3  UNL d   1       3.569  -2.930   4.171  0.00  0.00     0.006 A 
ATOM      5  C4  UNL d   1       4.158  -4.133   4.562  0.00  0.00    -0.005 A 
ATOM      6  C5  UNL d   1       5.345  -4.131   5.301  0.00  0.00    -0.074 A 
ATOM      7  C6  UNL d   1       5.996  -5.415   5.720  0.00  0.00     0.077 C 
ATOM      8  C7  UNL d   1       5.936  -2.906   5.638  0.00  0.00    -0.001 A 
ENDROOT
TORSDOF 0
ENDMDL
