MODEL 1
REMARK minimizedAffinity 13.7493963
REMARK minimizedRMSD -1
REMARK  0 active torsions:
REMARK  status: ('A' for Active; 'I' for Inactive)
ROOT
ATOM      1  C   UNL d   1       3.540  -0.689   2.716  0.00  0.00     0.077 C 
ATOM      2  C1  UNL d   1       4.406  -1.132   3.858  0.00  0.00    -0.074 A 
ATOM      3  C2  UNL d   1       5.207  -0.217   4.549  0.00  0.00    -0.005 A 
ATOM      4  C3  UNL d   1       6.000  -0.642   5.615  0.00  0.00     0.006 A 
ATOM      5  C4  UNL d   1       6.000  -1.983   6.000  0.00  0.00    -0.005 A 
ATOM      6  C5  UNL d   1       5.205  -2.912   5.321  0.00  0.00    -0.074 A 
ATOM      7  C6  UNL d   1       5.185  -4.355   5.729  0.00  0.00     0.077 C 
ATOM      8  C7  UNL d   1       4.405  -2.476   4.256  0.00  0.00    -0.001 A 
ENDROOT
TORSDOF 0
ENDMDL
