MODEL 1
REMARK minimizedAffinity 2.29629898
REMARK minimizedRMSD -1
REMARK  0 active torsions:
REMARK  status: ('A' for Active; 'I' for Inactive)
ROOT
ATOM      1  C   UNL d   1      -1.347   5.865   4.226  0.00  0.00     0.077 C 
ATOM      2  C1  UNL d   1      -2.829   5.903   4.447  0.00  0.00    -0.074 A 
ATOM      3  C2  UNL d   1      -3.363   5.940   5.739  0.00  0.00    -0.005 A 
ATOM      4  C3  UNL d   1      -4.744   5.985   5.929  0.00  0.00     0.006 A 
ATOM      5  C4  UNL d   1      -5.604   5.993   4.831  0.00  0.00    -0.005 A 
ATOM      6  C5  UNL d   1      -5.089   5.957   3.531  0.00  0.00    -0.074 A 
ATOM      7  C6  UNL d   1      -6.000   5.974   2.339  0.00  0.00     0.077 C 
ATOM      8  C7  UNL d   1      -3.700   5.919   3.348  0.00  0.00    -0.001 A 
ENDROOT
TORSDOF 0
ENDMDL
