MODEL 1
REMARK minimizedAffinity -0.686956048
REMARK minimizedRMSD -1
REMARK  0 active torsions:
REMARK  status: ('A' for Active; 'I' for Inactive)
ROOT
ATOM      1  C   UNL d   1      -6.000  -1.240   2.318  0.00  0.00     0.077 C 
ATOM      2  C1  UNL d   1      -5.238  -0.727   1.133  0.00  0.00    -0.074 A 
ATOM      3  C2  UNL d   1      -3.839  -0.725   1.124  0.00  0.00    -0.005 A 
ATOM      4  C3  UNL d   1      -3.144  -0.253   0.010  0.00  0.00     0.006 A 
ATOM      5  C4  UNL d   1      -3.839   0.220  -1.103  0.00  0.00    -0.005 A 
ATOM      6  C5  UNL d   1      -5.237   0.225  -1.113  0.00  0.00    -0.074 A 
ATOM      7  C6  UNL d   1      -6.000   0.721  -2.305  0.00  0.00     0.077 C 
ATOM      8  C7  UNL d   1      -5.929  -0.257   0.007  0.00  0.00    -0.001 A 
ENDROOT
TORSDOF 0
ENDMDL
