MODEL 1
REMARK minimizedAffinity -4.05221891
REMARK minimizedRMSD -1
REMARK  1 active torsions:
REMARK  status: ('A' for Active; 'I' for Inactive)
REMARK    1  A    between atoms: C1_2  and  C2_3 
ROOT
ATOM      1  C2  UNL d   1       0.276  -0.181   0.009  0.00  0.00    -0.077 A 
ATOM      2  C3  UNL d   1       1.118   0.481   0.914  0.00  0.00     0.002 A 
ATOM      3  C4  UNL d   1       0.579   1.240   1.955  0.00  0.00     0.002 A 
ATOM      4  C5  UNL d   1      -0.803   1.341   2.102  0.00  0.00    -0.004 A 
ATOM      5  C6  UNL d   1      -1.648   0.689   1.206  0.00  0.00     0.002 A 
ATOM      6  C7  UNL d   1      -1.111  -0.069   0.164  0.00  0.00     0.002 A 
ENDROOT
BRANCH   1   7
ATOM      7  C1  UNL d   1       0.856  -1.040  -1.084  0.00  0.00     0.055 C 
ATOM      8  C   UNL d   1       0.798  -0.335  -2.432  0.00  0.00     0.019 C 
ENDBRANCH   1   7
TORSDOF 1
ENDMDL
