MODEL 1
REMARK minimizedAffinity -5.07102442
REMARK minimizedRMSD -1
REMARK  1 active torsions:
REMARK  status: ('A' for Active; 'I' for Inactive)
REMARK    1  A    between atoms: C1_2  and  C2_3 
ROOT
ATOM      1  C2  UNL d   1       0.025  -0.222  -0.251  0.00  0.00    -0.077 A 
ATOM      2  C3  UNL d   1       0.894   0.209   0.761  0.00  0.00     0.002 A 
ATOM      3  C4  UNL d   1       0.395   0.850   1.896  0.00  0.00     0.002 A 
ATOM      4  C5  UNL d   1      -0.975   1.063   2.032  0.00  0.00    -0.004 A 
ATOM      5  C6  UNL d   1      -1.848   0.641   1.030  0.00  0.00     0.002 A 
ATOM      6  C7  UNL d   1      -1.351   0.000  -0.106  0.00  0.00     0.002 A 
ENDROOT
BRANCH   1   7
ATOM      7  C1  UNL d   1       0.556  -0.958  -1.453  0.00  0.00     0.055 C 
ATOM      8  C   UNL d   1       1.271  -0.013  -2.409  0.00  0.00     0.019 C 
ENDBRANCH   1   7
TORSDOF 1
ENDMDL
