MODEL 1
REMARK minimizedAffinity -4.23978853
REMARK minimizedRMSD -1
REMARK  1 active torsions:
REMARK  status: ('A' for Active; 'I' for Inactive)
REMARK    1  A    between atoms: C1_2  and  C2_3 
ROOT
ATOM      1  C2  UNL d   1       0.191   0.632  -1.373  0.00  0.00    -0.077 A 
ATOM      2  C3  UNL d   1      -0.739   1.549  -0.863  0.00  0.00     0.002 A 
ATOM      3  C4  UNL d   1      -0.950   1.648   0.513  0.00  0.00     0.002 A 
ATOM      4  C5  UNL d   1      -0.233   0.838   1.391  0.00  0.00    -0.004 A 
ATOM      5  C6  UNL d   1       0.693  -0.079   0.893  0.00  0.00     0.002 A 
ATOM      6  C7  UNL d   1       0.905  -0.180  -0.483  0.00  0.00     0.002 A 
ENDROOT
BRANCH   1   7
ATOM      7  C1  UNL d   1       0.456   0.557  -2.854  0.00  0.00     0.055 C 
ATOM      8  C   UNL d   1       1.611   1.464  -3.256  0.00  0.00     0.019 C 
ENDBRANCH   1   7
TORSDOF 1
ENDMDL
