MODEL 1
REMARK minimizedAffinity -4.56524944
REMARK minimizedRMSD -1
REMARK  1 active torsions:
REMARK  status: ('A' for Active; 'I' for Inactive)
REMARK    1  A    between atoms: C1_2  and  C2_3 
ROOT
ATOM      1  C2  UNL d   1       0.535   0.644   0.960  0.00  0.00    -0.077 A 
ATOM      2  C3  UNL d   1      -0.507   0.559   0.025  0.00  0.00     0.002 A 
ATOM      3  C4  UNL d   1      -0.435  -0.350  -1.032  0.00  0.00     0.002 A 
ATOM      4  C5  UNL d   1       0.674  -1.183  -1.162  0.00  0.00    -0.004 A 
ATOM      5  C6  UNL d   1       1.716  -1.105  -0.240  0.00  0.00     0.002 A 
ATOM      6  C7  UNL d   1       1.647  -0.196   0.817  0.00  0.00     0.002 A 
ENDROOT
BRANCH   1   7
ATOM      7  C1  UNL d   1       0.437   1.589   2.128  0.00  0.00     0.055 C 
ATOM      8  C   UNL d   1      -0.704   1.203   3.058  0.00  0.00     0.019 C 
ENDBRANCH   1   7
TORSDOF 1
ENDMDL
