MODEL 1
REMARK minimizedAffinity 0.49090907
REMARK minimizedRMSD -1
REMARK  0 active torsions:
REMARK  status: ('A' for Active; 'I' for Inactive)
ROOT
ATOM      1  C   UNL d   1       2.135  -1.417  -0.719  0.00  0.00     0.023 A 
ATOM      2  C1  UNL d   1       1.587  -0.314  -1.374  0.00  0.00     0.003 A 
ATOM      3  C2  UNL d   1       0.432   0.292  -0.876  0.00  0.00     0.048 A 
ATOM      4  C3  UNL d   1      -0.169  -0.210   0.278  0.00  0.00     0.023 A 
ATOM      5  C4  UNL d   1       0.376  -1.312   0.937  0.00  0.00     0.048 A 
ATOM      6  C5  UNL d   1       1.531  -1.915   0.435  0.00  0.00     0.003 A 
ATOM      7  I   UNL d   1      -1.889   0.691   1.022  0.00  0.00    -0.146 I 
ENDROOT
TORSDOF 0
ENDMDL
