MODEL 1
REMARK minimizedAffinity -0.163182169
REMARK minimizedRMSD -1
REMARK  0 active torsions:
REMARK  status: ('A' for Active; 'I' for Inactive)
ROOT
ATOM      1  C   UNL d   1      -2.686   1.838   4.257  0.00  0.00     0.023 A 
ATOM      2  C1  UNL d   1      -2.122   2.679   3.298  0.00  0.00     0.003 A 
ATOM      3  C2  UNL d   1      -1.474   2.137   2.186  0.00  0.00     0.048 A 
ATOM      4  C3  UNL d   1      -1.393   0.753   2.040  0.00  0.00     0.023 A 
ATOM      5  C4  UNL d   1      -1.957  -0.093   2.997  0.00  0.00     0.048 A 
ATOM      6  C5  UNL d   1      -2.604   0.454   4.107  0.00  0.00     0.003 A 
ATOM      7  I   UNL d   1      -0.428  -0.057   0.387  0.00  0.00    -0.146 I 
ENDROOT
TORSDOF 0
ENDMDL
