MODEL 1
REMARK minimizedAffinity -3.34133363
REMARK minimizedRMSD -1
REMARK  0 active torsions:
REMARK  status: ('A' for Active; 'I' for Inactive)
ROOT
ATOM      1  C   UNL d   1       2.543  -1.464  -1.302  0.00  0.00     0.023 A 
ATOM      2  C1  UNL d   1       2.601  -0.091  -1.064  0.00  0.00     0.003 A 
ATOM      3  C2  UNL d   1       1.519   0.562  -0.471  0.00  0.00     0.048 A 
ATOM      4  C3  UNL d   1       0.382  -0.164  -0.118  0.00  0.00     0.023 A 
ATOM      5  C4  UNL d   1       0.320  -1.538  -0.353  0.00  0.00     0.048 A 
ATOM      6  C5  UNL d   1       1.404  -2.187  -0.947  0.00  0.00     0.003 A 
ATOM      7  I   UNL d   1      -1.230   0.806   0.765  0.00  0.00    -0.146 I 
ENDROOT
TORSDOF 0
ENDMDL
