MODEL 1
REMARK minimizedAffinity -0.948658764
REMARK minimizedRMSD -1
REMARK  0 active torsions:
REMARK  status: ('A' for Active; 'I' for Inactive)
ROOT
ATOM      1  C   UNL d   1       0.606  -1.369  -0.968  0.00  0.00     0.023 A 
ATOM      2  C1  UNL d   1       0.660  -0.070  -0.462  0.00  0.00     0.003 A 
ATOM      3  C2  UNL d   1      -0.236   0.331   0.532  0.00  0.00     0.048 A 
ATOM      4  C3  UNL d   1      -1.181  -0.573   1.016  0.00  0.00     0.023 A 
ATOM      5  C4  UNL d   1      -1.238  -1.874   0.514  0.00  0.00     0.048 A 
ATOM      6  C5  UNL d   1      -0.341  -2.270  -0.480  0.00  0.00     0.003 A 
ATOM      7  I   UNL d   1      -2.515   0.021   2.496  0.00  0.00    -0.146 I 
ENDROOT
TORSDOF 0
ENDMDL
