MODEL 1
REMARK minimizedAffinity -2.46733952
REMARK minimizedRMSD -1
REMARK  0 active torsions:
REMARK  status: ('A' for Active; 'I' for Inactive)
ROOT
ATOM      1  C   UNL d   1       2.706   0.254  -2.262  0.00  0.00     0.023 A 
ATOM      2  C1  UNL d   1       2.478  -0.811  -1.390  0.00  0.00     0.003 A 
ATOM      3  C2  UNL d   1       1.425  -0.752  -0.475  0.00  0.00     0.048 A 
ATOM      4  C3  UNL d   1       0.603   0.374  -0.438  0.00  0.00     0.023 A 
ATOM      5  C4  UNL d   1       0.827   1.441  -1.309  0.00  0.00     0.048 A 
ATOM      6  C5  UNL d   1       1.881   1.378  -2.222  0.00  0.00     0.003 A 
ATOM      7  I   UNL d   1      -0.966   0.463   0.923  0.00  0.00    -0.146 I 
ENDROOT
TORSDOF 0
ENDMDL
