MODEL 1
REMARK minimizedAffinity -4.91466045
REMARK minimizedRMSD -1
REMARK  0 active torsions:
REMARK  status: ('A' for Active; 'I' for Inactive)
ROOT
ATOM      1  C   UNL d   1      -1.725   1.221   3.901  0.00  0.00     0.023 A 
ATOM      2  C1  UNL d   1      -0.372   0.898   3.997  0.00  0.00     0.003 A 
ATOM      3  C2  UNL d   1       0.330   0.482   2.863  0.00  0.00     0.048 A 
ATOM      4  C3  UNL d   1      -0.328   0.393   1.637  0.00  0.00     0.023 A 
ATOM      5  C4  UNL d   1      -1.682   0.716   1.536  0.00  0.00     0.048 A 
ATOM      6  C5  UNL d   1      -2.380   1.130   2.673  0.00  0.00     0.003 A 
ATOM      7  I   UNL d   1       0.714  -0.226  -0.052  0.00  0.00    -0.146 I 
ENDROOT
TORSDOF 0
ENDMDL
