MODEL 1
REMARK minimizedAffinity -3.23048162
REMARK minimizedRMSD -1
REMARK  0 active torsions:
REMARK  status: ('A' for Active; 'I' for Inactive)
ROOT
ATOM      1  C   UNL d   1       2.817  -0.574  -2.057  0.00  0.00     0.023 A 
ATOM      2  C1  UNL d   1       2.712   0.659  -1.413  0.00  0.00     0.003 A 
ATOM      3  C2  UNL d   1       1.624   0.922  -0.578  0.00  0.00     0.048 A 
ATOM      4  C3  UNL d   1       0.645  -0.053  -0.390  0.00  0.00     0.023 A 
ATOM      5  C4  UNL d   1       0.747  -1.289  -1.032  0.00  0.00     0.048 A 
ATOM      6  C5  UNL d   1       1.836  -1.547  -1.866  0.00  0.00     0.003 A 
ATOM      7  I   UNL d   1      -0.975   0.335   0.852  0.00  0.00    -0.146 I 
ENDROOT
TORSDOF 0
ENDMDL
