MODEL 1
REMARK minimizedAffinity -1.84807479
REMARK minimizedRMSD -1
REMARK  0 active torsions:
REMARK  status: ('A' for Active; 'I' for Inactive)
ROOT
ATOM      1  C   UNL d   1       1.970  -1.944  -0.702  0.00  0.00     0.023 A 
ATOM      2  C1  UNL d   1       0.721  -1.952  -1.324  0.00  0.00     0.003 A 
ATOM      3  C2  UNL d   1      -0.330  -1.203  -0.791  0.00  0.00     0.048 A 
ATOM      4  C3  UNL d   1      -0.126  -0.449   0.363  0.00  0.00     0.023 A 
ATOM      5  C4  UNL d   1       1.122  -0.437   0.989  0.00  0.00     0.048 A 
ATOM      6  C5  UNL d   1       2.170  -1.188   0.453  0.00  0.00     0.003 A 
ATOM      7  I   UNL d   1      -1.690   0.666   1.158  0.00  0.00    -0.146 I 
ENDROOT
TORSDOF 0
ENDMDL
