MODEL 1
REMARK minimizedAffinity -3.16855383
REMARK minimizedRMSD -1
REMARK  0 active torsions:
REMARK  status: ('A' for Active; 'I' for Inactive)
ROOT
ATOM      1  C   UNL d   1       2.079  -1.019  -0.657  0.00  0.00     0.023 A 
ATOM      2  C1  UNL d   1       2.166  -1.091   0.734  0.00  0.00     0.003 A 
ATOM      3  C2  UNL d   1       1.146  -0.561   1.527  0.00  0.00     0.048 A 
ATOM      4  C3  UNL d   1       0.041   0.037   0.923  0.00  0.00     0.023 A 
ATOM      5  C4  UNL d   1      -0.051   0.110  -0.468  0.00  0.00     0.048 A 
ATOM      6  C5  UNL d   1       0.972  -0.419  -1.257  0.00  0.00     0.003 A 
ATOM      7  I   UNL d   1      -1.479   0.825   2.101  0.00  0.00    -0.146 I 
ENDROOT
TORSDOF 0
ENDMDL
