MODEL 1
REMARK minimizedAffinity -4.51721096
REMARK minimizedRMSD -1
REMARK  0 active torsions:
REMARK  status: ('A' for Active; 'I' for Inactive)
ROOT
ATOM      1  C   UNL d   1       2.633   1.420  -3.033  0.00  0.00     0.023 A 
ATOM      2  C1  UNL d   1       1.308   1.815  -2.849  0.00  0.00     0.003 A 
ATOM      3  C2  UNL d   1       0.505   1.155  -1.917  0.00  0.00     0.048 A 
ATOM      4  C3  UNL d   1       1.034   0.103  -1.170  0.00  0.00     0.023 A 
ATOM      5  C4  UNL d   1       2.359  -0.295  -1.350  0.00  0.00     0.048 A 
ATOM      6  C5  UNL d   1       3.158   0.367  -2.284  0.00  0.00     0.003 A 
ATOM      7  I   UNL d   1      -0.160  -0.880   0.219  0.00  0.00    -0.146 I 
ENDROOT
TORSDOF 0
ENDMDL
