MODEL 1
REMARK minimizedAffinity -2.29711294
REMARK minimizedRMSD -1
REMARK  0 active torsions:
REMARK  status: ('A' for Active; 'I' for Inactive)
ROOT
ATOM      1  C   UNL d   1       2.915  -1.136  -1.077  0.00  0.00     0.023 A 
ATOM      2  C1  UNL d   1       1.708  -1.834  -1.036  0.00  0.00     0.003 A 
ATOM      3  C2  UNL d   1       0.671  -1.392  -0.212  0.00  0.00     0.048 A 
ATOM      4  C3  UNL d   1       0.848  -0.250   0.568  0.00  0.00     0.023 A 
ATOM      5  C4  UNL d   1       2.053   0.453   0.530  0.00  0.00     0.048 A 
ATOM      6  C5  UNL d   1       3.087   0.006  -0.295  0.00  0.00     0.003 A 
ATOM      7  I   UNL d   1      -0.694   0.411   1.796  0.00  0.00    -0.146 I 
ENDROOT
TORSDOF 0
ENDMDL
