MODEL 1
REMARK minimizedAffinity -3.2797792
REMARK minimizedRMSD -1
REMARK  0 active torsions:
REMARK  status: ('A' for Active; 'I' for Inactive)
ROOT
ATOM      1  C   UNL d   1       1.896  -1.388  -1.322  0.00  0.00     0.023 A 
ATOM      2  C1  UNL d   1       1.728  -0.016  -1.129  0.00  0.00     0.003 A 
ATOM      3  C2  UNL d   1       0.707   0.453  -0.300  0.00  0.00     0.048 A 
ATOM      4  C3  UNL d   1      -0.142  -0.454   0.333  0.00  0.00     0.023 A 
ATOM      5  C4  UNL d   1       0.022  -1.827   0.143  0.00  0.00     0.048 A 
ATOM      6  C5  UNL d   1       1.044  -2.292  -0.687  0.00  0.00     0.003 A 
ATOM      7  I   UNL d   1      -1.663   0.243   1.567  0.00  0.00    -0.146 I 
ENDROOT
TORSDOF 0
ENDMDL
