MODEL 1
REMARK minimizedAffinity 1.76370895
REMARK minimizedRMSD -1
REMARK  0 active torsions:
REMARK  status: ('A' for Active; 'I' for Inactive)
ROOT
ATOM      1  C   UNL d   1       0.408   0.353  -0.745  0.00  0.00     0.023 A 
ATOM      2  C1  UNL d   1       0.678   1.478   0.035  0.00  0.00     0.003 A 
ATOM      3  C2  UNL d   1       0.141   1.584   1.319  0.00  0.00     0.048 A 
ATOM      4  C3  UNL d   1      -0.665   0.561   1.818  0.00  0.00     0.023 A 
ATOM      5  C4  UNL d   1      -0.937  -0.567   1.042  0.00  0.00     0.048 A 
ATOM      6  C5  UNL d   1      -0.399  -0.668  -0.242  0.00  0.00     0.003 A 
ATOM      7  I   UNL d   1      -1.466   0.716   3.730  0.00  0.00    -0.146 I 
ENDROOT
TORSDOF 0
ENDMDL
