MODEL 1
REMARK minimizedAffinity -3.82614017
REMARK minimizedRMSD -1
REMARK  0 active torsions:
REMARK  status: ('A' for Active; 'I' for Inactive)
ROOT
ATOM      1  C   UNL d   1       2.290  -1.153  -0.990  0.00  0.00     0.023 A 
ATOM      2  C1  UNL d   1       2.060   0.206  -0.774  0.00  0.00     0.003 A 
ATOM      3  C2  UNL d   1       0.883   0.626  -0.152  0.00  0.00     0.048 A 
ATOM      4  C3  UNL d   1      -0.061  -0.318   0.252  0.00  0.00     0.023 A 
ATOM      5  C4  UNL d   1       0.165  -1.679   0.039  0.00  0.00     0.048 A 
ATOM      6  C5  UNL d   1       1.344  -2.094  -0.584  0.00  0.00     0.003 A 
ATOM      7  I   UNL d   1      -1.814   0.305   1.179  0.00  0.00    -0.146 I 
ENDROOT
TORSDOF 0
ENDMDL
