MODEL 1
REMARK minimizedAffinity -2.81569433
REMARK minimizedRMSD -1
REMARK  0 active torsions:
REMARK  status: ('A' for Active; 'I' for Inactive)
ROOT
ATOM      1  C   UNL d   1       0.242  -0.626  -0.784  0.00  0.00     0.172 C 
ATOM      2  N   UNL d   1      -0.277  -0.094   0.454  0.00  0.00    -0.070 N 
ATOM      3  C1  UNL d   1      -1.218   0.895   0.567  0.00  0.00    -0.004 A 
ATOM      4  C2  UNL d   1      -1.441   1.114   1.909  0.00  0.00    -0.047 A 
ATOM      5  C3  UNL d   1      -0.604   0.228   2.628  0.00  0.00    -0.047 A 
ATOM      6  C4  UNL d   1       0.105  -0.508   1.703  0.00  0.00    -0.004 A 
ENDROOT
TORSDOF 0
ENDMDL
