MODEL 1
REMARK minimizedAffinity -2.20855808
REMARK minimizedRMSD -1
REMARK  0 active torsions:
REMARK  status: ('A' for Active; 'I' for Inactive)
ROOT
ATOM      1  C   UNL d   1       0.073  -0.844  -0.658  0.00  0.00     0.172 C 
ATOM      2  N   UNL d   1      -0.641  -0.075   0.334  0.00  0.00    -0.070 N 
ATOM      3  C1  UNL d   1      -1.628   0.839   0.077  0.00  0.00    -0.004 A 
ATOM      4  C2  UNL d   1      -2.052   1.353   1.284  0.00  0.00    -0.047 A 
ATOM      5  C3  UNL d   1      -1.293   0.726   2.301  0.00  0.00    -0.047 A 
ATOM      6  C4  UNL d   1      -0.428  -0.153   1.685  0.00  0.00    -0.004 A 
ENDROOT
TORSDOF 0
ENDMDL
