MODEL 1
REMARK minimizedAffinity 1.02213466
REMARK minimizedRMSD -1
REMARK  0 active torsions:
REMARK  status: ('A' for Active; 'I' for Inactive)
ROOT
ATOM      1  C   UNL d   1      -2.331   0.882   2.002  0.00  0.00     0.172 C 
ATOM      2  N   UNL d   1      -2.032   0.237   0.745  0.00  0.00    -0.070 N 
ATOM      3  C1  UNL d   1      -2.946  -0.104  -0.215  0.00  0.00    -0.004 A 
ATOM      4  C2  UNL d   1      -2.264  -0.696  -1.257  0.00  0.00    -0.047 A 
ATOM      5  C3  UNL d   1      -0.893  -0.712  -0.909  0.00  0.00    -0.047 A 
ATOM      6  C4  UNL d   1      -0.777  -0.128   0.335  0.00  0.00    -0.004 A 
ENDROOT
TORSDOF 0
ENDMDL
