MODEL 1
REMARK minimizedAffinity -1.61980569
REMARK minimizedRMSD -1
REMARK  0 active torsions:
REMARK  status: ('A' for Active; 'I' for Inactive)
ROOT
ATOM      1  C   UNL d   1       0.735  -0.428  -0.658  0.00  0.00     0.172 C 
ATOM      2  N   UNL d   1       0.912  -0.086  -2.050  0.00  0.00    -0.070 N 
ATOM      3  C1  UNL d   1       1.926   0.679  -2.561  0.00  0.00    -0.004 A 
ATOM      4  C2  UNL d   1       1.739   0.772  -3.923  0.00  0.00    -0.047 A 
ATOM      5  C3  UNL d   1       0.572   0.039  -4.241  0.00  0.00    -0.047 A 
ATOM      6  C4  UNL d   1       0.080  -0.482  -3.063  0.00  0.00    -0.004 A 
ENDROOT
TORSDOF 0
ENDMDL
