MODEL 1
REMARK minimizedAffinity 18.6012745
REMARK minimizedRMSD -1
REMARK  0 active torsions:
REMARK  status: ('A' for Active; 'I' for Inactive)
ROOT
ATOM      1  C   UNL d   1      -3.395  -2.284   5.298  0.00  0.00     0.020 A 
ATOM      2  C1  UNL d   1      -3.620  -3.000   4.122  0.00  0.00     0.020 A 
ATOM      3  C2  UNL d   1      -2.568  -3.682   3.508  0.00  0.00     0.034 A 
ATOM      4  C3  UNL d   1      -1.286  -3.649   4.069  0.00  0.00     0.017 A 
ATOM      5  C4  UNL d   1      -1.061  -2.931   5.248  0.00  0.00     0.017 A 
ATOM      6  C5  UNL d   1      -2.118  -2.250   5.859  0.00  0.00     0.034 A 
ATOM      7 Cl   UNL d   1       0.493  -2.845   6.000  0.00  0.00    -0.070 Cl
ATOM      8 Cl1  UNL d   1      -0.031  -4.516   3.256  0.00  0.00    -0.070 Cl
ENDROOT
TORSDOF 0
ENDMDL
