MODEL 1
REMARK minimizedAffinity 13.9089661
REMARK minimizedRMSD -1
REMARK  0 active torsions:
REMARK  status: ('A' for Active; 'I' for Inactive)
ROOT
ATOM      1  C   UNL d   1       1.422  -2.287  -5.709  0.00  0.00     0.020 A 
ATOM      2  C1  UNL d   1       2.715  -1.855  -5.999  0.00  0.00     0.020 A 
ATOM      3  C2  UNL d   1       3.788  -2.286  -5.214  0.00  0.00     0.034 A 
ATOM      4  C3  UNL d   1       3.568  -3.152  -4.137  0.00  0.00     0.017 A 
ATOM      5  C4  UNL d   1       2.269  -3.585  -3.846  0.00  0.00     0.017 A 
ATOM      6  C5  UNL d   1       1.200  -3.150  -4.635  0.00  0.00     0.034 A 
ATOM      7 Cl   UNL d   1       1.920  -4.653  -2.533  0.00  0.00    -0.070 Cl
ATOM      8 Cl1  UNL d   1       4.941  -3.644  -3.210  0.00  0.00    -0.070 Cl
ENDROOT
TORSDOF 0
ENDMDL
