MODEL 1
REMARK minimizedAffinity 19.2284431
REMARK minimizedRMSD -1
REMARK  0 active torsions:
REMARK  status: ('A' for Active; 'I' for Inactive)
ROOT
ATOM      1  C   UNL d   1      -0.934   3.666  -3.376  0.00  0.00     0.020 A 
ATOM      2  C1  UNL d   1      -1.140   2.392  -3.905  0.00  0.00     0.020 A 
ATOM      3  C2  UNL d   1      -2.438   1.894  -4.042  0.00  0.00     0.034 A 
ATOM      4  C3  UNL d   1      -3.534   2.670  -3.649  0.00  0.00     0.017 A 
ATOM      5  C4  UNL d   1      -3.327   3.948  -3.118  0.00  0.00     0.017 A 
ATOM      6  C5  UNL d   1      -2.025   4.442  -2.983  0.00  0.00     0.034 A 
ATOM      7 Cl   UNL d   1      -4.630   4.965  -2.611  0.00  0.00    -0.070 Cl
ATOM      8 Cl1  UNL d   1      -5.111   1.991  -3.846  0.00  0.00    -0.070 Cl
ENDROOT
TORSDOF 0
ENDMDL
