MODEL 1
REMARK minimizedAffinity 15.2698669
REMARK minimizedRMSD -1
REMARK  0 active torsions:
REMARK  status: ('A' for Active; 'I' for Inactive)
ROOT
ATOM      1  C   UNL d   1       4.095  -2.591  -5.999  0.00  0.00     0.020 A 
ATOM      2  C1  UNL d   1       3.500  -3.853  -6.000  0.00  0.00     0.020 A 
ATOM      3  C2  UNL d   1       2.109  -3.968  -6.000  0.00  0.00     0.034 A 
ATOM      4  C3  UNL d   1       1.307  -2.821  -5.999  0.00  0.00     0.017 A 
ATOM      5  C4  UNL d   1       1.905  -1.556  -5.998  0.00  0.00     0.017 A 
ATOM      6  C5  UNL d   1       3.299  -1.445  -5.999  0.00  0.00     0.034 A 
ATOM      7 Cl   UNL d   1       0.981  -0.095  -5.997  0.00  0.00    -0.070 Cl
ATOM      8 Cl1  UNL d   1      -0.407  -3.039  -5.999  0.00  0.00    -0.070 Cl
ENDROOT
TORSDOF 0
ENDMDL
