MODEL 1
REMARK minimizedAffinity 17.4819012
REMARK minimizedRMSD -1
REMARK  0 active torsions:
REMARK  status: ('A' for Active; 'I' for Inactive)
ROOT
ATOM      1  C   UNL d   1      -5.991   5.952   0.900  0.00  0.00     0.020 A 
ATOM      2  C1  UNL d   1      -5.101   5.999   1.973  0.00  0.00     0.020 A 
ATOM      3  C2  UNL d   1      -3.725   5.981   1.740  0.00  0.00     0.034 A 
ATOM      4  C3  UNL d   1      -3.233   5.916   0.431  0.00  0.00     0.017 A 
ATOM      5  C4  UNL d   1      -4.127   5.869  -0.645  0.00  0.00     0.017 A 
ATOM      6  C5  UNL d   1      -5.504   5.887  -0.406  0.00  0.00     0.034 A 
ATOM      7 Cl   UNL d   1      -3.596   5.788  -2.288  0.00  0.00    -0.070 Cl
ATOM      8 Cl1  UNL d   1      -1.519   5.898   0.216  0.00  0.00    -0.070 Cl
ENDROOT
TORSDOF 0
ENDMDL
