MODEL 1
REMARK minimizedAffinity 11.8457308
REMARK minimizedRMSD -1
REMARK  0 active torsions:
REMARK  status: ('A' for Active; 'I' for Inactive)
ROOT
ATOM      1  C   UNL d   1      -4.532   5.466  -2.305  0.00  0.00     0.020 A 
ATOM      2  C1  UNL d   1      -5.645   5.834  -1.550  0.00  0.00     0.020 A 
ATOM      3  C2  UNL d   1      -5.529   5.992  -0.167  0.00  0.00     0.034 A 
ATOM      4  C3  UNL d   1      -4.299   5.781   0.465  0.00  0.00     0.017 A 
ATOM      5  C4  UNL d   1      -3.182   5.412  -0.294  0.00  0.00     0.017 A 
ATOM      6  C5  UNL d   1      -3.303   5.256  -1.678  0.00  0.00     0.034 A 
ATOM      7 Cl   UNL d   1      -1.630   5.135   0.415  0.00  0.00    -0.070 Cl
ATOM      8 Cl1  UNL d   1      -4.228   5.994   2.178  0.00  0.00    -0.070 Cl
ENDROOT
TORSDOF 0
ENDMDL
