MODEL 1
REMARK minimizedAffinity 21.8173714
REMARK minimizedRMSD -1
REMARK  0 active torsions:
REMARK  status: ('A' for Active; 'I' for Inactive)
ROOT
ATOM      1  C   UNL d   1       2.749  -3.962  -5.889  0.00  0.00     0.020 A 
ATOM      2  C1  UNL d   1       3.385  -2.722  -5.847  0.00  0.00     0.020 A 
ATOM      3  C2  UNL d   1       2.629  -1.548  -5.851  0.00  0.00     0.034 A 
ATOM      4  C3  UNL d   1       1.231  -1.612  -5.897  0.00  0.00     0.017 A 
ATOM      5  C4  UNL d   1       0.594  -2.857  -5.940  0.00  0.00     0.017 A 
ATOM      6  C5  UNL d   1       1.356  -4.029  -5.936  0.00  0.00     0.034 A 
ATOM      7 Cl   UNL d   1      -1.127  -3.016  -5.999  0.00  0.00    -0.070 Cl
ATOM      8 Cl1  UNL d   1       0.358  -0.121  -5.899  0.00  0.00    -0.070 Cl
ENDROOT
TORSDOF 0
ENDMDL
