MODEL 1
REMARK minimizedAffinity 18.2491589
REMARK minimizedRMSD -1
REMARK  0 active torsions:
REMARK  status: ('A' for Active; 'I' for Inactive)
ROOT
ATOM      1  C   UNL d   1      -4.896   0.956  -4.400  0.00  0.00     0.020 A 
ATOM      2  C1  UNL d   1      -5.866   1.944  -4.235  0.00  0.00     0.020 A 
ATOM      3  C2  UNL d   1      -5.501   3.212  -3.779  0.00  0.00     0.034 A 
ATOM      4  C3  UNL d   1      -4.162   3.495  -3.485  0.00  0.00     0.017 A 
ATOM      5  C4  UNL d   1      -3.189   2.503  -3.650  0.00  0.00     0.017 A 
ATOM      6  C5  UNL d   1      -3.561   1.235  -4.108  0.00  0.00     0.034 A 
ATOM      7 Cl   UNL d   1      -1.517   2.777  -3.309  0.00  0.00    -0.070 Cl
ATOM      8 Cl1  UNL d   1      -3.781   5.085  -2.924  0.00  0.00    -0.070 Cl
ENDROOT
TORSDOF 0
ENDMDL
