MODEL 1
REMARK minimizedAffinity 18.1096668
REMARK minimizedRMSD -1
REMARK  0 active torsions:
REMARK  status: ('A' for Active; 'I' for Inactive)
ROOT
ATOM      1  C   UNL d   1       0.334   2.282   0.662  0.00  0.00     0.020 A 
ATOM      2  C1  UNL d   1      -0.939   1.861   0.280  0.00  0.00     0.020 A 
ATOM      3  C2  UNL d   1      -1.456   2.240  -0.961  0.00  0.00     0.034 A 
ATOM      4  C3  UNL d   1      -0.700   3.041  -1.824  0.00  0.00     0.017 A 
ATOM      5  C4  UNL d   1       0.578   3.463  -1.439  0.00  0.00     0.017 A 
ATOM      6  C5  UNL d   1       1.091   3.081  -0.195  0.00  0.00     0.034 A 
ATOM      7 Cl   UNL d   1       1.571   4.454  -2.449  0.00  0.00    -0.070 Cl
ATOM      8 Cl1  UNL d   1      -1.401   3.471  -3.343  0.00  0.00    -0.070 Cl
ENDROOT
TORSDOF 0
ENDMDL
