MODEL 1
REMARK minimizedAffinity 6.30802631
REMARK minimizedRMSD -1
REMARK  0 active torsions:
REMARK  status: ('A' for Active; 'I' for Inactive)
ROOT
ATOM      1  C   UNL d   1      -1.506   3.366  -2.931  0.00  0.00     0.020 A 
ATOM      2  C1  UNL d   1      -1.010   4.668  -2.996  0.00  0.00     0.020 A 
ATOM      3  C2  UNL d   1      -0.320   5.208  -1.909  0.00  0.00     0.034 A 
ATOM      4  C3  UNL d   1      -0.125   4.446  -0.751  0.00  0.00     0.017 A 
ATOM      5  C4  UNL d   1      -0.623   3.140  -0.686  0.00  0.00     0.017 A 
ATOM      6  C5  UNL d   1      -1.313   2.604  -1.778  0.00  0.00     0.034 A 
ATOM      7 Cl   UNL d   1      -0.421   2.139   0.708  0.00  0.00    -0.070 Cl
ATOM      8 Cl1  UNL d   1       0.737   5.178   0.556  0.00  0.00    -0.070 Cl
ENDROOT
TORSDOF 0
ENDMDL
