MODEL 1
REMARK minimizedAffinity 4.00729322
REMARK minimizedRMSD -1
REMARK  0 active torsions:
REMARK  status: ('A' for Active; 'I' for Inactive)
ROOT
ATOM      1  C   UNL d   1      -0.196   4.119  -0.117  0.00  0.00     0.020 A 
ATOM      2  C1  UNL d   1      -0.042   2.774   0.216  0.00  0.00     0.020 A 
ATOM      3  C2  UNL d   1      -1.034   2.118   0.948  0.00  0.00     0.034 A 
ATOM      4  C3  UNL d   1      -2.184   2.807   1.350  0.00  0.00     0.017 A 
ATOM      5  C4  UNL d   1      -2.338   4.157   1.015  0.00  0.00     0.017 A 
ATOM      6  C5  UNL d   1      -1.342   4.809   0.281  0.00  0.00     0.034 A 
ATOM      7 Cl   UNL d   1      -3.730   5.073   1.474  0.00  0.00    -0.070 Cl
ATOM      8 Cl1  UNL d   1      -3.370   1.933   2.253  0.00  0.00    -0.070 Cl
ENDROOT
TORSDOF 0
ENDMDL
