MODEL 1
REMARK minimizedAffinity 8.19509315
REMARK minimizedRMSD -1
REMARK  0 active torsions:
REMARK  status: ('A' for Active; 'I' for Inactive)
ROOT
ATOM      1  C   UNL d   1      -0.868   2.493   0.693  0.00  0.00     0.020 A 
ATOM      2  C1  UNL d   1       0.218   3.294   1.041  0.00  0.00     0.020 A 
ATOM      3  C2  UNL d   1       0.792   4.144   0.094  0.00  0.00     0.034 A 
ATOM      4  C3  UNL d   1       0.278   4.196  -1.207  0.00  0.00     0.017 A 
ATOM      5  C4  UNL d   1      -0.812   3.392  -1.557  0.00  0.00     0.017 A 
ATOM      6  C5  UNL d   1      -1.383   2.542  -0.604  0.00  0.00     0.034 A 
ATOM      7 Cl   UNL d   1      -1.501   3.401  -3.142  0.00  0.00    -0.070 Cl
ATOM      8 Cl1  UNL d   1       1.036   5.271  -2.328  0.00  0.00    -0.070 Cl
ENDROOT
TORSDOF 0
ENDMDL
