MODEL 1
REMARK minimizedAffinity 6.4248724
REMARK minimizedRMSD -1
REMARK  0 active torsions:
REMARK  status: ('A' for Active; 'I' for Inactive)
ROOT
ATOM      1  C   UNL d   1       0.032   5.348  -0.396  0.00  0.00     0.020 A 
ATOM      2  C1  UNL d   1      -0.462   5.208  -1.692  0.00  0.00     0.020 A 
ATOM      3  C2  UNL d   1      -0.780   3.941  -2.185  0.00  0.00     0.034 A 
ATOM      4  C3  UNL d   1      -0.603   2.808  -1.382  0.00  0.00     0.017 A 
ATOM      5  C4  UNL d   1      -0.107   2.949  -0.081  0.00  0.00     0.017 A 
ATOM      6  C5  UNL d   1       0.210   4.221   0.408  0.00  0.00     0.034 A 
ATOM      7 Cl   UNL d   1       0.138   1.599   0.969  0.00  0.00    -0.070 Cl
ATOM      8 Cl1  UNL d   1      -1.016   1.272  -2.057  0.00  0.00    -0.070 Cl
ENDROOT
TORSDOF 0
ENDMDL
