MODEL 1
REMARK minimizedAffinity 5.18417692
REMARK minimizedRMSD -1
REMARK  0 active torsions:
REMARK  status: ('A' for Active; 'I' for Inactive)
ROOT
ATOM      1  C   UNL d   1      -0.049   3.351  -1.152  0.00  0.00     0.020 A 
ATOM      2  C1  UNL d   1      -0.898   3.025  -2.209  0.00  0.00     0.020 A 
ATOM      3  C2  UNL d   1      -1.938   2.114  -2.014  0.00  0.00     0.034 A 
ATOM      4  C3  UNL d   1      -2.132   1.526  -0.759  0.00  0.00     0.017 A 
ATOM      5  C4  UNL d   1      -1.279   1.854   0.302  0.00  0.00     0.017 A 
ATOM      6  C5  UNL d   1      -0.240   2.767   0.100  0.00  0.00     0.034 A 
ATOM      7 Cl   UNL d   1      -1.455   1.169   1.879  0.00  0.00    -0.070 Cl
ATOM      8 Cl1  UNL d   1      -3.438   0.407  -0.588  0.00  0.00    -0.070 Cl
ENDROOT
TORSDOF 0
ENDMDL
