MODEL 1
REMARK minimizedAffinity 5.50995398
REMARK minimizedRMSD -1
REMARK  0 active torsions:
REMARK  status: ('A' for Active; 'I' for Inactive)
ROOT
ATOM      1  C   UNL d   1       0.549   3.896   0.423  0.00  0.00     0.020 A 
ATOM      2  C1  UNL d   1      -0.061   2.944  -0.392  0.00  0.00     0.020 A 
ATOM      3  C2  UNL d   1      -0.582   1.775   0.168  0.00  0.00     0.034 A 
ATOM      4  C3  UNL d   1      -0.492   1.555   1.547  0.00  0.00     0.017 A 
ATOM      5  C4  UNL d   1       0.121   2.511   2.365  0.00  0.00     0.017 A 
ATOM      6  C5  UNL d   1       0.640   3.680   1.799  0.00  0.00     0.034 A 
ATOM      7 Cl   UNL d   1       0.270   2.310   4.075  0.00  0.00    -0.070 Cl
ATOM      8 Cl1  UNL d   1      -1.157   0.088   2.172  0.00  0.00    -0.070 Cl
ENDROOT
TORSDOF 0
ENDMDL
