MODEL 1
REMARK minimizedAffinity 5.54403305
REMARK minimizedRMSD -1
REMARK  0 active torsions:
REMARK  status: ('A' for Active; 'I' for Inactive)
ROOT
ATOM      1  C   UNL d   1      -5.340  -3.894  -0.342  0.00  0.00     0.020 A 
ATOM      2  C1  UNL d   1      -5.899  -3.606   0.903  0.00  0.00     0.020 A 
ATOM      3  C2  UNL d   1      -6.000  -2.281   1.333  0.00  0.00     0.034 A 
ATOM      4  C3  UNL d   1      -5.541  -1.240   0.518  0.00  0.00     0.017 A 
ATOM      5  C4  UNL d   1      -4.980  -1.530  -0.731  0.00  0.00     0.017 A 
ATOM      6  C5  UNL d   1      -4.882  -2.858  -1.157  0.00  0.00     0.034 A 
ATOM      7 Cl   UNL d   1      -4.392  -0.299  -1.792  0.00  0.00    -0.070 Cl
ATOM      8 Cl1  UNL d   1      -5.697   0.375   1.114  0.00  0.00    -0.070 Cl
ENDROOT
TORSDOF 0
ENDMDL
