MODEL 1
REMARK minimizedAffinity 18.2152729
REMARK minimizedRMSD -1
REMARK  0 active torsions:
REMARK  status: ('A' for Active; 'I' for Inactive)
ROOT
ATOM      1  C   UNL d   1      -1.267  -3.116   4.146  0.00  0.00     0.020 A 
ATOM      2  C1  UNL d   1      -0.507  -4.028   3.414  0.00  0.00     0.020 A 
ATOM      3  C2  UNL d   1       0.507  -3.572   2.569  0.00  0.00     0.034 A 
ATOM      4  C3  UNL d   1       0.764  -2.201   2.454  0.00  0.00     0.017 A 
ATOM      5  C4  UNL d   1       0.001  -1.287   3.189  0.00  0.00     0.017 A 
ATOM      6  C5  UNL d   1      -1.013  -1.749   4.034  0.00  0.00     0.034 A 
ATOM      7 Cl   UNL d   1       0.260   0.420   3.100  0.00  0.00    -0.070 Cl
ATOM      8 Cl1  UNL d   1       2.034  -1.709   1.390  0.00  0.00    -0.070 Cl
ENDROOT
TORSDOF 0
ENDMDL
