MODEL 1
REMARK minimizedAffinity -4.21432447
REMARK minimizedRMSD -1
REMARK  1 active torsions:
REMARK  status: ('A' for Active; 'I' for Inactive)
REMARK    1  A    between atoms: N_2  and  C1_3 
ROOT
ATOM      1  C1  UNL d   1       0.114   0.481   0.076  0.00  0.00     0.143 A 
ATOM      2  C2  UNL d   1      -0.281  -0.285   1.178  0.00  0.00    -0.057 A 
ATOM      3  C3  UNL d   1       0.434  -1.425   1.565  0.00  0.00     0.033 A 
ATOM      4  C4  UNL d   1       1.544  -1.838   0.836  0.00  0.00    -0.042 A 
ATOM      5  C5  UNL d   1       1.941  -1.107  -0.278  0.00  0.00     0.033 A 
ATOM      6  C6  UNL d   1       1.227   0.035  -0.655  0.00  0.00    -0.057 A 
ENDROOT
BRANCH   1   7
ATOM      7  N   UNL d   1      -0.611   1.568  -0.417  0.00  0.00    -0.732 N 
ATOM      8  C   UNL d   1      -1.623   1.378  -1.434  0.00  0.00     0.284 C 
ATOM      9  H3  UNL d   1      -0.876   2.223   0.315  0.00  0.00     0.395 HD
ENDBRANCH   1   7
TORSDOF 1
ENDMDL
