MODEL 1
REMARK minimizedAffinity -5.17814255
REMARK minimizedRMSD -1
REMARK  1 active torsions:
REMARK  status: ('A' for Active; 'I' for Inactive)
REMARK    1  A    between atoms: N_2  and  C1_3 
ROOT
ATOM      1  C1  UNL d   1       0.277  -0.309   0.491  0.00  0.00     0.143 A 
ATOM      2  C2  UNL d   1       1.457  -0.863  -0.017  0.00  0.00    -0.057 A 
ATOM      3  C3  UNL d   1       1.928  -2.103   0.431  0.00  0.00     0.033 A 
ATOM      4  C4  UNL d   1       1.241  -2.799   1.420  0.00  0.00    -0.042 A 
ATOM      5  C5  UNL d   1       0.079  -2.256   1.957  0.00  0.00     0.033 A 
ATOM      6  C6  UNL d   1      -0.390  -1.021   1.500  0.00  0.00    -0.057 A 
ENDROOT
BRANCH   1   7
ATOM      7  N   UNL d   1      -0.191   0.964   0.157  0.00  0.00    -0.732 N 
ATOM      8  C   UNL d   1      -1.241   1.590   0.932  0.00  0.00     0.284 C 
ATOM      9  H3  UNL d   1       0.560   1.595  -0.113  0.00  0.00     0.395 HD
ENDBRANCH   1   7
TORSDOF 1
ENDMDL
