MODEL 1
REMARK minimizedAffinity -3.86114359
REMARK minimizedRMSD -1
REMARK  1 active torsions:
REMARK  status: ('A' for Active; 'I' for Inactive)
REMARK    1  A    between atoms: N_2  and  C1_3 
ROOT
ATOM      1  C1  UNL d   1       0.570  -0.515   0.119  0.00  0.00     0.143 A 
ATOM      2  C2  UNL d   1       1.892  -0.972   0.145  0.00  0.00    -0.057 A 
ATOM      3  C3  UNL d   1       2.269  -2.058   0.944  0.00  0.00     0.033 A 
ATOM      4  C4  UNL d   1       1.334  -2.689   1.757  0.00  0.00    -0.042 A 
ATOM      5  C5  UNL d   1       0.019  -2.236   1.766  0.00  0.00     0.033 A 
ATOM      6  C6  UNL d   1      -0.353  -1.156   0.960  0.00  0.00    -0.057 A 
ENDROOT
BRANCH   1   7
ATOM      7  N   UNL d   1       0.154   0.621  -0.579  0.00  0.00    -0.732 N 
ATOM      8  C   UNL d   1      -1.110   1.255  -0.269  0.00  0.00     0.284 C 
ATOM      9  H3  UNL d   1       0.915   1.274  -0.749  0.00  0.00     0.395 HD
ENDBRANCH   1   7
TORSDOF 1
ENDMDL
