MODEL 1
REMARK minimizedAffinity -5.31710005
REMARK minimizedRMSD -1
REMARK  1 active torsions:
REMARK  status: ('A' for Active; 'I' for Inactive)
REMARK    1  A    between atoms: N_2  and  C1_3 
ROOT
ATOM      1  C1  UNL d   1      -0.318  -0.712   1.040  0.00  0.00     0.143 A 
ATOM      2  C2  UNL d   1      -0.900  -1.101   2.251  0.00  0.00    -0.057 A 
ATOM      3  C3  UNL d   1      -0.372  -2.157   3.004  0.00  0.00     0.033 A 
ATOM      4  C4  UNL d   1       0.734  -2.863   2.542  0.00  0.00    -0.042 A 
ATOM      5  C5  UNL d   1       1.314  -2.509   1.329  0.00  0.00     0.033 A 
ATOM      6  C6  UNL d   1       0.786  -1.450   0.585  0.00  0.00    -0.057 A 
ENDROOT
BRANCH   1   7
ATOM      7  N   UNL d   1      -0.855   0.265   0.198  0.00  0.00    -0.732 N 
ATOM      8  C   UNL d   1      -0.195   1.543   0.036  0.00  0.00     0.284 C 
ATOM      9  H3  UNL d   1      -1.221  -0.126  -0.667  0.00  0.00     0.395 HD
ENDBRANCH   1   7
TORSDOF 1
ENDMDL
