MODEL 1
REMARK minimizedAffinity -4.63868856
REMARK minimizedRMSD -1
REMARK  1 active torsions:
REMARK  status: ('A' for Active; 'I' for Inactive)
REMARK    1  A    between atoms: N_2  and  C1_3 
ROOT
ATOM      1  C1  UNL d   1      -0.585   3.365  -3.177  0.00  0.00     0.143 A 
ATOM      2  C2  UNL d   1      -0.842   2.516  -4.258  0.00  0.00    -0.057 A 
ATOM      3  C3  UNL d   1      -1.690   1.409  -4.127  0.00  0.00     0.033 A 
ATOM      4  C4  UNL d   1      -2.275   1.116  -2.899  0.00  0.00    -0.042 A 
ATOM      5  C5  UNL d   1      -2.013   1.932  -1.804  0.00  0.00     0.033 A 
ATOM      6  C6  UNL d   1      -1.171   3.039  -1.944  0.00  0.00    -0.057 A 
ENDROOT
BRANCH   1   7
ATOM      7  N   UNL d   1       0.326   4.424  -3.218  0.00  0.00    -0.732 N 
ATOM      8  C   UNL d   1       0.293   5.382  -4.302  0.00  0.00     0.284 C 
ATOM      9  H3  UNL d   1       0.483   4.837  -2.302  0.00  0.00     0.395 HD
ENDBRANCH   1   7
TORSDOF 1
ENDMDL
