MODEL 1
REMARK minimizedAffinity -4.44876432
REMARK minimizedRMSD -1
REMARK  1 active torsions:
REMARK  status: ('A' for Active; 'I' for Inactive)
REMARK    1  A    between atoms: N_2  and  C1_3 
ROOT
ATOM      1  C1  UNL d   1      -0.817   3.001  -4.063  0.00  0.00     0.143 A 
ATOM      2  C2  UNL d   1      -1.590   1.938  -4.540  0.00  0.00    -0.057 A 
ATOM      3  C3  UNL d   1      -2.275   1.087  -3.664  0.00  0.00     0.033 A 
ATOM      4  C4  UNL d   1      -2.176   1.269  -2.289  0.00  0.00    -0.042 A 
ATOM      5  C5  UNL d   1      -1.393   2.305  -1.791  0.00  0.00     0.033 A 
ATOM      6  C6  UNL d   1      -0.716   3.155  -2.671  0.00  0.00    -0.057 A 
ENDROOT
BRANCH   1   7
ATOM      7  N   UNL d   1      -0.033   3.821  -4.879  0.00  0.00    -0.732 N 
ATOM      8  C   UNL d   1       0.787   4.866  -4.304  0.00  0.00     0.284 C 
ATOM      9  H3  UNL d   1       0.419   3.303  -5.629  0.00  0.00     0.395 HD
ENDBRANCH   1   7
TORSDOF 1
ENDMDL
