MODEL 1
REMARK minimizedAffinity -4.00422049
REMARK minimizedRMSD -1
REMARK  1 active torsions:
REMARK  status: ('A' for Active; 'I' for Inactive)
REMARK    1  A    between atoms: N_2  and  C1_3 
ROOT
ATOM      1  C1  UNL d   1      -0.386  -0.349   0.594  0.00  0.00     0.143 A 
ATOM      2  C2  UNL d   1       0.823  -0.780   0.038  0.00  0.00    -0.057 A 
ATOM      3  C3  UNL d   1       1.519  -1.872   0.571  0.00  0.00     0.033 A 
ATOM      4  C4  UNL d   1       1.031  -2.536   1.691  0.00  0.00    -0.042 A 
ATOM      5  C5  UNL d   1      -0.157  -2.110   2.275  0.00  0.00     0.033 A 
ATOM      6  C6  UNL d   1      -0.851  -1.023   1.734  0.00  0.00    -0.057 A 
ENDROOT
BRANCH   1   7
ATOM      7  N   UNL d   1      -1.075   0.790   0.171  0.00  0.00    -0.732 N 
ATOM      8  C   UNL d   1      -0.662   1.501  -1.021  0.00  0.00     0.284 C 
ATOM      9  H3  UNL d   1      -2.083   0.694   0.268  0.00  0.00     0.395 HD
ENDBRANCH   1   7
TORSDOF 1
ENDMDL
