MODEL 1
REMARK minimizedAffinity -5.01353788
REMARK minimizedRMSD -1
REMARK  1 active torsions:
REMARK  status: ('A' for Active; 'I' for Inactive)
REMARK    1  A    between atoms: N_2  and  C1_3 
ROOT
ATOM      1  C1  UNL d   1      -1.320   2.417  -3.099  0.00  0.00     0.143 A 
ATOM      2  C2  UNL d   1      -1.219   2.360  -4.493  0.00  0.00    -0.057 A 
ATOM      3  C3  UNL d   1      -0.432   3.275  -5.202  0.00  0.00     0.033 A 
ATOM      4  C4  UNL d   1       0.249   4.284  -4.530  0.00  0.00    -0.042 A 
ATOM      5  C5  UNL d   1       0.145   4.375  -3.146  0.00  0.00     0.033 A 
ATOM      6  C6  UNL d   1      -0.639   3.454  -2.443  0.00  0.00    -0.057 A 
ENDROOT
BRANCH   1   7
ATOM      7  N   UNL d   1      -2.164   1.598  -2.346  0.00  0.00    -0.732 N 
ATOM      8  C   UNL d   1      -2.904   2.135  -1.224  0.00  0.00     0.284 C 
ATOM      9  H3  UNL d   1      -2.697   0.953  -2.925  0.00  0.00     0.395 HD
ENDBRANCH   1   7
TORSDOF 1
ENDMDL
