MODEL 1
REMARK minimizedAffinity -5.03556013
REMARK minimizedRMSD -1
REMARK  1 active torsions:
REMARK  status: ('A' for Active; 'I' for Inactive)
REMARK    1  A    between atoms: N_2  and  C1_3 
ROOT
ATOM      1  C1  UNL d   1      -0.632   3.156  -3.994  0.00  0.00     0.143 A 
ATOM      2  C2  UNL d   1      -0.336   3.005  -2.635  0.00  0.00    -0.057 A 
ATOM      3  C3  UNL d   1      -1.172   2.268  -1.787  0.00  0.00     0.033 A 
ATOM      4  C4  UNL d   1      -2.338   1.692  -2.279  0.00  0.00    -0.042 A 
ATOM      5  C5  UNL d   1      -2.665   1.849  -3.621  0.00  0.00     0.033 A 
ATOM      6  C6  UNL d   1      -1.823   2.580  -4.464  0.00  0.00    -0.057 A 
ENDROOT
BRANCH   1   7
ATOM      7  N   UNL d   1       0.107   3.958  -4.867  0.00  0.00    -0.732 N 
ATOM      8  C   UNL d   1       0.502   5.296  -4.482  0.00  0.00     0.284 C 
ATOM      9  H3  UNL d   1       0.831   3.436  -5.356  0.00  0.00     0.395 HD
ENDBRANCH   1   7
TORSDOF 1
ENDMDL
