MODEL 1
REMARK minimizedAffinity -3.53986192
REMARK minimizedRMSD -1
REMARK  1 active torsions:
REMARK  status: ('A' for Active; 'I' for Inactive)
REMARK    1  A    between atoms: N_2  and  C1_3 
ROOT
ATOM      1  C1  UNL d   1      -0.474   3.775  -4.235  0.00  0.00     0.143 A 
ATOM      2  C2  UNL d   1      -0.334   3.842  -2.845  0.00  0.00    -0.057 A 
ATOM      3  C3  UNL d   1      -0.901   2.872  -2.011  0.00  0.00     0.033 A 
ATOM      4  C4  UNL d   1      -1.646   1.829  -2.552  0.00  0.00    -0.042 A 
ATOM      5  C5  UNL d   1      -1.819   1.757  -3.930  0.00  0.00     0.033 A 
ATOM      6  C6  UNL d   1      -1.245   2.725  -4.758  0.00  0.00    -0.057 A 
ENDROOT
BRANCH   1   7
ATOM      7  N   UNL d   1      -0.017   4.763  -5.112  0.00  0.00    -0.732 N 
ATOM      8  C   UNL d   1       0.544   5.996  -4.604  0.00  0.00     0.284 C 
ATOM      9  H3  UNL d   1       0.484   4.374  -5.907  0.00  0.00     0.395 HD
ENDBRANCH   1   7
TORSDOF 1
ENDMDL
