MODEL 1
REMARK minimizedAffinity -2.84920812
REMARK minimizedRMSD -1
REMARK  1 active torsions:
REMARK  status: ('A' for Active; 'I' for Inactive)
REMARK    1  A    between atoms: N_2  and  C1_3 
ROOT
ATOM      1  C1  UNL d   1      -0.959   3.067  -3.572  0.00  0.00     0.143 A 
ATOM      2  C2  UNL d   1      -0.371   2.623  -2.382  0.00  0.00    -0.057 A 
ATOM      3  C3  UNL d   1      -1.084   1.837  -1.469  0.00  0.00     0.033 A 
ATOM      4  C4  UNL d   1      -2.412   1.503  -1.717  0.00  0.00    -0.042 A 
ATOM      5  C5  UNL d   1      -3.024   1.954  -2.881  0.00  0.00     0.033 A 
ATOM      6  C6  UNL d   1      -2.305   2.734  -3.792  0.00  0.00    -0.057 A 
ENDROOT
BRANCH   1   7
ATOM      7  N   UNL d   1      -0.335   3.934  -4.472  0.00  0.00    -0.732 N 
ATOM      8  C   UNL d   1       0.041   5.271  -4.068  0.00  0.00     0.284 C 
ATOM      9  H3  UNL d   1       0.360   3.462  -5.046  0.00  0.00     0.395 HD
ENDBRANCH   1   7
TORSDOF 1
ENDMDL
