MODEL 1
REMARK minimizedAffinity -4.76542616
REMARK minimizedRMSD -1
REMARK  1 active torsions:
REMARK  status: ('A' for Active; 'I' for Inactive)
REMARK    1  A    between atoms: N_2  and  C1_3 
ROOT
ATOM      1  C1  UNL d   1      -0.671   2.583  -3.700  0.00  0.00     0.143 A 
ATOM      2  C2  UNL d   1      -1.804   1.814  -3.987  0.00  0.00    -0.057 A 
ATOM      3  C3  UNL d   1      -2.459   1.085  -2.988  0.00  0.00     0.033 A 
ATOM      4  C4  UNL d   1      -1.973   1.088  -1.684  0.00  0.00    -0.042 A 
ATOM      5  C5  UNL d   1      -0.834   1.825  -1.381  0.00  0.00     0.033 A 
ATOM      6  C6  UNL d   1      -0.189   2.557  -2.382  0.00  0.00    -0.057 A 
ENDROOT
BRANCH   1   7
ATOM      7  N   UNL d   1       0.081   3.251  -4.669  0.00  0.00    -0.732 N 
ATOM      8  C   UNL d   1       0.869   4.414  -4.318  0.00  0.00     0.284 C 
ATOM      9  H3  UNL d   1       0.547   2.611  -5.309  0.00  0.00     0.395 HD
ENDBRANCH   1   7
TORSDOF 1
ENDMDL
