MODEL 1
REMARK minimizedAffinity -3.89868355
REMARK minimizedRMSD -1
REMARK  1 active torsions:
REMARK  status: ('A' for Active; 'I' for Inactive)
REMARK    1  A    between atoms: N_2  and  C1_3 
ROOT
ATOM      1  C1  UNL d   1      -0.404   2.672  -3.885  0.00  0.00     0.143 A 
ATOM      2  C2  UNL d   1      -0.108   2.693  -2.517  0.00  0.00    -0.057 A 
ATOM      3  C3  UNL d   1      -0.986   2.141  -1.576  0.00  0.00     0.033 A 
ATOM      4  C4  UNL d   1      -2.192   1.582  -1.986  0.00  0.00    -0.042 A 
ATOM      5  C5  UNL d   1      -2.517   1.572  -3.337  0.00  0.00     0.033 A 
ATOM      6  C6  UNL d   1      -1.634   2.119  -4.273  0.00  0.00    -0.057 A 
ENDROOT
BRANCH   1   7
ATOM      7  N   UNL d   1       0.381   3.293  -4.860  0.00  0.00    -0.732 N 
ATOM      8  C   UNL d   1       0.613   4.721  -4.821  0.00  0.00     0.284 C 
ATOM      9  H3  UNL d   1       1.204   2.745  -5.103  0.00  0.00     0.395 HD
ENDBRANCH   1   7
TORSDOF 1
ENDMDL
