MODEL 1
REMARK minimizedAffinity -3.13878083
REMARK minimizedRMSD -1
REMARK  1 active torsions:
REMARK  status: ('A' for Active; 'I' for Inactive)
REMARK    1  A    between atoms: N_2  and  C1_3 
ROOT
ATOM      1  C1  UNL d   1      -1.173   1.133  -1.299  0.00  0.00     0.143 A 
ATOM      2  C2  UNL d   1      -0.390   1.842  -2.217  0.00  0.00    -0.057 A 
ATOM      3  C3  UNL d   1      -0.889   2.193  -3.477  0.00  0.00     0.033 A 
ATOM      4  C4  UNL d   1      -2.173   1.813  -3.854  0.00  0.00    -0.042 A 
ATOM      5  C5  UNL d   1      -2.959   1.086  -2.968  0.00  0.00     0.033 A 
ATOM      6  C6  UNL d   1      -2.458   0.745  -1.708  0.00  0.00    -0.057 A 
ENDROOT
BRANCH   1   7
ATOM      7  N   UNL d   1      -0.700   0.670  -0.068  0.00  0.00    -0.732 N 
ATOM      8  C   UNL d   1       0.590   0.020   0.029  0.00  0.00     0.284 C 
ATOM      9  H3  UNL d   1      -0.898   1.316   0.692  0.00  0.00     0.395 HD
ENDBRANCH   1   7
TORSDOF 1
ENDMDL
