MODEL 1
REMARK minimizedAffinity -4.04494143
REMARK minimizedRMSD -1
REMARK  0 active torsions:
REMARK  status: ('A' for Active; 'I' for Inactive)
ROOT
ATOM      1  C   UNL d   1      -5.717  -1.145  -4.887  0.00  0.00    -0.002 A 
ATOM      2  C1  UNL d   1      -4.869  -1.460  -5.940  0.00  0.00     0.010 A 
ATOM      3  C2  UNL d   1      -4.245  -2.707  -6.000  0.00  0.00     0.041 A 
ATOM      4  C3  UNL d   1      -4.491  -3.642  -4.975  0.00  0.00    -0.075 A 
ATOM      5  S   UNL d   1      -3.838  -5.232  -4.841  0.00  0.00     0.015 SA
ATOM      6  C4  UNL d   1      -4.669  -5.531  -3.383  0.00  0.00     0.022 A 
ATOM      7  C5  UNL d   1      -5.431  -4.455  -2.994  0.00  0.00     0.026 A 
ATOM      8  C6  UNL d   1      -5.341  -3.349  -3.906  0.00  0.00    -0.082 A 
ATOM      9  C7  UNL d   1      -5.958  -2.075  -3.873  0.00  0.00     0.045 A 
ENDROOT
TORSDOF 0
ENDMDL
