MODEL 1
REMARK minimizedAffinity -2.49048257
REMARK minimizedRMSD -1
REMARK  0 active torsions:
REMARK  status: ('A' for Active; 'I' for Inactive)
ROOT
ATOM      1  C   UNL d   1      -1.770  -5.100  -4.599  0.00  0.00    -0.002 A 
ATOM      2  C1  UNL d   1      -2.301  -5.998  -5.514  0.00  0.00     0.010 A 
ATOM      3  C2  UNL d   1      -3.601  -5.834  -5.998  0.00  0.00     0.041 A 
ATOM      4  C3  UNL d   1      -4.364  -4.740  -5.543  0.00  0.00    -0.075 A 
ATOM      5  S   UNL d   1      -5.978  -4.339  -5.998  0.00  0.00     0.015 SA
ATOM      6  C4  UNL d   1      -6.000  -2.965  -4.989  0.00  0.00     0.022 A 
ATOM      7  C5  UNL d   1      -4.813  -2.802  -4.314  0.00  0.00     0.026 A 
ATOM      8  C6  UNL d   1      -3.851  -3.822  -4.623  0.00  0.00    -0.082 A 
ATOM      9  C7  UNL d   1      -2.531  -4.017  -4.150  0.00  0.00     0.045 A 
ENDROOT
TORSDOF 0
ENDMDL
