MODEL 1
REMARK minimizedAffinity -1.17680359
REMARK minimizedRMSD -1
REMARK  0 active torsions:
REMARK  status: ('A' for Active; 'I' for Inactive)
ROOT
ATOM      1  C   UNL d   1      -5.468  -2.193  -4.030  0.00  0.00    -0.002 A 
ATOM      2  C1  UNL d   1      -5.999  -2.562  -5.258  0.00  0.00     0.010 A 
ATOM      3  C2  UNL d   1      -5.515  -3.684  -5.933  0.00  0.00     0.041 A 
ATOM      4  C3  UNL d   1      -4.480  -4.438  -5.347  0.00  0.00    -0.075 A 
ATOM      5  S   UNL d   1      -3.730  -5.851  -5.991  0.00  0.00     0.015 SA
ATOM      6  C4  UNL d   1      -2.688  -5.999  -4.651  0.00  0.00     0.022 A 
ATOM      7  C5  UNL d   1      -2.892  -5.004  -3.726  0.00  0.00     0.026 A 
ATOM      8  C6  UNL d   1      -3.929  -4.087  -4.111  0.00  0.00    -0.082 A 
ATOM      9  C7  UNL d   1      -4.440  -2.944  -3.452  0.00  0.00     0.045 A 
ENDROOT
TORSDOF 0
ENDMDL
