MODEL 1
REMARK minimizedAffinity -3.79138803
REMARK minimizedRMSD -1
REMARK  0 active torsions:
REMARK  status: ('A' for Active; 'I' for Inactive)
ROOT
ATOM      1  C   UNL d   1      -5.076  -1.893  -5.294  0.00  0.00    -0.002 A 
ATOM      2  C1  UNL d   1      -5.999  -2.745  -4.704  0.00  0.00     0.010 A 
ATOM      3  C2  UNL d   1      -5.630  -4.037  -4.324  0.00  0.00     0.041 A 
ATOM      4  C3  UNL d   1      -4.306  -4.462  -4.548  0.00  0.00    -0.075 A 
ATOM      5  S   UNL d   1      -3.629  -6.000  -4.164  0.00  0.00     0.015 SA
ATOM      6  C4  UNL d   1      -2.099  -5.562  -4.774  0.00  0.00     0.022 A 
ATOM      7  C5  UNL d   1      -2.087  -4.277  -5.263  0.00  0.00     0.026 A 
ATOM      8  C6  UNL d   1      -3.359  -3.621  -5.140  0.00  0.00    -0.082 A 
ATOM      9  C7  UNL d   1      -3.763  -2.318  -5.515  0.00  0.00     0.045 A 
ENDROOT
TORSDOF 0
ENDMDL
