MODEL 1
REMARK minimizedAffinity -3.71146894
REMARK minimizedRMSD -1
REMARK  0 active torsions:
REMARK  status: ('A' for Active; 'I' for Inactive)
ROOT
ATOM      1  C   UNL d   1      -1.948  -6.000  -4.353  0.00  0.00    -0.002 A 
ATOM      2  C1  UNL d   1      -1.506  -5.198  -5.397  0.00  0.00     0.010 A 
ATOM      3  C2  UNL d   1      -2.350  -4.242  -5.965  0.00  0.00     0.041 A 
ATOM      4  C3  UNL d   1      -3.658  -4.102  -5.461  0.00  0.00    -0.075 A 
ATOM      5  S   UNL d   1      -4.867  -2.997  -6.000  0.00  0.00     0.015 SA
ATOM      6  C4  UNL d   1      -5.998  -3.562  -4.858  0.00  0.00     0.022 A 
ATOM      7  C5  UNL d   1      -5.483  -4.569  -4.076  0.00  0.00     0.026 A 
ATOM      8  C6  UNL d   1      -4.126  -4.897  -4.410  0.00  0.00    -0.082 A 
ATOM      9  C7  UNL d   1      -3.246  -5.858  -3.856  0.00  0.00     0.045 A 
ENDROOT
TORSDOF 0
ENDMDL
