MODEL 1
REMARK minimizedAffinity 2.04332662
REMARK minimizedRMSD -1
REMARK  0 active torsions:
REMARK  status: ('A' for Active; 'I' for Inactive)
ROOT
ATOM      1  C   UNL d   1      -1.073  -5.480  -3.300  0.00  0.00    -0.002 A 
ATOM      2  C1  UNL d   1      -2.000  -5.996  -2.406  0.00  0.00     0.010 A 
ATOM      3  C2  UNL d   1      -3.365  -5.962  -2.700  0.00  0.00     0.041 A 
ATOM      4  C3  UNL d   1      -3.785  -5.398  -3.921  0.00  0.00    -0.075 A 
ATOM      5  S   UNL d   1      -5.404  -5.249  -4.494  0.00  0.00     0.015 SA
ATOM      6  C4  UNL d   1      -4.903  -4.498  -5.940  0.00  0.00     0.022 A 
ATOM      7  C5  UNL d   1      -3.536  -4.357  -6.000  0.00  0.00     0.026 A 
ATOM      8  C6  UNL d   1      -2.870  -4.873  -4.838  0.00  0.00    -0.082 A 
ATOM      9  C7  UNL d   1      -1.493  -4.922  -4.510  0.00  0.00     0.045 A 
ENDROOT
TORSDOF 0
ENDMDL
