MODEL 1
REMARK minimizedAffinity -1.42807782
REMARK minimizedRMSD -1
REMARK  0 active torsions:
REMARK  status: ('A' for Active; 'I' for Inactive)
ROOT
ATOM      1  C   UNL d   1      -1.492  -5.079  -4.448  0.00  0.00    -0.002 A 
ATOM      2  C1  UNL d   1      -1.832  -5.972  -5.454  0.00  0.00     0.010 A 
ATOM      3  C2  UNL d   1      -3.121  -5.981  -5.990  0.00  0.00     0.041 A 
ATOM      4  C3  UNL d   1      -4.072  -5.068  -5.494  0.00  0.00    -0.075 A 
ATOM      5  S   UNL d   1      -5.711  -4.897  -6.000  0.00  0.00     0.015 SA
ATOM      6  C4  UNL d   1      -5.999  -3.633  -4.893  0.00  0.00     0.022 A 
ATOM      7  C5  UNL d   1      -4.882  -3.337  -4.147  0.00  0.00     0.026 A 
ATOM      8  C6  UNL d   1      -3.753  -4.158  -4.482  0.00  0.00    -0.082 A 
ATOM      9  C7  UNL d   1      -2.438  -4.174  -3.959  0.00  0.00     0.045 A 
ENDROOT
TORSDOF 0
ENDMDL
