MODEL 1
REMARK minimizedAffinity 3.96401596
REMARK minimizedRMSD -1
REMARK  0 active torsions:
REMARK  status: ('A' for Active; 'I' for Inactive)
ROOT
ATOM      1  C   UNL d   1      -3.360  -5.731  -3.943  0.00  0.00    -0.002 A 
ATOM      2  C1  UNL d   1      -3.634  -5.937  -5.287  0.00  0.00     0.010 A 
ATOM      3  C2  UNL d   1      -4.422  -5.030  -5.999  0.00  0.00     0.041 A 
ATOM      4  C3  UNL d   1      -4.933  -3.900  -5.330  0.00  0.00    -0.075 A 
ATOM      5  S   UNL d   1      -5.920  -2.655  -5.999  0.00  0.00     0.015 SA
ATOM      6  C4  UNL d   1      -6.000  -1.819  -4.516  0.00  0.00     0.022 A 
ATOM      7  C5  UNL d   1      -5.296  -2.460  -3.524  0.00  0.00     0.026 A 
ATOM      8  C6  UNL d   1      -4.669  -3.670  -3.977  0.00  0.00    -0.082 A 
ATOM      9  C7  UNL d   1      -3.868  -4.609  -3.283  0.00  0.00     0.045 A 
ENDROOT
TORSDOF 0
ENDMDL
