MODEL 1
REMARK minimizedAffinity 3.83231592
REMARK minimizedRMSD -1
REMARK  0 active torsions:
REMARK  status: ('A' for Active; 'I' for Inactive)
ROOT
ATOM      1  C   UNL d   1      -1.489  -6.000  -5.207  0.00  0.00    -0.002 A 
ATOM      2  C1  UNL d   1      -1.482  -5.859  -3.827  0.00  0.00     0.010 A 
ATOM      3  C2  UNL d   1      -2.238  -4.860  -3.211  0.00  0.00     0.041 A 
ATOM      4  C3  UNL d   1      -3.010  -3.997  -4.013  0.00  0.00    -0.075 A 
ATOM      5  S   UNL d   1      -4.015  -2.702  -3.479  0.00  0.00     0.015 SA
ATOM      6  C4  UNL d   1      -4.477  -2.305  -5.070  0.00  0.00     0.022 A 
ATOM      7  C5  UNL d   1      -3.889  -3.130  -5.999  0.00  0.00     0.026 A 
ATOM      8  C6  UNL d   1      -3.034  -4.119  -5.405  0.00  0.00    -0.082 A 
ATOM      9  C7  UNL d   1      -2.256  -5.142  -6.000  0.00  0.00     0.045 A 
ENDROOT
TORSDOF 0
ENDMDL
