MODEL 1
REMARK minimizedAffinity -1.51417816
REMARK minimizedRMSD -1
REMARK  0 active torsions:
REMARK  status: ('A' for Active; 'I' for Inactive)
ROOT
ATOM      1  C   UNL d   1      -1.530  -4.874  -5.135  0.00  0.00    -0.002 A 
ATOM      2  C1  UNL d   1      -2.108  -5.952  -5.791  0.00  0.00     0.010 A 
ATOM      3  C2  UNL d   1      -3.488  -6.000  -5.998  0.00  0.00     0.041 A 
ATOM      4  C3  UNL d   1      -4.284  -4.935  -5.532  0.00  0.00    -0.075 A 
ATOM      5  S   UNL d   1      -5.995  -4.778  -5.674  0.00  0.00     0.015 SA
ATOM      6  C4  UNL d   1      -5.999  -3.276  -4.868  0.00  0.00     0.022 A 
ATOM      7  C5  UNL d   1      -4.734  -2.889  -4.493  0.00  0.00     0.026 A 
ATOM      8  C6  UNL d   1      -3.725  -3.839  -4.870  0.00  0.00    -0.082 A 
ATOM      9  C7  UNL d   1      -2.323  -3.820  -4.674  0.00  0.00     0.045 A 
ENDROOT
TORSDOF 0
ENDMDL
