MODEL 1
REMARK minimizedAffinity 8.29949188
REMARK minimizedRMSD -1
REMARK  0 active torsions:
REMARK  status: ('A' for Active; 'I' for Inactive)
ROOT
ATOM      1  C   UNL d   1      -4.872  -1.464  -5.557  0.00  0.00    -0.002 A 
ATOM      2  C1  UNL d   1      -5.991  -2.265  -5.376  0.00  0.00     0.010 A 
ATOM      3  C2  UNL d   1      -5.879  -3.656  -5.397  0.00  0.00     0.041 A 
ATOM      4  C3  UNL d   1      -4.612  -4.235  -5.604  0.00  0.00    -0.075 A 
ATOM      5  S   UNL d   1      -4.235  -5.917  -5.668  0.00  0.00     0.015 SA
ATOM      6  C4  UNL d   1      -2.580  -5.612  -5.937  0.00  0.00     0.022 A 
ATOM      7  C5  UNL d   1      -2.304  -4.266  -5.980  0.00  0.00     0.026 A 
ATOM      8  C6  UNL d   1      -3.470  -3.450  -5.788  0.00  0.00    -0.082 A 
ATOM      9  C7  UNL d   1      -3.616  -2.042  -5.762  0.00  0.00     0.045 A 
ENDROOT
TORSDOF 0
ENDMDL
