MODEL 1
REMARK minimizedAffinity 5.41357565
REMARK minimizedRMSD -1
REMARK  0 active torsions:
REMARK  status: ('A' for Active; 'I' for Inactive)
ROOT
ATOM      1  C   UNL d   1      -3.699  -2.621  -3.112  0.00  0.00    -0.002 A 
ATOM      2  C1  UNL d   1      -4.539  -2.893  -4.183  0.00  0.00     0.010 A 
ATOM      3  C2  UNL d   1      -4.198  -3.865  -5.125  0.00  0.00     0.041 A 
ATOM      4  C3  UNL d   1      -2.987  -4.569  -4.970  0.00  0.00    -0.075 A 
ATOM      5  S   UNL d   1      -2.363  -5.803  -6.000  0.00  0.00     0.015 SA
ATOM      6  C4  UNL d   1      -0.967  -6.000  -5.042  0.00  0.00     0.022 A 
ATOM      7  C5  UNL d   1      -0.960  -5.152  -3.960  0.00  0.00     0.026 A 
ATOM      8  C6  UNL d   1      -2.125  -4.314  -3.900  0.00  0.00    -0.082 A 
ATOM      9  C7  UNL d   1      -2.498  -3.321  -2.962  0.00  0.00     0.045 A 
ENDROOT
TORSDOF 0
ENDMDL
