MODEL 1
REMARK minimizedAffinity 3.94203234
REMARK minimizedRMSD -1
REMARK  0 active torsions:
REMARK  status: ('A' for Active; 'I' for Inactive)
ROOT
ATOM      1  C   UNL d   1      -5.893  -2.276  -3.865  0.00  0.00    -0.002 A 
ATOM      2  C1  UNL d   1      -5.998  -2.345  -5.247  0.00  0.00     0.010 A 
ATOM      3  C2  UNL d   1      -5.133  -3.155  -5.985  0.00  0.00     0.041 A 
ATOM      4  C3  UNL d   1      -4.152  -3.902  -5.304  0.00  0.00    -0.075 A 
ATOM      5  S   UNL d   1      -2.984  -4.962  -6.000  0.00  0.00     0.015 SA
ATOM      6  C4  UNL d   1      -2.318  -5.348  -4.479  0.00  0.00     0.022 A 
ATOM      7  C5  UNL d   1      -2.960  -4.693  -3.454  0.00  0.00     0.026 A 
ATOM      8  C6  UNL d   1      -4.027  -3.849  -3.913  0.00  0.00    -0.082 A 
ATOM      9  C7  UNL d   1      -4.919  -3.018  -3.193  0.00  0.00     0.045 A 
ENDROOT
TORSDOF 0
ENDMDL
