MODEL 1
REMARK minimizedAffinity 3.65544128
REMARK minimizedRMSD -1
REMARK  0 active torsions:
REMARK  status: ('A' for Active; 'I' for Inactive)
ROOT
ATOM      1  C   UNL d   1      -2.259  -5.109  -3.995  0.00  0.00    -0.002 A 
ATOM      2  C1  UNL d   1      -2.537  -5.470  -5.306  0.00  0.00     0.010 A 
ATOM      3  C2  UNL d   1      -3.590  -4.872  -6.000  0.00  0.00     0.041 A 
ATOM      4  C3  UNL d   1      -4.367  -3.893  -5.348  0.00  0.00    -0.075 A 
ATOM      5  S   UNL d   1      -5.706  -3.025  -6.000  0.00  0.00     0.015 SA
ATOM      6  C4  UNL d   1      -5.941  -2.154  -4.554  0.00  0.00     0.022 A 
ATOM      7  C5  UNL d   1      -5.029  -2.505  -3.587  0.00  0.00     0.026 A 
ATOM      8  C6  UNL d   1      -4.106  -3.512  -4.029  0.00  0.00    -0.082 A 
ATOM      9  C7  UNL d   1      -3.032  -4.139  -3.352  0.00  0.00     0.045 A 
ENDROOT
TORSDOF 0
ENDMDL
