MODEL 1
REMARK minimizedAffinity 5.97486019
REMARK minimizedRMSD -1
REMARK  1 active torsions:
REMARK  status: ('A' for Active; 'I' for Inactive)
REMARK    1  A    between atoms: C1_2  and  C2_3 
ROOT
ATOM      1  C2  UNL d   1      -0.432  -1.191   2.034  0.00  0.00    -0.081 A 
ATOM      2  C3  UNL d   1      -0.028  -2.380   2.652  0.00  0.00     0.006 A 
ATOM      3  C4  UNL d   1       1.049  -3.111   2.144  0.00  0.00     0.002 A 
ATOM      4  C5  UNL d   1       1.743  -2.662   1.016  0.00  0.00    -0.080 A 
ATOM      5  C6  UNL d   1       2.919  -3.421   0.479  0.00  0.00     0.076 C 
ATOM      6  C7  UNL d   1       1.327  -1.483   0.388  0.00  0.00     0.002 A 
ATOM      7  C8  UNL d   1       0.251  -0.752   0.895  0.00  0.00     0.006 A 
ENDROOT
BRANCH   1   8
ATOM      8  C1  UNL d   1      -1.552  -0.366   2.618  0.00  0.00     0.054 C 
ATOM      9  C   UNL d   1      -2.519   0.096   1.537  0.00  0.00     0.018 C 
ENDBRANCH   1   8
TORSDOF 1
ENDMDL
