MODEL 1
REMARK minimizedAffinity 15.345787
REMARK minimizedRMSD -1
REMARK  1 active torsions:
REMARK  status: ('A' for Active; 'I' for Inactive)
REMARK    1  A    between atoms: C1_2  and  C2_3 
ROOT
ATOM      1  C2  UNL d   1      -0.297   3.797  -5.079  0.00  0.00    -0.081 A 
ATOM      2  C3  UNL d   1      -1.297   2.951  -5.573  0.00  0.00     0.006 A 
ATOM      3  C4  UNL d   1      -2.306   2.479  -4.731  0.00  0.00     0.002 A 
ATOM      4  C5  UNL d   1      -2.337   2.851  -3.382  0.00  0.00    -0.080 A 
ATOM      5  C6  UNL d   1      -3.432   2.376  -2.474  0.00  0.00     0.076 C 
ATOM      6  C7  UNL d   1      -1.328   3.682  -2.884  0.00  0.00     0.002 A 
ATOM      7  C8  UNL d   1      -0.318   4.153  -3.726  0.00  0.00     0.006 A 
ENDROOT
BRANCH   1   8
ATOM      8  C1  UNL d   1       0.756   4.359  -5.999  0.00  0.00     0.054 C 
ATOM      9  C   UNL d   1       0.735   5.881  -5.999  0.00  0.00     0.018 C 
ENDBRANCH   1   8
TORSDOF 1
ENDMDL
