MODEL 1
REMARK minimizedAffinity 7.68000603
REMARK minimizedRMSD -1
REMARK  1 active torsions:
REMARK  status: ('A' for Active; 'I' for Inactive)
REMARK    1  A    between atoms: C1_2  and  C2_3 
ROOT
ATOM      1  C2  UNL d   1      -1.698  -0.120   1.353  0.00  0.00    -0.081 A 
ATOM      2  C3  UNL d   1      -2.388  -0.900   0.417  0.00  0.00     0.006 A 
ATOM      3  C4  UNL d   1      -3.779  -1.012   0.477  0.00  0.00     0.002 A 
ATOM      4  C5  UNL d   1      -4.503  -0.341   1.467  0.00  0.00    -0.080 A 
ATOM      5  C6  UNL d   1      -6.000  -0.428   1.524  0.00  0.00     0.076 C 
ATOM      6  C7  UNL d   1      -3.813   0.425   2.413  0.00  0.00     0.002 A 
ATOM      7  C8  UNL d   1      -2.422   0.537   2.354  0.00  0.00     0.006 A 
ENDROOT
BRANCH   1   8
ATOM      8  C1  UNL d   1      -0.204   0.055   1.253  0.00  0.00     0.054 C 
ATOM      9  C   UNL d   1       0.415  -0.988   0.333  0.00  0.00     0.018 C 
ENDBRANCH   1   8
TORSDOF 1
ENDMDL
