MODEL 1
REMARK minimizedAffinity 0.498121202
REMARK minimizedRMSD -1
REMARK  2 active torsions:
REMARK  status: ('A' for Active; 'I' for Inactive)
REMARK    1  A    between atoms: C1_2  and  C2_3 
REMARK    2  A    between atoms: C2_3  and  C3_4 
ROOT
ATOM      1  C3  UNL d   1       0.020   2.513   0.968  0.00  0.00    -0.075 A 
ATOM      2  C4  UNL d   1      -0.260   2.733  -0.389  0.00  0.00     0.002 A 
ATOM      3  C5  UNL d   1      -0.642   1.675  -1.214  0.00  0.00     0.002 A 
ATOM      4  C6  UNL d   1      -0.738   0.384  -0.698  0.00  0.00    -0.004 A 
ATOM      5  C7  UNL d   1      -0.445   0.151   0.644  0.00  0.00     0.002 A 
ATOM      6  C8  UNL d   1      -0.067   1.209   1.473  0.00  0.00     0.002 A 
ENDROOT
BRANCH   1   7
ATOM      7  C2  UNL d   1       0.405   3.658   1.873  0.00  0.00     0.056 C 
BRANCH   7   8
ATOM      8  C1  UNL d   1       1.896   3.699   2.228  0.00  0.00     0.007 C 
ATOM      9  C   UNL d   1       2.181   3.291   3.667  0.00  0.00     0.009 C 
ENDBRANCH   7   8
ENDBRANCH   1   7
TORSDOF 2
ENDMDL
