MODEL 1
REMARK minimizedAffinity 1.42689061
REMARK minimizedRMSD -1
REMARK  2 active torsions:
REMARK  status: ('A' for Active; 'I' for Inactive)
REMARK    1  A    between atoms: C1_2  and  C2_3 
REMARK    2  A    between atoms: C2_3  and  C3_4 
ROOT
ATOM      1  C3  UNL d   1      -0.603   2.230  -1.484  0.00  0.00    -0.075 A 
ATOM      2  C4  UNL d   1      -1.968   2.142  -1.792  0.00  0.00     0.002 A 
ATOM      3  C5  UNL d   1      -2.511   0.949  -2.270  0.00  0.00     0.002 A 
ATOM      4  C6  UNL d   1      -1.696  -0.165  -2.456  0.00  0.00    -0.004 A 
ATOM      5  C7  UNL d   1      -0.335  -0.084  -2.169  0.00  0.00     0.002 A 
ATOM      6  C8  UNL d   1       0.210   1.107  -1.686  0.00  0.00     0.002 A 
ENDROOT
BRANCH   1   7
ATOM      7  C2  UNL d   1      -0.015   3.510  -0.938  0.00  0.00     0.056 C 
BRANCH   7   8
ATOM      8  C1  UNL d   1      -0.047   4.682  -1.925  0.00  0.00     0.007 C 
ATOM      9  C   UNL d   1      -0.453   6.000  -1.278  0.00  0.00     0.009 C 
ENDBRANCH   7   8
ENDBRANCH   1   7
TORSDOF 2
ENDMDL
