MODEL 1
REMARK minimizedAffinity 2.22527003
REMARK minimizedRMSD -1
REMARK  2 active torsions:
REMARK  status: ('A' for Active; 'I' for Inactive)
REMARK    1  A    between atoms: C1_2  and  C2_3 
REMARK    2  A    between atoms: C2_3  and  C3_4 
ROOT
ATOM      1  C3  UNL d   1      -0.685   3.068  -1.395  0.00  0.00    -0.075 A 
ATOM      2  C4  UNL d   1       0.110   4.151  -0.991  0.00  0.00     0.002 A 
ATOM      3  C5  UNL d   1      -0.217   5.451  -1.375  0.00  0.00     0.002 A 
ATOM      4  C6  UNL d   1      -1.335   5.685  -2.174  0.00  0.00    -0.004 A 
ATOM      5  C7  UNL d   1      -2.122   4.616  -2.594  0.00  0.00     0.002 A 
ATOM      6  C8  UNL d   1      -1.800   3.313  -2.208  0.00  0.00     0.002 A 
ENDROOT
BRANCH   1   7
ATOM      7  C2  UNL d   1      -0.353   1.661  -0.959  0.00  0.00     0.056 C 
BRANCH   7   8
ATOM      8  C1  UNL d   1      -0.896   0.574  -1.893  0.00  0.00     0.007 C 
ATOM      9  C   UNL d   1       0.084  -0.571  -2.114  0.00  0.00     0.009 C 
ENDBRANCH   7   8
ENDBRANCH   1   7
TORSDOF 2
ENDMDL
