MODEL 1
REMARK minimizedAffinity -2.70484281
REMARK minimizedRMSD -1
REMARK  2 active torsions:
REMARK  status: ('A' for Active; 'I' for Inactive)
REMARK    1  A    between atoms: C1_2  and  C2_3 
REMARK    2  A    between atoms: C2_3  and  C3_4 
ROOT
ATOM      1  C3  UNL d   1       0.173   1.883   0.211  0.00  0.00    -0.075 A 
ATOM      2  C4  UNL d   1       0.597   3.213   0.074  0.00  0.00     0.002 A 
ATOM      3  C5  UNL d   1       1.070   3.923   1.177  0.00  0.00     0.002 A 
ATOM      4  C6  UNL d   1       1.117   3.318   2.431  0.00  0.00    -0.004 A 
ATOM      5  C7  UNL d   1       0.684   2.002   2.582  0.00  0.00     0.002 A 
ATOM      6  C8  UNL d   1       0.213   1.288   1.479  0.00  0.00     0.002 A 
ENDROOT
BRANCH   1   7
ATOM      7  C2  UNL d   1      -0.313   1.099  -0.985  0.00  0.00     0.056 C 
BRANCH   7   8
ATOM      8  C1  UNL d   1      -1.225   1.896  -1.923  0.00  0.00     0.007 C 
ATOM      9  C   UNL d   1      -2.648   1.356  -1.978  0.00  0.00     0.009 C 
ENDBRANCH   7   8
ENDBRANCH   1   7
TORSDOF 2
ENDMDL
