MODEL 1
REMARK minimizedAffinity -3.19350171
REMARK minimizedRMSD -1
REMARK  2 active torsions:
REMARK  status: ('A' for Active; 'I' for Inactive)
REMARK    1  A    between atoms: C1_2  and  C2_3 
REMARK    2  A    between atoms: C2_3  and  C3_4 
ROOT
ATOM      1  C3  UNL d   1      -0.352   2.409  -0.324  0.00  0.00    -0.075 A 
ATOM      2  C4  UNL d   1      -0.169   2.714   1.033  0.00  0.00     0.002 A 
ATOM      3  C5  UNL d   1       0.103   1.703   1.955  0.00  0.00     0.002 A 
ATOM      4  C6  UNL d   1       0.187   0.377   1.535  0.00  0.00    -0.004 A 
ATOM      5  C7  UNL d   1      -0.009   0.061   0.193  0.00  0.00     0.002 A 
ATOM      6  C8  UNL d   1      -0.277   1.071  -0.733  0.00  0.00     0.002 A 
ENDROOT
BRANCH   1   7
ATOM      7  C2  UNL d   1      -0.618   3.502  -1.332  0.00  0.00     0.056 C 
BRANCH   7   8
ATOM      8  C1  UNL d   1       0.142   4.804  -1.056  0.00  0.00     0.007 C 
ATOM      9  C   UNL d   1      -0.776   5.993  -0.804  0.00  0.00     0.009 C 
ENDBRANCH   7   8
ENDBRANCH   1   7
TORSDOF 2
ENDMDL
