MODEL 1
REMARK minimizedAffinity -4.92763329
REMARK minimizedRMSD -1
REMARK  2 active torsions:
REMARK  status: ('A' for Active; 'I' for Inactive)
REMARK    1  A    between atoms: C1_2  and  C2_3 
REMARK    2  A    between atoms: C2_3  and  C3_4 
ROOT
ATOM      1  C3  UNL d   1      -0.143   1.900  -0.321  0.00  0.00    -0.075 A 
ATOM      2  C4  UNL d   1      -0.114   1.382   0.981  0.00  0.00     0.002 A 
ATOM      3  C5  UNL d   1       0.259   2.189   2.057  0.00  0.00     0.002 A 
ATOM      4  C6  UNL d   1       0.616   3.518   1.843  0.00  0.00    -0.004 A 
ATOM      5  C7  UNL d   1       0.607   4.039   0.551  0.00  0.00     0.002 A 
ATOM      6  C8  UNL d   1       0.230   3.235  -0.527  0.00  0.00     0.002 A 
ENDROOT
BRANCH   1   7
ATOM      7  C2  UNL d   1      -0.574   1.040  -1.485  0.00  0.00     0.056 C 
BRANCH   7   8
ATOM      8  C1  UNL d   1      -2.045   1.214  -1.879  0.00  0.00     0.007 C 
ATOM      9  C   UNL d   1      -2.582   0.063  -2.719  0.00  0.00     0.009 C 
ENDBRANCH   7   8
ENDBRANCH   1   7
TORSDOF 2
ENDMDL
