MODEL 1
REMARK minimizedAffinity -1.75448501
REMARK minimizedRMSD -1
REMARK  0 active torsions:
REMARK  status: ('A' for Active; 'I' for Inactive)
ROOT
ATOM      1  C   UNL d   1      -0.126  -2.594   0.979  0.00  0.00     0.020 A 
ATOM      2  C1  UNL d   1      -0.780  -1.756   0.075  0.00  0.00     0.020 A 
ATOM      3  C2  UNL d   1      -0.125  -0.633  -0.434  0.00  0.00     0.034 A 
ATOM      4  C3  UNL d   1       1.187  -0.345  -0.041  0.00  0.00     0.017 A 
ATOM      5  C4  UNL d   1       1.842  -1.186   0.866  0.00  0.00     0.017 A 
ATOM      6  C5  UNL d   1       1.181  -2.309   1.373  0.00  0.00     0.034 A 
ATOM      7 Cl   UNL d   1       3.460  -0.895   1.398  0.00  0.00    -0.070 Cl
ATOM      8 Cl1  UNL d   1       1.936   1.061  -0.712  0.00  0.00    -0.070 Cl
ENDROOT
TORSDOF 0
ENDMDL
