MODEL 1
REMARK minimizedAffinity -1.3106786
REMARK minimizedRMSD -1
REMARK  0 active torsions:
REMARK  status: ('A' for Active; 'I' for Inactive)
ROOT
ATOM      1  C   UNL d   1      -2.566   2.185  -2.898  0.00  0.00     0.020 A 
ATOM      2  C1  UNL d   1      -1.942   1.058  -3.433  0.00  0.00     0.020 A 
ATOM      3  C2  UNL d   1      -1.164   0.236  -2.615  0.00  0.00     0.034 A 
ATOM      4  C3  UNL d   1      -1.008   0.539  -1.257  0.00  0.00     0.017 A 
ATOM      5  C4  UNL d   1      -1.635   1.670  -0.721  0.00  0.00     0.017 A 
ATOM      6  C5  UNL d   1      -2.412   2.490  -1.545  0.00  0.00     0.034 A 
ATOM      7 Cl   UNL d   1      -1.489   2.109   0.944  0.00  0.00    -0.070 Cl
ATOM      8 Cl1  UNL d   1      -0.033  -0.522  -0.304  0.00  0.00    -0.070 Cl
ENDROOT
TORSDOF 0
ENDMDL
