MODEL 1
REMARK minimizedAffinity 0.823698044
REMARK minimizedRMSD -1
REMARK  0 active torsions:
REMARK  status: ('A' for Active; 'I' for Inactive)
ROOT
ATOM      1  C   UNL d   1      -0.959   1.522  -0.772  0.00  0.00     0.020 A 
ATOM      2  C1  UNL d   1      -1.162   0.147  -0.670  0.00  0.00     0.020 A 
ATOM      3  C2  UNL d   1      -0.111  -0.687  -0.280  0.00  0.00     0.034 A 
ATOM      4  C3  UNL d   1       1.146  -0.146   0.009  0.00  0.00     0.017 A 
ATOM      5  C4  UNL d   1       1.349   1.235  -0.094  0.00  0.00     0.017 A 
ATOM      6  C5  UNL d   1       0.294   2.065  -0.484  0.00  0.00     0.034 A 
ATOM      7 Cl   UNL d   1       2.873   1.976   0.247  0.00  0.00    -0.070 Cl
ATOM      8 Cl1  UNL d   1       2.400  -1.236   0.485  0.00  0.00    -0.070 Cl
ENDROOT
TORSDOF 0
ENDMDL
