MODEL 1
REMARK minimizedAffinity -4.50193787
REMARK minimizedRMSD -1
REMARK  0 active torsions:
REMARK  status: ('A' for Active; 'I' for Inactive)
ROOT
ATOM      1  C   UNL d   1       0.902   0.886  -0.514  0.00  0.00     0.020 A 
ATOM      2  C1  UNL d   1      -0.279   1.429  -0.009  0.00  0.00     0.020 A 
ATOM      3  C2  UNL d   1      -1.026   0.721   0.935  0.00  0.00     0.034 A 
ATOM      4  C3  UNL d   1      -0.592  -0.535   1.377  0.00  0.00     0.017 A 
ATOM      5  C4  UNL d   1       0.593  -1.079   0.869  0.00  0.00     0.017 A 
ATOM      6  C5  UNL d   1       1.337  -0.365  -0.075  0.00  0.00     0.034 A 
ATOM      7 Cl   UNL d   1       1.192  -2.622   1.367  0.00  0.00    -0.070 Cl
ATOM      8 Cl1  UNL d   1      -1.565  -1.354   2.546  0.00  0.00    -0.070 Cl
ENDROOT
TORSDOF 0
ENDMDL
