MODEL 1
REMARK minimizedAffinity -4.49738264
REMARK minimizedRMSD -1
REMARK  0 active torsions:
REMARK  status: ('A' for Active; 'I' for Inactive)
ROOT
ATOM      1  C   UNL d   1      -0.223  -2.300   1.879  0.00  0.00     0.020 A 
ATOM      2  C1  UNL d   1       1.137  -2.459   1.618  0.00  0.00     0.020 A 
ATOM      3  C2  UNL d   1       1.800  -1.552   0.789  0.00  0.00     0.034 A 
ATOM      4  C3  UNL d   1       1.102  -0.482   0.217  0.00  0.00     0.017 A 
ATOM      5  C4  UNL d   1      -0.264  -0.323   0.479  0.00  0.00     0.017 A 
ATOM      6  C5  UNL d   1      -0.922  -1.234   1.310  0.00  0.00     0.034 A 
ATOM      7 Cl   UNL d   1      -1.191   0.972  -0.191  0.00  0.00    -0.070 Cl
ATOM      8 Cl1  UNL d   1       1.985   0.602  -0.799  0.00  0.00    -0.070 Cl
ENDROOT
TORSDOF 0
ENDMDL
