MODEL 1
REMARK minimizedAffinity -3.89730763
REMARK minimizedRMSD -1
REMARK  0 active torsions:
REMARK  status: ('A' for Active; 'I' for Inactive)
ROOT
ATOM      1  C   UNL d   1       2.290  -1.035  -0.737  0.00  0.00     0.020 A 
ATOM      2  C1  UNL d   1       2.042  -2.099   0.129  0.00  0.00     0.020 A 
ATOM      3  C2  UNL d   1       0.948  -2.054   0.996  0.00  0.00     0.034 A 
ATOM      4  C3  UNL d   1       0.098  -0.943   0.999  0.00  0.00     0.017 A 
ATOM      5  C4  UNL d   1       0.347   0.125   0.129  0.00  0.00     0.017 A 
ATOM      6  C5  UNL d   1       1.444   0.075  -0.737  0.00  0.00     0.034 A 
ATOM      7 Cl   UNL d   1      -0.658   1.530   0.075  0.00  0.00    -0.070 Cl
ATOM      8 Cl1  UNL d   1      -1.236  -0.955   2.097  0.00  0.00    -0.070 Cl
ENDROOT
TORSDOF 0
ENDMDL
