MODEL 1
REMARK minimizedAffinity -5.02641916
REMARK minimizedRMSD -1
REMARK  0 active torsions:
REMARK  status: ('A' for Active; 'I' for Inactive)
ROOT
ATOM      1  C   UNL d   1       1.182  -1.943   1.244  0.00  0.00     0.020 A 
ATOM      2  C1  UNL d   1      -0.142  -1.553   1.438  0.00  0.00     0.020 A 
ATOM      3  C2  UNL d   1      -0.652  -0.450   0.750  0.00  0.00     0.034 A 
ATOM      4  C3  UNL d   1       0.162   0.266  -0.135  0.00  0.00     0.017 A 
ATOM      5  C4  UNL d   1       1.491  -0.127  -0.329  0.00  0.00     0.017 A 
ATOM      6  C5  UNL d   1       1.997  -1.232   0.362  0.00  0.00     0.034 A 
ATOM      7 Cl   UNL d   1       2.557   0.707  -1.404  0.00  0.00    -0.070 Cl
ATOM      8 Cl1  UNL d   1      -0.535   1.620  -0.952  0.00  0.00    -0.070 Cl
ENDROOT
TORSDOF 0
ENDMDL
