MODEL 1
REMARK minimizedAffinity -0.55724299
REMARK minimizedRMSD -1
REMARK  0 active torsions:
REMARK  status: ('A' for Active; 'I' for Inactive)
ROOT
ATOM      1  C   UNL d   1      -1.028  -0.669   0.282  0.00  0.00     0.020 A 
ATOM      2  C1  UNL d   1      -0.762  -1.834   1.000  0.00  0.00     0.020 A 
ATOM      3  C2  UNL d   1       0.542  -2.119   1.409  0.00  0.00     0.034 A 
ATOM      4  C3  UNL d   1       1.585  -1.239   1.100  0.00  0.00     0.017 A 
ATOM      5  C4  UNL d   1       1.317  -0.069   0.379  0.00  0.00     0.017 A 
ATOM      6  C5  UNL d   1       0.009   0.211  -0.028  0.00  0.00     0.034 A 
ATOM      7 Cl   UNL d   1       2.552   1.065  -0.039  0.00  0.00    -0.070 Cl
ATOM      8 Cl1  UNL d   1       3.174  -1.654   1.638  0.00  0.00    -0.070 Cl
ENDROOT
TORSDOF 0
ENDMDL
