MODEL 1
REMARK minimizedAffinity -1.70588052
REMARK minimizedRMSD -1
REMARK  0 active torsions:
REMARK  status: ('A' for Active; 'I' for Inactive)
ROOT
ATOM      1  C   UNL d   1      -1.076   3.597  -3.281  0.00  0.00     0.020 A 
ATOM      2  C1  UNL d   1      -2.201   3.304  -4.051  0.00  0.00     0.020 A 
ATOM      3  C2  UNL d   1      -3.037   2.244  -3.692  0.00  0.00     0.034 A 
ATOM      4  C3  UNL d   1      -2.749   1.473  -2.559  0.00  0.00     0.017 A 
ATOM      5  C4  UNL d   1      -1.619   1.768  -1.787  0.00  0.00     0.017 A 
ATOM      6  C5  UNL d   1      -0.786   2.831  -2.151  0.00  0.00     0.034 A 
ATOM      7 Cl   UNL d   1      -1.199   0.863  -0.376  0.00  0.00    -0.070 Cl
ATOM      8 Cl1  UNL d   1      -3.826   0.178  -2.174  0.00  0.00    -0.070 Cl
ENDROOT
TORSDOF 0
ENDMDL
