MODEL 1
REMARK minimizedAffinity -5.08511782
REMARK minimizedRMSD -1
REMARK  0 active torsions:
REMARK  status: ('A' for Active; 'I' for Inactive)
ROOT
ATOM      1  C   UNL d   1       1.038  -2.393   1.207  0.00  0.00     0.020 A 
ATOM      2  C1  UNL d   1      -0.281  -1.996   1.422  0.00  0.00     0.020 A 
ATOM      3  C2  UNL d   1      -0.753  -0.807   0.863  0.00  0.00     0.034 A 
ATOM      4  C3  UNL d   1       0.095  -0.010   0.086  0.00  0.00     0.017 A 
ATOM      5  C4  UNL d   1       1.419  -0.408  -0.130  0.00  0.00     0.017 A 
ATOM      6  C5  UNL d   1       1.886  -1.600   0.432  0.00  0.00     0.034 A 
ATOM      7 Cl   UNL d   1       2.525   0.523  -1.078  0.00  0.00    -0.070 Cl
ATOM      8 Cl1  UNL d   1      -0.556   1.448  -0.575  0.00  0.00    -0.070 Cl
ENDROOT
TORSDOF 0
ENDMDL
