MODEL 1
REMARK minimizedAffinity -3.93639231
REMARK minimizedRMSD -1
REMARK  0 active torsions:
REMARK  status: ('A' for Active; 'I' for Inactive)
ROOT
ATOM      1  C   UNL d   1       0.486   0.767  -1.138  0.00  0.00     0.020 A 
ATOM      2  C1  UNL d   1      -0.694   1.315  -0.635  0.00  0.00     0.020 A 
ATOM      3  C2  UNL d   1      -1.284   0.771   0.508  0.00  0.00     0.034 A 
ATOM      4  C3  UNL d   1      -0.696  -0.324   1.151  0.00  0.00     0.017 A 
ATOM      5  C4  UNL d   1       0.488  -0.873   0.645  0.00  0.00     0.017 A 
ATOM      6  C5  UNL d   1       1.075  -0.325  -0.499  0.00  0.00     0.034 A 
ATOM      7 Cl   UNL d   1       1.273  -2.224   1.384  0.00  0.00    -0.070 Cl
ATOM      8 Cl1  UNL d   1      -1.481  -0.945   2.559  0.00  0.00    -0.070 Cl
ENDROOT
TORSDOF 0
ENDMDL
