MODEL 1
REMARK minimizedAffinity -3.9359138
REMARK minimizedRMSD -1
REMARK  0 active torsions:
REMARK  status: ('A' for Active; 'I' for Inactive)
ROOT
ATOM      1  C   UNL d   1       1.436  -2.102   0.746  0.00  0.00     0.020 A 
ATOM      2  C1  UNL d   1       0.287  -2.577   1.377  0.00  0.00     0.020 A 
ATOM      3  C2  UNL d   1      -0.845  -1.764   1.471  0.00  0.00     0.034 A 
ATOM      4  C3  UNL d   1      -0.830  -0.472   0.933  0.00  0.00     0.017 A 
ATOM      5  C4  UNL d   1       0.324   0.004   0.300  0.00  0.00     0.017 A 
ATOM      6  C5  UNL d   1       1.454  -0.814   0.209  0.00  0.00     0.034 A 
ATOM      7 Cl   UNL d   1       0.418   1.587  -0.387  0.00  0.00    -0.070 Cl
ATOM      8 Cl1  UNL d   1      -2.265   0.478   1.085  0.00  0.00    -0.070 Cl
ENDROOT
TORSDOF 0
ENDMDL
