MODEL 1
REMARK minimizedAffinity -1.56279016
REMARK minimizedRMSD -1
REMARK  0 active torsions:
REMARK  status: ('A' for Active; 'I' for Inactive)
ROOT
ATOM      1  C   UNL d   1      -1.414   0.725   0.086  0.00  0.00     0.020 A 
ATOM      2  C1  UNL d   1      -1.608  -0.280   1.032  0.00  0.00     0.020 A 
ATOM      3  C2  UNL d   1      -0.514  -0.993   1.528  0.00  0.00     0.034 A 
ATOM      4  C3  UNL d   1       0.779  -0.700   1.078  0.00  0.00     0.017 A 
ATOM      5  C4  UNL d   1       0.972   0.309   0.128  0.00  0.00     0.017 A 
ATOM      6  C5  UNL d   1      -0.127   1.019  -0.365  0.00  0.00     0.034 A 
ATOM      7 Cl   UNL d   1       2.537   0.727  -0.476  0.00  0.00    -0.070 Cl
ATOM      8 Cl1  UNL d   1       2.085  -1.621   1.734  0.00  0.00    -0.070 Cl
ENDROOT
TORSDOF 0
ENDMDL
