MODEL 1
REMARK minimizedAffinity -3.31368852
REMARK minimizedRMSD -1
REMARK  0 active torsions:
REMARK  status: ('A' for Active; 'I' for Inactive)
ROOT
ATOM      1  C   UNL d   1       1.077  -2.624   0.857  0.00  0.00     0.020 A 
ATOM      2  C1  UNL d   1      -0.282  -2.657   0.550  0.00  0.00     0.020 A 
ATOM      3  C2  UNL d   1      -0.900  -1.535  -0.007  0.00  0.00     0.034 A 
ATOM      4  C3  UNL d   1      -0.158  -0.375  -0.258  0.00  0.00     0.017 A 
ATOM      5  C4  UNL d   1       1.207  -0.343   0.050  0.00  0.00     0.017 A 
ATOM      6  C5  UNL d   1       1.820  -1.469   0.607  0.00  0.00     0.034 A 
ATOM      7 Cl   UNL d   1       2.188   1.052  -0.232  0.00  0.00    -0.070 Cl
ATOM      8 Cl1  UNL d   1      -0.987   0.975  -0.948  0.00  0.00    -0.070 Cl
ENDROOT
TORSDOF 0
ENDMDL
