MODEL 1
REMARK minimizedAffinity -2.28694105
REMARK minimizedRMSD -1
REMARK  0 active torsions:
REMARK  status: ('A' for Active; 'I' for Inactive)
ROOT
ATOM      1  C   UNL d   1       0.118   0.726  -0.635  0.00  0.00     0.020 A 
ATOM      2  C1  UNL d   1      -1.094   1.023  -0.012  0.00  0.00     0.020 A 
ATOM      3  C2  UNL d   1      -1.614   0.158   0.953  0.00  0.00     0.034 A 
ATOM      4  C3  UNL d   1      -0.922  -1.008   1.299  0.00  0.00     0.017 A 
ATOM      5  C4  UNL d   1       0.295  -1.306   0.673  0.00  0.00     0.017 A 
ATOM      6  C5  UNL d   1       0.811  -0.436  -0.292  0.00  0.00     0.034 A 
ATOM      7 Cl   UNL d   1       1.206  -2.726   1.047  0.00  0.00    -0.070 Cl
ATOM      8 Cl1  UNL d   1      -1.623  -2.032   2.501  0.00  0.00    -0.070 Cl
ENDROOT
TORSDOF 0
ENDMDL
