MODEL 1
REMARK minimizedAffinity -4.0809207
REMARK minimizedRMSD -1
REMARK  0 active torsions:
REMARK  status: ('A' for Active; 'I' for Inactive)
ROOT
ATOM      1  C   UNL d   1       0.469   1.052  -0.588  0.00  0.00     0.020 A 
ATOM      2  C1  UNL d   1       1.670   0.409  -0.887  0.00  0.00     0.020 A 
ATOM      3  C2  UNL d   1       1.927  -0.863  -0.372  0.00  0.00     0.034 A 
ATOM      4  C3  UNL d   1       0.983  -1.497   0.444  0.00  0.00     0.017 A 
ATOM      5  C4  UNL d   1      -0.221  -0.851   0.744  0.00  0.00     0.017 A 
ATOM      6  C5  UNL d   1      -0.474   0.423   0.226  0.00  0.00     0.034 A 
ATOM      7 Cl   UNL d   1      -1.435  -1.569   1.744  0.00  0.00    -0.070 Cl
ATOM      8 Cl1  UNL d   1       1.368  -3.070   1.046  0.00  0.00    -0.070 Cl
ENDROOT
TORSDOF 0
ENDMDL
