MODEL 1
REMARK minimizedAffinity -4.83247662
REMARK minimizedRMSD -1
REMARK  0 active torsions:
REMARK  status: ('A' for Active; 'I' for Inactive)
ROOT
ATOM      1  C   UNL d   1       1.191   0.624  -0.833  0.00  0.00     0.020 A 
ATOM      2  C1  UNL d   1       0.046   1.207  -0.292  0.00  0.00     0.020 A 
ATOM      3  C2  UNL d   1      -0.707   0.516   0.659  0.00  0.00     0.034 A 
ATOM      4  C3  UNL d   1      -0.316  -0.763   1.073  0.00  0.00     0.017 A 
ATOM      5  C4  UNL d   1       0.834  -1.347   0.530  0.00  0.00     0.017 A 
ATOM      6  C5  UNL d   1       1.585  -0.650  -0.422  0.00  0.00     0.034 A 
ATOM      7 Cl   UNL d   1       1.380  -2.921   0.992  0.00  0.00    -0.070 Cl
ATOM      8 Cl1  UNL d   1      -1.294  -1.559   2.254  0.00  0.00    -0.070 Cl
ENDROOT
TORSDOF 0
ENDMDL
