MODEL 1
REMARK minimizedAffinity 9.4336338
REMARK minimizedRMSD -1
REMARK  0 active torsions:
REMARK  status: ('A' for Active; 'I' for Inactive)
ROOT
ATOM      1  C2' OXE d   1       0.210   1.236  -0.861  0.00  0.00     0.078 C 
ATOM      2  C1' OXE d   1       0.506   0.669   1.873  0.00  0.00     0.078 C 
ATOM      3  C1  OXE d   1      -0.745   1.391   1.435  0.00  0.00    -0.078 A 
ATOM      4  C2  OXE d   1      -0.859   1.705   0.102  0.00  0.00    -0.078 A 
ATOM      5  C3  OXE d   1      -2.017   2.321  -0.364  0.00  0.00     0.003 A 
ATOM      6  C4  OXE d   1      -2.997   2.761   0.535  0.00  0.00    -0.002 A 
ATOM      7  C5  OXE d   1      -2.881   2.486   1.902  0.00  0.00    -0.002 A 
ATOM      8  C6  OXE d   1      -1.784   1.766   2.361  0.00  0.00     0.003 A 
ENDROOT
TORSDOF 0
ENDMDL
