MODEL 1
REMARK minimizedAffinity 1.80370653
REMARK minimizedRMSD -1
REMARK  0 active torsions:
REMARK  status: ('A' for Active; 'I' for Inactive)
ROOT
ATOM      1  C2' OXE d   1      -0.677   1.777   3.707  0.00  0.00     0.078 C 
ATOM      2  C1' OXE d   1      -0.054  -0.159   1.772  0.00  0.00     0.078 C 
ATOM      3  C1  OXE d   1      -0.971   0.968   1.369  0.00  0.00    -0.078 A 
ATOM      4  C2  OXE d   1      -1.307   1.885   2.336  0.00  0.00    -0.078 A 
ATOM      5  C3  OXE d   1      -2.106   2.976   2.003  0.00  0.00     0.003 A 
ATOM      6  C4  OXE d   1      -2.693   3.064   0.735  0.00  0.00    -0.002 A 
ATOM      7  C5  OXE d   1      -2.395   2.119  -0.253  0.00  0.00    -0.002 A 
ATOM      8  C6  OXE d   1      -1.504   1.091   0.035  0.00  0.00     0.003 A 
ENDROOT
TORSDOF 0
ENDMDL
