MODEL 1
REMARK minimizedAffinity 11.7054911
REMARK minimizedRMSD -1
REMARK  0 active torsions:
REMARK  status: ('A' for Active; 'I' for Inactive)
ROOT
ATOM      1  C2' OXE d   1       0.108   2.076  -1.275  0.00  0.00     0.078 C 
ATOM      2  C1' OXE d   1      -2.557   1.290  -1.673  0.00  0.00     0.078 C 
ATOM      3  C1  OXE d   1      -2.158   1.747  -0.292  0.00  0.00    -0.078 A 
ATOM      4  C2  OXE d   1      -0.841   2.085  -0.095  0.00  0.00    -0.078 A 
ATOM      5  C3  OXE d   1      -0.431   2.565   1.145  0.00  0.00     0.003 A 
ATOM      6  C4  OXE d   1      -1.312   2.561   2.234  0.00  0.00    -0.002 A 
ATOM      7  C5  OXE d   1      -2.648   2.182   2.064  0.00  0.00    -0.002 A 
ATOM      8  C6  OXE d   1      -3.096   1.814   0.800  0.00  0.00     0.003 A 
ENDROOT
TORSDOF 0
ENDMDL
