MODEL 1
REMARK minimizedAffinity 5.09610224
REMARK minimizedRMSD -1
REMARK  0 active torsions:
REMARK  status: ('A' for Active; 'I' for Inactive)
ROOT
ATOM      1  C2' OXE d   1      -3.345   3.159   1.174  0.00  0.00     0.078 C 
ATOM      2  C1' OXE d   1      -1.894   1.565   2.973  0.00  0.00     0.078 C 
ATOM      3  C1  OXE d   1      -1.281   1.838   1.622  0.00  0.00    -0.078 A 
ATOM      4  C2  OXE d   1      -2.019   2.580   0.731  0.00  0.00    -0.078 A 
ATOM      5  C3  OXE d   1      -1.477   2.907  -0.509  0.00  0.00     0.003 A 
ATOM      6  C4  OXE d   1      -0.254   2.359  -0.915  0.00  0.00    -0.002 A 
ATOM      7  C5  OXE d   1       0.495   1.568  -0.038  0.00  0.00    -0.002 A 
ATOM      8  C6  OXE d   1       0.016   1.333   1.247  0.00  0.00     0.003 A 
ENDROOT
TORSDOF 0
ENDMDL
