MODEL 1
REMARK minimizedAffinity 8.49471474
REMARK minimizedRMSD -1
REMARK  0 active torsions:
REMARK  status: ('A' for Active; 'I' for Inactive)
ROOT
ATOM      1  C2' OXE d   1       0.770   0.314   2.025  0.00  0.00     0.078 C 
ATOM      2  C1' OXE d   1       0.254   0.755  -0.699  0.00  0.00     0.078 C 
ATOM      3  C1  OXE d   1      -0.674   1.392   0.305  0.00  0.00    -0.078 A 
ATOM      4  C2  OXE d   1      -0.442   1.132   1.634  0.00  0.00    -0.078 A 
ATOM      5  C3  OXE d   1      -1.235   1.739   2.604  0.00  0.00     0.003 A 
ATOM      6  C4  OXE d   1      -2.359   2.487   2.234  0.00  0.00    -0.002 A 
ATOM      7  C5  OXE d   1      -2.637   2.730   0.885  0.00  0.00    -0.002 A 
ATOM      8  C6  OXE d   1      -1.782   2.227  -0.089  0.00  0.00     0.003 A 
ENDROOT
TORSDOF 0
ENDMDL
