MODEL 1
REMARK minimizedAffinity 8.74129963
REMARK minimizedRMSD -1
REMARK  0 active torsions:
REMARK  status: ('A' for Active; 'I' for Inactive)
ROOT
ATOM      1  C2' OXE d   1       0.247   0.751  -0.840  0.00  0.00     0.078 C 
ATOM      2  C1' OXE d   1       0.641   0.481   1.927  0.00  0.00     0.078 C 
ATOM      3  C1  OXE d   1      -0.522   1.320   1.460  0.00  0.00    -0.078 A 
ATOM      4  C2  OXE d   1      -0.680   1.485   0.105  0.00  0.00    -0.078 A 
ATOM      5  C3  OXE d   1      -1.768   2.204  -0.380  0.00  0.00     0.003 A 
ATOM      6  C4  OXE d   1      -2.615   2.888   0.501  0.00  0.00    -0.002 A 
ATOM      7  C5  OXE d   1      -2.449   2.766   1.885  0.00  0.00    -0.002 A 
ATOM      8  C6  OXE d   1      -1.435   1.953   2.380  0.00  0.00     0.003 A 
ENDROOT
TORSDOF 0
ENDMDL
