MODEL 1
REMARK minimizedAffinity 4.92297363
REMARK minimizedRMSD -1
REMARK  0 active torsions:
REMARK  status: ('A' for Active; 'I' for Inactive)
ROOT
ATOM      1  C2' OXE d   1       3.346  -3.831  -3.744  0.00  0.00     0.078 C 
ATOM      2  C1' OXE d   1       5.999  -2.934  -3.551  0.00  0.00     0.078 C 
ATOM      3  C1  OXE d   1       5.323  -3.409  -2.289  0.00  0.00    -0.078 A 
ATOM      4  C2  OXE d   1       4.010  -3.802  -2.385  0.00  0.00    -0.078 A 
ATOM      5  C3  OXE d   1       3.357  -4.300  -1.261  0.00  0.00     0.003 A 
ATOM      6  C4  OXE d   1       3.975  -4.261  -0.006  0.00  0.00    -0.002 A 
ATOM      7  C5  OXE d   1       5.299  -3.827   0.121  0.00  0.00    -0.002 A 
ATOM      8  C6  OXE d   1       6.000  -3.439  -1.016  0.00  0.00     0.003 A 
ENDROOT
TORSDOF 0
ENDMDL
