MODEL 1
REMARK minimizedAffinity 9.79683018
REMARK minimizedRMSD -1
REMARK  0 active torsions:
REMARK  status: ('A' for Active; 'I' for Inactive)
ROOT
ATOM      1  C2' OXE d   1      -2.634  -1.476   3.355  0.00  0.00     0.078 C 
ATOM      2  C1' OXE d   1      -3.258  -2.279   5.972  0.00  0.00     0.078 C 
ATOM      3  C1  OXE d   1      -2.045  -2.892   5.318  0.00  0.00    -0.078 A 
ATOM      4  C2  OXE d   1      -1.775  -2.529   4.020  0.00  0.00    -0.078 A 
ATOM      5  C3  OXE d   1      -0.637  -3.023   3.389  0.00  0.00     0.003 A 
ATOM      6  C4  OXE d   1       0.147  -4.004   4.008  0.00  0.00    -0.002 A 
ATOM      7  C5  OXE d   1      -0.134  -4.418   5.314  0.00  0.00    -0.002 A 
ATOM      8  C6  OXE d   1      -1.199  -3.842   5.997  0.00  0.00     0.003 A 
ENDROOT
TORSDOF 0
ENDMDL
