MODEL 1
REMARK minimizedAffinity 13.5640373
REMARK minimizedRMSD -1
REMARK  0 active torsions:
REMARK  status: ('A' for Active; 'I' for Inactive)
ROOT
ATOM      1  C2' OXE d   1       0.438   1.398  -0.683  0.00  0.00     0.078 C 
ATOM      2  C1' OXE d   1      -1.770   2.659  -1.874  0.00  0.00     0.078 C 
ATOM      3  C1  OXE d   1      -1.814   2.422  -0.385  0.00  0.00    -0.078 A 
ATOM      4  C2  OXE d   1      -0.750   1.763   0.182  0.00  0.00    -0.078 A 
ATOM      5  C3  OXE d   1      -0.715   1.568   1.559  0.00  0.00     0.003 A 
ATOM      6  C4  OXE d   1      -1.821   1.899   2.351  0.00  0.00    -0.002 A 
ATOM      7  C5  OXE d   1      -2.932   2.536   1.787  0.00  0.00    -0.002 A 
ATOM      8  C6  OXE d   1      -2.926   2.842   0.431  0.00  0.00     0.003 A 
ENDROOT
TORSDOF 0
ENDMDL
