MODEL 1
REMARK minimizedAffinity -3.17107725
REMARK minimizedRMSD -1
REMARK  0 active torsions:
REMARK  status: ('A' for Active; 'I' for Inactive)
ROOT
ATOM      1  C2' OXE d   1       0.810  -2.000  -0.978  0.00  0.00     0.078 C 
ATOM      2  C1' OXE d   1      -0.486  -0.478  -2.948  0.00  0.00     0.078 C 
ATOM      3  C1  OXE d   1      -0.367   0.115  -1.567  0.00  0.00    -0.078 A 
ATOM      4  C2  OXE d   1       0.227  -0.656  -0.597  0.00  0.00    -0.078 A 
ATOM      5  C3  OXE d   1       0.412  -0.136   0.681  0.00  0.00     0.003 A 
ATOM      6  C4  OXE d   1      -0.139   1.104   1.027  0.00  0.00    -0.002 A 
ATOM      7  C5  OXE d   1      -0.783   1.889   0.065  0.00  0.00    -0.002 A 
ATOM      8  C6  OXE d   1      -0.868   1.428  -1.244  0.00  0.00     0.003 A 
ENDROOT
TORSDOF 0
ENDMDL
