MODEL 1
REMARK minimizedAffinity 7.473351
REMARK minimizedRMSD -1
REMARK  0 active torsions:
REMARK  status: ('A' for Active; 'I' for Inactive)
ROOT
ATOM      1  C2' OXE d   1      -1.085  -1.102   3.360  0.00  0.00     0.078 C 
ATOM      2  C1' OXE d   1       1.016   0.511   4.289  0.00  0.00     0.078 C 
ATOM      3  C1  OXE d   1      -0.005   1.143   3.377  0.00  0.00    -0.078 A 
ATOM      4  C2  OXE d   1      -1.004   0.334   2.889  0.00  0.00    -0.078 A 
ATOM      5  C3  OXE d   1      -2.003   0.879   2.088  0.00  0.00     0.003 A 
ATOM      6  C4  OXE d   1      -1.914   2.206   1.649  0.00  0.00    -0.002 A 
ATOM      7  C5  OXE d   1      -0.883   3.036   2.101  0.00  0.00    -0.002 A 
ATOM      8  C6  OXE d   1       0.053   2.533   2.997  0.00  0.00     0.003 A 
ENDROOT
TORSDOF 0
ENDMDL
