MODEL 1
REMARK minimizedAffinity 12.1962681
REMARK minimizedRMSD -1
REMARK  0 active torsions:
REMARK  status: ('A' for Active; 'I' for Inactive)
ROOT
ATOM      1  C2' OXE d   1      -2.938   0.228  -3.113  0.00  0.00     0.078 C 
ATOM      2  C1' OXE d   1      -2.166   2.735  -2.113  0.00  0.00     0.078 C 
ATOM      3  C1  OXE d   1      -1.147   1.623  -2.087  0.00  0.00    -0.078 A 
ATOM      4  C2  OXE d   1      -1.548   0.387  -2.535  0.00  0.00    -0.078 A 
ATOM      5  C3  OXE d   1      -0.632  -0.659  -2.583  0.00  0.00     0.003 A 
ATOM      6  C4  OXE d   1       0.648  -0.506  -2.037  0.00  0.00    -0.002 A 
ATOM      7  C5  OXE d   1       1.064   0.733  -1.539  0.00  0.00    -0.002 A 
ATOM      8  C6  OXE d   1       0.195   1.817  -1.596  0.00  0.00     0.003 A 
ENDROOT
TORSDOF 0
ENDMDL
