MODEL 1
REMARK minimizedAffinity 3.24913192
REMARK minimizedRMSD -1
REMARK  0 active torsions:
REMARK  status: ('A' for Active; 'I' for Inactive)
ROOT
ATOM      1  C2' OXE d   1       4.121  -3.747  -3.112  0.00  0.00     0.078 C 
ATOM      2  C1' OXE d   1       1.980  -2.968  -1.472  0.00  0.00     0.078 C 
ATOM      3  C1  OXE d   1       3.378  -2.658  -0.998  0.00  0.00    -0.078 A 
ATOM      4  C2  OXE d   1       4.421  -3.084  -1.784  0.00  0.00    -0.078 A 
ATOM      5  C3  OXE d   1       5.729  -2.776  -1.421  0.00  0.00     0.003 A 
ATOM      6  C4  OXE d   1       5.998  -2.172  -0.187  0.00  0.00    -0.002 A 
ATOM      7  C5  OXE d   1       4.951  -1.766   0.648  0.00  0.00    -0.002 A 
ATOM      8  C6  OXE d   1       3.637  -1.963   0.238  0.00  0.00     0.003 A 
ENDROOT
TORSDOF 0
ENDMDL
