MODEL 1
REMARK minimizedAffinity 11.6118937
REMARK minimizedRMSD -1
REMARK  0 active torsions:
REMARK  status: ('A' for Active; 'I' for Inactive)
ROOT
ATOM      1  C2' OXE d   1      -0.915   1.818   2.174  0.00  0.00     0.078 C 
ATOM      2  C1' OXE d   1       1.340   0.150   2.277  0.00  0.00     0.078 C 
ATOM      3  C1  OXE d   1       0.044  -0.383   2.836  0.00  0.00    -0.078 A 
ATOM      4  C2  OXE d   1      -1.043   0.457   2.824  0.00  0.00    -0.078 A 
ATOM      5  C3  OXE d   1      -2.276  -0.004   3.277  0.00  0.00     0.003 A 
ATOM      6  C4  OXE d   1      -2.383  -1.260   3.885  0.00  0.00    -0.002 A 
ATOM      7  C5  OXE d   1      -1.278  -2.117   3.944  0.00  0.00    -0.002 A 
ATOM      8  C6  OXE d   1      -0.071  -1.711   3.387  0.00  0.00     0.003 A 
ENDROOT
TORSDOF 0
ENDMDL
