MODEL 1
REMARK minimizedAffinity 9.00464153
REMARK minimizedRMSD -1
REMARK  0 active torsions:
REMARK  status: ('A' for Active; 'I' for Inactive)
ROOT
ATOM      1  C2' OXE d   1       0.574   0.741   2.620  0.00  0.00     0.078 C 
ATOM      2  C1' OXE d   1      -1.905  -0.375   3.316  0.00  0.00     0.078 C 
ATOM      3  C1  OXE d   1      -1.898   0.750   2.312  0.00  0.00    -0.078 A 
ATOM      4  C2  OXE d   1      -0.685   1.322   2.012  0.00  0.00    -0.078 A 
ATOM      5  C3  OXE d   1      -0.615   2.326   1.051  0.00  0.00     0.003 A 
ATOM      6  C4  OXE d   1      -1.785   2.864   0.501  0.00  0.00    -0.002 A 
ATOM      7  C5  OXE d   1      -3.034   2.323   0.823  0.00  0.00    -0.002 A 
ATOM      8  C6  OXE d   1      -3.104   1.240   1.692  0.00  0.00     0.003 A 
ENDROOT
TORSDOF 0
ENDMDL
