MODEL 1
REMARK minimizedAffinity 6.26571512
REMARK minimizedRMSD -1
REMARK  0 active torsions:
REMARK  status: ('A' for Active; 'I' for Inactive)
ROOT
ATOM      1  C2' OXE d   1       0.640  -0.165  -4.431  0.00  0.00     0.078 C 
ATOM      2  C1' OXE d   1      -1.722  -0.869  -3.087  0.00  0.00     0.078 C 
ATOM      3  C1  OXE d   1      -0.859   0.206  -2.476  0.00  0.00    -0.078 A 
ATOM      4  C2  OXE d   1       0.319   0.511  -3.116  0.00  0.00    -0.078 A 
ATOM      5  C3  OXE d   1       1.126   1.533  -2.624  0.00  0.00     0.003 A 
ATOM      6  C4  OXE d   1       0.826   2.147  -1.402  0.00  0.00    -0.002 A 
ATOM      7  C5  OXE d   1      -0.348   1.822  -0.713  0.00  0.00    -0.002 A 
ATOM      8  C6  OXE d   1      -1.220   0.887  -1.257  0.00  0.00     0.003 A 
ENDROOT
TORSDOF 0
ENDMDL
