MODEL 1
REMARK minimizedAffinity 4.04533339
REMARK minimizedRMSD -1
REMARK  0 active torsions:
REMARK  status: ('A' for Active; 'I' for Inactive)
ROOT
ATOM      1  C2' OXE d   1       3.752  -4.102  -2.789  0.00  0.00     0.078 C 
ATOM      2  C1' OXE d   1       1.907  -2.962  -1.007  0.00  0.00     0.078 C 
ATOM      3  C1  OXE d   1       3.333  -2.473  -0.952  0.00  0.00    -0.078 A 
ATOM      4  C2  OXE d   1       4.239  -3.069  -1.796  0.00  0.00    -0.078 A 
ATOM      5  C3  OXE d   1       5.555  -2.617  -1.825  0.00  0.00     0.003 A 
ATOM      6  C4  OXE d   1       6.000  -1.669  -0.896  0.00  0.00    -0.002 A 
ATOM      7  C5  OXE d   1       5.102  -1.077  -0.001  0.00  0.00    -0.002 A 
ATOM      8  C6  OXE d   1       3.759  -1.436  -0.045  0.00  0.00     0.003 A 
ENDROOT
TORSDOF 0
ENDMDL
