MODEL 1
REMARK minimizedAffinity 6.0031352
REMARK minimizedRMSD -1
REMARK  0 active torsions:
REMARK  status: ('A' for Active; 'I' for Inactive)
ROOT
ATOM      1  C2' OXE d   1      -2.548   0.164  -2.703  0.00  0.00     0.078 C 
ATOM      2  C1' OXE d   1      -1.927   2.784  -1.908  0.00  0.00     0.078 C 
ATOM      3  C1  OXE d   1      -0.794   1.795  -2.018  0.00  0.00    -0.078 A 
ATOM      4  C2  OXE d   1      -1.113   0.503  -2.362  0.00  0.00    -0.078 A 
ATOM      5  C3  OXE d   1      -0.099  -0.436  -2.530  0.00  0.00     0.003 A 
ATOM      6  C4  OXE d   1       1.224  -0.117  -2.204  0.00  0.00    -0.002 A 
ATOM      7  C5  OXE d   1       1.565   1.182  -1.813  0.00  0.00    -0.002 A 
ATOM      8  C6  OXE d   1       0.577   2.159  -1.756  0.00  0.00     0.003 A 
ENDROOT
TORSDOF 0
ENDMDL
