MODEL 1
REMARK minimizedAffinity 12.5567245
REMARK minimizedRMSD -1
REMARK  0 active torsions:
REMARK  status: ('A' for Active; 'I' for Inactive)
ROOT
ATOM      1  C2' OXE d   1      -2.601   1.543   1.134  0.00  0.00     0.078 C 
ATOM      2  C1' OXE d   1      -0.217   1.675   2.609  0.00  0.00     0.078 C 
ATOM      3  C1  OXE d   1      -0.272   2.410   1.294  0.00  0.00    -0.078 A 
ATOM      4  C2  OXE d   1      -1.426   2.302   0.556  0.00  0.00    -0.078 A 
ATOM      5  C3  OXE d   1      -1.549   3.005  -0.639  0.00  0.00     0.003 A 
ATOM      6  C4  OXE d   1      -0.454   3.696  -1.171  0.00  0.00    -0.002 A 
ATOM      7  C5  OXE d   1       0.744   3.786  -0.455  0.00  0.00    -0.002 A 
ATOM      8  C6  OXE d   1       0.838   3.186   0.796  0.00  0.00     0.003 A 
ENDROOT
TORSDOF 0
ENDMDL
