MODEL 1
REMARK minimizedAffinity -0.258298308
REMARK minimizedRMSD -1
REMARK  0 active torsions:
REMARK  status: ('A' for Active; 'I' for Inactive)
ROOT
ATOM      1  O1  BZF d   1      -2.592  -0.697  -1.194  0.00  0.00    -0.204 OA
ATOM      2  C2  BZF d   1      -3.221  -0.970   0.005  0.00  0.00     0.174 A 
ATOM      3  C3  BZF d   1      -2.358  -0.858   1.035  0.00  0.00    -0.012 A 
ATOM      4  C3A BZF d   1      -1.134  -0.402   0.452  0.00  0.00    -0.107 A 
ATOM      5  C4  BZF d   1       0.092  -0.089   0.967  0.00  0.00     0.055 A 
ATOM      6  C5  BZF d   1       1.096   0.255   0.118  0.00  0.00    -0.016 A 
ATOM      7  C6  BZF d   1       0.912   0.291  -1.248  0.00  0.00     0.022 A 
ATOM      8  C7  BZF d   1      -0.288  -0.006  -1.805  0.00  0.00     0.029 A 
ATOM      9  C7A BZF d   1      -1.314  -0.322  -0.948  0.00  0.00     0.058 A 
ENDROOT
TORSDOF 0
ENDMDL
