MODEL 1
REMARK minimizedAffinity -3.69357443
REMARK minimizedRMSD -1
REMARK  0 active torsions:
REMARK  status: ('A' for Active; 'I' for Inactive)
ROOT
ATOM      1  O1  BZF d   1       2.576   1.424   1.380  0.00  0.00    -0.204 OA
ATOM      2  C2  BZF d   1       2.188   2.747   1.477  0.00  0.00     0.174 A 
ATOM      3  C3  BZF d   1       0.868   2.877   1.233  0.00  0.00    -0.012 A 
ATOM      4  C3A BZF d   1       0.384   1.542   1.057  0.00  0.00    -0.107 A 
ATOM      5  C4  BZF d   1      -0.850   1.017   0.803  0.00  0.00     0.055 A 
ATOM      6  C5  BZF d   1      -0.972  -0.323   0.615  0.00  0.00    -0.016 A 
ATOM      7  C6  BZF d   1       0.119  -1.166   0.669  0.00  0.00     0.022 A 
ATOM      8  C7  BZF d   1       1.363  -0.692   0.923  0.00  0.00     0.029 A 
ATOM      9  C7A BZF d   1       1.484   0.658   1.146  0.00  0.00     0.058 A 
ENDROOT
TORSDOF 0
ENDMDL
