MODEL 1
REMARK minimizedAffinity -1.09069467
REMARK minimizedRMSD -1
REMARK  0 active torsions:
REMARK  status: ('A' for Active; 'I' for Inactive)
ROOT
ATOM      1  O1  BZF d   1       0.473  -2.317   1.831  0.00  0.00    -0.204 OA
ATOM      2  C2  BZF d   1      -0.452  -2.692   2.786  0.00  0.00     0.174 A 
ATOM      3  C3  BZF d   1      -1.437  -1.776   2.884  0.00  0.00    -0.012 A 
ATOM      4  C3A BZF d   1      -1.155  -0.811   1.867  0.00  0.00    -0.107 A 
ATOM      5  C4  BZF d   1      -1.783   0.331   1.456  0.00  0.00     0.055 A 
ATOM      6  C5  BZF d   1      -1.209   1.086   0.483  0.00  0.00    -0.016 A 
ATOM      7  C6  BZF d   1      -0.009   0.733  -0.098  0.00  0.00     0.022 A 
ATOM      8  C7  BZF d   1       0.648  -0.394   0.272  0.00  0.00     0.029 A 
ATOM      9  C7A BZF d   1       0.055  -1.176   1.233  0.00  0.00     0.058 A 
ENDROOT
TORSDOF 0
ENDMDL
