MODEL 1
REMARK minimizedAffinity -2.34648728
REMARK minimizedRMSD -1
REMARK  0 active torsions:
REMARK  status: ('A' for Active; 'I' for Inactive)
ROOT
ATOM      1  O1  BZF d   1       0.933   0.405  -0.521  0.00  0.00    -0.204 OA
ATOM      2  C2  BZF d   1       1.916  -0.014   0.354  0.00  0.00     0.174 A 
ATOM      3  C3  BZF d   1       1.385  -0.746   1.355  0.00  0.00    -0.012 A 
ATOM      4  C3A BZF d   1      -0.005  -0.865   1.038  0.00  0.00    -0.107 A 
ATOM      5  C4  BZF d   1      -1.056  -1.491   1.645  0.00  0.00     0.055 A 
ATOM      6  C5  BZF d   1      -2.301  -1.353   1.117  0.00  0.00    -0.016 A 
ATOM      7  C6  BZF d   1      -2.531  -0.594  -0.011  0.00  0.00     0.022 A 
ATOM      8  C7  BZF d   1      -1.519   0.042  -0.651  0.00  0.00     0.029 A 
ATOM      9  C7A BZF d   1      -0.255  -0.123  -0.139  0.00  0.00     0.058 A 
ENDROOT
TORSDOF 0
ENDMDL
