MODEL 1
REMARK minimizedAffinity -0.821404755
REMARK minimizedRMSD -1
REMARK  0 active torsions:
REMARK  status: ('A' for Active; 'I' for Inactive)
ROOT
ATOM      1  O1  BZF d   1       0.464   0.507   1.415  0.00  0.00    -0.204 OA
ATOM      2  C2  BZF d   1       0.313  -0.261   0.277  0.00  0.00     0.174 A 
ATOM      3  C3  BZF d   1       1.047   0.238  -0.739  0.00  0.00    -0.012 A 
ATOM      4  C3A BZF d   1       1.770   1.336  -0.175  0.00  0.00    -0.107 A 
ATOM      5  C4  BZF d   1       2.679   2.221  -0.682  0.00  0.00     0.055 A 
ATOM      6  C5  BZF d   1       3.142   3.221   0.113  0.00  0.00    -0.016 A 
ATOM      7  C6  BZF d   1       2.714   3.370   1.416  0.00  0.00     0.022 A 
ATOM      8  C7  BZF d   1       1.817   2.514   1.964  0.00  0.00     0.029 A 
ATOM      9  C7A BZF d   1       1.373   1.483   1.174  0.00  0.00     0.058 A 
ENDROOT
TORSDOF 0
ENDMDL
