MODEL 1
REMARK minimizedAffinity -3.10197377
REMARK minimizedRMSD -1
REMARK  0 active torsions:
REMARK  status: ('A' for Active; 'I' for Inactive)
ROOT
ATOM      1  O1  BZF d   1       0.714  -1.128   0.838  0.00  0.00    -0.204 OA
ATOM      2  C2  BZF d   1       0.525  -1.913   1.958  0.00  0.00     0.174 A 
ATOM      3  C3  BZF d   1      -0.785  -2.173   2.146  0.00  0.00    -0.012 A 
ATOM      4  C3A BZF d   1      -1.449  -1.584   1.023  0.00  0.00    -0.107 A 
ATOM      5  C4  BZF d   1      -2.756  -1.519   0.634  0.00  0.00     0.055 A 
ATOM      6  C5  BZF d   1      -3.080  -0.807  -0.477  0.00  0.00    -0.016 A 
ATOM      7  C6  BZF d   1      -2.125  -0.143  -1.218  0.00  0.00     0.022 A 
ATOM      8  C7  BZF d   1      -0.814  -0.182  -0.874  0.00  0.00     0.029 A 
ATOM      9  C7A BZF d   1      -0.480  -0.929   0.229  0.00  0.00     0.058 A 
ENDROOT
TORSDOF 0
ENDMDL
