MODEL 1
REMARK minimizedAffinity -4.05734825
REMARK minimizedRMSD -1
REMARK  0 active torsions:
REMARK  status: ('A' for Active; 'I' for Inactive)
ROOT
ATOM      1  O1  BZF d   1       1.191  -0.405  -0.985  0.00  0.00    -0.204 OA
ATOM      2  C2  BZF d   1       0.680   0.125  -2.154  0.00  0.00     0.174 A 
ATOM      3  C3  BZF d   1      -0.664   0.214  -2.092  0.00  0.00    -0.012 A 
ATOM      4  C3A BZF d   1      -1.008  -0.207  -0.769  0.00  0.00    -0.107 A 
ATOM      5  C4  BZF d   1      -2.193  -0.322  -0.099  0.00  0.00     0.055 A 
ATOM      6  C5  BZF d   1      -2.192  -0.834   1.160  0.00  0.00    -0.016 A 
ATOM      7  C6  BZF d   1      -1.029  -1.244   1.776  0.00  0.00     0.022 A 
ATOM      8  C7  BZF d   1       0.171  -1.145   1.154  0.00  0.00     0.029 A 
ATOM      9  C7A BZF d   1       0.178  -0.598  -0.106  0.00  0.00     0.058 A 
ENDROOT
TORSDOF 0
ENDMDL
