MODEL 1
REMARK minimizedAffinity -0.346408606
REMARK minimizedRMSD -1
REMARK  0 active torsions:
REMARK  status: ('A' for Active; 'I' for Inactive)
ROOT
ATOM      1  O1  BZF d   1       1.500  -1.298   1.442  0.00  0.00    -0.204 OA
ATOM      2  C2  BZF d   1       0.583  -1.899   2.282  0.00  0.00     0.174 A 
ATOM      3  C3  BZF d   1      -0.677  -1.665   1.862  0.00  0.00    -0.012 A 
ATOM      4  C3A BZF d   1      -0.536  -0.945   0.633  0.00  0.00    -0.107 A 
ATOM      5  C4  BZF d   1      -1.429  -0.442  -0.269  0.00  0.00     0.055 A 
ATOM      6  C5  BZF d   1      -0.967   0.273  -1.328  0.00  0.00    -0.016 A 
ATOM      7  C6  BZF d   1       0.379   0.510  -1.513  0.00  0.00     0.022 A 
ATOM      8  C7  BZF d   1       1.304   0.027  -0.647  0.00  0.00     0.029 A 
ATOM      9  C7A BZF d   1       0.843  -0.724   0.406  0.00  0.00     0.058 A 
ENDROOT
TORSDOF 0
ENDMDL
