MODEL 1
REMARK minimizedAffinity -2.595469
REMARK minimizedRMSD -1
REMARK  0 active torsions:
REMARK  status: ('A' for Active; 'I' for Inactive)
ROOT
ATOM      1  O1  BZF d   1       3.629   3.393   0.516  0.00  0.00    -0.204 OA
ATOM      2  C2  BZF d   1       2.955   3.604   1.703  0.00  0.00     0.174 A 
ATOM      3  C3  BZF d   1       2.080   2.605   1.941  0.00  0.00    -0.012 A 
ATOM      4  C3A BZF d   1       2.282   1.668   0.879  0.00  0.00    -0.107 A 
ATOM      5  C4  BZF d   1       1.720   0.461   0.573  0.00  0.00     0.055 A 
ATOM      6  C5  BZF d   1       2.088  -0.166  -0.575  0.00  0.00    -0.016 A 
ATOM      7  C6  BZF d   1       3.010   0.386  -1.441  0.00  0.00     0.022 A 
ATOM      8  C7  BZF d   1       3.598   1.578  -1.177  0.00  0.00     0.029 A 
ATOM      9  C7A BZF d   1       3.253   2.198  -0.001  0.00  0.00     0.058 A 
ENDROOT
TORSDOF 0
ENDMDL
