MODEL 1
REMARK minimizedAffinity -2.73207617
REMARK minimizedRMSD -1
REMARK  0 active torsions:
REMARK  status: ('A' for Active; 'I' for Inactive)
ROOT
ATOM      1  O1  BZF d   1       2.521  -0.273  -1.323  0.00  0.00    -0.204 OA
ATOM      2  C2  BZF d   1       2.478  -0.143  -2.697  0.00  0.00     0.174 A 
ATOM      3  C3  BZF d   1       1.203  -0.102  -3.135  0.00  0.00    -0.012 A 
ATOM      4  C3A BZF d   1       0.399  -0.121  -1.951  0.00  0.00    -0.107 A 
ATOM      5  C4  BZF d   1      -0.949  -0.085  -1.731  0.00  0.00     0.055 A 
ATOM      6  C5  BZF d   1      -1.413  -0.194  -0.459  0.00  0.00    -0.016 A 
ATOM      7  C6  BZF d   1      -0.560  -0.346   0.615  0.00  0.00     0.022 A 
ATOM      8  C7  BZF d   1       0.784  -0.383   0.447  0.00  0.00     0.029 A 
ATOM      9  C7A BZF d   1       1.258  -0.239  -0.835  0.00  0.00     0.058 A 
ENDROOT
TORSDOF 0
ENDMDL
