MODEL 1
REMARK minimizedAffinity -5.08586788
REMARK minimizedRMSD -1
REMARK  0 active torsions:
REMARK  status: ('A' for Active; 'I' for Inactive)
ROOT
ATOM      1  O1  BZF d   1      -1.997  -0.238  -1.024  0.00  0.00    -0.204 OA
ATOM      2  C2  BZF d   1      -2.254  -0.470   0.313  0.00  0.00     0.174 A 
ATOM      3  C3  BZF d   1      -1.104  -0.591   1.008  0.00  0.00    -0.012 A 
ATOM      4  C3A BZF d   1      -0.064  -0.331   0.061  0.00  0.00    -0.107 A 
ATOM      5  C4  BZF d   1       1.298  -0.287   0.151  0.00  0.00     0.055 A 
ATOM      6  C5  BZF d   1       2.029  -0.079  -0.976  0.00  0.00    -0.016 A 
ATOM      7  C6  BZF d   1       1.431   0.084  -2.208  0.00  0.00     0.022 A 
ATOM      8  C7  BZF d   1       0.083   0.053  -2.347  0.00  0.00     0.029 A 
ATOM      9  C7A BZF d   1      -0.659  -0.124  -1.205  0.00  0.00     0.058 A 
ENDROOT
TORSDOF 0
ENDMDL
