MODEL 1
REMARK minimizedAffinity 0.539290488
REMARK minimizedRMSD -1
REMARK  0 active torsions:
REMARK  status: ('A' for Active; 'I' for Inactive)
ROOT
ATOM      1  O1  BZF d   1       1.422   0.855  -0.383  0.00  0.00    -0.204 OA
ATOM      2  C2  BZF d   1       0.709   0.062   0.496  0.00  0.00     0.174 A 
ATOM      3  C3  BZF d   1       0.785   0.551   1.750  0.00  0.00    -0.012 A 
ATOM      4  C3A BZF d   1       1.520   1.773   1.634  0.00  0.00    -0.107 A 
ATOM      5  C4  BZF d   1       1.909   2.724   2.534  0.00  0.00     0.055 A 
ATOM      6  C5  BZF d   1       2.680   3.759   2.109  0.00  0.00    -0.016 A 
ATOM      7  C6  BZF d   1       3.084   3.872   0.795  0.00  0.00     0.022 A 
ATOM      8  C7  BZF d   1       2.719   2.956  -0.135  0.00  0.00     0.029 A 
ATOM      9  C7A BZF d   1       1.912   1.927   0.284  0.00  0.00     0.058 A 
ENDROOT
TORSDOF 0
ENDMDL
