MODEL 1
REMARK minimizedAffinity -5.55774069
REMARK minimizedRMSD -1
REMARK  0 active torsions:
REMARK  status: ('A' for Active; 'I' for Inactive)
ROOT
ATOM      1  O1  BZF d   1       1.650  -0.680  -1.872  0.00  0.00    -0.204 OA
ATOM      2  C2  BZF d   1       0.770  -0.161  -0.943  0.00  0.00     0.174 A 
ATOM      3  C3  BZF d   1      -0.128   0.651  -1.536  0.00  0.00    -0.012 A 
ATOM      4  C3A BZF d   1       0.154   0.566  -2.936  0.00  0.00    -0.107 A 
ATOM      5  C4  BZF d   1      -0.408   1.133  -4.043  0.00  0.00     0.055 A 
ATOM      6  C5  BZF d   1       0.151   0.901  -5.260  0.00  0.00    -0.016 A 
ATOM      7  C6  BZF d   1       1.273   0.113  -5.405  0.00  0.00     0.022 A 
ATOM      8  C7  BZF d   1       1.863  -0.475  -4.337  0.00  0.00     0.029 A 
ATOM      9  C7A BZF d   1       1.282  -0.270  -3.110  0.00  0.00     0.058 A 
ENDROOT
TORSDOF 0
ENDMDL
