MODEL 1
REMARK minimizedAffinity -4.67233753
REMARK minimizedRMSD -1
REMARK  0 active torsions:
REMARK  status: ('A' for Active; 'I' for Inactive)
ROOT
ATOM      1  O1  BZF d   1       0.423  -0.437  -2.349  0.00  0.00    -0.204 OA
ATOM      2  C2  BZF d   1       1.511  -0.304  -1.507  0.00  0.00     0.174 A 
ATOM      3  C3  BZF d   1       1.114  -0.243  -0.219  0.00  0.00    -0.012 A 
ATOM      4  C3A BZF d   1      -0.303  -0.437  -0.253  0.00  0.00    -0.107 A 
ATOM      5  C4  BZF d   1      -1.266  -0.495   0.714  0.00  0.00     0.055 A 
ATOM      6  C5  BZF d   1      -2.567  -0.623   0.344  0.00  0.00    -0.016 A 
ATOM      7  C6  BZF d   1      -2.941  -0.689  -0.982  0.00  0.00     0.022 A 
ATOM      8  C7  BZF d   1      -2.022  -0.640  -1.977  0.00  0.00     0.029 A 
ATOM      9  C7A BZF d   1      -0.703  -0.545  -1.605  0.00  0.00     0.058 A 
ENDROOT
TORSDOF 0
ENDMDL
