MODEL 1
REMARK minimizedAffinity -4.13814497
REMARK minimizedRMSD -1
REMARK  0 active torsions:
REMARK  status: ('A' for Active; 'I' for Inactive)
ROOT
ATOM      1  O1  BZF d   1      -0.267   0.617   1.516  0.00  0.00    -0.204 OA
ATOM      2  C2  BZF d   1       0.921   0.941   0.889  0.00  0.00     0.174 A 
ATOM      3  C3  BZF d   1       0.915   0.523  -0.393  0.00  0.00    -0.012 A 
ATOM      4  C3A BZF d   1      -0.392  -0.020  -0.606  0.00  0.00    -0.107 A 
ATOM      5  C4  BZF d   1      -1.012  -0.578  -1.687  0.00  0.00     0.055 A 
ATOM      6  C5  BZF d   1      -2.269  -1.075  -1.543  0.00  0.00    -0.016 A 
ATOM      7  C6  BZF d   1      -2.932  -1.035  -0.335  0.00  0.00     0.022 A 
ATOM      8  C7  BZF d   1      -2.360  -0.486   0.765  0.00  0.00     0.029 A 
ATOM      9  C7A BZF d   1      -1.103   0.047   0.615  0.00  0.00     0.058 A 
ENDROOT
TORSDOF 0
ENDMDL
