MODEL 1
REMARK minimizedAffinity -1.58267367
REMARK minimizedRMSD -1
REMARK  0 active torsions:
REMARK  status: ('A' for Active; 'I' for Inactive)
ROOT
ATOM      1  O1  BZF d   1       1.325  -0.871  -1.143  0.00  0.00    -0.204 OA
ATOM      2  C2  BZF d   1       1.057  -0.153  -2.293  0.00  0.00     0.174 A 
ATOM      3  C3  BZF d   1      -0.203   0.329  -2.273  0.00  0.00    -0.012 A 
ATOM      4  C3A BZF d   1      -0.725  -0.036  -0.992  0.00  0.00    -0.107 A 
ATOM      5  C4  BZF d   1      -1.923   0.174  -0.372  0.00  0.00     0.055 A 
ATOM      6  C5  BZF d   1      -2.140  -0.377   0.851  0.00  0.00    -0.016 A 
ATOM      7  C6  BZF d   1      -1.184  -1.147   1.480  0.00  0.00     0.022 A 
ATOM      8  C7  BZF d   1       0.022  -1.379   0.907  0.00  0.00     0.029 A 
ATOM      9  C7A BZF d   1       0.256  -0.796  -0.314  0.00  0.00     0.058 A 
ENDROOT
TORSDOF 0
ENDMDL
