MODEL 1
REMARK minimizedAffinity 0.121459328
REMARK minimizedRMSD -1
REMARK  0 active torsions:
REMARK  status: ('A' for Active; 'I' for Inactive)
ROOT
ATOM      1  O1  BZF d   1       0.502   0.571  -0.718  0.00  0.00    -0.204 OA
ATOM      2  C2  BZF d   1       1.728   0.509  -0.086  0.00  0.00     0.174 A 
ATOM      3  C3  BZF d   1       1.638  -0.186   1.067  0.00  0.00    -0.012 A 
ATOM      4  C3A BZF d   1       0.289  -0.662   1.115  0.00  0.00    -0.107 A 
ATOM      5  C4  BZF d   1      -0.406  -1.426   2.008  0.00  0.00     0.055 A 
ATOM      6  C5  BZF d   1      -1.729  -1.648   1.797  0.00  0.00    -0.016 A 
ATOM      7  C6  BZF d   1      -2.390  -1.119   0.708  0.00  0.00     0.022 A 
ATOM      8  C7  BZF d   1      -1.742  -0.359  -0.208  0.00  0.00     0.029 A 
ATOM      9  C7A BZF d   1      -0.397  -0.160  -0.015  0.00  0.00     0.058 A 
ENDROOT
TORSDOF 0
ENDMDL
