MODEL 1
REMARK minimizedAffinity -3.58139253
REMARK minimizedRMSD -1
REMARK  0 active torsions:
REMARK  status: ('A' for Active; 'I' for Inactive)
ROOT
ATOM      1  O1  BZF d   1      -0.311   0.189  -0.761  0.00  0.00    -0.204 OA
ATOM      2  C2  BZF d   1       0.804   0.299   0.047  0.00  0.00     0.174 A 
ATOM      3  C3  BZF d   1       0.653  -0.429   1.173  0.00  0.00    -0.012 A 
ATOM      4  C3A BZF d   1      -0.598  -1.104   1.019  0.00  0.00    -0.107 A 
ATOM      5  C4  BZF d   1      -1.291  -1.986   1.798  0.00  0.00     0.055 A 
ATOM      6  C5  BZF d   1      -2.520  -2.402   1.392  0.00  0.00    -0.016 A 
ATOM      7  C6  BZF d   1      -3.087  -1.954   0.217  0.00  0.00     0.022 A 
ATOM      8  C7  BZF d   1      -2.435  -1.083  -0.591  0.00  0.00     0.029 A 
ATOM      9  C7A BZF d   1      -1.180  -0.686  -0.200  0.00  0.00     0.058 A 
ENDROOT
TORSDOF 0
ENDMDL
