MODEL 1
REMARK minimizedAffinity -4.56444454
REMARK minimizedRMSD -1
REMARK  1 active torsions:
REMARK  status: ('A' for Active; 'I' for Inactive)
REMARK    1  A    between atoms: C1_2  and  C2_3 
ROOT
ATOM      1  C2  UNL d   1      -0.589   0.390  -0.111  0.00  0.00    -0.073 A 
ATOM      2  C3  UNL d   1      -0.213   1.714  -0.365  0.00  0.00    -0.002 A 
ATOM      3  C4  UNL d   1       1.089   2.140  -0.102  0.00  0.00     0.004 A 
ATOM      4  C5  UNL d   1       2.030   1.248   0.412  0.00  0.00    -0.004 A 
ATOM      5  C6  UNL d   1       1.677  -0.083   0.661  0.00  0.00    -0.075 A 
ATOM      6  C7  UNL d   1       2.676  -1.055   1.215  0.00  0.00     0.076 C 
ATOM      7  C8  UNL d   1       0.366  -0.503   0.396  0.00  0.00     0.001 A 
ENDROOT
BRANCH   1   8
ATOM      8  C1  UNL d   1      -1.992  -0.077  -0.400  0.00  0.00     0.053 C 
ATOM      9  C   UNL d   1      -3.023   0.662   0.439  0.00  0.00     0.018 C 
ENDBRANCH   1   8
TORSDOF 1
ENDMDL
