MODEL 1
REMARK minimizedAffinity -1.638255
REMARK minimizedRMSD -1
REMARK  1 active torsions:
REMARK  status: ('A' for Active; 'I' for Inactive)
REMARK    1  A    between atoms: C1_2  and  C2_3 
ROOT
ATOM      1  C2  UNL d   1      -0.499   0.282   0.288  0.00  0.00    -0.073 A 
ATOM      2  C3  UNL d   1       0.226  -0.629   1.064  0.00  0.00    -0.002 A 
ATOM      3  C4  UNL d   1       1.458  -0.266   1.610  0.00  0.00     0.004 A 
ATOM      4  C5  UNL d   1       1.974   1.011   1.390  0.00  0.00    -0.004 A 
ATOM      5  C6  UNL d   1       1.259   1.940   0.627  0.00  0.00    -0.075 A 
ATOM      6  C7  UNL d   1       1.801   3.317   0.380  0.00  0.00     0.076 C 
ATOM      7  C8  UNL d   1       0.023   1.567   0.081  0.00  0.00     0.001 A 
ENDROOT
BRANCH   1   8
ATOM      8  C1  UNL d   1      -1.833  -0.103  -0.297  0.00  0.00     0.053 C 
ATOM      9  C   UNL d   1      -2.993   0.391   0.553  0.00  0.00     0.018 C 
ENDBRANCH   1   8
TORSDOF 1
ENDMDL
