MODEL 1
REMARK minimizedAffinity -4.71710873
REMARK minimizedRMSD -1
REMARK  1 active torsions:
REMARK  status: ('A' for Active; 'I' for Inactive)
REMARK    1  A    between atoms: C1_2  and  C2_3 
ROOT
ATOM      1  C2  UNL d   1      -1.065   0.279  -0.179  0.00  0.00    -0.073 A 
ATOM      2  C3  UNL d   1      -0.319   1.370   0.281  0.00  0.00    -0.002 A 
ATOM      3  C4  UNL d   1       1.048   1.237   0.528  0.00  0.00     0.004 A 
ATOM      4  C5  UNL d   1       1.684   0.014   0.311  0.00  0.00    -0.004 A 
ATOM      5  C6  UNL d   1       0.959  -1.085  -0.159  0.00  0.00    -0.075 A 
ATOM      6  C7  UNL d   1       1.628  -2.407  -0.395  0.00  0.00     0.076 C 
ATOM      7  C8  UNL d   1      -0.414  -0.944  -0.402  0.00  0.00     0.001 A 
ENDROOT
BRANCH   1   8
ATOM      8  C1  UNL d   1      -2.540   0.420  -0.452  0.00  0.00     0.053 C 
ATOM      9  C   UNL d   1      -3.328   0.720   0.812  0.00  0.00     0.018 C 
ENDBRANCH   1   8
TORSDOF 1
ENDMDL
