MODEL 1
REMARK minimizedAffinity -3.14515638
REMARK minimizedRMSD -1
REMARK  1 active torsions:
REMARK  status: ('A' for Active; 'I' for Inactive)
REMARK    1  A    between atoms: C1_2  and  C2_3 
ROOT
ATOM      1  C2  UNL d   1      -0.089   0.416  -0.383  0.00  0.00    -0.073 A 
ATOM      2  C3  UNL d   1       0.022  -0.972  -0.529  0.00  0.00    -0.002 A 
ATOM      3  C4  UNL d   1       1.278  -1.571  -0.632  0.00  0.00     0.004 A 
ATOM      4  C5  UNL d   1       2.434  -0.792  -0.583  0.00  0.00    -0.004 A 
ATOM      5  C6  UNL d   1       2.344   0.595  -0.425  0.00  0.00    -0.075 A 
ATOM      6  C7  UNL d   1       3.577   1.447  -0.373  0.00  0.00     0.076 C 
ATOM      7  C8  UNL d   1       1.079   1.190  -0.326  0.00  0.00     0.001 A 
ENDROOT
BRANCH   1   8
ATOM      8  C1  UNL d   1      -1.443   1.066  -0.266  0.00  0.00     0.053 C 
ATOM      9  C   UNL d   1      -2.107   0.765   1.069  0.00  0.00     0.018 C 
ENDBRANCH   1   8
TORSDOF 1
ENDMDL
