MODEL 1
REMARK minimizedAffinity -5.68851137
REMARK minimizedRMSD -1
REMARK  1 active torsions:
REMARK  status: ('A' for Active; 'I' for Inactive)
REMARK    1  A    between atoms: C1_2  and  C2_3 
ROOT
ATOM      1  C2  UNL d   1       0.636   0.122  -0.083  0.00  0.00    -0.073 A 
ATOM      2  C3  UNL d   1       0.748   1.513  -0.184  0.00  0.00    -0.002 A 
ATOM      3  C4  UNL d   1       1.973   2.140   0.046  0.00  0.00     0.004 A 
ATOM      4  C5  UNL d   1       3.099   1.384   0.371  0.00  0.00    -0.004 A 
ATOM      5  C6  UNL d   1       3.010  -0.009   0.465  0.00  0.00    -0.075 A 
ATOM      6  C7  UNL d   1       4.211  -0.837   0.815  0.00  0.00     0.076 C 
ATOM      7  C8  UNL d   1       1.776  -0.631   0.236  0.00  0.00     0.001 A 
ENDROOT
BRANCH   1   8
ATOM      8  C1  UNL d   1      -0.684  -0.560  -0.335  0.00  0.00     0.053 C 
ATOM      9  C   UNL d   1      -1.862   0.363  -0.072  0.00  0.00     0.018 C 
ENDBRANCH   1   8
TORSDOF 1
ENDMDL
