MODEL 1
REMARK minimizedAffinity -4.21435261
REMARK minimizedRMSD -1
REMARK  1 active torsions:
REMARK  status: ('A' for Active; 'I' for Inactive)
REMARK    1  A    between atoms: C1_2  and  C2_3 
ROOT
ATOM      1  C2  UNL d   1       3.346   0.423  -0.194  0.00  0.00    -0.073 A 
ATOM      2  C3  UNL d   1       3.805  -0.870   0.079  0.00  0.00    -0.002 A 
ATOM      3  C4  UNL d   1       2.901  -1.888   0.389  0.00  0.00     0.004 A 
ATOM      4  C5  UNL d   1       1.532  -1.625   0.421  0.00  0.00    -0.004 A 
ATOM      5  C6  UNL d   1       1.053  -0.342   0.139  0.00  0.00    -0.075 A 
ATOM      6  C7  UNL d   1      -0.417  -0.042   0.171  0.00  0.00     0.076 C 
ATOM      7  C8  UNL d   1       1.967   0.676  -0.168  0.00  0.00     0.001 A 
ENDROOT
BRANCH   1   8
ATOM      8  C1  UNL d   1       4.317   1.524  -0.535  0.00  0.00     0.053 C 
ATOM      9  C   UNL d   1       5.265   1.122  -1.653  0.00  0.00     0.018 C 
ENDBRANCH   1   8
TORSDOF 1
ENDMDL
