MODEL 1
REMARK minimizedAffinity -4.88248968
REMARK minimizedRMSD -1
REMARK  1 active torsions:
REMARK  status: ('A' for Active; 'I' for Inactive)
REMARK    1  A    between atoms: C1_2  and  C2_3 
ROOT
ATOM      1  C2  UNL d   1       0.726  -1.169  -0.629  0.00  0.00    -0.081 A 
ATOM      2  C3  UNL d   1      -0.458  -1.473   0.053  0.00  0.00     0.006 A 
ATOM      3  C4  UNL d   1      -1.109  -0.496   0.811  0.00  0.00     0.002 A 
ATOM      4  C5  UNL d   1      -0.591   0.801   0.893  0.00  0.00    -0.080 A 
ATOM      5  C6  UNL d   1      -1.296   1.866   1.678  0.00  0.00     0.076 C 
ATOM      6  C7  UNL d   1       0.602   1.099   0.226  0.00  0.00     0.002 A 
ATOM      7  C8  UNL d   1       1.253   0.123  -0.531  0.00  0.00     0.006 A 
ENDROOT
BRANCH   1   8
ATOM      8  C1  UNL d   1       1.396  -2.202  -1.499  0.00  0.00     0.054 C 
ATOM      9  C   UNL d   1       0.563  -2.507  -2.736  0.00  0.00     0.018 C 
ENDBRANCH   1   8
TORSDOF 1
ENDMDL
