MODEL 1
REMARK minimizedAffinity -1.9231174
REMARK minimizedRMSD -1
REMARK  1 active torsions:
REMARK  status: ('A' for Active; 'I' for Inactive)
REMARK    1  A    between atoms: C1_2  and  C2_3 
ROOT
ATOM      1  C2  UNL d   1       0.783  -1.106  -0.163  0.00  0.00    -0.081 A 
ATOM      2  C3  UNL d   1       0.616  -1.482   1.176  0.00  0.00     0.006 A 
ATOM      3  C4  UNL d   1      -0.132  -0.686   2.047  0.00  0.00     0.002 A 
ATOM      4  C5  UNL d   1      -0.731   0.494   1.593  0.00  0.00    -0.080 A 
ATOM      5  C6  UNL d   1      -1.561   1.342   2.510  0.00  0.00     0.076 C 
ATOM      6  C7  UNL d   1      -0.550   0.879   0.260  0.00  0.00     0.002 A 
ATOM      7  C8  UNL d   1       0.198   0.083  -0.611  0.00  0.00     0.006 A 
ENDROOT
BRANCH   1   8
ATOM      8  C1  UNL d   1       1.534  -1.995  -1.120  0.00  0.00     0.054 C 
ATOM      9  C   UNL d   1       0.595  -2.634  -2.134  0.00  0.00     0.018 C 
ENDBRANCH   1   8
TORSDOF 1
ENDMDL
