MODEL 1
REMARK minimizedAffinity -4.17621326
REMARK minimizedRMSD -1
REMARK  1 active torsions:
REMARK  status: ('A' for Active; 'I' for Inactive)
REMARK    1  A    between atoms: C1_2  and  C2_3 
ROOT
ATOM      1  C2  UNL d   1       0.387  -0.746   0.543  0.00  0.00    -0.081 A 
ATOM      2  C3  UNL d   1      -0.616  -0.780  -0.434  0.00  0.00     0.006 A 
ATOM      3  C4  UNL d   1      -0.425  -1.494  -1.620  0.00  0.00     0.002 A 
ATOM      4  C5  UNL d   1       0.767  -2.191  -1.845  0.00  0.00    -0.080 A 
ATOM      5  C6  UNL d   1       0.972  -2.986  -3.100  0.00  0.00     0.076 C 
ATOM      6  C7  UNL d   1       1.775  -2.143  -0.876  0.00  0.00     0.002 A 
ATOM      7  C8  UNL d   1       1.585  -1.429   0.309  0.00  0.00     0.006 A 
ENDROOT
BRANCH   1   8
ATOM      8  C1  UNL d   1       0.159  -0.031   1.850  0.00  0.00     0.054 C 
ATOM      9  C   UNL d   1      -1.312  -0.047   2.240  0.00  0.00     0.018 C 
ENDBRANCH   1   8
TORSDOF 1
ENDMDL
