MODEL 1
REMARK minimizedAffinity -0.29776457
REMARK minimizedRMSD -1
REMARK  1 active torsions:
REMARK  status: ('A' for Active; 'I' for Inactive)
REMARK    1  A    between atoms: C1_2  and  C2_3 
ROOT
ATOM      1  C2  UNL d   1      -0.542   1.142   1.211  0.00  0.00    -0.081 A 
ATOM      2  C3  UNL d   1      -0.132   1.479  -0.084  0.00  0.00     0.006 A 
ATOM      3  C4  UNL d   1       0.346   0.495  -0.954  0.00  0.00     0.002 A 
ATOM      4  C5  UNL d   1       0.415  -0.841  -0.546  0.00  0.00    -0.080 A 
ATOM      5  C6  UNL d   1       0.897  -1.911  -1.480  0.00  0.00     0.076 C 
ATOM      6  C7  UNL d   1       0.021  -1.175   0.754  0.00  0.00     0.002 A 
ATOM      7  C8  UNL d   1      -0.456  -0.192   1.625  0.00  0.00     0.006 A 
ENDROOT
BRANCH   1   8
ATOM      8  C1  UNL d   1      -1.118   2.189   2.129  0.00  0.00     0.054 C 
ATOM      9  C   UNL d   1      -0.359   2.249   3.447  0.00  0.00     0.018 C 
ENDBRANCH   1   8
TORSDOF 1
ENDMDL
