MODEL 1
REMARK minimizedAffinity -3.28110766
REMARK minimizedRMSD -1
REMARK  1 active torsions:
REMARK  status: ('A' for Active; 'I' for Inactive)
REMARK    1  A    between atoms: C1_2  and  C2_3 
ROOT
ATOM      1  C2  UNL d   1       0.127  -1.474  -0.885  0.00  0.00    -0.081 A 
ATOM      2  C3  UNL d   1      -1.145  -1.483  -0.299  0.00  0.00     0.006 A 
ATOM      3  C4  UNL d   1      -1.465  -0.573   0.712  0.00  0.00     0.002 A 
ATOM      4  C5  UNL d   1      -0.522   0.365   1.147  0.00  0.00    -0.080 A 
ATOM      5  C6  UNL d   1      -0.863   1.367   2.210  0.00  0.00     0.076 C 
ATOM      6  C7  UNL d   1       0.754   0.362   0.573  0.00  0.00     0.002 A 
ATOM      7  C8  UNL d   1       1.074  -0.548  -0.437  0.00  0.00     0.006 A 
ENDROOT
BRANCH   1   8
ATOM      8  C1  UNL d   1       0.454  -2.411  -2.020  0.00  0.00     0.054 C 
ATOM      9  C   UNL d   1      -0.803  -3.067  -2.576  0.00  0.00     0.018 C 
ENDBRANCH   1   8
TORSDOF 1
ENDMDL
