MODEL 1
REMARK minimizedAffinity -5.03588724
REMARK minimizedRMSD -1
REMARK  1 active torsions:
REMARK  status: ('A' for Active; 'I' for Inactive)
REMARK    1  A    between atoms: C1_2  and  C2_3 
ROOT
ATOM      1  C2  UNL d   1      -0.620  -0.237   0.723  0.00  0.00    -0.081 A 
ATOM      2  C3  UNL d   1      -1.637  -1.079   0.257  0.00  0.00     0.006 A 
ATOM      3  C4  UNL d   1      -1.445  -1.856  -0.888  0.00  0.00     0.002 A 
ATOM      4  C5  UNL d   1      -0.230  -1.810  -1.581  0.00  0.00    -0.080 A 
ATOM      5  C6  UNL d   1       0.000  -2.661  -2.794  0.00  0.00     0.076 C 
ATOM      6  C7  UNL d   1       0.779  -0.955  -1.126  0.00  0.00     0.002 A 
ATOM      7  C8  UNL d   1       0.587  -0.178   0.019  0.00  0.00     0.006 A 
ENDROOT
BRANCH   1   8
ATOM      8  C1  UNL d   1      -0.802   0.553   1.994  0.00  0.00     0.054 C 
ATOM      9  C   UNL d   1      -1.417   1.916   1.715  0.00  0.00     0.018 C 
ENDBRANCH   1   8
TORSDOF 1
ENDMDL
