MODEL 1
REMARK minimizedAffinity 1.59966588
REMARK minimizedRMSD -1
REMARK  1 active torsions:
REMARK  status: ('A' for Active; 'I' for Inactive)
REMARK    1  A    between atoms: C1_2  and  C2_3 
ROOT
ATOM      1  C2  UNL d   1       0.928  -1.687  -1.115  0.00  0.00    -0.081 A 
ATOM      2  C3  UNL d   1      -0.132  -1.239  -0.317  0.00  0.00     0.006 A 
ATOM      3  C4  UNL d   1      -0.449   0.121  -0.260  0.00  0.00     0.002 A 
ATOM      4  C5  UNL d   1       0.282   1.052  -1.005  0.00  0.00    -0.080 A 
ATOM      5  C6  UNL d   1      -0.067   2.510  -0.975  0.00  0.00     0.076 C 
ATOM      6  C7  UNL d   1       1.352   0.606  -1.788  0.00  0.00     0.002 A 
ATOM      7  C8  UNL d   1       1.670  -0.752  -1.845  0.00  0.00     0.006 A 
ENDROOT
BRANCH   1   8
ATOM      8  C1  UNL d   1       1.231  -3.159  -1.229  0.00  0.00     0.054 C 
ATOM      9  C   UNL d   1       0.715  -3.730  -2.542  0.00  0.00     0.018 C 
ENDBRANCH   1   8
TORSDOF 1
ENDMDL
