MODEL 1
REMARK minimizedAffinity -4.95608568
REMARK minimizedRMSD -1
REMARK  1 active torsions:
REMARK  status: ('A' for Active; 'I' for Inactive)
REMARK    1  A    between atoms: C1_2  and  C2_3 
ROOT
ATOM      1  C2  UNL d   1       0.464  -1.810  -0.811  0.00  0.00    -0.081 A 
ATOM      2  C3  UNL d   1      -0.875  -2.072  -0.497  0.00  0.00     0.006 A 
ATOM      3  C4  UNL d   1      -1.558  -1.268   0.419  0.00  0.00     0.002 A 
ATOM      4  C5  UNL d   1      -0.917  -0.185   1.030  0.00  0.00    -0.080 A 
ATOM      5  C6  UNL d   1      -1.647   0.703   1.992  0.00  0.00     0.076 C 
ATOM      6  C7  UNL d   1       0.427   0.066   0.730  0.00  0.00     0.002 A 
ATOM      7  C8  UNL d   1       1.110  -0.738  -0.186  0.00  0.00     0.006 A 
ENDROOT
BRANCH   1   8
ATOM      8  C1  UNL d   1       1.184  -2.635  -1.847  0.00  0.00     0.054 C 
ATOM      9  C   UNL d   1       0.395  -2.702  -3.147  0.00  0.00     0.018 C 
ENDBRANCH   1   8
TORSDOF 1
ENDMDL
