MODEL 1
REMARK minimizedAffinity -3.47849035
REMARK minimizedRMSD -1
REMARK  1 active torsions:
REMARK  status: ('A' for Active; 'I' for Inactive)
REMARK    1  A    between atoms: C1_2  and  C2_3 
ROOT
ATOM      1  C2  UNL d   1       0.042  -1.632  -1.157  0.00  0.00    -0.081 A 
ATOM      2  C3  UNL d   1       0.681  -0.388  -1.086  0.00  0.00     0.006 A 
ATOM      3  C4  UNL d   1       0.282   0.559  -0.140  0.00  0.00     0.002 A 
ATOM      4  C5  UNL d   1      -0.755   0.276   0.755  0.00  0.00    -0.080 A 
ATOM      5  C6  UNL d   1      -1.172   1.272   1.796  0.00  0.00     0.076 C 
ATOM      6  C7  UNL d   1      -1.404  -0.961   0.673  0.00  0.00     0.002 A 
ATOM      7  C8  UNL d   1      -1.007  -1.908  -0.274  0.00  0.00     0.006 A 
ENDROOT
BRANCH   1   8
ATOM      8  C1  UNL d   1       0.512  -2.680  -2.134  0.00  0.00     0.054 C 
ATOM      9  C   UNL d   1      -0.021  -4.057  -1.766  0.00  0.00     0.018 C 
ENDBRANCH   1   8
TORSDOF 1
ENDMDL
