MODEL 1
REMARK minimizedAffinity -2.6665194
REMARK minimizedRMSD -1
REMARK  1 active torsions:
REMARK  status: ('A' for Active; 'I' for Inactive)
REMARK    1  A    between atoms: C1_2  and  C2_3 
ROOT
ATOM      1  C2  UNL d   1      -0.863   1.605   1.207  0.00  0.00    -0.081 A 
ATOM      2  C3  UNL d   1       0.106   1.708   0.201  0.00  0.00     0.006 A 
ATOM      3  C4  UNL d   1       0.408   0.610  -0.607  0.00  0.00     0.002 A 
ATOM      4  C5  UNL d   1      -0.259  -0.607  -0.429  0.00  0.00    -0.080 A 
ATOM      5  C6  UNL d   1       0.034  -1.785  -1.310  0.00  0.00     0.076 C 
ATOM      6  C7  UNL d   1      -1.214  -0.716   0.587  0.00  0.00     0.002 A 
ATOM      7  C8  UNL d   1      -1.516   0.382   1.396  0.00  0.00     0.006 A 
ENDROOT
BRANCH   1   8
ATOM      8  C1  UNL d   1      -1.237   2.805   2.038  0.00  0.00     0.054 C 
ATOM      9  C   UNL d   1      -2.732   3.083   1.967  0.00  0.00     0.018 C 
ENDBRANCH   1   8
TORSDOF 1
ENDMDL
