MODEL 1
REMARK minimizedAffinity -4.51516247
REMARK minimizedRMSD -1
REMARK  1 active torsions:
REMARK  status: ('A' for Active; 'I' for Inactive)
REMARK    1  A    between atoms: C1_2  and  C2_3 
ROOT
ATOM      1  C2  UNL d   1       0.792  -1.598  -0.620  0.00  0.00    -0.081 A 
ATOM      2  C3  UNL d   1      -0.598  -1.589  -0.452  0.00  0.00     0.006 A 
ATOM      3  C4  UNL d   1      -1.192  -0.751   0.495  0.00  0.00     0.002 A 
ATOM      4  C5  UNL d   1      -0.408   0.096   1.284  0.00  0.00    -0.080 A 
ATOM      5  C6  UNL d   1      -1.035   1.022   2.284  0.00  0.00     0.076 C 
ATOM      6  C7  UNL d   1       0.983   0.075   1.129  0.00  0.00     0.002 A 
ATOM      7  C8  UNL d   1       1.577  -0.763   0.183  0.00  0.00     0.006 A 
ENDROOT
BRANCH   1   8
ATOM      8  C1  UNL d   1       1.430  -2.452  -1.685  0.00  0.00     0.054 C 
ATOM      9  C   UNL d   1       0.402  -2.931  -2.700  0.00  0.00     0.018 C 
ENDBRANCH   1   8
TORSDOF 1
ENDMDL
