MODEL 1
REMARK minimizedAffinity -4.10744476
REMARK minimizedRMSD -1
REMARK  1 active torsions:
REMARK  status: ('A' for Active; 'I' for Inactive)
REMARK    1  A    between atoms: C1_2  and  C2_3 
ROOT
ATOM      1  C2  UNL d   1       0.381  -1.437  -1.180  0.00  0.00    -0.081 A 
ATOM      2  C3  UNL d   1       1.287  -0.628  -0.484  0.00  0.00     0.006 A 
ATOM      3  C4  UNL d   1       0.844   0.215   0.538  0.00  0.00     0.002 A 
ATOM      4  C5  UNL d   1      -0.510   0.257   0.885  0.00  0.00    -0.080 A 
ATOM      5  C6  UNL d   1      -0.995   1.135   2.001  0.00  0.00     0.076 C 
ATOM      6  C7  UNL d   1      -1.418  -0.538   0.178  0.00  0.00     0.002 A 
ATOM      7  C8  UNL d   1      -0.976  -1.381  -0.844  0.00  0.00     0.006 A 
ENDROOT
BRANCH   1   8
ATOM      8  C1  UNL d   1       0.866  -2.395  -2.239  0.00  0.00     0.054 C 
ATOM      9  C   UNL d   1      -0.049  -3.607  -2.349  0.00  0.00     0.018 C 
ENDBRANCH   1   8
TORSDOF 1
ENDMDL
