MODEL 1
REMARK minimizedAffinity -4.90414333
REMARK minimizedRMSD -1
REMARK  1 active torsions:
REMARK  status: ('A' for Active; 'I' for Inactive)
REMARK    1  A    between atoms: C1_2  and  C2_3 
ROOT
ATOM      1  C2  UNL d   1       0.476  -1.857  -1.179  0.00  0.00    -0.081 A 
ATOM      2  C3  UNL d   1       1.378  -1.390  -0.215  0.00  0.00     0.006 A 
ATOM      3  C4  UNL d   1       0.945  -0.544   0.809  0.00  0.00     0.002 A 
ATOM      4  C5  UNL d   1      -0.397  -0.159   0.892  0.00  0.00    -0.080 A 
ATOM      5  C6  UNL d   1      -0.881   0.724   2.004  0.00  0.00     0.076 C 
ATOM      6  C7  UNL d   1      -1.295  -0.611  -0.081  0.00  0.00     0.002 A 
ATOM      7  C8  UNL d   1      -0.863  -1.456  -1.106  0.00  0.00     0.006 A 
ENDROOT
BRANCH   1   8
ATOM      8  C1  UNL d   1       0.926  -2.820  -2.247  0.00  0.00     0.054 C 
ATOM      9  C   UNL d   1       0.296  -2.489  -3.592  0.00  0.00     0.018 C 
ENDBRANCH   1   8
TORSDOF 1
ENDMDL
