MODEL 1
REMARK minimizedAffinity -3.31352568
REMARK minimizedRMSD -1
REMARK  1 active torsions:
REMARK  status: ('A' for Active; 'I' for Inactive)
REMARK    1  A    between atoms: C1_2  and  C2_3 
ROOT
ATOM      1  C2  UNL d   1      -0.193   0.050   0.953  0.00  0.00    -0.081 A 
ATOM      2  C3  UNL d   1      -1.274  -0.463   0.225  0.00  0.00     0.006 A 
ATOM      3  C4  UNL d   1      -1.057  -1.194  -0.945  0.00  0.00     0.002 A 
ATOM      4  C5  UNL d   1       0.244  -1.432  -1.402  0.00  0.00    -0.080 A 
ATOM      5  C6  UNL d   1       0.492  -2.242  -2.640  0.00  0.00     0.076 C 
ATOM      6  C7  UNL d   1       1.323  -0.905  -0.685  0.00  0.00     0.002 A 
ATOM      7  C8  UNL d   1       1.107  -0.173   0.485  0.00  0.00     0.006 A 
ENDROOT
BRANCH   1   8
ATOM      8  C1  UNL d   1      -0.421   0.784   2.250  0.00  0.00     0.054 C 
ATOM      9  C   UNL d   1      -1.012   2.165   2.007  0.00  0.00     0.018 C 
ENDBRANCH   1   8
TORSDOF 1
ENDMDL
