MODEL 1
REMARK minimizedAffinity -1.80601549
REMARK minimizedRMSD -1
REMARK  0 active torsions:
REMARK  status: ('A' for Active; 'I' for Inactive)
ROOT
ATOM      1  O1  BZF d   1       0.117  -1.237  -2.483  0.00  0.00    -0.204 OA
ATOM      2  C2  BZF d   1      -0.287  -2.505  -2.853  0.00  0.00     0.174 A 
ATOM      3  C3  BZF d   1      -0.737  -3.195  -1.785  0.00  0.00    -0.012 A 
ATOM      4  C3A BZF d   1      -0.691  -2.270  -0.694  0.00  0.00    -0.107 A 
ATOM      5  C4  BZF d   1      -1.027  -2.360   0.627  0.00  0.00     0.055 A 
ATOM      6  C5  BZF d   1      -0.792  -1.297   1.441  0.00  0.00    -0.016 A 
ATOM      7  C6  BZF d   1      -0.220  -0.134   0.970  0.00  0.00     0.022 A 
ATOM      8  C7  BZF d   1       0.124   0.004  -0.334  0.00  0.00     0.029 A 
ATOM      9  C7A BZF d   1      -0.142  -1.056  -1.166  0.00  0.00     0.058 A 
ENDROOT
TORSDOF 0
ENDMDL
