MODEL 1
REMARK minimizedAffinity -1.67183638
REMARK minimizedRMSD -1
REMARK  0 active torsions:
REMARK  status: ('A' for Active; 'I' for Inactive)
ROOT
ATOM      1  O1  BZF d   1      -0.263   0.322  -0.237  0.00  0.00    -0.204 OA
ATOM      2  C2  BZF d   1      -0.653  -0.359   0.901  0.00  0.00     0.174 A 
ATOM      3  C3  BZF d   1      -0.088   0.183   1.999  0.00  0.00    -0.012 A 
ATOM      4  C3A BZF d   1       0.632   1.326   1.527  0.00  0.00    -0.107 A 
ATOM      5  C4  BZF d   1       1.387   2.281   2.146  0.00  0.00     0.055 A 
ATOM      6  C5  BZF d   1       2.014   3.220   1.389  0.00  0.00    -0.016 A 
ATOM      7  C6  BZF d   1       1.911   3.231   0.014  0.00  0.00     0.022 A 
ATOM      8  C7  BZF d   1       1.169   2.307  -0.644  0.00  0.00     0.029 A 
ATOM      9  C7A BZF d   1       0.508   1.376   0.120  0.00  0.00     0.058 A 
ENDROOT
TORSDOF 0
ENDMDL
