MODEL 1
REMARK minimizedAffinity -1.10825467
REMARK minimizedRMSD -1
REMARK  0 active torsions:
REMARK  status: ('A' for Active; 'I' for Inactive)
ROOT
ATOM      1  O1  BZF d   1      -0.626  -0.445  -0.141  0.00  0.00    -0.204 OA
ATOM      2  C2  BZF d   1      -0.627  -0.834   1.184  0.00  0.00     0.174 A 
ATOM      3  C3  BZF d   1      -0.125   0.141   1.969  0.00  0.00    -0.012 A 
ATOM      4  C3A BZF d   1       0.124   1.242   1.089  0.00  0.00    -0.107 A 
ATOM      5  C4  BZF d   1       0.610   2.504   1.278  0.00  0.00     0.055 A 
ATOM      6  C5  BZF d   1       0.800   3.307   0.199  0.00  0.00    -0.016 A 
ATOM      7  C6  BZF d   1       0.521   2.879  -1.083  0.00  0.00     0.022 A 
ATOM      8  C7  BZF d   1       0.033   1.637  -1.320  0.00  0.00     0.029 A 
ATOM      9  C7A BZF d   1      -0.191   0.835  -0.228  0.00  0.00     0.058 A 
ENDROOT
TORSDOF 0
ENDMDL
