MODEL 1
REMARK minimizedAffinity -3.57549477
REMARK minimizedRMSD -1
REMARK  0 active torsions:
REMARK  status: ('A' for Active; 'I' for Inactive)
ROOT
ATOM      1  O1  BZF d   1       0.135  -1.237  -2.305  0.00  0.00    -0.204 OA
ATOM      2  C2  BZF d   1      -0.352  -2.512  -2.518  0.00  0.00     0.174 A 
ATOM      3  C3  BZF d   1      -0.854  -3.029  -1.377  0.00  0.00    -0.012 A 
ATOM      4  C3A BZF d   1      -0.753  -1.978  -0.411  0.00  0.00    -0.107 A 
ATOM      5  C4  BZF d   1      -1.101  -1.876   0.905  0.00  0.00     0.055 A 
ATOM      6  C5  BZF d   1      -0.800  -0.737   1.582  0.00  0.00    -0.016 A 
ATOM      7  C6  BZF d   1      -0.148   0.317   0.975  0.00  0.00     0.022 A 
ATOM      8  C7  BZF d   1       0.213   0.264  -0.330  0.00  0.00     0.029 A 
ATOM      9  C7A BZF d   1      -0.119  -0.873  -1.025  0.00  0.00     0.058 A 
ENDROOT
TORSDOF 0
ENDMDL
