MODEL 1
REMARK minimizedAffinity -1.31970847
REMARK minimizedRMSD -1
REMARK  0 active torsions:
REMARK  status: ('A' for Active; 'I' for Inactive)
ROOT
ATOM      1  O1  BZF d   1       1.950   2.500   2.030  0.00  0.00    -0.204 OA
ATOM      2  C2  BZF d   1       2.111   3.696   1.357  0.00  0.00     0.174 A 
ATOM      3  C3  BZF d   1       1.485   3.660   0.163  0.00  0.00    -0.012 A 
ATOM      4  C3A BZF d   1       0.819   2.395   0.124  0.00  0.00    -0.107 A 
ATOM      5  C4  BZF d   1       0.019   1.783  -0.798  0.00  0.00     0.055 A 
ATOM      6  C5  BZF d   1      -0.410   0.515  -0.563  0.00  0.00    -0.016 A 
ATOM      7  C6  BZF d   1      -0.055  -0.171   0.580  0.00  0.00     0.022 A 
ATOM      8  C7  BZF d   1       0.733   0.396   1.526  0.00  0.00     0.029 A 
ATOM      9  C7A BZF d   1       1.141   1.689   1.306  0.00  0.00     0.058 A 
ENDROOT
TORSDOF 0
ENDMDL
