MODEL 1
REMARK minimizedAffinity -2.7235117
REMARK minimizedRMSD -1
REMARK  0 active torsions:
REMARK  status: ('A' for Active; 'I' for Inactive)
ROOT
ATOM      1  O1  BZF d   1       1.404   1.288   1.093  0.00  0.00    -0.204 OA
ATOM      2  C2  BZF d   1       0.957   2.032   0.018  0.00  0.00     0.174 A 
ATOM      3  C3  BZF d   1      -0.069   1.412  -0.599  0.00  0.00    -0.012 A 
ATOM      4  C3A BZF d   1      -0.336   0.249   0.191  0.00  0.00    -0.107 A 
ATOM      5  C4  BZF d   1      -1.252  -0.759   0.098  0.00  0.00     0.055 A 
ATOM      6  C5  BZF d   1      -1.200  -1.783   0.989  0.00  0.00    -0.016 A 
ATOM      7  C6  BZF d   1      -0.243  -1.834   1.982  0.00  0.00     0.022 A 
ATOM      8  C7  BZF d   1       0.684  -0.855   2.117  0.00  0.00     0.029 A 
ATOM      9  C7A BZF d   1       0.613   0.198   1.238  0.00  0.00     0.058 A 
ENDROOT
TORSDOF 0
ENDMDL
