MODEL 1
REMARK minimizedAffinity -4.77472448
REMARK minimizedRMSD -1
REMARK  0 active torsions:
REMARK  status: ('A' for Active; 'I' for Inactive)
ROOT
ATOM      1  O1  BZF d   1       0.933   3.989  -0.096  0.00  0.00    -0.204 OA
ATOM      2  C2  BZF d   1       2.182   4.079   0.487  0.00  0.00     0.174 A 
ATOM      3  C3  BZF d   1       2.582   2.878   0.952  0.00  0.00    -0.012 A 
ATOM      4  C3A BZF d   1       1.555   1.962   0.558  0.00  0.00    -0.107 A 
ATOM      5  C4  BZF d   1       1.387   0.616   0.715  0.00  0.00     0.055 A 
ATOM      6  C5  BZF d   1       0.238   0.038   0.276  0.00  0.00    -0.016 A 
ATOM      7  C6  BZF d   1      -0.764   0.776  -0.318  0.00  0.00     0.022 A 
ATOM      8  C7  BZF d   1      -0.641   2.113  -0.501  0.00  0.00     0.029 A 
ATOM      9  C7A BZF d   1       0.533   2.694  -0.089  0.00  0.00     0.058 A 
ENDROOT
TORSDOF 0
ENDMDL
