MODEL 1
REMARK minimizedAffinity -1.30390322
REMARK minimizedRMSD -1
REMARK  0 active torsions:
REMARK  status: ('A' for Active; 'I' for Inactive)
ROOT
ATOM      1  O1  BZF d   1       1.126   1.556   0.946  0.00  0.00    -0.204 OA
ATOM      2  C2  BZF d   1       0.901   2.002  -0.342  0.00  0.00     0.174 A 
ATOM      3  C3  BZF d   1       0.019   1.205  -0.978  0.00  0.00    -0.012 A 
ATOM      4  C3A BZF d   1      -0.401   0.251   0.003  0.00  0.00    -0.107 A 
ATOM      5  C4  BZF d   1      -1.280  -0.794  -0.019  0.00  0.00     0.055 A 
ATOM      6  C5  BZF d   1      -1.406  -1.575   1.086  0.00  0.00    -0.016 A 
ATOM      7  C6  BZF d   1      -0.666  -1.344   2.227  0.00  0.00     0.022 A 
ATOM      8  C7  BZF d   1       0.216  -0.316   2.298  0.00  0.00     0.029 A 
ATOM      9  C7A BZF d   1       0.321   0.494   1.194  0.00  0.00     0.058 A 
ENDROOT
TORSDOF 0
ENDMDL
