MODEL 1
REMARK minimizedAffinity -4.39360189
REMARK minimizedRMSD -1
REMARK  0 active torsions:
REMARK  status: ('A' for Active; 'I' for Inactive)
ROOT
ATOM      1  O1  BZF d   1       0.343   3.128   0.088  0.00  0.00    -0.204 OA
ATOM      2  C2  BZF d   1       1.499   3.592   0.685  0.00  0.00     0.174 A 
ATOM      3  C3  BZF d   1       2.191   2.578   1.242  0.00  0.00    -0.012 A 
ATOM      4  C3A BZF d   1       1.466   1.393   0.896  0.00  0.00    -0.107 A 
ATOM      5  C4  BZF d   1       1.663   0.065   1.146  0.00  0.00     0.055 A 
ATOM      6  C5  BZF d   1       0.730  -0.830   0.730  0.00  0.00    -0.016 A 
ATOM      7  C6  BZF d   1      -0.413  -0.434   0.066  0.00  0.00     0.022 A 
ATOM      8  C7  BZF d   1      -0.649   0.872  -0.209  0.00  0.00     0.029 A 
ATOM      9  C7A BZF d   1       0.308   1.777   0.181  0.00  0.00     0.058 A 
ENDROOT
TORSDOF 0
ENDMDL
