MODEL 1
REMARK minimizedAffinity -2.05372167
REMARK minimizedRMSD -1
REMARK  0 active torsions:
REMARK  status: ('A' for Active; 'I' for Inactive)
ROOT
ATOM      1  O1  BZF d   1       0.088  -1.658  -2.510  0.00  0.00    -0.204 OA
ATOM      2  C2  BZF d   1      -0.290  -2.986  -2.532  0.00  0.00     0.174 A 
ATOM      3  C3  BZF d   1      -0.693  -3.390  -1.310  0.00  0.00    -0.012 A 
ATOM      4  C3A BZF d   1      -0.646  -2.217  -0.492  0.00  0.00    -0.107 A 
ATOM      5  C4  BZF d   1      -0.944  -1.973   0.818  0.00  0.00     0.055 A 
ATOM      6  C5  BZF d   1      -0.719  -0.733   1.327  0.00  0.00    -0.016 A 
ATOM      7  C6  BZF d   1      -0.193   0.283   0.558  0.00  0.00     0.022 A 
ATOM      8  C7  BZF d   1       0.115   0.091  -0.748  0.00  0.00     0.029 A 
ATOM      9  C7A BZF d   1      -0.142  -1.152  -1.274  0.00  0.00     0.058 A 
ENDROOT
TORSDOF 0
ENDMDL
