MODEL 1
REMARK minimizedAffinity -3.62278152
REMARK minimizedRMSD -1
REMARK  0 active torsions:
REMARK  status: ('A' for Active; 'I' for Inactive)
ROOT
ATOM      1  O1  BZF d   1       0.153   1.488  -0.437  0.00  0.00    -0.204 OA
ATOM      2  C2  BZF d   1       0.941   2.262   0.393  0.00  0.00     0.174 A 
ATOM      3  C3  BZF d   1       1.199   1.616   1.548  0.00  0.00    -0.012 A 
ATOM      4  C3A BZF d   1       0.607   0.322   1.395  0.00  0.00    -0.107 A 
ATOM      5  C4  BZF d   1       0.539  -0.780   2.198  0.00  0.00     0.055 A 
ATOM      6  C5  BZF d   1      -0.176  -1.858   1.782  0.00  0.00    -0.016 A 
ATOM      7  C6  BZF d   1      -0.840  -1.866   0.573  0.00  0.00     0.022 A 
ATOM      8  C7  BZF d   1      -0.798  -0.797  -0.261  0.00  0.00     0.029 A 
ATOM      9  C7A BZF d   1      -0.049   0.281   0.143  0.00  0.00     0.058 A 
ENDROOT
TORSDOF 0
ENDMDL
