MODEL 1
REMARK minimizedAffinity -3.87046933
REMARK minimizedRMSD -1
REMARK  0 active torsions:
REMARK  status: ('A' for Active; 'I' for Inactive)
ROOT
ATOM      1  O1  BZF d   1       1.614   2.147   2.094  0.00  0.00    -0.204 OA
ATOM      2  C2  BZF d   1       1.438   3.412   1.568  0.00  0.00     0.174 A 
ATOM      3  C3  BZF d   1       0.658   3.369   0.468  0.00  0.00    -0.012 A 
ATOM      4  C3A BZF d   1       0.250   2.003   0.350  0.00  0.00    -0.107 A 
ATOM      5  C4  BZF d   1      -0.547   1.334  -0.535  0.00  0.00     0.055 A 
ATOM      6  C5  BZF d   1      -0.684  -0.012  -0.413  0.00  0.00    -0.016 A 
ATOM      7  C6  BZF d   1      -0.036  -0.722   0.576  0.00  0.00     0.022 A 
ATOM      8  C7  BZF d   1       0.762  -0.102   1.480  0.00  0.00     0.029 A 
ATOM      9  C7A BZF d   1       0.876   1.263   1.380  0.00  0.00     0.058 A 
ENDROOT
TORSDOF 0
ENDMDL
