MODEL 1
REMARK minimizedAffinity -3.10346365
REMARK minimizedRMSD -1
REMARK  0 active torsions:
REMARK  status: ('A' for Active; 'I' for Inactive)
ROOT
ATOM      1  O1  BZF d   1       0.256  -0.655   2.124  0.00  0.00    -0.204 OA
ATOM      2  C2  BZF d   1      -0.681  -1.526   1.604  0.00  0.00     0.174 A 
ATOM      3  C3  BZF d   1      -1.231  -1.023   0.480  0.00  0.00    -0.012 A 
ATOM      4  C3A BZF d   1      -0.532   0.200   0.235  0.00  0.00    -0.107 A 
ATOM      5  C4  BZF d   1      -0.614   1.148  -0.745  0.00  0.00     0.055 A 
ATOM      6  C5  BZF d   1       0.160   2.261  -0.654  0.00  0.00    -0.016 A 
ATOM      7  C6  BZF d   1       1.023   2.461   0.404  0.00  0.00     0.022 A 
ATOM      8  C7  BZF d   1       1.143   1.546   1.397  0.00  0.00     0.029 A 
ATOM      9  C7A BZF d   1       0.386   0.405   1.291  0.00  0.00     0.058 A 
ENDROOT
TORSDOF 0
ENDMDL
