MODEL 1
REMARK minimizedAffinity -3.58140349
REMARK minimizedRMSD -1
REMARK  0 active torsions:
REMARK  status: ('A' for Active; 'I' for Inactive)
ROOT
ATOM      1  O1  BZF d   1       0.739   2.603   0.082  0.00  0.00    -0.204 OA
ATOM      2  C2  BZF d   1       1.699   2.952   1.013  0.00  0.00     0.174 A 
ATOM      3  C3  BZF d   1       1.826   1.992   1.951  0.00  0.00    -0.012 A 
ATOM      4  C3A BZF d   1       0.953   0.938   1.532  0.00  0.00    -0.107 A 
ATOM      5  C4  BZF d   1       0.654  -0.292   2.044  0.00  0.00     0.055 A 
ATOM      6  C5  BZF d   1      -0.296  -1.048   1.434  0.00  0.00    -0.016 A 
ATOM      7  C6  BZF d   1      -0.969  -0.603   0.314  0.00  0.00     0.022 A 
ATOM      8  C7  BZF d   1      -0.703   0.608  -0.233  0.00  0.00     0.029 A 
ATOM      9  C7A BZF d   1       0.280   1.360   0.363  0.00  0.00     0.058 A 
ENDROOT
TORSDOF 0
ENDMDL
