MODEL 1
REMARK minimizedAffinity -2.35711598
REMARK minimizedRMSD -1
REMARK  0 active torsions:
REMARK  status: ('A' for Active; 'I' for Inactive)
ROOT
ATOM      1  O1  BZF d   1       0.073  -1.200  -2.476  0.00  0.00    -0.204 OA
ATOM      2  C2  BZF d   1      -0.119  -2.555  -2.670  0.00  0.00     0.174 A 
ATOM      3  C3  BZF d   1      -0.519  -3.150  -1.528  0.00  0.00    -0.012 A 
ATOM      4  C3A BZF d   1      -0.670  -2.086  -0.583  0.00  0.00    -0.107 A 
ATOM      5  C4  BZF d   1      -1.060  -2.041   0.725  0.00  0.00     0.055 A 
ATOM      6  C5  BZF d   1      -1.030  -0.852   1.383  0.00  0.00    -0.016 A 
ATOM      7  C6  BZF d   1      -0.611   0.308   0.766  0.00  0.00     0.022 A 
ATOM      8  C7  BZF d   1      -0.220   0.314  -0.532  0.00  0.00     0.029 A 
ATOM      9  C7A BZF d   1      -0.281  -0.880  -1.208  0.00  0.00     0.058 A 
ENDROOT
TORSDOF 0
ENDMDL
