MODEL 1
REMARK minimizedAffinity -2.62966299
REMARK minimizedRMSD -1
REMARK  0 active torsions:
REMARK  status: ('A' for Active; 'I' for Inactive)
ROOT
ATOM      1  O1  BZF d   1       0.167   3.109  -0.126  0.00  0.00    -0.204 OA
ATOM      2  C2  BZF d   1       1.511   3.174   0.188  0.00  0.00     0.174 A 
ATOM      3  C3  BZF d   1       1.914   2.042   0.801  0.00  0.00    -0.012 A 
ATOM      4  C3A BZF d   1       0.771   1.181   0.791  0.00  0.00    -0.107 A 
ATOM      5  C4  BZF d   1       0.549  -0.089   1.240  0.00  0.00     0.055 A 
ATOM      6  C5  BZF d   1      -0.701  -0.615   1.143  0.00  0.00    -0.016 A 
ATOM      7  C6  BZF d   1      -1.751   0.103   0.608  0.00  0.00     0.022 A 
ATOM      8  C7  BZF d   1      -1.578   1.364   0.145  0.00  0.00     0.029 A 
ATOM      9  C7A BZF d   1      -0.309   1.886   0.211  0.00  0.00     0.058 A 
ENDROOT
TORSDOF 0
ENDMDL
