MODEL 1
REMARK minimizedAffinity 0.261911362
REMARK minimizedRMSD -1
REMARK  0 active torsions:
REMARK  status: ('A' for Active; 'I' for Inactive)
ROOT
ATOM      1  O1  BZF d   1      -0.016  -1.076  -2.367  0.00  0.00    -0.204 OA
ATOM      2  C2  BZF d   1      -0.316  -2.273  -2.987  0.00  0.00     0.174 A 
ATOM      3  C3  BZF d   1      -0.780  -3.171  -2.094  0.00  0.00    -0.012 A 
ATOM      4  C3A BZF d   1      -0.856  -2.463  -0.853  0.00  0.00    -0.107 A 
ATOM      5  C4  BZF d   1      -1.259  -2.812   0.404  0.00  0.00     0.055 A 
ATOM      6  C5  BZF d   1      -1.139  -1.908   1.411  0.00  0.00    -0.016 A 
ATOM      7  C6  BZF d   1      -0.618  -0.648   1.198  0.00  0.00     0.022 A 
ATOM      8  C7  BZF d   1      -0.209  -0.255  -0.033  0.00  0.00     0.029 A 
ATOM      9  C7A BZF d   1      -0.359  -1.155  -1.059  0.00  0.00     0.058 A 
ENDROOT
TORSDOF 0
ENDMDL
