MODEL 1
REMARK minimizedAffinity -3.92957997
REMARK minimizedRMSD -1
REMARK  0 active torsions:
REMARK  status: ('A' for Active; 'I' for Inactive)
ROOT
ATOM      1  O1  BZF d   1       1.077   1.230   0.869  0.00  0.00    -0.204 OA
ATOM      2  C2  BZF d   1       0.572   1.884  -0.238  0.00  0.00     0.174 A 
ATOM      3  C3  BZF d   1      -0.306   1.101  -0.897  0.00  0.00    -0.012 A 
ATOM      4  C3A BZF d   1      -0.423  -0.084  -0.104  0.00  0.00    -0.107 A 
ATOM      5  C4  BZF d   1      -1.157  -1.229  -0.229  0.00  0.00     0.055 A 
ATOM      6  C5  BZF d   1      -0.986  -2.225   0.679  0.00  0.00    -0.016 A 
ATOM      7  C6  BZF d   1      -0.087  -2.114   1.719  0.00  0.00     0.022 A 
ATOM      8  C7  BZF d   1       0.660  -0.996   1.887  0.00  0.00     0.029 A 
ATOM      9  C7A BZF d   1       0.466   0.026   0.990  0.00  0.00     0.058 A 
ENDROOT
TORSDOF 0
ENDMDL
