MODEL 1
REMARK minimizedAffinity -2.26456285
REMARK minimizedRMSD -1
REMARK  0 active torsions:
REMARK  status: ('A' for Active; 'I' for Inactive)
ROOT
ATOM      1  O1  BZF d   1      -0.070  -1.106  -2.394  0.00  0.00    -0.204 OA
ATOM      2  C2  BZF d   1      -0.336  -2.370  -2.883  0.00  0.00     0.174 A 
ATOM      3  C3  BZF d   1      -0.732  -3.193  -1.891  0.00  0.00    -0.012 A 
ATOM      4  C3A BZF d   1      -0.802  -2.369  -0.723  0.00  0.00    -0.107 A 
ATOM      5  C4  BZF d   1      -1.152  -2.608   0.575  0.00  0.00     0.055 A 
ATOM      6  C5  BZF d   1      -1.043  -1.603   1.484  0.00  0.00    -0.016 A 
ATOM      7  C6  BZF d   1      -0.584  -0.351   1.131  0.00  0.00     0.022 A 
ATOM      8  C7  BZF d   1      -0.231  -0.065  -0.146  0.00  0.00     0.029 A 
ATOM      9  C7A BZF d   1      -0.371  -1.069  -1.073  0.00  0.00     0.058 A 
ENDROOT
TORSDOF 0
ENDMDL
