MODEL 1
REMARK minimizedAffinity -5.03276968
REMARK minimizedRMSD -1
REMARK  0 active torsions:
REMARK  status: ('A' for Active; 'I' for Inactive)
ROOT
ATOM      1  C   UNL d   1       1.425  -0.129   1.778  0.00  0.00     0.078 C 
ATOM      2  C1  UNL d   1       0.257   0.734   1.402  0.00  0.00    -0.077 A 
ATOM      3  C2  UNL d   1      -0.121   1.821   2.199  0.00  0.00    -0.001 A 
ATOM      4  C3  UNL d   1      -1.217   2.610   1.842  0.00  0.00     0.003 A 
ATOM      5  C4  UNL d   1      -1.943   2.318   0.689  0.00  0.00    -0.005 A 
ATOM      6  C5  UNL d   1      -1.575   1.237  -0.108  0.00  0.00     0.003 A 
ATOM      7  C6  UNL d   1      -0.480   0.447   0.247  0.00  0.00    -0.001 A 
ENDROOT
TORSDOF 0
ENDMDL
