MODEL 1
REMARK minimizedAffinity -3.43812871
REMARK minimizedRMSD -1
REMARK  0 active torsions:
REMARK  status: ('A' for Active; 'I' for Inactive)
ROOT
ATOM      1  C   UNL d   1       0.062  -1.412  -0.659  0.00  0.00     0.078 C 
ATOM      2  C1  UNL d   1      -0.038  -0.205   0.225  0.00  0.00    -0.077 A 
ATOM      3  C2  UNL d   1       0.900   0.027   1.239  0.00  0.00    -0.001 A 
ATOM      4  C3  UNL d   1       0.789   1.149   2.061  0.00  0.00     0.003 A 
ATOM      5  C4  UNL d   1      -0.260   2.049   1.879  0.00  0.00    -0.005 A 
ATOM      6  C5  UNL d   1      -1.200   1.826   0.874  0.00  0.00     0.003 A 
ATOM      7  C6  UNL d   1      -1.090   0.703   0.051  0.00  0.00    -0.001 A 
ENDROOT
TORSDOF 0
ENDMDL
