MODEL 1
REMARK minimizedAffinity -3.03114486
REMARK minimizedRMSD -1
REMARK  0 active torsions:
REMARK  status: ('A' for Active; 'I' for Inactive)
ROOT
ATOM      1  C   UNL d   1      -0.351   2.405  -1.715  0.00  0.00     0.078 C 
ATOM      2  C1  UNL d   1      -0.296   1.712  -0.386  0.00  0.00    -0.077 A 
ATOM      3  C2  UNL d   1      -0.496   2.419   0.806  0.00  0.00    -0.001 A 
ATOM      4  C3  UNL d   1      -0.432   1.763   2.036  0.00  0.00     0.003 A 
ATOM      5  C4  UNL d   1      -0.168   0.396   2.086  0.00  0.00    -0.005 A 
ATOM      6  C5  UNL d   1       0.035  -0.316   0.906  0.00  0.00     0.003 A 
ATOM      7  C6  UNL d   1      -0.029   0.338  -0.325  0.00  0.00    -0.001 A 
ENDROOT
TORSDOF 0
ENDMDL
