MODEL 1
REMARK minimizedAffinity -5.32215452
REMARK minimizedRMSD -1
REMARK  0 active torsions:
REMARK  status: ('A' for Active; 'I' for Inactive)
ROOT
ATOM      1  C   UNL d   1       0.369  -0.000   1.686  0.00  0.00     0.078 C 
ATOM      2  C1  UNL d   1      -0.173   1.136   0.871  0.00  0.00    -0.077 A 
ATOM      3  C2  UNL d   1      -0.054   1.144  -0.524  0.00  0.00    -0.001 A 
ATOM      4  C3  UNL d   1      -0.555   2.213  -1.269  0.00  0.00     0.003 A 
ATOM      5  C4  UNL d   1      -1.178   3.282  -0.627  0.00  0.00    -0.005 A 
ATOM      6  C5  UNL d   1      -1.299   3.284   0.761  0.00  0.00     0.003 A 
ATOM      7  C6  UNL d   1      -0.798   2.216   1.507  0.00  0.00    -0.001 A 
ENDROOT
TORSDOF 0
ENDMDL
