MODEL 1
REMARK minimizedAffinity -1.76919699
REMARK minimizedRMSD -1
REMARK  0 active torsions:
REMARK  status: ('A' for Active; 'I' for Inactive)
ROOT
ATOM      1  C   UNL d   1      -1.039  -2.472  -0.353  0.00  0.00     0.078 C 
ATOM      2  C1  UNL d   1      -0.833  -1.035   0.023  0.00  0.00    -0.077 A 
ATOM      3  C2  UNL d   1       0.453  -0.487   0.103  0.00  0.00    -0.001 A 
ATOM      4  C3  UNL d   1       0.630   0.849   0.464  0.00  0.00     0.003 A 
ATOM      5  C4  UNL d   1      -0.475   1.650   0.748  0.00  0.00    -0.005 A 
ATOM      6  C5  UNL d   1      -1.759   1.113   0.672  0.00  0.00     0.003 A 
ATOM      7  C6  UNL d   1      -1.938  -0.224   0.312  0.00  0.00    -0.001 A 
ENDROOT
TORSDOF 0
ENDMDL
