MODEL 1
REMARK minimizedAffinity -6.24402857
REMARK minimizedRMSD -1
REMARK  1 active torsions:
REMARK  status: ('A' for Active; 'I' for Inactive)
REMARK    1  A    between atoms: C1_2  and  C2_3 
ROOT
ATOM      1  C2  UNL d   1      -0.357  -0.670   0.369  0.00  0.00    -0.076 A 
ATOM      2  C3  UNL d   1      -0.626  -0.089  -0.882  0.00  0.00     0.004 A 
ATOM      3  C4  UNL d   1      -1.778  -0.420  -1.594  0.00  0.00    -0.003 A 
ATOM      4  C5  UNL d   1      -2.679  -1.338  -1.066  0.00  0.00     0.000 A 
ATOM      5  C6  UNL d   1      -2.437  -1.911   0.182  0.00  0.00     0.000 A 
ATOM      6  C7  UNL d   1      -1.289  -1.575   0.920  0.00  0.00    -0.073 A 
ATOM      7  C8  UNL d   1      -1.074  -2.228   2.258  0.00  0.00     0.078 C 
ENDROOT
BRANCH   1   8
ATOM      8  C1  UNL d   1       0.921  -0.292   1.083  0.00  0.00     0.053 C 
ATOM      9  C   UNL d   1       1.425   1.087   0.685  0.00  0.00     0.018 C 
ENDBRANCH   1   8
TORSDOF 1
ENDMDL
