MODEL 1
REMARK minimizedAffinity -3.77541471
REMARK minimizedRMSD -1
REMARK  1 active torsions:
REMARK  status: ('A' for Active; 'I' for Inactive)
REMARK    1  A    between atoms: C1_2  and  C2_3 
ROOT
ATOM      1  C2  UNL d   1      -1.005  -0.311  -0.449  0.00  0.00    -0.076 A 
ATOM      2  C3  UNL d   1      -0.975  -0.333   0.956  0.00  0.00     0.004 A 
ATOM      3  C4  UNL d   1      -1.996  -0.938   1.687  0.00  0.00    -0.003 A 
ATOM      4  C5  UNL d   1      -3.064  -1.533   1.024  0.00  0.00     0.000 A 
ATOM      5  C6  UNL d   1      -3.101  -1.537  -0.370  0.00  0.00     0.000 A 
ATOM      6  C7  UNL d   1      -2.072  -0.945  -1.122  0.00  0.00    -0.073 A 
ATOM      7  C8  UNL d   1      -2.166  -0.973  -2.623  0.00  0.00     0.078 C 
ENDROOT
BRANCH   1   8
ATOM      8  C1  UNL d   1       0.116   0.384  -1.187  0.00  0.00     0.053 C 
ATOM      9  C   UNL d   1       0.786   1.461  -0.348  0.00  0.00     0.018 C 
ENDBRANCH   1   8
TORSDOF 1
ENDMDL
