MODEL 1
REMARK minimizedAffinity -1.413975
REMARK minimizedRMSD -1
REMARK  1 active torsions:
REMARK  status: ('A' for Active; 'I' for Inactive)
REMARK    1  A    between atoms: C1_2  and  C2_3 
ROOT
ATOM      1  C2  UNL d   1      -1.212  -0.762  -0.511  0.00  0.00    -0.076 A 
ATOM      2  C3  UNL d   1      -0.224  -0.313  -1.405  0.00  0.00     0.004 A 
ATOM      3  C4  UNL d   1       0.964   0.246  -0.939  0.00  0.00    -0.003 A 
ATOM      4  C5  UNL d   1       1.185   0.366   0.429  0.00  0.00     0.000 A 
ATOM      5  C6  UNL d   1       0.223  -0.090   1.330  0.00  0.00     0.000 A 
ATOM      6  C7  UNL d   1      -0.973  -0.672   0.877  0.00  0.00    -0.073 A 
ATOM      7  C8  UNL d   1      -1.978  -1.141   1.894  0.00  0.00     0.078 C 
ENDROOT
BRANCH   1   8
ATOM      8  C1  UNL d   1      -2.492  -1.335  -1.075  0.00  0.00     0.053 C 
ATOM      9  C   UNL d   1      -2.316  -1.881  -2.483  0.00  0.00     0.018 C 
ENDBRANCH   1   8
TORSDOF 1
ENDMDL
