MODEL 1
REMARK minimizedAffinity -5.02759266
REMARK minimizedRMSD -1
REMARK  1 active torsions:
REMARK  status: ('A' for Active; 'I' for Inactive)
REMARK    1  A    between atoms: C1_2  and  C2_3 
ROOT
ATOM      1  C2  UNL d   1      -0.197  -0.231  -0.416  0.00  0.00    -0.076 A 
ATOM      2  C3  UNL d   1      -0.808  -0.704   0.758  0.00  0.00     0.004 A 
ATOM      3  C4  UNL d   1      -2.170  -1.000   0.788  0.00  0.00    -0.003 A 
ATOM      4  C5  UNL d   1      -2.942  -0.829  -0.355  0.00  0.00     0.000 A 
ATOM      5  C6  UNL d   1      -2.349  -0.377  -1.534  0.00  0.00     0.000 A 
ATOM      6  C7  UNL d   1      -0.974  -0.089  -1.586  0.00  0.00    -0.073 A 
ATOM      7  C8  UNL d   1      -0.388   0.401  -2.882  0.00  0.00     0.078 C 
ENDROOT
BRANCH   1   8
ATOM      8  C1  UNL d   1       1.278   0.100  -0.382  0.00  0.00     0.053 C 
ATOM      9  C   UNL d   1       1.573   1.369   0.402  0.00  0.00     0.018 C 
ENDBRANCH   1   8
TORSDOF 1
ENDMDL
