MODEL 1
REMARK minimizedAffinity -5.32835913
REMARK minimizedRMSD -1
REMARK  1 active torsions:
REMARK  status: ('A' for Active; 'I' for Inactive)
REMARK    1  A    between atoms: C1_2  and  C2_3 
ROOT
ATOM      1  C2  UNL d   1      -0.481  -0.174  -0.226  0.00  0.00    -0.076 A 
ATOM      2  C3  UNL d   1      -1.001   0.580  -1.293  0.00  0.00     0.004 A 
ATOM      3  C4  UNL d   1      -2.346   0.491  -1.646  0.00  0.00    -0.003 A 
ATOM      4  C5  UNL d   1      -3.194  -0.353  -0.939  0.00  0.00     0.000 A 
ATOM      5  C6  UNL d   1      -2.700  -1.096   0.133  0.00  0.00     0.000 A 
ATOM      6  C7  UNL d   1      -1.350  -1.005   0.513  0.00  0.00    -0.073 A 
ATOM      7  C8  UNL d   1      -0.870  -1.833   1.674  0.00  0.00     0.078 C 
ENDROOT
BRANCH   1   8
ATOM      8  C1  UNL d   1       0.992  -0.057   0.094  0.00  0.00     0.053 C 
ATOM      9  C   UNL d   1       1.363   1.314   0.636  0.00  0.00     0.018 C 
ENDBRANCH   1   8
TORSDOF 1
ENDMDL
