MODEL 1
REMARK minimizedAffinity -4.7517581
REMARK minimizedRMSD -1
REMARK  1 active torsions:
REMARK  status: ('A' for Active; 'I' for Inactive)
REMARK    1  A    between atoms: C1_2  and  C2_3 
ROOT
ATOM      1  C2  UNL d   1       0.609   0.544   0.186  0.00  0.00    -0.076 A 
ATOM      2  C3  UNL d   1      -0.266   1.530  -0.303  0.00  0.00     0.004 A 
ATOM      3  C4  UNL d   1      -1.645   1.409  -0.142  0.00  0.00    -0.003 A 
ATOM      4  C5  UNL d   1      -2.172   0.301   0.513  0.00  0.00     0.000 A 
ATOM      5  C6  UNL d   1      -1.318  -0.678   1.020  0.00  0.00     0.000 A 
ATOM      6  C7  UNL d   1       0.076  -0.563   0.880  0.00  0.00    -0.073 A 
ATOM      7  C8  UNL d   1       0.949  -1.652   1.441  0.00  0.00     0.078 C 
ENDROOT
BRANCH   1   8
ATOM      8  C1  UNL d   1       2.094   0.715  -0.043  0.00  0.00     0.053 C 
ATOM      9  C   UNL d   1       2.459   2.130  -0.466  0.00  0.00     0.018 C 
ENDBRANCH   1   8
TORSDOF 1
ENDMDL
