MODEL 1
REMARK minimizedAffinity -4.63997078
REMARK minimizedRMSD -1
REMARK  1 active torsions:
REMARK  status: ('A' for Active; 'I' for Inactive)
REMARK    1  A    between atoms: C1_2  and  C2_3 
ROOT
ATOM      1  C2  UNL d   1      -1.143  -0.471  -0.416  0.00  0.00    -0.076 A 
ATOM      2  C3  UNL d   1      -0.559   0.404  -1.348  0.00  0.00     0.004 A 
ATOM      3  C4  UNL d   1       0.732   0.893  -1.162  0.00  0.00    -0.003 A 
ATOM      4  C5  UNL d   1       1.462   0.514  -0.041  0.00  0.00     0.000 A 
ATOM      5  C6  UNL d   1       0.905  -0.368   0.885  0.00  0.00     0.000 A 
ATOM      6  C7  UNL d   1      -0.390  -0.882   0.704  0.00  0.00    -0.073 A 
ATOM      7  C8  UNL d   1      -0.944  -1.825   1.738  0.00  0.00     0.078 C 
ENDROOT
BRANCH   1   8
ATOM      8  C1  UNL d   1      -2.558  -0.947  -0.657  0.00  0.00     0.053 C 
ATOM      9  C   UNL d   1      -2.699  -1.718  -1.960  0.00  0.00     0.018 C 
ENDBRANCH   1   8
TORSDOF 1
ENDMDL
