MODEL 1
REMARK minimizedAffinity -1.94892323
REMARK minimizedRMSD -1
REMARK  1 active torsions:
REMARK  status: ('A' for Active; 'I' for Inactive)
REMARK    1  A    between atoms: C1_2  and  C2_3 
ROOT
ATOM      1  C2  UNL d   1      -0.855  -0.455  -0.329  0.00  0.00    -0.076 A 
ATOM      2  C3  UNL d   1      -0.442  -1.065   0.868  0.00  0.00     0.004 A 
ATOM      3  C4  UNL d   1       0.888  -1.006   1.281  0.00  0.00    -0.003 A 
ATOM      4  C5  UNL d   1       1.826  -0.335   0.504  0.00  0.00     0.000 A 
ATOM      5  C6  UNL d   1       1.430   0.291  -0.678  0.00  0.00     0.000 A 
ATOM      6  C7  UNL d   1       0.090   0.254  -1.100  0.00  0.00    -0.073 A 
ATOM      7  C8  UNL d   1      -0.280   0.941  -2.386  0.00  0.00     0.078 C 
ENDROOT
BRANCH   1   8
ATOM      8  C1  UNL d   1      -2.306  -0.576  -0.740  0.00  0.00     0.053 C 
ATOM      9  C   UNL d   1      -3.255  -0.505   0.446  0.00  0.00     0.018 C 
ENDBRANCH   1   8
TORSDOF 1
ENDMDL
