MODEL 1
REMARK minimizedAffinity -1.51864755
REMARK minimizedRMSD -1
REMARK  1 active torsions:
REMARK  status: ('A' for Active; 'I' for Inactive)
REMARK    1  A    between atoms: C1_2  and  C2_3 
ROOT
ATOM      1  C2  UNL d   1       0.988   1.276   0.094  0.00  0.00    -0.076 A 
ATOM      2  C3  UNL d   1       1.040   2.668  -0.092  0.00  0.00     0.004 A 
ATOM      3  C4  UNL d   1       2.022   3.439   0.528  0.00  0.00    -0.003 A 
ATOM      4  C5  UNL d   1       2.967   2.830   1.346  0.00  0.00     0.000 A 
ATOM      5  C6  UNL d   1       2.941   1.448   1.528  0.00  0.00     0.000 A 
ATOM      6  C7  UNL d   1       1.969   0.654   0.897  0.00  0.00    -0.073 A 
ATOM      7  C8  UNL d   1       1.984  -0.831   1.134  0.00  0.00     0.078 C 
ENDROOT
BRANCH   1   8
ATOM      8  C1  UNL d   1      -0.115   0.495  -0.583  0.00  0.00     0.053 C 
ATOM      9  C   UNL d   1      -1.124  -0.067   0.407  0.00  0.00     0.018 C 
ENDBRANCH   1   8
TORSDOF 1
ENDMDL
