MODEL 1
REMARK minimizedAffinity -3.96243334
REMARK minimizedRMSD -1
REMARK  1 active torsions:
REMARK  status: ('A' for Active; 'I' for Inactive)
REMARK    1  A    between atoms: C1_2  and  C2_3 
ROOT
ATOM      1  C2  UNL d   1       0.101   0.058  -0.421  0.00  0.00    -0.076 A 
ATOM      2  C3  UNL d   1      -0.192   0.617  -1.677  0.00  0.00     0.004 A 
ATOM      3  C4  UNL d   1      -1.448   0.454  -2.259  0.00  0.00    -0.003 A 
ATOM      4  C5  UNL d   1      -2.432  -0.269  -1.594  0.00  0.00     0.000 A 
ATOM      5  C6  UNL d   1      -2.164  -0.815  -0.339  0.00  0.00     0.000 A 
ATOM      6  C7  UNL d   1      -0.908  -0.647   0.269  0.00  0.00    -0.073 A 
ATOM      7  C8  UNL d   1      -0.672  -1.263   1.621  0.00  0.00     0.078 C 
ENDROOT
BRANCH   1   8
ATOM      8  C1  UNL d   1       1.490   0.244   0.148  0.00  0.00     0.053 C 
ATOM      9  C   UNL d   1       1.630   1.542   0.929  0.00  0.00     0.018 C 
ENDBRANCH   1   8
TORSDOF 1
ENDMDL
