MODEL 1
REMARK minimizedAffinity -4.63261032
REMARK minimizedRMSD -1
REMARK  1 active torsions:
REMARK  status: ('A' for Active; 'I' for Inactive)
REMARK    1  A    between atoms: C1_2  and  C2_3 
ROOT
ATOM      1  C2  UNL d   1      -0.139  -0.146  -0.199  0.00  0.00    -0.076 A 
ATOM      2  C3  UNL d   1      -0.599   0.537  -1.339  0.00  0.00     0.004 A 
ATOM      3  C4  UNL d   1      -1.958   0.590  -1.644  0.00  0.00    -0.003 A 
ATOM      4  C5  UNL d   1      -2.880  -0.039  -0.813  0.00  0.00     0.000 A 
ATOM      5  C6  UNL d   1      -2.443  -0.705   0.331  0.00  0.00     0.000 A 
ATOM      6  C7  UNL d   1      -1.077  -0.754   0.661  0.00  0.00    -0.073 A 
ATOM      7  C8  UNL d   1      -0.661  -1.492   1.904  0.00  0.00     0.078 C 
ENDROOT
BRANCH   1   8
ATOM      8  C1  UNL d   1       1.349  -0.192   0.065  0.00  0.00     0.053 C 
ATOM      9  C   UNL d   1       1.933   1.183   0.351  0.00  0.00     0.018 C 
ENDBRANCH   1   8
TORSDOF 1
ENDMDL
