MODEL 1
REMARK minimizedAffinity 10.8816433
REMARK minimizedRMSD -1
REMARK  1 active torsions:
REMARK  status: ('A' for Active; 'I' for Inactive)
REMARK    1  A    between atoms: C1_2  and  C2_3 
ROOT
ATOM      1  C2  UNL d   1       3.769   4.644   1.673  0.00  0.00    -0.081 A 
ATOM      2  C3  UNL d   1       5.073   4.184   1.893  0.00  0.00     0.006 A 
ATOM      3  C4  UNL d   1       5.802   4.625   2.999  0.00  0.00     0.002 A 
ATOM      4  C5  UNL d   1       5.238   5.526   3.908  0.00  0.00    -0.080 A 
ATOM      5  C6  UNL d   1       6.000   5.984   5.117  0.00  0.00     0.076 C 
ATOM      6  C7  UNL d   1       3.942   6.000   3.680  0.00  0.00     0.002 A 
ATOM      7  C8  UNL d   1       3.212   5.560   2.573  0.00  0.00     0.006 A 
ENDROOT
BRANCH   1   8
ATOM      8  C1  UNL d   1       2.956   4.121   0.517  0.00  0.00     0.054 C 
ATOM      9  C   UNL d   1       1.813   3.238   0.998  0.00  0.00     0.018 C 
ENDBRANCH   1   8
TORSDOF 1
ENDMDL
