MODEL 1
REMARK minimizedAffinity 15.3946905
REMARK minimizedRMSD -1
REMARK  1 active torsions:
REMARK  status: ('A' for Active; 'I' for Inactive)
REMARK    1  A    between atoms: C1_2  and  C2_3 
ROOT
ATOM      1  C2  UNL d   1      -2.058  -0.572   2.775  0.00  0.00    -0.081 A 
ATOM      2  C3  UNL d   1      -1.238  -1.594   3.271  0.00  0.00     0.006 A 
ATOM      3  C4  UNL d   1       0.129  -1.377   3.459  0.00  0.00     0.002 A 
ATOM      4  C5  UNL d   1       0.697  -0.133   3.163  0.00  0.00    -0.080 A 
ATOM      5  C6  UNL d   1       2.158   0.122   3.390  0.00  0.00     0.076 C 
ATOM      6  C7  UNL d   1      -0.118   0.882   2.652  0.00  0.00     0.002 A 
ATOM      7  C8  UNL d   1      -1.484   0.666   2.463  0.00  0.00     0.006 A 
ENDROOT
BRANCH   1   8
ATOM      8  C1  UNL d   1      -3.543  -0.782   2.632  0.00  0.00     0.054 C 
ATOM      9  C   UNL d   1      -4.034  -1.900   3.541  0.00  0.00     0.018 C 
ENDBRANCH   1   8
TORSDOF 1
ENDMDL
