MODEL 1
REMARK minimizedAffinity 17.0915642
REMARK minimizedRMSD -1
REMARK  1 active torsions:
REMARK  status: ('A' for Active; 'I' for Inactive)
REMARK    1  A    between atoms: C1_2  and  C2_3 
ROOT
ATOM      1  C2  UNL d   1       0.327   0.914   4.625  0.00  0.00    -0.081 A 
ATOM      2  C3  UNL d   1      -0.617   1.393   3.708  0.00  0.00     0.006 A 
ATOM      3  C4  UNL d   1      -0.759   0.788   2.457  0.00  0.00     0.002 A 
ATOM      4  C5  UNL d   1       0.035  -0.309   2.105  0.00  0.00    -0.080 A 
ATOM      5  C6  UNL d   1      -0.129  -0.986   0.777  0.00  0.00     0.076 C 
ATOM      6  C7  UNL d   1       0.990  -0.776   3.014  0.00  0.00     0.002 A 
ATOM      7  C8  UNL d   1       1.133  -0.172   4.265  0.00  0.00     0.006 A 
ENDROOT
BRANCH   1   8
ATOM      8  C1  UNL d   1       0.438   1.523   6.000  0.00  0.00     0.054 C 
ATOM      9  C   UNL d   1      -0.017   2.975   6.000  0.00  0.00     0.018 C 
ENDBRANCH   1   8
TORSDOF 1
ENDMDL
