MODEL 1
REMARK minimizedAffinity 11.5706215
REMARK minimizedRMSD -1
REMARK  1 active torsions:
REMARK  status: ('A' for Active; 'I' for Inactive)
REMARK    1  A    between atoms: C1_2  and  C2_3 
ROOT
ATOM      1  C2  UNL d   1      -0.321   1.423   2.931  0.00  0.00    -0.081 A 
ATOM      2  C3  UNL d   1      -0.749   0.258   2.282  0.00  0.00     0.006 A 
ATOM      3  C4  UNL d   1      -0.073  -0.949   2.475  0.00  0.00     0.002 A 
ATOM      4  C5  UNL d   1       1.037  -1.013   3.325  0.00  0.00    -0.080 A 
ATOM      5  C6  UNL d   1       1.753  -2.309   3.564  0.00  0.00     0.076 C 
ATOM      6  C7  UNL d   1       1.475   0.154   3.959  0.00  0.00     0.002 A 
ATOM      7  C8  UNL d   1       0.800   1.361   3.766  0.00  0.00     0.006 A 
ENDROOT
BRANCH   1   8
ATOM      8  C1  UNL d   1      -1.087   2.712   2.776  0.00  0.00     0.054 C 
ATOM      9  C   UNL d   1      -0.694   3.438   1.497  0.00  0.00     0.018 C 
ENDBRANCH   1   8
TORSDOF 1
ENDMDL
