MODEL 1
REMARK minimizedAffinity 14.4186592
REMARK minimizedRMSD -1
REMARK  1 active torsions:
REMARK  status: ('A' for Active; 'I' for Inactive)
REMARK    1  A    between atoms: C1_2  and  C2_3 
ROOT
ATOM      1  C2  UNL d   1       1.050  -0.857   3.204  0.00  0.00    -0.081 A 
ATOM      2  C3  UNL d   1       1.478   0.364   3.738  0.00  0.00     0.006 A 
ATOM      3  C4  UNL d   1       0.747   1.532   3.508  0.00  0.00     0.002 A 
ATOM      4  C5  UNL d   1      -0.427   1.498   2.749  0.00  0.00    -0.080 A 
ATOM      5  C6  UNL d   1      -1.237   2.739   2.521  0.00  0.00     0.076 C 
ATOM      6  C7  UNL d   1      -0.846   0.281   2.201  0.00  0.00     0.002 A 
ATOM      7  C8  UNL d   1      -0.115  -0.888   2.429  0.00  0.00     0.006 A 
ENDROOT
BRANCH   1   8
ATOM      8  C1  UNL d   1       1.800  -2.130   3.503  0.00  0.00     0.054 C 
ATOM      9  C   UNL d   1       1.438  -2.676   4.877  0.00  0.00     0.018 C 
ENDBRANCH   1   8
TORSDOF 1
ENDMDL
