MODEL 1
REMARK minimizedAffinity 8.78922844
REMARK minimizedRMSD -1
REMARK  1 active torsions:
REMARK  status: ('A' for Active; 'I' for Inactive)
REMARK    1  A    between atoms: C1_2  and  C2_3 
ROOT
ATOM      1  C2  UNL d   1       0.612   0.034   2.969  0.00  0.00    -0.081 A 
ATOM      2  C3  UNL d   1       0.036  -1.224   3.182  0.00  0.00     0.006 A 
ATOM      3  C4  UNL d   1       0.677  -2.169   3.987  0.00  0.00     0.002 A 
ATOM      4  C5  UNL d   1       1.899  -1.869   4.598  0.00  0.00    -0.080 A 
ATOM      5  C6  UNL d   1       2.582  -2.863   5.489  0.00  0.00     0.076 C 
ATOM      6  C7  UNL d   1       2.482  -0.618   4.372  0.00  0.00     0.002 A 
ATOM      7  C8  UNL d   1       1.843   0.327   3.567  0.00  0.00     0.006 A 
ENDROOT
BRANCH   1   8
ATOM      8  C1  UNL d   1      -0.108   1.078   2.154  0.00  0.00     0.054 C 
ATOM      9  C   UNL d   1      -0.716   2.153   3.044  0.00  0.00     0.018 C 
ENDBRANCH   1   8
TORSDOF 1
ENDMDL
