MODEL 1
REMARK minimizedAffinity 10.9889441
REMARK minimizedRMSD -1
REMARK  1 active torsions:
REMARK  status: ('A' for Active; 'I' for Inactive)
REMARK    1  A    between atoms: C1_2  and  C2_3 
ROOT
ATOM      1  C2  UNL d   1       0.686   0.703   4.558  0.00  0.00    -0.081 A 
ATOM      2  C3  UNL d   1      -0.045   1.230   3.486  0.00  0.00     0.006 A 
ATOM      3  C4  UNL d   1      -0.323   0.444   2.365  0.00  0.00     0.002 A 
ATOM      4  C5  UNL d   1       0.116  -0.883   2.301  0.00  0.00    -0.080 A 
ATOM      5  C6  UNL d   1      -0.203  -1.747   1.117  0.00  0.00     0.076 C 
ATOM      6  C7  UNL d   1       0.860  -1.404   3.365  0.00  0.00     0.002 A 
ATOM      7  C8  UNL d   1       1.140  -0.618   4.486  0.00  0.00     0.006 A 
ENDROOT
BRANCH   1   8
ATOM      8  C1  UNL d   1       0.932   1.528   5.796  0.00  0.00     0.054 C 
ATOM      9  C   UNL d   1      -0.153   2.578   5.986  0.00  0.00     0.018 C 
ENDBRANCH   1   8
TORSDOF 1
ENDMDL
