MODEL 1
REMARK minimizedAffinity 5.57887554
REMARK minimizedRMSD -1
REMARK  1 active torsions:
REMARK  status: ('A' for Active; 'I' for Inactive)
REMARK    1  A    between atoms: C1_2  and  C2_3 
ROOT
ATOM      1  C2  UNL d   1      -1.066  -1.880   2.742  0.00  0.00    -0.081 A 
ATOM      2  C3  UNL d   1      -0.022  -2.574   3.366  0.00  0.00     0.006 A 
ATOM      3  C4  UNL d   1       1.130  -1.899   3.778  0.00  0.00     0.002 A 
ATOM      4  C5  UNL d   1       1.253  -0.520   3.581  0.00  0.00    -0.080 A 
ATOM      5  C6  UNL d   1       2.471   0.222   4.045  0.00  0.00     0.076 C 
ATOM      6  C7  UNL d   1       0.218   0.171   2.942  0.00  0.00     0.002 A 
ATOM      7  C8  UNL d   1      -0.934  -0.503   2.529  0.00  0.00     0.006 A 
ENDROOT
BRANCH   1   8
ATOM      8  C1  UNL d   1      -2.337  -2.593   2.355  0.00  0.00     0.054 C 
ATOM      9  C   UNL d   1      -3.566  -1.809   2.791  0.00  0.00     0.018 C 
ENDBRANCH   1   8
TORSDOF 1
ENDMDL
