MODEL 1
REMARK minimizedAffinity 10.7731276
REMARK minimizedRMSD -1
REMARK  0 active torsions:
REMARK  status: ('A' for Active; 'I' for Inactive)
ROOT
ATOM      1  C1  DEN d   1      -1.126   0.793   2.595  0.00  0.00     0.130 A 
ATOM      2  C2  DEN d   1      -0.348  -0.183   1.837  0.00  0.00    -0.031 A 
ATOM      3  C3  DEN d   1       0.980  -0.300   2.472  0.00  0.00     0.027 A 
ATOM      4  C4  DEN d   1       1.900   0.925   4.547  0.00  0.00     0.027 A 
ATOM      5  C5  DEN d   1       1.613   1.857   5.519  0.00  0.00    -0.003 A 
ATOM      6  C6  DEN d   1       0.415   2.519   5.565  0.00  0.00     0.001 A 
ATOM      7  C7  DEN d   1      -0.558   2.225   4.647  0.00  0.00     0.017 A 
ATOM      8  C8  DEN d   1      -0.273   1.292   3.659  0.00  0.00    -0.094 A 
ATOM      9  C9  DEN d   1       0.940   0.625   3.637  0.00  0.00    -0.072 A 
ENDROOT
TORSDOF 0
ENDMDL
