MODEL 1
REMARK minimizedAffinity 14.801115
REMARK minimizedRMSD -1
REMARK  0 active torsions:
REMARK  status: ('A' for Active; 'I' for Inactive)
ROOT
ATOM      1  C1  DEN d   1       3.307  -1.072  -4.585  0.00  0.00     0.130 A 
ATOM      2  C2  DEN d   1       4.080  -2.283  -4.845  0.00  0.00    -0.031 A 
ATOM      3  C3  DEN d   1       3.174  -3.284  -5.444  0.00  0.00     0.027 A 
ATOM      4  C4  DEN d   1       0.664  -3.074  -5.996  0.00  0.00     0.027 A 
ATOM      5  C5  DEN d   1      -0.431  -2.239  -5.945  0.00  0.00    -0.003 A 
ATOM      6  C6  DEN d   1      -0.365  -0.980  -5.411  0.00  0.00     0.001 A 
ATOM      7  C7  DEN d   1       0.832  -0.502  -4.946  0.00  0.00     0.017 A 
ATOM      8  C8  DEN d   1       1.938  -1.340  -4.987  0.00  0.00    -0.094 A 
ATOM      9  C9  DEN d   1       1.854  -2.605  -5.543  0.00  0.00    -0.072 A 
ENDROOT
TORSDOF 0
ENDMDL
