MODEL 1
REMARK minimizedAffinity 19.0417042
REMARK minimizedRMSD -1
REMARK  0 active torsions:
REMARK  status: ('A' for Active; 'I' for Inactive)
ROOT
ATOM      1  C1  DEN d   1      -0.688   2.942   4.584  0.00  0.00     0.130 A 
ATOM      2  C2  DEN d   1      -0.111   2.847   5.922  0.00  0.00    -0.031 A 
ATOM      3  C3  DEN d   1       0.676   1.599   5.991  0.00  0.00     0.027 A 
ATOM      4  C4  DEN d   1       1.058  -0.182   4.166  0.00  0.00     0.027 A 
ATOM      5  C5  DEN d   1       0.762  -0.543   2.870  0.00  0.00    -0.003 A 
ATOM      6  C6  DEN d   1      -0.060   0.209   2.072  0.00  0.00     0.001 A 
ATOM      7  C7  DEN d   1      -0.577   1.385   2.548  0.00  0.00     0.017 A 
ATOM      8  C8  DEN d   1      -0.289   1.751   3.856  0.00  0.00    -0.094 A 
ATOM      9  C9  DEN d   1       0.554   0.984   4.642  0.00  0.00    -0.072 A 
ENDROOT
TORSDOF 0
ENDMDL
