MODEL 1
REMARK minimizedAffinity 9.85381222
REMARK minimizedRMSD -1
REMARK  0 active torsions:
REMARK  status: ('A' for Active; 'I' for Inactive)
ROOT
ATOM      1  C1  DEN d   1       0.468  -3.104   4.035  0.00  0.00     0.130 A 
ATOM      2  C2  DEN d   1       1.192  -3.065   5.303  0.00  0.00    -0.031 A 
ATOM      3  C3  DEN d   1       1.543  -1.659   5.586  0.00  0.00     0.027 A 
ATOM      4  C4  DEN d   1       1.034   0.452   4.194  0.00  0.00     0.027 A 
ATOM      5  C5  DEN d   1       0.454   0.920   3.035  0.00  0.00    -0.003 A 
ATOM      6  C6  DEN d   1      -0.128   0.083   2.120  0.00  0.00     0.001 A 
ATOM      7  C7  DEN d   1      -0.182  -1.263   2.370  0.00  0.00     0.017 A 
ATOM      8  C8  DEN d   1       0.408  -1.743   3.532  0.00  0.00    -0.094 A 
ATOM      9  C9  DEN d   1       0.980  -0.880   4.450  0.00  0.00    -0.072 A 
ENDROOT
TORSDOF 0
ENDMDL
