MODEL 1
REMARK minimizedAffinity 15.9370165
REMARK minimizedRMSD -1
REMARK  0 active torsions:
REMARK  status: ('A' for Active; 'I' for Inactive)
ROOT
ATOM      1  C1  DEN d   1      -4.997   2.177  -0.483  0.00  0.00     0.130 A 
ATOM      2  C2  DEN d   1      -5.591   1.634  -1.702  0.00  0.00    -0.031 A 
ATOM      3  C3  DEN d   1      -5.167   0.225  -1.827  0.00  0.00     0.027 A 
ATOM      4  C4  DEN d   1      -3.660  -1.162  -0.258  0.00  0.00     0.027 A 
ATOM      5  C5  DEN d   1      -2.911  -1.129   0.897  0.00  0.00    -0.003 A 
ATOM      6  C6  DEN d   1      -2.778   0.009   1.649  0.00  0.00     0.001 A 
ATOM      7  C7  DEN d   1      -3.441   1.149   1.278  0.00  0.00     0.017 A 
ATOM      8  C8  DEN d   1      -4.192   1.125   0.111  0.00  0.00    -0.094 A 
ATOM      9  C9  DEN d   1      -4.324  -0.038  -0.629  0.00  0.00    -0.072 A 
ENDROOT
TORSDOF 0
ENDMDL
