MODEL 1
REMARK minimizedAffinity 8.44592094
REMARK minimizedRMSD -1
REMARK  3 active torsions:
REMARK  status: ('A' for Active; 'I' for Inactive)
REMARK    1  A    between atoms: C3'_2  and  C2'_3 
REMARK    2  A    between atoms: C2'_3  and  C1'_4 
REMARK    3  A    between atoms: C1'_4  and  C1_5 
ROOT
ATOM      1  C1  N4B d   1       2.810  -3.092   2.528  0.00  0.00    -0.075 A 
ATOM      2  C2  N4B d   1       2.030  -4.072   1.875  0.00  0.00     0.002 A 
ATOM      3  C3  N4B d   1       0.720  -3.808   1.558  0.00  0.00     0.002 A 
ATOM      4  C4  N4B d   1       0.165  -2.584   1.899  0.00  0.00    -0.004 A 
ATOM      5  C5  N4B d   1       0.933  -1.633   2.506  0.00  0.00     0.002 A 
ATOM      6  C6  N4B d   1       2.252  -1.883   2.827  0.00  0.00     0.002 A 
ENDROOT
BRANCH   1   7
ATOM      7  C1' N4B d   1       4.221  -3.366   2.972  0.00  0.00     0.057 C 
BRANCH   7   8
ATOM      8  C2' N4B d   1       4.216  -3.750   4.448  0.00  0.00     0.009 C 
BRANCH   8   9
ATOM      9  C3' N4B d   1       4.438  -2.547   5.349  0.00  0.00     0.004 C 
ATOM     10  C4' N4B d   1       5.800  -2.535   5.976  0.00  0.00     0.003 C 
ENDBRANCH   8   9
ENDBRANCH   7   8
ENDBRANCH   1   7
TORSDOF 3
ENDMDL
