MODEL 1
REMARK minimizedAffinity 3.39898896
REMARK minimizedRMSD -1
REMARK  3 active torsions:
REMARK  status: ('A' for Active; 'I' for Inactive)
REMARK    1  A    between atoms: C3'_2  and  C2'_3 
REMARK    2  A    between atoms: C2'_3  and  C1'_4 
REMARK    3  A    between atoms: C1'_4  and  C1_5 
ROOT
ATOM      1  C1  N4B d   1       3.583   0.384   1.128  0.00  0.00    -0.075 A 
ATOM      2  C2  N4B d   1       3.615   1.585   1.871  0.00  0.00     0.002 A 
ATOM      3  C3  N4B d   1       4.819   2.141   2.226  0.00  0.00     0.002 A 
ATOM      4  C4  N4B d   1       6.000   1.507   1.868  0.00  0.00    -0.004 A 
ATOM      5  C5  N4B d   1       5.961   0.361   1.128  0.00  0.00     0.002 A 
ATOM      6  C6  N4B d   1       4.758  -0.207   0.761  0.00  0.00     0.002 A 
ENDROOT
BRANCH   1   7
ATOM      7  C1' N4B d   1       2.291  -0.307   0.790  0.00  0.00     0.057 C 
BRANCH   7   8
ATOM      8  C2' N4B d   1       2.513  -1.816   0.799  0.00  0.00     0.009 C 
BRANCH   8   9
ATOM      9  C3' N4B d   1       1.501  -2.534   1.675  0.00  0.00     0.004 C 
ATOM     10  C4' N4B d   1       1.877  -3.960   1.948  0.00  0.00     0.003 C 
ENDBRANCH   8   9
ENDBRANCH   7   8
ENDBRANCH   1   7
TORSDOF 3
ENDMDL
