MODEL 1
REMARK minimizedAffinity 10.5397835
REMARK minimizedRMSD -1
REMARK  3 active torsions:
REMARK  status: ('A' for Active; 'I' for Inactive)
REMARK    1  A    between atoms: C3'_2  and  C2'_3 
REMARK    2  A    between atoms: C2'_3  and  C1'_4 
REMARK    3  A    between atoms: C1'_4  and  C1_5 
ROOT
ATOM      1  C1  N4B d   1       0.858  -1.428   2.514  0.00  0.00    -0.075 A 
ATOM      2  C2  N4B d   1       1.076  -0.968   1.197  0.00  0.00     0.002 A 
ATOM      3  C3  N4B d   1       1.820  -1.722   0.322  0.00  0.00     0.002 A 
ATOM      4  C4  N4B d   1       2.368  -2.923   0.745  0.00  0.00    -0.004 A 
ATOM      5  C5  N4B d   1       2.131  -3.372   2.011  0.00  0.00     0.002 A 
ATOM      6  C6  N4B d   1       1.383  -2.627   2.900  0.00  0.00     0.002 A 
ENDROOT
BRANCH   1   7
ATOM      7  C1' N4B d   1       0.125  -0.599   3.533  0.00  0.00     0.057 C 
BRANCH   7   8
ATOM      8  C2' N4B d   1      -1.299  -1.128   3.678  0.00  0.00     0.009 C 
BRANCH   8   9
ATOM      9  C3' N4B d   1      -2.218  -0.590   2.594  0.00  0.00     0.004 C 
ATOM     10  C4' N4B d   1      -3.059   0.559   3.063  0.00  0.00     0.003 C 
ENDBRANCH   8   9
ENDBRANCH   7   8
ENDBRANCH   1   7
TORSDOF 3
ENDMDL
