MODEL 1
REMARK minimizedAffinity 10.8254204
REMARK minimizedRMSD -1
REMARK  3 active torsions:
REMARK  status: ('A' for Active; 'I' for Inactive)
REMARK    1  A    between atoms: C3'_2  and  C2'_3 
REMARK    2  A    between atoms: C2'_3  and  C1'_4 
REMARK    3  A    between atoms: C1'_4  and  C1_5 
ROOT
ATOM      1  C1  N4B d   1       5.936  -0.470  -1.368  0.00  0.00    -0.075 A 
ATOM      2  C2  N4B d   1       5.978   0.934  -1.519  0.00  0.00     0.002 A 
ATOM      3  C3  N4B d   1       5.999   1.488  -2.776  0.00  0.00     0.002 A 
ATOM      4  C4  N4B d   1       5.996   0.662  -3.890  0.00  0.00    -0.004 A 
ATOM      5  C5  N4B d   1       5.929  -0.691  -3.735  0.00  0.00     0.002 A 
ATOM      6  C6  N4B d   1       5.904  -1.262  -2.478  0.00  0.00     0.002 A 
ENDROOT
BRANCH   1   7
ATOM      7  C1' N4B d   1       5.999  -1.124  -0.015  0.00  0.00     0.057 C 
BRANCH   7   8
ATOM      8  C2' N4B d   1       4.677  -0.898   0.713  0.00  0.00     0.009 C 
BRANCH   8   9
ATOM      9  C3' N4B d   1       4.076  -2.198   1.219  0.00  0.00     0.004 C 
ATOM     10  C4' N4B d   1       2.579  -2.157   1.290  0.00  0.00     0.003 C 
ENDBRANCH   8   9
ENDBRANCH   7   8
ENDBRANCH   1   7
TORSDOF 3
ENDMDL
