MODEL 1
REMARK minimizedAffinity -1.82581329
REMARK minimizedRMSD -1
REMARK  3 active torsions:
REMARK  status: ('A' for Active; 'I' for Inactive)
REMARK    1  A    between atoms: C3'_2  and  C2'_3 
REMARK    2  A    between atoms: C2'_3  and  C1'_4 
REMARK    3  A    between atoms: C1'_4  and  C1_5 
ROOT
ATOM      1  C1  N4B d   1       1.482   0.947   0.722  0.00  0.00    -0.075 A 
ATOM      2  C2  N4B d   1       2.046   1.793  -0.258  0.00  0.00     0.002 A 
ATOM      3  C3  N4B d   1       2.649   2.969   0.115  0.00  0.00     0.002 A 
ATOM      4  C4  N4B d   1       2.682   3.328   1.455  0.00  0.00    -0.004 A 
ATOM      5  C5  N4B d   1       2.157   2.493   2.397  0.00  0.00     0.002 A 
ATOM      6  C6  N4B d   1       1.552   1.306   2.037  0.00  0.00     0.002 A 
ENDROOT
BRANCH   1   7
ATOM      7  C1' N4B d   1       0.737  -0.307   0.354  0.00  0.00     0.057 C 
BRANCH   7   8
ATOM      8  C2' N4B d   1      -0.054  -0.062  -0.928  0.00  0.00     0.009 C 
BRANCH   8   9
ATOM      9  C3' N4B d   1      -1.533   0.148  -0.651  0.00  0.00     0.004 C 
ATOM     10  C4' N4B d   1      -2.366  -1.048  -1.005  0.00  0.00     0.003 C 
ENDBRANCH   8   9
ENDBRANCH   7   8
ENDBRANCH   1   7
TORSDOF 3
ENDMDL
