MODEL 1
REMARK minimizedAffinity -1.96310544
REMARK minimizedRMSD -1
REMARK  3 active torsions:
REMARK  status: ('A' for Active; 'I' for Inactive)
REMARK    1  A    between atoms: C3'_2  and  C2'_3 
REMARK    2  A    between atoms: C2'_3  and  C1'_4 
REMARK    3  A    between atoms: C1'_4  and  C1_5 
ROOT
ATOM      1  C1  N4B d   1       0.463  -0.348   0.158  0.00  0.00    -0.075 A 
ATOM      2  C2  N4B d   1      -0.440  -0.378  -0.927  0.00  0.00     0.002 A 
ATOM      3  C3  N4B d   1      -1.407  -1.352  -0.988  0.00  0.00     0.002 A 
ATOM      4  C4  N4B d   1      -1.476  -2.313   0.010  0.00  0.00    -0.004 A 
ATOM      5  C5  N4B d   1      -0.616  -2.261   1.067  0.00  0.00     0.002 A 
ATOM      6  C6  N4B d   1       0.358  -1.286   1.144  0.00  0.00     0.002 A 
ENDROOT
BRANCH   1   7
ATOM      7  C1' N4B d   1       1.591   0.646   0.224  0.00  0.00     0.057 C 
BRANCH   7   8
ATOM      8  C2' N4B d   1       1.192   1.794   1.147  0.00  0.00     0.009 C 
BRANCH   8   9
ATOM      9  C3' N4B d   1       2.379   2.672   1.507  0.00  0.00     0.004 C 
ATOM     10  C4' N4B d   1       2.299   4.038   0.894  0.00  0.00     0.003 C 
ENDBRANCH   8   9
ENDBRANCH   7   8
ENDBRANCH   1   7
TORSDOF 3
ENDMDL
