MODEL 1
REMARK minimizedAffinity -1.72781563
REMARK minimizedRMSD -1
REMARK  3 active torsions:
REMARK  status: ('A' for Active; 'I' for Inactive)
REMARK    1  A    between atoms: C3'_2  and  C2'_3 
REMARK    2  A    between atoms: C2'_3  and  C1'_4 
REMARK    3  A    between atoms: C1'_4  and  C1_5 
ROOT
ATOM      1  C1  N4B d   1       0.574   0.394  -0.038  0.00  0.00    -0.075 A 
ATOM      2  C2  N4B d   1       0.328  -0.658   0.871  0.00  0.00     0.002 A 
ATOM      3  C3  N4B d   1      -0.779  -1.456   0.714  0.00  0.00     0.002 A 
ATOM      4  C4  N4B d   1      -1.659  -1.211  -0.328  0.00  0.00    -0.004 A 
ATOM      5  C5  N4B d   1      -1.401  -0.209  -1.217  0.00  0.00     0.002 A 
ATOM      6  C6  N4B d   1      -0.291   0.599  -1.074  0.00  0.00     0.002 A 
ENDROOT
BRANCH   1   7
ATOM      7  C1' N4B d   1       1.723   1.347   0.142  0.00  0.00     0.057 C 
BRANCH   7   8
ATOM      8  C2' N4B d   1       1.476   2.201   1.383  0.00  0.00     0.009 C 
BRANCH   8   9
ATOM      9  C3' N4B d   1       2.194   3.537   1.305  0.00  0.00     0.004 C 
ATOM     10  C4' N4B d   1       3.372   3.511   0.377  0.00  0.00     0.003 C 
ENDBRANCH   8   9
ENDBRANCH   7   8
ENDBRANCH   1   7
TORSDOF 3
ENDMDL
