MODEL 1
REMARK minimizedAffinity -2.33538508
REMARK minimizedRMSD -1
REMARK  3 active torsions:
REMARK  status: ('A' for Active; 'I' for Inactive)
REMARK    1  A    between atoms: C3'_2  and  C2'_3 
REMARK    2  A    between atoms: C2'_3  and  C1'_4 
REMARK    3  A    between atoms: C1'_4  and  C1_5 
ROOT
ATOM      1  C1  N4B d   1       0.989   0.281   0.067  0.00  0.00    -0.075 A 
ATOM      2  C2  N4B d   1       1.793   1.437   0.180  0.00  0.00     0.002 A 
ATOM      3  C3  N4B d   1       1.883   2.097   1.381  0.00  0.00     0.002 A 
ATOM      4  C4  N4B d   1       1.166   1.633   2.473  0.00  0.00    -0.004 A 
ATOM      5  C5  N4B d   1       0.411   0.501   2.363  0.00  0.00     0.002 A 
ATOM      6  C6  N4B d   1       0.315  -0.174   1.164  0.00  0.00     0.002 A 
ENDROOT
BRANCH   1   7
ATOM      7  C1' N4B d   1       0.792  -0.425  -1.246  0.00  0.00     0.057 C 
BRANCH   7   8
ATOM      8  C2' N4B d   1      -0.017   0.471  -2.180  0.00  0.00     0.009 C 
BRANCH   8   9
ATOM      9  C3' N4B d   1      -1.438   0.672  -1.683  0.00  0.00     0.004 C 
ATOM     10  C4' N4B d   1      -2.260  -0.580  -1.753  0.00  0.00     0.003 C 
ENDBRANCH   8   9
ENDBRANCH   7   8
ENDBRANCH   1   7
TORSDOF 3
ENDMDL
