MODEL 1
REMARK minimizedAffinity -4.28592825
REMARK minimizedRMSD -1
REMARK  3 active torsions:
REMARK  status: ('A' for Active; 'I' for Inactive)
REMARK    1  A    between atoms: C3'_2  and  C2'_3 
REMARK    2  A    between atoms: C2'_3  and  C1'_4 
REMARK    3  A    between atoms: C1'_4  and  C1_5 
ROOT
ATOM      1  C1  N4B d   1       0.188  -0.210  -0.386  0.00  0.00    -0.075 A 
ATOM      2  C2  N4B d   1      -0.802  -1.212  -0.279  0.00  0.00     0.002 A 
ATOM      3  C3  N4B d   1      -1.937  -1.141  -1.049  0.00  0.00     0.002 A 
ATOM      4  C4  N4B d   1      -2.111  -0.073  -1.917  0.00  0.00    -0.004 A 
ATOM      5  C5  N4B d   1      -1.139   0.877  -2.033  0.00  0.00     0.002 A 
ATOM      6  C6  N4B d   1       0.008   0.816  -1.268  0.00  0.00     0.002 A 
ENDROOT
BRANCH   1   7
ATOM      7  C1' N4B d   1       1.405  -0.199   0.497  0.00  0.00     0.057 C 
BRANCH   7   8
ATOM      8  C2' N4B d   1       2.297   0.975   0.105  0.00  0.00     0.009 C 
BRANCH   8   9
ATOM      9  C3' N4B d   1       2.481   1.956   1.251  0.00  0.00     0.004 C 
ATOM     10  C4' N4B d   1       2.402   3.387   0.808  0.00  0.00     0.003 C 
ENDBRANCH   8   9
ENDBRANCH   7   8
ENDBRANCH   1   7
TORSDOF 3
ENDMDL
