MODEL 1
REMARK minimizedAffinity -2.4440484
REMARK minimizedRMSD -1
REMARK  3 active torsions:
REMARK  status: ('A' for Active; 'I' for Inactive)
REMARK    1  A    between atoms: C3'_2  and  C2'_3 
REMARK    2  A    between atoms: C2'_3  and  C1'_4 
REMARK    3  A    between atoms: C1'_4  and  C1_5 
ROOT
ATOM      1  C1  N4B d   1       1.539   0.359  -0.042  0.00  0.00    -0.075 A 
ATOM      2  C2  N4B d   1       1.239  -0.729   0.807  0.00  0.00     0.002 A 
ATOM      3  C3  N4B d   1       0.026  -1.365   0.706  0.00  0.00     0.002 A 
ATOM      4  C4  N4B d   1      -0.907  -0.920  -0.219  0.00  0.00    -0.004 A 
ATOM      5  C5  N4B d   1      -0.600   0.115  -1.052  0.00  0.00     0.002 A 
ATOM      6  C6  N4B d   1       0.617   0.761  -0.965  0.00  0.00     0.002 A 
ENDROOT
BRANCH   1   7
ATOM      7  C1' N4B d   1       2.817   1.140   0.090  0.00  0.00     0.057 C 
BRANCH   7   8
ATOM      8  C2' N4B d   1       2.490   2.570   0.511  0.00  0.00     0.009 C 
BRANCH   8   9
ATOM      9  C3' N4B d   1       3.284   2.998   1.733  0.00  0.00     0.004 C 
ATOM     10  C4' N4B d   1       2.441   3.097   2.968  0.00  0.00     0.003 C 
ENDBRANCH   8   9
ENDBRANCH   7   8
ENDBRANCH   1   7
TORSDOF 3
ENDMDL
