MODEL 1
REMARK minimizedAffinity -3.96572375
REMARK minimizedRMSD -1
REMARK  3 active torsions:
REMARK  status: ('A' for Active; 'I' for Inactive)
REMARK    1  A    between atoms: C3'_2  and  C2'_3 
REMARK    2  A    between atoms: C2'_3  and  C1'_4 
REMARK    3  A    between atoms: C1'_4  and  C1_5 
ROOT
ATOM      1  C1  N4B d   1       1.959   1.070   0.708  0.00  0.00    -0.075 A 
ATOM      2  C2  N4B d   1       2.564   1.992  -0.175  0.00  0.00     0.002 A 
ATOM      3  C3  N4B d   1       2.868   3.259   0.259  0.00  0.00     0.002 A 
ATOM      4  C4  N4B d   1       2.561   3.631   1.559  0.00  0.00    -0.004 A 
ATOM      5  C5  N4B d   1       2.000   2.727   2.412  0.00  0.00     0.002 A 
ATOM      6  C6  N4B d   1       1.692   1.449   1.992  0.00  0.00     0.002 A 
ENDROOT
BRANCH   1   7
ATOM      7  C1' N4B d   1       1.529  -0.299   0.255  0.00  0.00     0.057 C 
BRANCH   7   8
ATOM      8  C2' N4B d   1       0.009  -0.329   0.125  0.00  0.00     0.009 C 
BRANCH   8   9
ATOM      9  C3' N4B d   1      -0.449   0.035  -1.277  0.00  0.00     0.004 C 
ATOM     10  C4' N4B d   1      -1.907  -0.234  -1.500  0.00  0.00     0.003 C 
ENDBRANCH   8   9
ENDBRANCH   7   8
ENDBRANCH   1   7
TORSDOF 3
ENDMDL
