MODEL 1
REMARK minimizedAffinity 0.824322879
REMARK minimizedRMSD -1
REMARK  3 active torsions:
REMARK  status: ('A' for Active; 'I' for Inactive)
REMARK    1  A    between atoms: C3'_2  and  C2'_3 
REMARK    2  A    between atoms: C2'_3  and  C1'_4 
REMARK    3  A    between atoms: C1'_4  and  C1_5 
ROOT
ATOM      1  C1  N4B d   1      -1.954   0.391  -0.092  0.00  0.00    -0.075 A 
ATOM      2  C2  N4B d   1      -2.680  -0.415  -0.996  0.00  0.00     0.002 A 
ATOM      3  C3  N4B d   1      -2.238  -0.566  -2.288  0.00  0.00     0.002 A 
ATOM      4  C4  N4B d   1      -1.090   0.093  -2.701  0.00  0.00    -0.004 A 
ATOM      5  C5  N4B d   1      -0.381   0.849  -1.815  0.00  0.00     0.002 A 
ATOM      6  C6  N4B d   1      -0.811   1.006  -0.512  0.00  0.00     0.002 A 
ENDROOT
BRANCH   1   7
ATOM      7  C1' N4B d   1      -2.444   0.654   1.306  0.00  0.00     0.057 C 
BRANCH   7   8
ATOM      8  C2' N4B d   1      -1.539  -0.070   2.299  0.00  0.00     0.009 C 
BRANCH   8   9
ATOM      9  C3' N4B d   1      -1.902   0.251   3.738  0.00  0.00     0.004 C 
ATOM     10  C4' N4B d   1      -2.528  -0.909   4.452  0.00  0.00     0.003 C 
ENDBRANCH   8   9
ENDBRANCH   7   8
ENDBRANCH   1   7
TORSDOF 3
ENDMDL
