MODEL 1
REMARK minimizedAffinity 3.05311251
REMARK minimizedRMSD -1
REMARK  1 active torsions:
REMARK  status: ('A' for Active; 'I' for Inactive)
REMARK    1  A    between atoms: C1_2  and  C2_3 
ROOT
ATOM      1  C2  UNL d   1      -0.769   0.512   0.010  0.00  0.00    -0.073 A 
ATOM      2  C3  UNL d   1       0.531   0.903  -0.329  0.00  0.00    -0.002 A 
ATOM      3  C4  UNL d   1       1.612   0.061  -0.066  0.00  0.00     0.004 A 
ATOM      4  C5  UNL d   1       1.404  -1.182   0.533  0.00  0.00    -0.004 A 
ATOM      5  C6  UNL d   1       0.110  -1.595   0.868  0.00  0.00    -0.075 A 
ATOM      6  C7  UNL d   1      -0.130  -2.928   1.514  0.00  0.00     0.076 C 
ATOM      7  C8  UNL d   1      -0.969  -0.742   0.603  0.00  0.00     0.001 A 
ENDROOT
BRANCH   1   8
ATOM      8  C1  UNL d   1      -1.940   1.416  -0.279  0.00  0.00     0.053 C 
ATOM      9  C   UNL d   1      -2.617   1.068  -1.595  0.00  0.00     0.018 C 
ENDBRANCH   1   8
TORSDOF 1
ENDMDL
