MODEL 1
REMARK minimizedAffinity 6.81897926
REMARK minimizedRMSD -1
REMARK  1 active torsions:
REMARK  status: ('A' for Active; 'I' for Inactive)
REMARK    1  A    between atoms: C1_2  and  C2_3 
ROOT
ATOM      1  C2  UNL d   1       0.088  -1.405   0.622  0.00  0.00    -0.073 A 
ATOM      2  C3  UNL d   1      -0.816  -2.156  -0.137  0.00  0.00    -0.002 A 
ATOM      3  C4  UNL d   1      -2.170  -1.818  -0.159  0.00  0.00     0.004 A 
ATOM      4  C5  UNL d   1      -2.632  -0.723   0.571  0.00  0.00    -0.004 A 
ATOM      5  C6  UNL d   1      -1.742   0.048   1.326  0.00  0.00    -0.075 A 
ATOM      6  C7  UNL d   1      -2.223   1.227   2.118  0.00  0.00     0.076 C 
ATOM      7  C8  UNL d   1      -0.384  -0.300   1.345  0.00  0.00     0.001 A 
ENDROOT
BRANCH   1   8
ATOM      8  C1  UNL d   1       1.552  -1.762   0.643  0.00  0.00     0.053 C 
ATOM      9  C   UNL d   1       2.338  -1.008  -0.418  0.00  0.00     0.018 C 
ENDBRANCH   1   8
TORSDOF 1
ENDMDL
