MODEL 1
REMARK minimizedAffinity 11.9746332
REMARK minimizedRMSD -1
REMARK  1 active torsions:
REMARK  status: ('A' for Active; 'I' for Inactive)
REMARK    1  A    between atoms: C1_2  and  C2_3 
ROOT
ATOM      1  C2  UNL d   1       4.688   2.810  -1.827  0.00  0.00    -0.073 A 
ATOM      2  C3  UNL d   1       5.348   3.974  -2.237  0.00  0.00    -0.002 A 
ATOM      3  C4  UNL d   1       5.423   5.079  -1.388  0.00  0.00     0.004 A 
ATOM      4  C5  UNL d   1       4.847   5.029  -0.119  0.00  0.00    -0.004 A 
ATOM      5  C6  UNL d   1       4.193   3.870   0.314  0.00  0.00    -0.075 A 
ATOM      6  C7  UNL d   1       3.566   3.801   1.676  0.00  0.00     0.076 C 
ATOM      7  C8  UNL d   1       4.120   2.766  -0.546  0.00  0.00     0.001 A 
ENDROOT
BRANCH   1   8
ATOM      8  C1  UNL d   1       4.610   1.613  -2.738  0.00  0.00     0.053 C 
ATOM      9  C   UNL d   1       3.584   1.804  -3.844  0.00  0.00     0.018 C 
ENDBRANCH   1   8
TORSDOF 1
ENDMDL
