MODEL 1
REMARK minimizedAffinity 7.37894011
REMARK minimizedRMSD -1
REMARK  1 active torsions:
REMARK  status: ('A' for Active; 'I' for Inactive)
REMARK    1  A    between atoms: C1_2  and  C2_3 
ROOT
ATOM      1  C2  UNL d   1       1.555  -1.464   0.661  0.00  0.00    -0.073 A 
ATOM      2  C3  UNL d   1       1.183  -0.124   0.820  0.00  0.00    -0.002 A 
ATOM      3  C4  UNL d   1      -0.161   0.246   0.757  0.00  0.00     0.004 A 
ATOM      4  C5  UNL d   1      -1.145  -0.718   0.542  0.00  0.00    -0.004 A 
ATOM      5  C6  UNL d   1      -0.794  -2.064   0.393  0.00  0.00    -0.075 A 
ATOM      6  C7  UNL d   1      -1.841  -3.113   0.159  0.00  0.00     0.076 C 
ATOM      7  C8  UNL d   1       0.558  -2.427   0.454  0.00  0.00     0.001 A 
ENDROOT
BRANCH   1   8
ATOM      8  C1  UNL d   1       3.005  -1.869   0.734  0.00  0.00     0.053 C 
ATOM      9  C   UNL d   1       3.270  -3.174   0.000  0.00  0.00     0.018 C 
ENDBRANCH   1   8
TORSDOF 1
ENDMDL
