MODEL 1
REMARK minimizedAffinity -1.33958983
REMARK minimizedRMSD -1
REMARK  1 active torsions:
REMARK  status: ('A' for Active; 'I' for Inactive)
REMARK    1  A    between atoms: C1_2  and  C2_3 
ROOT
ATOM      1  C2  UNL d   1       2.307   0.825  -0.038  0.00  0.00    -0.073 A 
ATOM      2  C3  UNL d   1       1.720   2.071  -0.286  0.00  0.00    -0.002 A 
ATOM      3  C4  UNL d   1       0.349   2.255  -0.097  0.00  0.00     0.004 A 
ATOM      4  C5  UNL d   1      -0.445   1.198   0.348  0.00  0.00    -0.004 A 
ATOM      5  C6  UNL d   1       0.125  -0.051   0.612  0.00  0.00    -0.075 A 
ATOM      6  C7  UNL d   1      -0.716  -1.198   1.089  0.00  0.00     0.076 C 
ATOM      7  C8  UNL d   1       1.502  -0.228   0.418  0.00  0.00     0.001 A 
ENDROOT
BRANCH   1   8
ATOM      8  C1  UNL d   1       3.788   0.625  -0.234  0.00  0.00     0.053 C 
ATOM      9  C   UNL d   1       4.458   1.858  -0.819  0.00  0.00     0.018 C 
ENDBRANCH   1   8
TORSDOF 1
ENDMDL
