MODEL 1
REMARK minimizedAffinity 11.492013
REMARK minimizedRMSD -1
REMARK  1 active torsions:
REMARK  status: ('A' for Active; 'I' for Inactive)
REMARK    1  A    between atoms: C1_2  and  C2_3 
ROOT
ATOM      1  C2  UNL d   1      -1.920  -1.955  -0.079  0.00  0.00    -0.073 A 
ATOM      2  C3  UNL d   1      -2.662  -0.832   0.305  0.00  0.00    -0.002 A 
ATOM      3  C4  UNL d   1      -2.231  -0.030   1.362  0.00  0.00     0.004 A 
ATOM      4  C5  UNL d   1      -1.052  -0.337   2.042  0.00  0.00    -0.004 A 
ATOM      5  C6  UNL d   1      -0.291  -1.449   1.666  0.00  0.00    -0.075 A 
ATOM      6  C7  UNL d   1       0.978  -1.795   2.388  0.00  0.00     0.076 C 
ATOM      7  C8  UNL d   1      -0.731  -2.251   0.605  0.00  0.00     0.001 A 
ENDROOT
BRANCH   1   8
ATOM      8  C1  UNL d   1      -2.378  -2.820  -1.224  0.00  0.00     0.053 C 
ATOM      9  C   UNL d   1      -1.840  -2.330  -2.559  0.00  0.00     0.018 C 
ENDBRANCH   1   8
TORSDOF 1
ENDMDL
