MODEL 1
REMARK minimizedAffinity 1.1777339
REMARK minimizedRMSD -1
REMARK  1 active torsions:
REMARK  status: ('A' for Active; 'I' for Inactive)
REMARK    1  A    between atoms: C1_2  and  C2_3 
ROOT
ATOM      1  C2  UNL d   1      -2.531   0.479   2.602  0.00  0.00    -0.073 A 
ATOM      2  C3  UNL d   1      -2.702   0.409   1.215  0.00  0.00    -0.002 A 
ATOM      3  C4  UNL d   1      -1.772  -0.267   0.423  0.00  0.00     0.004 A 
ATOM      4  C5  UNL d   1      -0.668  -0.885   1.010  0.00  0.00    -0.004 A 
ATOM      5  C6  UNL d   1      -0.486  -0.835   2.396  0.00  0.00    -0.075 A 
ATOM      6  C7  UNL d   1       0.698  -1.492   3.043  0.00  0.00     0.076 C 
ATOM      7  C8  UNL d   1      -1.422  -0.152   3.184  0.00  0.00     0.001 A 
ENDROOT
BRANCH   1   8
ATOM      8  C1  UNL d   1      -3.535   1.203   3.461  0.00  0.00     0.053 C 
ATOM      9  C   UNL d   1      -4.869   0.475   3.515  0.00  0.00     0.018 C 
ENDBRANCH   1   8
TORSDOF 1
ENDMDL
