MODEL 1
REMARK minimizedAffinity 9.25774384
REMARK minimizedRMSD -1
REMARK  1 active torsions:
REMARK  status: ('A' for Active; 'I' for Inactive)
REMARK    1  A    between atoms: C1_2  and  C2_3 
ROOT
ATOM      1  C2  UNL d   1      -0.401  -1.546   1.497  0.00  0.00    -0.073 A 
ATOM      2  C3  UNL d   1      -1.480  -2.088   0.790  0.00  0.00    -0.002 A 
ATOM      3  C4  UNL d   1      -2.498  -1.260   0.314  0.00  0.00     0.004 A 
ATOM      4  C5  UNL d   1      -2.445   0.116   0.533  0.00  0.00    -0.004 A 
ATOM      5  C6  UNL d   1      -1.368   0.678   1.228  0.00  0.00    -0.075 A 
ATOM      6  C7  UNL d   1      -1.297   2.156   1.474  0.00  0.00     0.076 C 
ATOM      7  C8  UNL d   1      -0.352  -0.160   1.705  0.00  0.00     0.001 A 
ENDROOT
BRANCH   1   8
ATOM      8  C1  UNL d   1       0.703  -2.434   2.007  0.00  0.00     0.053 C 
ATOM      9  C   UNL d   1       0.873  -2.324   3.514  0.00  0.00     0.018 C 
ENDBRANCH   1   8
TORSDOF 1
ENDMDL
