MODEL 1
REMARK minimizedAffinity 4.02467299
REMARK minimizedRMSD -1
REMARK  1 active torsions:
REMARK  status: ('A' for Active; 'I' for Inactive)
REMARK    1  A    between atoms: C1_2  and  C2_3 
ROOT
ATOM      1  C2  UNL d   1      -2.969   0.194   2.551  0.00  0.00    -0.073 A 
ATOM      2  C3  UNL d   1      -2.973   0.266   1.153  0.00  0.00    -0.002 A 
ATOM      3  C4  UNL d   1      -1.875  -0.186   0.420  0.00  0.00     0.004 A 
ATOM      4  C5  UNL d   1      -0.766  -0.721   1.076  0.00  0.00    -0.004 A 
ATOM      5  C6  UNL d   1      -0.748  -0.813   2.471  0.00  0.00    -0.075 A 
ATOM      6  C7  UNL d   1       0.438  -1.384   3.192  0.00  0.00     0.076 C 
ATOM      7  C8  UNL d   1      -1.853  -0.354   3.200  0.00  0.00     0.001 A 
ENDROOT
BRANCH   1   8
ATOM      8  C1  UNL d   1      -4.155   0.675   3.346  0.00  0.00     0.053 C 
ATOM      9  C   UNL d   1      -5.467   0.140   2.793  0.00  0.00     0.018 C 
ENDBRANCH   1   8
TORSDOF 1
ENDMDL
