MODEL 1
REMARK minimizedAffinity 3.04922009
REMARK minimizedRMSD -1
REMARK  1 active torsions:
REMARK  status: ('A' for Active; 'I' for Inactive)
REMARK    1  A    between atoms: C1_2  and  C2_3 
ROOT
ATOM      1  C2  UNL d   1       0.283  -3.430  -1.401  0.00  0.00    -0.073 A 
ATOM      2  C3  UNL d   1      -0.258  -4.713  -1.266  0.00  0.00    -0.002 A 
ATOM      3  C4  UNL d   1      -1.631  -4.918  -1.410  0.00  0.00     0.004 A 
ATOM      4  C5  UNL d   1      -2.475  -3.845  -1.696  0.00  0.00    -0.004 A 
ATOM      5  C6  UNL d   1      -1.951  -2.557  -1.846  0.00  0.00    -0.075 A 
ATOM      6  C7  UNL d   1      -2.846  -1.391  -2.152  0.00  0.00     0.076 C 
ATOM      7  C8  UNL d   1      -0.572  -2.359  -1.698  0.00  0.00     0.001 A 
ENDROOT
BRANCH   1   8
ATOM      8  C1  UNL d   1       1.765  -3.205  -1.253  0.00  0.00     0.053 C 
ATOM      9  C   UNL d   1       2.461  -4.395  -0.611  0.00  0.00     0.018 C 
ENDBRANCH   1   8
TORSDOF 1
ENDMDL
