MODEL 1
REMARK minimizedAffinity 5.33514118
REMARK minimizedRMSD -1
REMARK  1 active torsions:
REMARK  status: ('A' for Active; 'I' for Inactive)
REMARK    1  A    between atoms: C1_2  and  C2_3 
ROOT
ATOM      1  C2  UNL d   1       1.468  -0.514   1.432  0.00  0.00    -0.073 A 
ATOM      2  C3  UNL d   1       2.306  -0.772   0.341  0.00  0.00    -0.002 A 
ATOM      3  C4  UNL d   1       2.304   0.079  -0.765  0.00  0.00     0.004 A 
ATOM      4  C5  UNL d   1       1.471   1.197  -0.789  0.00  0.00    -0.004 A 
ATOM      5  C6  UNL d   1       0.635   1.478   0.296  0.00  0.00    -0.075 A 
ATOM      6  C7  UNL d   1      -0.269   2.675   0.285  0.00  0.00     0.076 C 
ATOM      7  C8  UNL d   1       0.641   0.617   1.403  0.00  0.00     0.001 A 
ENDROOT
BRANCH   1   8
ATOM      8  C1  UNL d   1       1.472  -1.426   2.632  0.00  0.00     0.053 C 
ATOM      9  C   UNL d   1       0.432  -2.529   2.513  0.00  0.00     0.018 C 
ENDBRANCH   1   8
TORSDOF 1
ENDMDL
