MODEL 1
REMARK minimizedAffinity 0.200996071
REMARK minimizedRMSD -1
REMARK  1 active torsions:
REMARK  status: ('A' for Active; 'I' for Inactive)
REMARK    1  A    between atoms: C1_2  and  C2_3 
ROOT
ATOM      1  C2  UNL d   1       2.105  -2.092   3.169  0.00  0.00    -0.073 A 
ATOM      2  C3  UNL d   1       1.709  -2.797   4.311  0.00  0.00    -0.002 A 
ATOM      3  C4  UNL d   1       2.646  -3.513   5.058  0.00  0.00     0.004 A 
ATOM      4  C5  UNL d   1       3.987  -3.526   4.674  0.00  0.00    -0.004 A 
ATOM      5  C6  UNL d   1       4.404  -2.818   3.542  0.00  0.00    -0.075 A 
ATOM      6  C7  UNL d   1       5.842  -2.824   3.115  0.00  0.00     0.076 C 
ATOM      7  C8  UNL d   1       3.456  -2.104   2.796  0.00  0.00     0.001 A 
ENDROOT
BRANCH   1   8
ATOM      8  C1  UNL d   1       1.098  -1.313   2.363  0.00  0.00     0.053 C 
ATOM      9  C   UNL d   1       1.764  -0.406   1.341  0.00  0.00     0.018 C 
ENDBRANCH   1   8
TORSDOF 1
ENDMDL
