MODEL 1
REMARK minimizedAffinity -3.00479698
REMARK minimizedRMSD -1
REMARK  1 active torsions:
REMARK  status: ('A' for Active; 'I' for Inactive)
REMARK    1  A    between atoms: C1_2  and  C2_3 
ROOT
ATOM      1  C2  UNL d   1       1.177  -0.002   2.021  0.00  0.00    -0.073 A 
ATOM      2  C3  UNL d   1       1.721   1.142   2.613  0.00  0.00    -0.002 A 
ATOM      3  C4  UNL d   1       2.117   1.123   3.952  0.00  0.00     0.004 A 
ATOM      4  C5  UNL d   1       1.978  -0.041   4.708  0.00  0.00    -0.004 A 
ATOM      5  C6  UNL d   1       1.447  -1.199   4.130  0.00  0.00    -0.075 A 
ATOM      6  C7  UNL d   1       1.289  -2.458   4.930  0.00  0.00     0.076 C 
ATOM      7  C8  UNL d   1       1.050  -1.170   2.786  0.00  0.00     0.001 A 
ENDROOT
BRANCH   1   8
ATOM      8  C1  UNL d   1       0.754   0.012   0.574  0.00  0.00     0.053 C 
ATOM      9  C   UNL d   1      -0.011   1.276   0.216  0.00  0.00     0.018 C 
ENDBRANCH   1   8
TORSDOF 1
ENDMDL
