MODEL 1
REMARK minimizedAffinity 13.8532009
REMARK minimizedRMSD -1
REMARK  1 active torsions:
REMARK  status: ('A' for Active; 'I' for Inactive)
REMARK    1  A    between atoms: N_2  and  C1_3 
ROOT
ATOM      1  C1  UNL d   1      -3.501   2.963  -4.079  0.00  0.00     0.143 A 
ATOM      2  C2  UNL d   1      -4.240   4.150  -4.078  0.00  0.00    -0.057 A 
ATOM      3  C3  UNL d   1      -5.481   4.233  -4.721  0.00  0.00     0.033 A 
ATOM      4  C4  UNL d   1      -5.993   3.135  -5.404  0.00  0.00    -0.042 A 
ATOM      5  C5  UNL d   1      -5.264   1.951  -5.439  0.00  0.00     0.033 A 
ATOM      6  C6  UNL d   1      -4.028   1.873  -4.790  0.00  0.00    -0.057 A 
ENDROOT
BRANCH   1   7
ATOM      7  N   UNL d   1      -2.216   2.846  -3.543  0.00  0.00    -0.732 N 
ATOM      8  C   UNL d   1      -1.100   2.460  -4.379  0.00  0.00     0.284 C 
ATOM      9  H3  UNL d   1      -2.003   3.589  -2.881  0.00  0.00     0.395 HD
ENDBRANCH   1   7
TORSDOF 1
ENDMDL
