MODEL 1
REMARK minimizedAffinity 3.8594532
REMARK minimizedRMSD -1
REMARK  1 active torsions:
REMARK  status: ('A' for Active; 'I' for Inactive)
REMARK    1  A    between atoms: N_2  and  C1_3 
ROOT
ATOM      1  C1  UNL d   1       1.573  -3.662   0.507  0.00  0.00     0.143 A 
ATOM      2  C2  UNL d   1       0.475  -2.807   0.651  0.00  0.00    -0.057 A 
ATOM      3  C3  UNL d   1       0.596  -1.573   1.301  0.00  0.00     0.033 A 
ATOM      4  C4  UNL d   1       1.815  -1.184   1.846  0.00  0.00    -0.042 A 
ATOM      5  C5  UNL d   1       2.914  -2.028   1.737  0.00  0.00     0.033 A 
ATOM      6  C6  UNL d   1       2.789  -3.256   1.081  0.00  0.00    -0.057 A 
ENDROOT
BRANCH   1   7
ATOM      7  N   UNL d   1       1.494  -4.944  -0.042  0.00  0.00    -0.732 N 
ATOM      8  C   UNL d   1       2.368  -6.000   0.423  0.00  0.00     0.284 C 
ATOM      9  H3  UNL d   1       0.534  -5.239  -0.203  0.00  0.00     0.395 HD
ENDBRANCH   1   7
TORSDOF 1
ENDMDL
