MODEL 1
REMARK minimizedAffinity -5.05687094
REMARK minimizedRMSD -1
REMARK  0 active torsions:
REMARK  status: ('A' for Active; 'I' for Inactive)
ROOT
ATOM      1  C   UNL d   1      -0.726  -0.018   2.021  0.00  0.00     0.020 A 
ATOM      2  C1  UNL d   1       0.489  -0.488   2.517  0.00  0.00     0.020 A 
ATOM      3  C2  UNL d   1       1.514  -0.838   1.636  0.00  0.00     0.034 A 
ATOM      4  C3  UNL d   1       1.326  -0.718   0.254  0.00  0.00     0.017 A 
ATOM      5  C4  UNL d   1       0.106  -0.246  -0.243  0.00  0.00     0.017 A 
ATOM      6  C5  UNL d   1      -0.917   0.103   0.644  0.00  0.00     0.034 A 
ATOM      7 Cl   UNL d   1      -0.201  -0.071  -1.935  0.00  0.00    -0.070 Cl
ATOM      8 Cl1  UNL d   1       2.637  -1.168  -0.778  0.00  0.00    -0.070 Cl
ENDROOT
TORSDOF 0
ENDMDL
