MODEL 1
REMARK minimizedAffinity -3.94357491
REMARK minimizedRMSD -1
REMARK  0 active torsions:
REMARK  status: ('A' for Active; 'I' for Inactive)
ROOT
ATOM      1  C   UNL d   1       0.053   0.021  -1.480  0.00  0.00     0.020 A 
ATOM      2  C1  UNL d   1       1.245  -0.549  -1.036  0.00  0.00     0.020 A 
ATOM      3  C2  UNL d   1       1.501  -0.656   0.333  0.00  0.00     0.034 A 
ATOM      4  C3  UNL d   1       0.563  -0.191   1.262  0.00  0.00     0.017 A 
ATOM      5  C4  UNL d   1      -0.633   0.381   0.815  0.00  0.00     0.017 A 
ATOM      6  C5  UNL d   1      -0.884   0.485  -0.556  0.00  0.00     0.034 A 
ATOM      7 Cl   UNL d   1      -1.838   0.977   1.902  0.00  0.00    -0.070 Cl
ATOM      8 Cl1  UNL d   1       0.945  -0.355   2.939  0.00  0.00    -0.070 Cl
ENDROOT
TORSDOF 0
ENDMDL
