MODEL 1
REMARK minimizedAffinity -4.44959879
REMARK minimizedRMSD -1
REMARK  0 active torsions:
REMARK  status: ('A' for Active; 'I' for Inactive)
ROOT
ATOM      1  C   UNL d   1       0.892  -0.428  -1.063  0.00  0.00     0.020 A 
ATOM      2  C1  UNL d   1      -0.491  -0.280  -1.154  0.00  0.00     0.020 A 
ATOM      3  C2  UNL d   1      -1.263  -0.204   0.007  0.00  0.00     0.034 A 
ATOM      4  C3  UNL d   1      -0.652  -0.275   1.264  0.00  0.00     0.017 A 
ATOM      5  C4  UNL d   1       0.736  -0.424   1.355  0.00  0.00     0.017 A 
ATOM      6  C5  UNL d   1       1.504  -0.500   0.189  0.00  0.00     0.034 A 
ATOM      7 Cl   UNL d   1       1.562  -0.520   2.870  0.00  0.00    -0.070 Cl
ATOM      8 Cl1  UNL d   1      -1.668  -0.173   2.658  0.00  0.00    -0.070 Cl
ENDROOT
TORSDOF 0
ENDMDL
