MODEL 1
REMARK minimizedAffinity -2.72917008
REMARK minimizedRMSD -1
REMARK  0 active torsions:
REMARK  status: ('A' for Active; 'I' for Inactive)
ROOT
ATOM      1  C   UNL d   1       1.270  -1.020  -1.062  0.00  0.00     0.020 A 
ATOM      2  C1  UNL d   1       0.012  -0.595  -1.490  0.00  0.00     0.020 A 
ATOM      3  C2  UNL d   1      -0.896  -0.065  -0.571  0.00  0.00     0.034 A 
ATOM      4  C3  UNL d   1      -0.548   0.042   0.780  0.00  0.00     0.017 A 
ATOM      5  C4  UNL d   1       0.714  -0.384   1.209  0.00  0.00     0.017 A 
ATOM      6  C5  UNL d   1       1.620  -0.914   0.284  0.00  0.00     0.034 A 
ATOM      7 Cl   UNL d   1       1.215  -0.283   2.860  0.00  0.00    -0.070 Cl
ATOM      8 Cl1  UNL d   1      -1.720   0.707   1.861  0.00  0.00    -0.070 Cl
ENDROOT
TORSDOF 0
ENDMDL
