MODEL 1
REMARK minimizedAffinity 1.74082923
REMARK minimizedRMSD -1
REMARK  0 active torsions:
REMARK  status: ('A' for Active; 'I' for Inactive)
ROOT
ATOM      1  C   UNL d   1       0.376   0.662  -1.251  0.00  0.00     0.020 A 
ATOM      2  C1  UNL d   1       1.517   0.208  -0.589  0.00  0.00     0.020 A 
ATOM      3  C2  UNL d   1       1.392  -0.534   0.587  0.00  0.00     0.034 A 
ATOM      4  C3  UNL d   1       0.125  -0.826   1.105  0.00  0.00     0.017 A 
ATOM      5  C4  UNL d   1      -1.019  -0.370   0.440  0.00  0.00     0.017 A 
ATOM      6  C5  UNL d   1      -0.889   0.373  -0.737  0.00  0.00     0.034 A 
ATOM      7 Cl   UNL d   1      -2.616  -0.689   1.018  0.00  0.00    -0.070 Cl
ATOM      8 Cl1  UNL d   1       0.046  -1.749   2.563  0.00  0.00    -0.070 Cl
ENDROOT
TORSDOF 0
ENDMDL
