MODEL 1
REMARK minimizedAffinity -3.48490405
REMARK minimizedRMSD -1
REMARK  0 active torsions:
REMARK  status: ('A' for Active; 'I' for Inactive)
ROOT
ATOM      1  C   UNL d   1       0.462  -0.767  -1.327  0.00  0.00     0.020 A 
ATOM      2  C1  UNL d   1       1.618  -1.110  -0.627  0.00  0.00     0.020 A 
ATOM      3  C2  UNL d   1       1.580  -1.239   0.763  0.00  0.00     0.034 A 
ATOM      4  C3  UNL d   1       0.384  -1.025   1.457  0.00  0.00     0.017 A 
ATOM      5  C4  UNL d   1      -0.776  -0.680   0.754  0.00  0.00     0.017 A 
ATOM      6  C5  UNL d   1      -0.732  -0.552  -0.638  0.00  0.00     0.034 A 
ATOM      7 Cl   UNL d   1      -2.289  -0.400   1.541  0.00  0.00    -0.070 Cl
ATOM      8 Cl1  UNL d   1       0.410  -1.202   3.176  0.00  0.00    -0.070 Cl
ENDROOT
TORSDOF 0
ENDMDL
