MODEL 1
REMARK minimizedAffinity -1.74073493
REMARK minimizedRMSD -1
REMARK  0 active torsions:
REMARK  status: ('A' for Active; 'I' for Inactive)
ROOT
ATOM      1  C   UNL d   1      -1.430   1.379   0.609  0.00  0.00     0.020 A 
ATOM      2  C1  UNL d   1      -0.765   1.418  -0.616  0.00  0.00     0.020 A 
ATOM      3  C2  UNL d   1       0.232   0.483  -0.899  0.00  0.00     0.034 A 
ATOM      4  C3  UNL d   1       0.568  -0.495   0.044  0.00  0.00     0.017 A 
ATOM      5  C4  UNL d   1      -0.100  -0.534   1.273  0.00  0.00     0.017 A 
ATOM      6  C5  UNL d   1      -1.098   0.405   1.551  0.00  0.00     0.034 A 
ATOM      7 Cl   UNL d   1       0.259  -1.712   2.486  0.00  0.00    -0.070 Cl
ATOM      8 Cl1  UNL d   1       1.812  -1.620  -0.373  0.00  0.00    -0.070 Cl
ENDROOT
TORSDOF 0
ENDMDL
