MODEL 1
REMARK minimizedAffinity -3.64437819
REMARK minimizedRMSD -1
REMARK  0 active torsions:
REMARK  status: ('A' for Active; 'I' for Inactive)
ROOT
ATOM      1  C   UNL d   1       1.144  -0.517   2.840  0.00  0.00     0.020 A 
ATOM      2  C1  UNL d   1       1.984  -0.278   1.753  0.00  0.00     0.020 A 
ATOM      3  C2  UNL d   1       1.441  -0.068   0.484  0.00  0.00     0.034 A 
ATOM      4  C3  UNL d   1       0.054  -0.095   0.299  0.00  0.00     0.017 A 
ATOM      5  C4  UNL d   1      -0.789  -0.335   1.390  0.00  0.00     0.017 A 
ATOM      6  C5  UNL d   1      -0.240  -0.545   2.659  0.00  0.00     0.034 A 
ATOM      7 Cl   UNL d   1      -2.510  -0.383   1.240  0.00  0.00    -0.070 Cl
ATOM      8 Cl1  UNL d   1      -0.549   0.174  -1.298  0.00  0.00    -0.070 Cl
ENDROOT
TORSDOF 0
ENDMDL
