MODEL 1
REMARK minimizedAffinity -1.38434398
REMARK minimizedRMSD -1
REMARK  0 active torsions:
REMARK  status: ('A' for Active; 'I' for Inactive)
ROOT
ATOM      1  C   UNL d   1      -0.757  -0.210   2.214  0.00  0.00     0.020 A 
ATOM      2  C1  UNL d   1       0.255  -0.922   2.857  0.00  0.00     0.020 A 
ATOM      3  C2  UNL d   1       1.309  -1.461   2.116  0.00  0.00     0.034 A 
ATOM      4  C3  UNL d   1       1.354  -1.289   0.728  0.00  0.00     0.017 A 
ATOM      5  C4  UNL d   1       0.338  -0.575   0.083  0.00  0.00     0.017 A 
ATOM      6  C5  UNL d   1      -0.715  -0.037   0.830  0.00  0.00     0.034 A 
ATOM      7 Cl   UNL d   1       0.325  -0.321  -1.627  0.00  0.00    -0.070 Cl
ATOM      8 Cl1  UNL d   1       2.687  -1.983  -0.125  0.00  0.00    -0.070 Cl
ENDROOT
TORSDOF 0
ENDMDL
