MODEL 1
REMARK minimizedAffinity 1.51171291
REMARK minimizedRMSD -1
REMARK  0 active torsions:
REMARK  status: ('A' for Active; 'I' for Inactive)
ROOT
ATOM      1  C1  DEN d   1      -2.677  -0.436  -0.706  0.00  0.00     0.130 A 
ATOM      2  C2  DEN d   1      -2.191   0.857  -1.181  0.00  0.00    -0.031 A 
ATOM      3  C3  DEN d   1      -1.398   1.472  -0.098  0.00  0.00     0.027 A 
ATOM      4  C4  DEN d   1      -0.874   0.551   2.254  0.00  0.00     0.027 A 
ATOM      5  C5  DEN d   1      -1.078  -0.501   3.119  0.00  0.00    -0.003 A 
ATOM      6  C6  DEN d   1      -1.851  -1.581   2.784  0.00  0.00     0.001 A 
ATOM      7  C7  DEN d   1      -2.412  -1.654   1.537  0.00  0.00     0.017 A 
ATOM      8  C8  DEN d   1      -2.217  -0.593   0.662  0.00  0.00    -0.094 A 
ATOM      9  C9  DEN d   1      -1.422   0.484   1.014  0.00  0.00    -0.072 A 
ENDROOT
TORSDOF 0
ENDMDL
