MODEL 1
REMARK minimizedAffinity 3.68859911
REMARK minimizedRMSD -1
REMARK  0 active torsions:
REMARK  status: ('A' for Active; 'I' for Inactive)
ROOT
ATOM      1  C1  DEN d   1       2.568  -4.910  -5.896  0.00  0.00     0.130 A 
ATOM      2  C2  DEN d   1       3.648  -4.137  -5.289  0.00  0.00    -0.031 A 
ATOM      3  C3  DEN d   1       3.330  -3.955  -3.858  0.00  0.00     0.027 A 
ATOM      4  C4  DEN d   1       1.285  -4.795  -2.531  0.00  0.00     0.027 A 
ATOM      5  C5  DEN d   1       0.096  -5.486  -2.618  0.00  0.00    -0.003 A 
ATOM      6  C6  DEN d   1      -0.365  -5.999  -3.801  0.00  0.00     0.001 A 
ATOM      7  C7  DEN d   1       0.390  -5.869  -4.937  0.00  0.00     0.017 A 
ATOM      8  C8  DEN d   1       1.586  -5.168  -4.859  0.00  0.00    -0.094 A 
ATOM      9  C9  DEN d   1       2.040  -4.667  -3.651  0.00  0.00    -0.072 A 
ENDROOT
TORSDOF 0
ENDMDL
