MODEL 1
REMARK minimizedAffinity -1.36101425
REMARK minimizedRMSD -1
REMARK  0 active torsions:
REMARK  status: ('A' for Active; 'I' for Inactive)
ROOT
ATOM      1  C1  DEN d   1      -1.451  -0.557   2.336  0.00  0.00     0.130 A 
ATOM      2  C2  DEN d   1      -0.812   0.019   1.156  0.00  0.00    -0.031 A 
ATOM      3  C3  DEN d   1       0.647  -0.156   1.296  0.00  0.00     0.027 A 
ATOM      4  C4  DEN d   1       1.972  -1.262   3.213  0.00  0.00     0.027 A 
ATOM      5  C5  DEN d   1       1.867  -1.885   4.437  0.00  0.00    -0.003 A 
ATOM      6  C6  DEN d   1       0.661  -2.078   5.057  0.00  0.00     0.001 A 
ATOM      7  C7  DEN d   1      -0.493  -1.682   4.434  0.00  0.00     0.017 A 
ATOM      8  C8  DEN d   1      -0.394  -1.046   3.203  0.00  0.00    -0.094 A 
ATOM      9  C9  DEN d   1       0.833  -0.872   2.587  0.00  0.00    -0.072 A 
ENDROOT
TORSDOF 0
ENDMDL
