MODEL 1
REMARK minimizedAffinity 6.86984539
REMARK minimizedRMSD -1
REMARK  0 active torsions:
REMARK  status: ('A' for Active; 'I' for Inactive)
ROOT
ATOM      1  C1  DEN d   1       2.383  -1.816   4.232  0.00  0.00     0.130 A 
ATOM      2  C2  DEN d   1       1.662  -2.173   5.451  0.00  0.00    -0.031 A 
ATOM      3  C3  DEN d   1       0.239  -1.828   5.257  0.00  0.00     0.027 A 
ATOM      4  C4  DEN d   1      -0.912  -0.785   3.198  0.00  0.00     0.027 A 
ATOM      5  C5  DEN d   1      -0.709  -0.297   1.926  0.00  0.00    -0.003 A 
ATOM      6  C6  DEN d   1       0.533  -0.250   1.351  0.00  0.00     0.001 A 
ATOM      7  C7  DEN d   1       1.615  -0.741   2.033  0.00  0.00     0.017 A 
ATOM      8  C8  DEN d   1       1.420  -1.228   3.319  0.00  0.00    -0.094 A 
ATOM      9  C9  DEN d   1       0.155  -1.278   3.878  0.00  0.00    -0.072 A 
ENDROOT
TORSDOF 0
ENDMDL
