MODEL 1
REMARK minimizedAffinity 3.02193737
REMARK minimizedRMSD -1
REMARK  0 active torsions:
REMARK  status: ('A' for Active; 'I' for Inactive)
ROOT
ATOM      1  C1  DEN d   1       2.233  -1.509   3.313  0.00  0.00     0.130 A 
ATOM      2  C2  DEN d   1       1.651  -2.263   4.420  0.00  0.00    -0.031 A 
ATOM      3  C3  DEN d   1       0.181  -2.194   4.297  0.00  0.00     0.027 A 
ATOM      4  C4  DEN d   1      -1.243  -1.004   2.505  0.00  0.00     0.027 A 
ATOM      5  C5  DEN d   1      -1.197  -0.225   1.371  0.00  0.00    -0.003 A 
ATOM      6  C6  DEN d   1      -0.016   0.206   0.828  0.00  0.00     0.001 A 
ATOM      7  C7  DEN d   1       1.171  -0.178   1.394  0.00  0.00     0.017 A 
ATOM      8  C8  DEN d   1       1.133  -0.958   2.542  0.00  0.00    -0.094 A 
ATOM      9  C9  DEN d   1      -0.071  -1.393   3.069  0.00  0.00    -0.072 A 
ENDROOT
TORSDOF 0
ENDMDL
