MODEL 1
REMARK minimizedAffinity -0.451234251
REMARK minimizedRMSD -1
REMARK  0 active torsions:
REMARK  status: ('A' for Active; 'I' for Inactive)
ROOT
ATOM      1  C1  DEN d   1       1.985  -1.483   3.275  0.00  0.00     0.130 A 
ATOM      2  C2  DEN d   1       1.502  -1.768   4.624  0.00  0.00    -0.031 A 
ATOM      3  C3  DEN d   1       0.110  -1.287   4.722  0.00  0.00     0.027 A 
ATOM      4  C4  DEN d   1      -1.341  -0.139   2.924  0.00  0.00     0.027 A 
ATOM      5  C5  DEN d   1      -1.362   0.327   1.628  0.00  0.00    -0.003 A 
ATOM      6  C6  DEN d   1      -0.268   0.253   0.807  0.00  0.00     0.001 A 
ATOM      7  C7  DEN d   1       0.881  -0.340   1.260  0.00  0.00     0.017 A 
ATOM      8  C8  DEN d   1       0.913  -0.805   2.568  0.00  0.00    -0.094 A 
ATOM      9  C9  DEN d   1      -0.208  -0.732   3.378  0.00  0.00    -0.072 A 
ENDROOT
TORSDOF 0
ENDMDL
