MODEL 1
REMARK minimizedAffinity 2.89804769
REMARK minimizedRMSD -1
REMARK  0 active torsions:
REMARK  status: ('A' for Active; 'I' for Inactive)
ROOT
ATOM      1  C1  DEN d   1       0.014  -5.302  -2.310  0.00  0.00     0.130 A 
ATOM      2  C2  DEN d   1       1.030  -4.633  -1.502  0.00  0.00    -0.031 A 
ATOM      3  C3  DEN d   1       2.182  -4.333  -2.375  0.00  0.00     0.027 A 
ATOM      4  C4  DEN d   1       2.489  -4.831  -4.887  0.00  0.00     0.027 A 
ATOM      5  C5  DEN d   1       1.903  -5.395  -5.999  0.00  0.00    -0.003 A 
ATOM      6  C6  DEN d   1       0.672  -5.992  -5.952  0.00  0.00     0.001 A 
ATOM      7  C7  DEN d   1      -0.035  -6.000  -4.779  0.00  0.00     0.017 A 
ATOM      8  C8  DEN d   1       0.552  -5.440  -3.651  0.00  0.00    -0.094 A 
ATOM      9  C9  DEN d   1       1.793  -4.831  -3.722  0.00  0.00    -0.072 A 
ENDROOT
TORSDOF 0
ENDMDL
