MODEL 1
REMARK minimizedAffinity -1.49913621
REMARK minimizedRMSD -1
REMARK  2 active torsions:
REMARK  status: ('A' for Active; 'I' for Inactive)
REMARK    1  A    between atoms: C2'_3  and  C1'_4 
REMARK    2  A    between atoms: C1'_4  and  C1_5 
ROOT
ATOM      1  C1  I4B d   1      -0.260  -0.769   0.094  0.00  0.00    -0.075 A 
ATOM      2  C2  I4B d   1      -0.893  -0.687   1.309  0.00  0.00     0.003 A 
ATOM      3  C3  I4B d   1      -1.527   0.516   1.703  0.00  0.00     0.002 A 
ATOM      4  C4  I4B d   1      -1.459   1.621   0.879  0.00  0.00    -0.004 A 
ATOM      5  C5  I4B d   1      -0.836   1.530  -0.362  0.00  0.00     0.002 A 
ATOM      6  C6  I4B d   1      -0.243   0.324  -0.763  0.00  0.00     0.003 A 
ENDROOT
BRANCH   1   7
ATOM      7  C1' I4B d   1       0.427  -2.045  -0.277  0.00  0.00     0.060 C 
BRANCH   7   8
ATOM      8  C2' I4B d   1      -0.383  -2.710  -1.371  0.00  0.00    -0.013 C 
ATOM      9  C4' I4B d   1       0.511  -3.282  -2.440  0.00  0.00     0.013 C 
ATOM     10  C3' I4B d   1      -1.224  -3.779  -0.739  0.00  0.00     0.013 C 
ENDBRANCH   7   8
ENDBRANCH   1   7
TORSDOF 2
ENDMDL
