MODEL 1
REMARK minimizedAffinity -0.9048388
REMARK minimizedRMSD -1
REMARK  2 active torsions:
REMARK  status: ('A' for Active; 'I' for Inactive)
REMARK    1  A    between atoms: C2'_3  and  C1'_4 
REMARK    2  A    between atoms: C1'_4  and  C1_5 
ROOT
ATOM      1  C1  I4B d   1      -0.019   0.845   0.467  0.00  0.00    -0.075 A 
ATOM      2  C2  I4B d   1       1.328   0.888   0.726  0.00  0.00     0.003 A 
ATOM      3  C3  I4B d   1       2.101  -0.298   0.682  0.00  0.00     0.002 A 
ATOM      4  C4  I4B d   1       1.481  -1.504   0.426  0.00  0.00    -0.004 A 
ATOM      5  C5  I4B d   1       0.120  -1.543   0.141  0.00  0.00     0.002 A 
ATOM      6  C6  I4B d   1      -0.634  -0.360   0.149  0.00  0.00     0.003 A 
ENDROOT
BRANCH   1   7
ATOM      7  C1' I4B d   1      -0.811   2.111   0.554  0.00  0.00     0.060 C 
BRANCH   7   8
ATOM      8  C2' I4B d   1       0.073   3.172   1.176  0.00  0.00    -0.013 C 
ATOM      9  C4' I4B d   1       0.293   4.322   0.229  0.00  0.00     0.013 C 
ATOM     10  C3' I4B d   1      -0.579   3.633   2.445  0.00  0.00     0.013 C 
ENDBRANCH   7   8
ENDBRANCH   1   7
TORSDOF 2
ENDMDL
