MODEL 1
REMARK minimizedAffinity -1.20788193
REMARK minimizedRMSD -1
REMARK  2 active torsions:
REMARK  status: ('A' for Active; 'I' for Inactive)
REMARK    1  A    between atoms: C2'_3  and  C1'_4 
REMARK    2  A    between atoms: C1'_4  and  C1_5 
ROOT
ATOM      1  C1  I4B d   1       0.646  -0.291  -0.177  0.00  0.00    -0.075 A 
ATOM      2  C2  I4B d   1      -0.441   0.539  -0.299  0.00  0.00     0.003 A 
ATOM      3  C3  I4B d   1      -0.260   1.940  -0.386  0.00  0.00     0.002 A 
ATOM      4  C4  I4B d   1       1.011   2.469  -0.298  0.00  0.00    -0.004 A 
ATOM      5  C5  I4B d   1       2.113   1.624  -0.197  0.00  0.00     0.002 A 
ATOM      6  C6  I4B d   1       1.931   0.235  -0.149  0.00  0.00     0.003 A 
ENDROOT
BRANCH   1   7
ATOM      7  C1' I4B d   1       0.417  -1.765  -0.055  0.00  0.00     0.060 C 
BRANCH   7   8
ATOM      8  C2' I4B d   1      -0.461  -2.199  -1.211  0.00  0.00    -0.013 C 
ATOM      9  C4' I4B d   1       0.367  -2.627  -2.393  0.00  0.00     0.013 C 
ATOM     10  C3' I4B d   1      -1.339  -3.315  -0.731  0.00  0.00     0.013 C 
ENDBRANCH   7   8
ENDBRANCH   1   7
TORSDOF 2
ENDMDL
