MODEL 1
REMARK minimizedAffinity -3.15494204
REMARK minimizedRMSD -1
REMARK  2 active torsions:
REMARK  status: ('A' for Active; 'I' for Inactive)
REMARK    1  A    between atoms: C2'_3  and  C1'_4 
REMARK    2  A    between atoms: C1'_4  and  C1_5 
ROOT
ATOM      1  C1  I4B d   1      -0.197   0.691   0.265  0.00  0.00    -0.075 A 
ATOM      2  C2  I4B d   1      -1.021   1.781   0.401  0.00  0.00     0.003 A 
ATOM      3  C3  I4B d   1      -0.472   3.084   0.477  0.00  0.00     0.002 A 
ATOM      4  C4  I4B d   1       0.898   3.246   0.464  0.00  0.00    -0.004 A 
ATOM      5  C5  I4B d   1       1.731   2.142   0.304  0.00  0.00     0.002 A 
ATOM      6  C6  I4B d   1       1.180   0.858   0.191  0.00  0.00     0.003 A 
ENDROOT
BRANCH   1   7
ATOM      7  C1' I4B d   1      -0.809  -0.673   0.221  0.00  0.00     0.060 C 
BRANCH   7   8
ATOM      8  C2' I4B d   1       0.282  -1.662  -0.136  0.00  0.00    -0.013 C 
ATOM      9  C4' I4B d   1       1.022  -2.125   1.092  0.00  0.00     0.013 C 
ATOM     10  C3' I4B d   1      -0.355  -2.816  -0.852  0.00  0.00     0.013 C 
ENDBRANCH   7   8
ENDBRANCH   1   7
TORSDOF 2
ENDMDL
