MODEL 1
REMARK minimizedAffinity -0.702230573
REMARK minimizedRMSD -1
REMARK  2 active torsions:
REMARK  status: ('A' for Active; 'I' for Inactive)
REMARK    1  A    between atoms: C2'_3  and  C1'_4 
REMARK    2  A    between atoms: C1'_4  and  C1_5 
ROOT
ATOM      1  C1  I4B d   1      -0.188  -2.100  -1.026  0.00  0.00    -0.075 A 
ATOM      2  C2  I4B d   1      -1.311  -2.832  -0.728  0.00  0.00     0.003 A 
ATOM      3  C3  I4B d   1      -1.892  -3.675  -1.705  0.00  0.00     0.002 A 
ATOM      4  C4  I4B d   1      -1.352  -3.718  -2.974  0.00  0.00    -0.004 A 
ATOM      5  C5  I4B d   1      -0.201  -2.993  -3.268  0.00  0.00     0.002 A 
ATOM      6  C6  I4B d   1       0.392  -2.188  -2.285  0.00  0.00     0.003 A 
ENDROOT
BRANCH   1   7
ATOM      7  C1' I4B d   1       0.381  -1.194   0.020  0.00  0.00     0.060 C 
BRANCH   7   8
ATOM      8  C2' I4B d   1      -0.106   0.212  -0.266  0.00  0.00    -0.013 C 
ATOM      9  C4' I4B d   1      -1.220   0.604   0.667  0.00  0.00     0.013 C 
ATOM     10  C3' I4B d   1       1.063   1.142  -0.135  0.00  0.00     0.013 C 
ENDBRANCH   7   8
ENDBRANCH   1   7
TORSDOF 2
ENDMDL
