MODEL 1
REMARK minimizedAffinity -3.49690294
REMARK minimizedRMSD -1
REMARK  2 active torsions:
REMARK  status: ('A' for Active; 'I' for Inactive)
REMARK    1  A    between atoms: C2'_3  and  C1'_4 
REMARK    2  A    between atoms: C1'_4  and  C1_5 
ROOT
ATOM      1  C1  I4B d   1       0.039  -0.603  -0.067  0.00  0.00    -0.075 A 
ATOM      2  C2  I4B d   1       1.148   0.166  -0.317  0.00  0.00     0.003 A 
ATOM      3  C3  I4B d   1       1.082   1.574  -0.186  0.00  0.00     0.002 A 
ATOM      4  C4  I4B d   1      -0.117   2.171   0.144  0.00  0.00    -0.004 A 
ATOM      5  C5  I4B d   1      -1.235   1.388   0.419  0.00  0.00     0.002 A 
ATOM      6  C6  I4B d   1      -1.154  -0.009   0.325  0.00  0.00     0.003 A 
ENDROOT
BRANCH   1   7
ATOM      7  C1' I4B d   1       0.134  -2.085  -0.246  0.00  0.00     0.060 C 
BRANCH   7   8
ATOM      8  C2' I4B d   1      -0.683  -2.462  -1.465  0.00  0.00    -0.013 C 
ATOM      9  C4' I4B d   1       0.185  -3.058  -2.541  0.00  0.00     0.013 C 
ATOM     10  C3' I4B d   1      -1.745  -3.427  -1.030  0.00  0.00     0.013 C 
ENDBRANCH   7   8
ENDBRANCH   1   7
TORSDOF 2
ENDMDL
