MODEL 1
REMARK minimizedAffinity -5.05629539
REMARK minimizedRMSD -1
REMARK  2 active torsions:
REMARK  status: ('A' for Active; 'I' for Inactive)
REMARK    1  A    between atoms: C2'_3  and  C1'_4 
REMARK    2  A    between atoms: C1'_4  and  C1_5 
ROOT
ATOM      1  C1  I4B d   1       0.066  -0.023   0.037  0.00  0.00    -0.075 A 
ATOM      2  C2  I4B d   1      -1.232   0.317   0.326  0.00  0.00     0.003 A 
ATOM      3  C3  I4B d   1      -1.615   1.679   0.392  0.00  0.00     0.002 A 
ATOM      4  C4  I4B d   1      -0.662   2.661   0.213  0.00  0.00    -0.004 A 
ATOM      5  C5  I4B d   1       0.648   2.315  -0.103  0.00  0.00     0.002 A 
ATOM      6  C6  I4B d   1       1.012   0.964  -0.204  0.00  0.00     0.003 A 
ENDROOT
BRANCH   1   7
ATOM      7  C1' I4B d   1       0.442  -1.471   0.008  0.00  0.00     0.060 C 
BRANCH   7   8
ATOM      8  C2' I4B d   1      -0.618  -2.213  -0.779  0.00  0.00    -0.013 C 
ATOM      9  C4' I4B d   1      -0.198  -2.405  -2.213  0.00  0.00     0.013 C 
ATOM     10  C3' I4B d   1      -0.858  -3.531  -0.104  0.00  0.00     0.013 C 
ENDBRANCH   7   8
ENDBRANCH   1   7
TORSDOF 2
ENDMDL
