MODEL 1
REMARK minimizedAffinity -0.589537799
REMARK minimizedRMSD -1
REMARK  2 active torsions:
REMARK  status: ('A' for Active; 'I' for Inactive)
REMARK    1  A    between atoms: C2'_3  and  C1'_4 
REMARK    2  A    between atoms: C1'_4  and  C1_5 
ROOT
ATOM      1  C1  I4B d   1       0.019   1.692   0.345  0.00  0.00    -0.075 A 
ATOM      2  C2  I4B d   1       0.853   0.618   0.534  0.00  0.00     0.003 A 
ATOM      3  C3  I4B d   1       2.166   0.633   0.003  0.00  0.00     0.002 A 
ATOM      4  C4  I4B d   1       2.583   1.713  -0.748  0.00  0.00    -0.004 A 
ATOM      5  C5  I4B d   1       1.744   2.810  -0.920  0.00  0.00     0.002 A 
ATOM      6  C6  I4B d   1       0.458   2.805  -0.360  0.00  0.00     0.003 A 
ENDROOT
BRANCH   1   7
ATOM      7  C1' I4B d   1      -1.372   1.629   0.891  0.00  0.00     0.060 C 
BRANCH   7   8
ATOM      8  C2' I4B d   1      -1.776   0.171   0.972  0.00  0.00    -0.013 C 
ATOM      9  C4' I4B d   1      -3.097   0.009   1.676  0.00  0.00     0.013 C 
ATOM     10  C3' I4B d   1      -1.838  -0.370  -0.426  0.00  0.00     0.013 C 
ENDBRANCH   7   8
ENDBRANCH   1   7
TORSDOF 2
ENDMDL
