MODEL 1
REMARK minimizedAffinity -3.39843154
REMARK minimizedRMSD -1
REMARK  2 active torsions:
REMARK  status: ('A' for Active; 'I' for Inactive)
REMARK    1  A    between atoms: C2'_3  and  C1'_4 
REMARK    2  A    between atoms: C1'_4  and  C1_5 
ROOT
ATOM      1  C1  I4B d   1       0.779   1.162  -0.206  0.00  0.00    -0.075 A 
ATOM      2  C2  I4B d   1      -0.209   0.256   0.089  0.00  0.00     0.003 A 
ATOM      3  C3  I4B d   1       0.101  -0.932   0.795  0.00  0.00     0.002 A 
ATOM      4  C4  I4B d   1       1.411  -1.195   1.140  0.00  0.00    -0.004 A 
ATOM      5  C5  I4B d   1       2.408  -0.265   0.861  0.00  0.00     0.002 A 
ATOM      6  C6  I4B d   1       2.088   0.927   0.194  0.00  0.00     0.003 A 
ENDROOT
BRANCH   1   7
ATOM      7  C1' I4B d   1       0.422   2.390  -0.981  0.00  0.00     0.060 C 
BRANCH   7   8
ATOM      8  C2' I4B d   1       0.053   3.476   0.008  0.00  0.00    -0.013 C 
ATOM      9  C4' I4B d   1      -0.441   2.888   1.304  0.00  0.00     0.013 C 
ATOM     10  C3' I4B d   1       1.263   4.333   0.229  0.00  0.00     0.013 C 
ENDBRANCH   7   8
ENDBRANCH   1   7
TORSDOF 2
ENDMDL
