MODEL 1
REMARK minimizedAffinity -3.82533383
REMARK minimizedRMSD -1
REMARK  0 active torsions:
REMARK  status: ('A' for Active; 'I' for Inactive)
ROOT
ATOM      1  C   UNL d   1       2.602  -0.941  -0.368  0.00  0.00     0.078 C 
ATOM      2  C1  UNL d   1       1.468  -0.811   0.605  0.00  0.00    -0.077 A 
ATOM      3  C2  UNL d   1       0.424   0.094   0.379  0.00  0.00    -0.001 A 
ATOM      4  C3  UNL d   1      -0.620   0.212   1.298  0.00  0.00     0.003 A 
ATOM      5  C4  UNL d   1      -0.629  -0.571   2.450  0.00  0.00    -0.005 A 
ATOM      6  C5  UNL d   1       0.407  -1.473   2.685  0.00  0.00     0.003 A 
ATOM      7  C6  UNL d   1       1.451  -1.592   1.767  0.00  0.00    -0.001 A 
ENDROOT
TORSDOF 0
ENDMDL
