MODEL 1
REMARK minimizedAffinity -2.25818586
REMARK minimizedRMSD -1
REMARK  0 active torsions:
REMARK  status: ('A' for Active; 'I' for Inactive)
ROOT
ATOM      1  C   UNL d   1      -2.384   1.316  -2.977  0.00  0.00     0.078 C 
ATOM      2  C1  UNL d   1      -1.400   0.840  -1.950  0.00  0.00    -0.077 A 
ATOM      3  C2  UNL d   1      -1.340   1.430  -0.681  0.00  0.00    -0.001 A 
ATOM      4  C3  UNL d   1      -0.413   0.983   0.262  0.00  0.00     0.003 A 
ATOM      5  C4  UNL d   1       0.462  -0.054  -0.055  0.00  0.00    -0.005 A 
ATOM      6  C5  UNL d   1       0.412  -0.645  -1.316  0.00  0.00     0.003 A 
ATOM      7  C6  UNL d   1      -0.515  -0.200  -2.260  0.00  0.00    -0.001 A 
ENDROOT
TORSDOF 0
ENDMDL
