MODEL 1
REMARK minimizedAffinity -3.38294506
REMARK minimizedRMSD -1
REMARK  0 active torsions:
REMARK  status: ('A' for Active; 'I' for Inactive)
ROOT
ATOM      1  C   UNL d   1      -1.138   1.026  -0.947  0.00  0.00     0.078 C 
ATOM      2  C1  UNL d   1      -0.099   0.141  -0.326  0.00  0.00    -0.077 A 
ATOM      3  C2  UNL d   1       1.049  -0.232  -1.037  0.00  0.00    -0.001 A 
ATOM      4  C3  UNL d   1       2.003  -1.064  -0.449  0.00  0.00     0.003 A 
ATOM      5  C4  UNL d   1       1.820  -1.529   0.851  0.00  0.00    -0.005 A 
ATOM      6  C5  UNL d   1       0.681  -1.165   1.566  0.00  0.00     0.003 A 
ATOM      7  C6  UNL d   1      -0.275  -0.334   0.980  0.00  0.00    -0.001 A 
ENDROOT
TORSDOF 0
ENDMDL
