MODEL 1
REMARK minimizedAffinity 5.72406721
REMARK minimizedRMSD -1
REMARK  0 active torsions:
REMARK  status: ('A' for Active; 'I' for Inactive)
ROOT
ATOM      1  C   UNL d   1      -2.760   5.398  -2.290  0.00  0.00     0.078 C 
ATOM      2  C1  UNL d   1      -3.435   4.084  -2.027  0.00  0.00    -0.077 A 
ATOM      3  C2  UNL d   1      -4.546   4.002  -1.178  0.00  0.00    -0.001 A 
ATOM      4  C3  UNL d   1      -5.158   2.771  -0.934  0.00  0.00     0.003 A 
ATOM      5  C4  UNL d   1      -4.665   1.614  -1.534  0.00  0.00    -0.005 A 
ATOM      6  C5  UNL d   1      -3.559   1.686  -2.378  0.00  0.00     0.003 A 
ATOM      7  C6  UNL d   1      -2.946   2.916  -2.623  0.00  0.00    -0.001 A 
ENDROOT
TORSDOF 0
ENDMDL
