MODEL 1
REMARK minimizedAffinity -3.93857813
REMARK minimizedRMSD -1
REMARK  0 active torsions:
REMARK  status: ('A' for Active; 'I' for Inactive)
ROOT
ATOM      1  C   UNL d   1      -2.523   1.250  -2.469  0.00  0.00     0.078 C 
ATOM      2  C1  UNL d   1      -1.396   0.693  -1.652  0.00  0.00    -0.077 A 
ATOM      3  C2  UNL d   1      -0.936   1.358  -0.509  0.00  0.00    -0.001 A 
ATOM      4  C3  UNL d   1       0.121   0.833   0.236  0.00  0.00     0.003 A 
ATOM      5  C4  UNL d   1       0.726  -0.360  -0.153  0.00  0.00    -0.005 A 
ATOM      6  C5  UNL d   1       0.277  -1.029  -1.290  0.00  0.00     0.003 A 
ATOM      7  C6  UNL d   1      -0.780  -0.505  -2.037  0.00  0.00    -0.001 A 
ENDROOT
TORSDOF 0
ENDMDL
