MODEL 1
REMARK minimizedAffinity -2.78384256
REMARK minimizedRMSD -1
REMARK  0 active torsions:
REMARK  status: ('A' for Active; 'I' for Inactive)
ROOT
ATOM      1  C   UNL d   1      -3.402  -5.993  -2.286  0.00  0.00     0.078 C 
ATOM      2  C1  UNL d   1      -3.830  -5.857  -0.855  0.00  0.00    -0.077 A 
ATOM      3  C2  UNL d   1      -2.895  -5.600   0.156  0.00  0.00    -0.001 A 
ATOM      4  C3  UNL d   1      -3.306  -5.485   1.485  0.00  0.00     0.003 A 
ATOM      5  C4  UNL d   1      -4.652  -5.626   1.815  0.00  0.00    -0.005 A 
ATOM      6  C5  UNL d   1      -5.589  -5.884   0.817  0.00  0.00     0.003 A 
ATOM      7  C6  UNL d   1      -5.180  -5.999  -0.513  0.00  0.00    -0.001 A 
ENDROOT
TORSDOF 0
ENDMDL
