MODEL 1
REMARK minimizedAffinity -3.16362762
REMARK minimizedRMSD -1
REMARK  0 active torsions:
REMARK  status: ('A' for Active; 'I' for Inactive)
ROOT
ATOM      1  C   UNL d   1      -0.744   1.091  -0.381  0.00  0.00     0.078 C 
ATOM      2  C1  UNL d   1       0.335   0.097  -0.071  0.00  0.00    -0.077 A 
ATOM      3  C2  UNL d   1       0.519  -0.385   1.230  0.00  0.00    -0.001 A 
ATOM      4  C3  UNL d   1       1.534  -1.303   1.506  0.00  0.00     0.003 A 
ATOM      5  C4  UNL d   1       2.373  -1.746   0.485  0.00  0.00    -0.005 A 
ATOM      6  C5  UNL d   1       2.199  -1.270  -0.813  0.00  0.00     0.003 A 
ATOM      7  C6  UNL d   1       1.185  -0.352  -1.090  0.00  0.00    -0.001 A 
ENDROOT
TORSDOF 0
ENDMDL
