MODEL 1
REMARK minimizedAffinity -0.167176053
REMARK minimizedRMSD -1
REMARK  0 active torsions:
REMARK  status: ('A' for Active; 'I' for Inactive)
ROOT
ATOM      1  O1  BZF d   1       0.659  -1.867  -0.074  0.00  0.00    -0.204 OA
ATOM      2  C2  BZF d   1       0.748  -1.534  -1.412  0.00  0.00     0.174 A 
ATOM      3  C3  BZF d   1       0.573  -0.209  -1.588  0.00  0.00    -0.012 A 
ATOM      4  C3A BZF d   1       0.454   0.334  -0.270  0.00  0.00    -0.107 A 
ATOM      5  C4  BZF d   1       0.279   1.600   0.212  0.00  0.00     0.055 A 
ATOM      6  C5  BZF d   1       0.128   1.782   1.550  0.00  0.00    -0.016 A 
ATOM      7  C6  BZF d   1       0.141   0.722   2.433  0.00  0.00     0.022 A 
ATOM      8  C7  BZF d   1       0.316  -0.551   2.003  0.00  0.00     0.029 A 
ATOM      9  C7A BZF d   1       0.502  -0.735   0.654  0.00  0.00     0.058 A 
ENDROOT
TORSDOF 0
ENDMDL
