MODEL 1
REMARK minimizedAffinity -5.76007032
REMARK minimizedRMSD -1
REMARK  0 active torsions:
REMARK  status: ('A' for Active; 'I' for Inactive)
ROOT
ATOM      1  O1  BZF d   1       0.407   0.078  -1.249  0.00  0.00    -0.204 OA
ATOM      2  C2  BZF d   1       0.678  -0.760  -0.184  0.00  0.00     0.174 A 
ATOM      3  C3  BZF d   1       0.491  -0.119   0.988  0.00  0.00    -0.012 A 
ATOM      4  C3A BZF d   1      -0.010   1.173   0.634  0.00  0.00    -0.107 A 
ATOM      5  C4  BZF d   1      -0.401   2.260   1.363  0.00  0.00     0.055 A 
ATOM      6  C5  BZF d   1      -0.771   3.394   0.711  0.00  0.00    -0.016 A 
ATOM      7  C6  BZF d   1      -0.759   3.477  -0.666  0.00  0.00     0.022 A 
ATOM      8  C7  BZF d   1      -0.384   2.423  -1.431  0.00  0.00     0.029 A 
ATOM      9  C7A BZF d   1      -0.040   1.265  -0.777  0.00  0.00     0.058 A 
ENDROOT
TORSDOF 0
ENDMDL
