MODEL 1
REMARK minimizedAffinity -0.89438802
REMARK minimizedRMSD -1
REMARK  0 active torsions:
REMARK  status: ('A' for Active; 'I' for Inactive)
ROOT
ATOM      1  O1  BZF d   1      -0.241   2.383  -1.932  0.00  0.00    -0.204 OA
ATOM      2  C2  BZF d   1      -0.297   3.721  -1.595  0.00  0.00     0.174 A 
ATOM      3  C3  BZF d   1      -0.184   3.884  -0.261  0.00  0.00    -0.012 A 
ATOM      4  C3A BZF d   1       0.044   2.571   0.260  0.00  0.00    -0.107 A 
ATOM      5  C4  BZF d   1       0.251   2.083   1.518  0.00  0.00     0.055 A 
ATOM      6  C5  BZF d   1       0.367   0.740   1.696  0.00  0.00    -0.016 A 
ATOM      7  C6  BZF d   1       0.276  -0.142   0.639  0.00  0.00     0.022 A 
ATOM      8  C7  BZF d   1       0.077   0.295  -0.628  0.00  0.00     0.029 A 
ATOM      9  C7A BZF d   1      -0.008   1.653  -0.815  0.00  0.00     0.058 A 
ENDROOT
TORSDOF 0
ENDMDL
