MODEL 1
REMARK minimizedAffinity -3.22993541
REMARK minimizedRMSD -1
REMARK  0 active torsions:
REMARK  status: ('A' for Active; 'I' for Inactive)
ROOT
ATOM      1  O1  BZF d   1       0.113   1.807  -1.617  0.00  0.00    -0.204 OA
ATOM      2  C2  BZF d   1      -0.168   3.149  -1.444  0.00  0.00     0.174 A 
ATOM      3  C3  BZF d   1      -0.247   3.455  -0.133  0.00  0.00    -0.012 A 
ATOM      4  C3A BZF d   1       0.090   2.248   0.557  0.00  0.00    -0.107 A 
ATOM      5  C4  BZF d   1       0.202   1.922   1.878  0.00  0.00     0.055 A 
ATOM      6  C5  BZF d   1       0.477   0.635   2.220  0.00  0.00    -0.016 A 
ATOM      7  C6  BZF d   1       0.642  -0.349   1.268  0.00  0.00     0.022 A 
ATOM      8  C7  BZF d   1       0.546  -0.073  -0.055  0.00  0.00     0.029 A 
ATOM      9  C7A BZF d   1       0.300   1.233  -0.405  0.00  0.00     0.058 A 
ENDROOT
TORSDOF 0
ENDMDL
