MODEL 1
REMARK minimizedAffinity -4.59541988
REMARK minimizedRMSD -1
REMARK  0 active torsions:
REMARK  status: ('A' for Active; 'I' for Inactive)
ROOT
ATOM      1  O1  BZF d   1      -0.838  -1.389  -0.083  0.00  0.00    -0.204 OA
ATOM      2  C2  BZF d   1      -0.418  -1.027  -1.348  0.00  0.00     0.174 A 
ATOM      3  C3  BZF d   1      -0.226   0.306  -1.425  0.00  0.00    -0.012 A 
ATOM      4  C3A BZF d   1      -0.458   0.797  -0.102  0.00  0.00    -0.107 A 
ATOM      5  C4  BZF d   1      -0.406   2.040   0.461  0.00  0.00     0.055 A 
ATOM      6  C5  BZF d   1      -0.761   2.190   1.765  0.00  0.00    -0.016 A 
ATOM      7  C6  BZF d   1      -1.176   1.122   2.532  0.00  0.00     0.022 A 
ATOM      8  C7  BZF d   1      -1.239  -0.131   2.019  0.00  0.00     0.029 A 
ATOM      9  C7A BZF d   1      -0.850  -0.292   0.711  0.00  0.00     0.058 A 
ENDROOT
TORSDOF 0
ENDMDL
