MODEL 1
REMARK minimizedAffinity -3.45477533
REMARK minimizedRMSD -1
REMARK  0 active torsions:
REMARK  status: ('A' for Active; 'I' for Inactive)
ROOT
ATOM      1  O1  BZF d   1      -0.155   2.338  -1.383  0.00  0.00    -0.204 OA
ATOM      2  C2  BZF d   1      -0.432   3.614  -0.930  0.00  0.00     0.174 A 
ATOM      3  C3  BZF d   1      -0.615   3.618   0.406  0.00  0.00    -0.012 A 
ATOM      4  C3A BZF d   1      -0.349   2.276   0.826  0.00  0.00    -0.107 A 
ATOM      5  C4  BZF d   1      -0.350   1.656   2.043  0.00  0.00     0.055 A 
ATOM      6  C5  BZF d   1      -0.120   0.318   2.102  0.00  0.00    -0.016 A 
ATOM      7  C6  BZF d   1       0.110  -0.430   0.966  0.00  0.00     0.022 A 
ATOM      8  C7  BZF d   1       0.126   0.142  -0.262  0.00  0.00     0.029 A 
ATOM      9  C7A BZF d   1      -0.074   1.499  -0.323  0.00  0.00     0.058 A 
ENDROOT
TORSDOF 0
ENDMDL
