MODEL 1
REMARK minimizedAffinity -3.73114896
REMARK minimizedRMSD -1
REMARK  0 active torsions:
REMARK  status: ('A' for Active; 'I' for Inactive)
ROOT
ATOM      1  O1  BZF d   1       0.937  -0.025  -0.685  0.00  0.00    -0.204 OA
ATOM      2  C2  BZF d   1       0.233   0.195   0.483  0.00  0.00     0.174 A 
ATOM      3  C3  BZF d   1      -0.690  -0.770   0.673  0.00  0.00    -0.012 A 
ATOM      4  C3A BZF d   1      -0.491  -1.698  -0.397  0.00  0.00    -0.107 A 
ATOM      5  C4  BZF d   1      -1.092  -2.875  -0.743  0.00  0.00     0.055 A 
ATOM      6  C5  BZF d   1      -0.711  -3.498  -1.889  0.00  0.00    -0.016 A 
ATOM      7  C6  BZF d   1       0.261  -2.972  -2.714  0.00  0.00     0.022 A 
ATOM      8  C7  BZF d   1       0.889  -1.810  -2.409  0.00  0.00     0.029 A 
ATOM      9  C7A BZF d   1       0.530  -1.195  -1.235  0.00  0.00     0.058 A 
ENDROOT
TORSDOF 0
ENDMDL
