MODEL 1
REMARK minimizedAffinity -0.837262034
REMARK minimizedRMSD -1
REMARK  1 active torsions:
REMARK  status: ('A' for Active; 'I' for Inactive)
REMARK    1  A    between atoms: C1_2  and  C2_3 
ROOT
ATOM      1  C2  UNL d   1       0.257  -0.050  -1.951  0.00  0.00    -0.073 A 
ATOM      2  C3  UNL d   1      -0.449  -1.011  -2.684  0.00  0.00    -0.002 A 
ATOM      3  C4  UNL d   1       0.083  -1.527  -3.866  0.00  0.00     0.004 A 
ATOM      4  C5  UNL d   1       1.327  -1.093  -4.324  0.00  0.00    -0.004 A 
ATOM      5  C6  UNL d   1       2.053  -0.142  -3.600  0.00  0.00    -0.075 A 
ATOM      6  C7  UNL d   1       3.391   0.337  -4.080  0.00  0.00     0.076 C 
ATOM      7  C8  UNL d   1       1.511   0.373  -2.414  0.00  0.00     0.001 A 
ENDROOT
BRANCH   1   8
ATOM      8  C1  UNL d   1      -0.311   0.505  -0.670  0.00  0.00     0.053 C 
ATOM      9  C   UNL d   1      -0.481  -0.571   0.391  0.00  0.00     0.018 C 
ENDBRANCH   1   8
TORSDOF 1
ENDMDL
