MODEL 1
REMARK minimizedAffinity -2.68804789
REMARK minimizedRMSD -1
REMARK  1 active torsions:
REMARK  status: ('A' for Active; 'I' for Inactive)
REMARK    1  A    between atoms: C1_2  and  C2_3 
ROOT
ATOM      1  C2  UNL d   1       0.381  -0.172  -1.580  0.00  0.00    -0.073 A 
ATOM      2  C3  UNL d   1      -0.465  -0.959  -2.369  0.00  0.00    -0.002 A 
ATOM      3  C4  UNL d   1       0.003  -1.525  -3.556  0.00  0.00     0.004 A 
ATOM      4  C5  UNL d   1       1.321  -1.316  -3.961  0.00  0.00    -0.004 A 
ATOM      5  C6  UNL d   1       2.185  -0.542  -3.180  0.00  0.00    -0.075 A 
ATOM      6  C7  UNL d   1       3.605  -0.305  -3.603  0.00  0.00     0.076 C 
ATOM      7  C8  UNL d   1       1.707   0.025  -1.991  0.00  0.00     0.001 A 
ENDROOT
BRANCH   1   8
ATOM      8  C1  UNL d   1      -0.118   0.436  -0.294  0.00  0.00     0.053 C 
ATOM      9  C   UNL d   1       0.736   0.031   0.897  0.00  0.00     0.018 C 
ENDBRANCH   1   8
TORSDOF 1
ENDMDL
