MODEL 1
REMARK minimizedAffinity -2.43504953
REMARK minimizedRMSD -1
REMARK  1 active torsions:
REMARK  status: ('A' for Active; 'I' for Inactive)
REMARK    1  A    between atoms: C1_2  and  C2_3 
ROOT
ATOM      1  C2  UNL d   1      -0.061  -0.019  -1.272  0.00  0.00    -0.073 A 
ATOM      2  C3  UNL d   1      -1.282   0.496  -1.721  0.00  0.00    -0.002 A 
ATOM      3  C4  UNL d   1      -2.420   0.414  -0.918  0.00  0.00     0.004 A 
ATOM      4  C5  UNL d   1      -2.348  -0.177   0.344  0.00  0.00    -0.004 A 
ATOM      5  C6  UNL d   1      -1.134  -0.686   0.815  0.00  0.00    -0.075 A 
ATOM      6  C7  UNL d   1      -1.040  -1.327   2.169  0.00  0.00     0.076 C 
ATOM      7  C8  UNL d   1       0.004  -0.602   0.002  0.00  0.00     0.001 A 
ENDROOT
BRANCH   1   8
ATOM      8  C1  UNL d   1       1.172   0.074  -2.133  0.00  0.00     0.053 C 
ATOM      9  C   UNL d   1       1.076  -0.814  -3.363  0.00  0.00     0.018 C 
ENDBRANCH   1   8
TORSDOF 1
ENDMDL
