MODEL 1
REMARK minimizedAffinity -5.15967894
REMARK minimizedRMSD -1
REMARK  1 active torsions:
REMARK  status: ('A' for Active; 'I' for Inactive)
REMARK    1  A    between atoms: C1_2  and  C2_3 
ROOT
ATOM      1  C2  UNL d   1       0.321  -1.001  -0.759  0.00  0.00    -0.073 A 
ATOM      2  C3  UNL d   1       1.137   0.136  -0.730  0.00  0.00    -0.002 A 
ATOM      3  C4  UNL d   1       1.323   0.840   0.460  0.00  0.00     0.004 A 
ATOM      4  C5  UNL d   1       0.701   0.413   1.633  0.00  0.00    -0.004 A 
ATOM      5  C6  UNL d   1      -0.109  -0.727   1.627  0.00  0.00    -0.075 A 
ATOM      6  C7  UNL d   1      -0.787  -1.198   2.880  0.00  0.00     0.076 C 
ATOM      7  C8  UNL d   1      -0.293  -1.428   0.427  0.00  0.00     0.001 A 
ENDROOT
BRANCH   1   8
ATOM      8  C1  UNL d   1       0.123  -1.769  -2.040  0.00  0.00     0.053 C 
ATOM      9  C   UNL d   1       1.367  -1.750  -2.914  0.00  0.00     0.018 C 
ENDBRANCH   1   8
TORSDOF 1
ENDMDL
