MODEL 1
REMARK minimizedAffinity -1.23958099
REMARK minimizedRMSD -1
REMARK  1 active torsions:
REMARK  status: ('A' for Active; 'I' for Inactive)
REMARK    1  A    between atoms: C1_2  and  C2_3 
ROOT
ATOM      1  C2  UNL d   1       0.639  -0.307  -0.979  0.00  0.00    -0.073 A 
ATOM      2  C3  UNL d   1      -0.670  -0.276  -1.474  0.00  0.00    -0.002 A 
ATOM      3  C4  UNL d   1      -0.948  -0.738  -2.761  0.00  0.00     0.004 A 
ATOM      4  C5  UNL d   1       0.077  -1.240  -3.563  0.00  0.00    -0.004 A 
ATOM      5  C6  UNL d   1       1.389  -1.290  -3.082  0.00  0.00    -0.075 A 
ATOM      6  C7  UNL d   1       2.503  -1.826  -3.933  0.00  0.00     0.076 C 
ATOM      7  C8  UNL d   1       1.661  -0.823  -1.789  0.00  0.00     0.001 A 
ENDROOT
BRANCH   1   8
ATOM      8  C1  UNL d   1       0.943   0.183   0.413  0.00  0.00     0.053 C 
ATOM      9  C   UNL d   1      -0.039  -0.363   1.437  0.00  0.00     0.018 C 
ENDBRANCH   1   8
TORSDOF 1
ENDMDL
