MODEL 1
REMARK minimizedAffinity -5.90179205
REMARK minimizedRMSD -1
REMARK  1 active torsions:
REMARK  status: ('A' for Active; 'I' for Inactive)
REMARK    1  A    between atoms: C1_2  and  C2_3 
ROOT
ATOM      1  C2  UNL d   1       0.129   0.217   0.036  0.00  0.00    -0.073 A 
ATOM      2  C3  UNL d   1       1.320   0.585   0.672  0.00  0.00    -0.002 A 
ATOM      3  C4  UNL d   1       1.424   0.528   2.062  0.00  0.00     0.004 A 
ATOM      4  C5  UNL d   1       0.341   0.097   2.829  0.00  0.00    -0.004 A 
ATOM      5  C6  UNL d   1      -0.853  -0.286   2.211  0.00  0.00    -0.075 A 
ATOM      6  C7  UNL d   1      -2.028  -0.750   3.023  0.00  0.00     0.076 C 
ATOM      7  C8  UNL d   1      -0.950  -0.224   0.815  0.00  0.00     0.001 A 
ENDROOT
BRANCH   1   8
ATOM      8  C1  UNL d   1       0.015   0.270  -1.466  0.00  0.00     0.053 C 
ATOM      9  C   UNL d   1       1.189  -0.412  -2.151  0.00  0.00     0.018 C 
ENDBRANCH   1   8
TORSDOF 1
ENDMDL
