MODEL 1
REMARK minimizedAffinity -3.90638852
REMARK minimizedRMSD -1
REMARK  1 active torsions:
REMARK  status: ('A' for Active; 'I' for Inactive)
REMARK    1  A    between atoms: C1_2  and  C2_3 
ROOT
ATOM      1  C2  UNL d   1       0.702   0.130  -0.544  0.00  0.00    -0.073 A 
ATOM      2  C3  UNL d   1       1.432   0.078   0.649  0.00  0.00    -0.002 A 
ATOM      3  C4  UNL d   1       0.772   0.043   1.878  0.00  0.00     0.004 A 
ATOM      4  C5  UNL d   1      -0.622   0.052   1.927  0.00  0.00    -0.004 A 
ATOM      5  C6  UNL d   1      -1.369   0.093   0.745  0.00  0.00    -0.075 A 
ATOM      6  C7  UNL d   1      -2.869   0.106   0.780  0.00  0.00     0.076 C 
ATOM      7  C8  UNL d   1      -0.699   0.130  -0.485  0.00  0.00     0.001 A 
ENDROOT
BRANCH   1   8
ATOM      8  C1  UNL d   1       1.410   0.161  -1.874  0.00  0.00     0.053 C 
ATOM      9  C   UNL d   1       1.173  -1.109  -2.676  0.00  0.00     0.018 C 
ENDBRANCH   1   8
TORSDOF 1
ENDMDL
