MODEL 1
REMARK minimizedAffinity -1.94170094
REMARK minimizedRMSD -1
REMARK  1 active torsions:
REMARK  status: ('A' for Active; 'I' for Inactive)
REMARK    1  A    between atoms: C1_2  and  C2_3 
ROOT
ATOM      1  C2  UNL d   1      -0.095  -0.273   0.560  0.00  0.00    -0.076 A 
ATOM      2  C3  UNL d   1       0.467  -1.555   0.688  0.00  0.00     0.004 A 
ATOM      3  C4  UNL d   1       1.727  -1.732   1.256  0.00  0.00    -0.003 A 
ATOM      4  C5  UNL d   1       2.446  -0.630   1.706  0.00  0.00     0.000 A 
ATOM      5  C6  UNL d   1       1.896   0.648   1.603  0.00  0.00     0.000 A 
ATOM      6  C7  UNL d   1       0.620   0.842   1.047  0.00  0.00    -0.073 A 
ATOM      7  C8  UNL d   1       0.078   2.242   0.955  0.00  0.00     0.078 C 
ENDROOT
BRANCH   1   8
ATOM      8  C1  UNL d   1      -1.454  -0.139  -0.090  0.00  0.00     0.053 C 
ATOM      9  C   UNL d   1      -1.365   0.029  -1.599  0.00  0.00     0.018 C 
ENDBRANCH   1   8
TORSDOF 1
ENDMDL
