MODEL 1
REMARK minimizedAffinity 10.3530312
REMARK minimizedRMSD -1
REMARK  1 active torsions:
REMARK  status: ('A' for Active; 'I' for Inactive)
REMARK    1  A    between atoms: C1_2  and  C2_3 
ROOT
ATOM      1  C2  UNL d   1       0.976  -1.867   1.778  0.00  0.00    -0.076 A 
ATOM      2  C3  UNL d   1       0.693  -2.946   2.634  0.00  0.00     0.004 A 
ATOM      3  C4  UNL d   1       1.380  -3.109   3.835  0.00  0.00    -0.003 A 
ATOM      4  C5  UNL d   1       2.362  -2.194   4.201  0.00  0.00     0.000 A 
ATOM      5  C6  UNL d   1       2.643  -1.108   3.374  0.00  0.00     0.000 A 
ATOM      6  C7  UNL d   1       1.948  -0.921   2.167  0.00  0.00    -0.073 A 
ATOM      7  C8  UNL d   1       2.297   0.265   1.310  0.00  0.00     0.078 C 
ENDROOT
BRANCH   1   8
ATOM      8  C1  UNL d   1       0.217  -1.758   0.475  0.00  0.00     0.053 C 
ATOM      9  C   UNL d   1       0.557  -2.880  -0.493  0.00  0.00     0.018 C 
ENDBRANCH   1   8
TORSDOF 1
ENDMDL
