MODEL 1
REMARK minimizedAffinity -5.14162827
REMARK minimizedRMSD -1
REMARK  1 active torsions:
REMARK  status: ('A' for Active; 'I' for Inactive)
REMARK    1  A    between atoms: C1_2  and  C2_3 
ROOT
ATOM      1  C2  UNL d   1       1.984   0.005   1.298  0.00  0.00    -0.076 A 
ATOM      2  C3  UNL d   1       3.025   0.510   2.096  0.00  0.00     0.004 A 
ATOM      3  C4  UNL d   1       3.388  -0.121   3.285  0.00  0.00    -0.003 A 
ATOM      4  C5  UNL d   1       2.717  -1.267   3.694  0.00  0.00     0.000 A 
ATOM      5  C6  UNL d   1       1.693  -1.792   2.906  0.00  0.00     0.000 A 
ATOM      6  C7  UNL d   1       1.325  -1.178   1.697  0.00  0.00    -0.073 A 
ATOM      7  C8  UNL d   1       0.210  -1.784   0.889  0.00  0.00     0.078 C 
ENDROOT
BRANCH   1   8
ATOM      8  C1  UNL d   1       1.615   0.747   0.033  0.00  0.00     0.053 C 
ATOM      9  C   UNL d   1       0.479   1.735   0.247  0.00  0.00     0.018 C 
ENDBRANCH   1   8
TORSDOF 1
ENDMDL
