MODEL 1
REMARK minimizedAffinity 1.88098967
REMARK minimizedRMSD -1
REMARK  1 active torsions:
REMARK  status: ('A' for Active; 'I' for Inactive)
REMARK    1  A    between atoms: C1_2  and  C2_3 
ROOT
ATOM      1  C2  UNL d   1       1.270   0.369   1.150  0.00  0.00    -0.076 A 
ATOM      2  C3  UNL d   1       2.343   0.752   1.972  0.00  0.00     0.004 A 
ATOM      3  C4  UNL d   1       2.721  -0.025   3.066  0.00  0.00    -0.003 A 
ATOM      4  C5  UNL d   1       2.032  -1.198   3.355  0.00  0.00     0.000 A 
ATOM      5  C6  UNL d   1       0.976  -1.602   2.539  0.00  0.00     0.000 A 
ATOM      6  C7  UNL d   1       0.592  -0.839   1.423  0.00  0.00    -0.073 A 
ATOM      7  C8  UNL d   1      -0.558  -1.319   0.581  0.00  0.00     0.078 C 
ENDROOT
BRANCH   1   8
ATOM      8  C1  UNL d   1       0.888   1.265  -0.007  0.00  0.00     0.053 C 
ATOM      9  C   UNL d   1       0.280   2.582   0.452  0.00  0.00     0.018 C 
ENDBRANCH   1   8
TORSDOF 1
ENDMDL
