MODEL 1
REMARK minimizedAffinity -5.65002775
REMARK minimizedRMSD -1
REMARK  2 active torsions:
REMARK  status: ('A' for Active; 'I' for Inactive)
REMARK    1  A    between atoms: C2'_3  and  C1'_4 
REMARK    2  A    between atoms: C1'_4  and  C1_5 
ROOT
ATOM      1  C1  I4B d   1       0.227  -0.086  -0.160  0.00  0.00    -0.075 A 
ATOM      2  C2  I4B d   1      -0.396   1.091  -0.494  0.00  0.00     0.003 A 
ATOM      3  C3  I4B d   1      -1.278   1.715   0.421  0.00  0.00     0.002 A 
ATOM      4  C4  I4B d   1      -1.544   1.107   1.631  0.00  0.00    -0.004 A 
ATOM      5  C5  I4B d   1      -0.894  -0.074   1.977  0.00  0.00     0.002 A 
ATOM      6  C6  I4B d   1       0.007  -0.668   1.081  0.00  0.00     0.003 A 
ENDROOT
BRANCH   1   7
ATOM      7  C1' I4B d   1       1.127  -0.735  -1.164  0.00  0.00     0.060 C 
BRANCH   7   8
ATOM      8  C2' I4B d   1       0.542  -2.089  -1.507  0.00  0.00    -0.013 C 
ATOM      9  C4' I4B d   1       0.161  -2.165  -2.963  0.00  0.00     0.013 C 
ATOM     10  C3' I4B d   1       1.559  -3.135  -1.159  0.00  0.00     0.013 C 
ENDBRANCH   7   8
ENDBRANCH   1   7
TORSDOF 2
ENDMDL
