MODEL 1
REMARK minimizedAffinity -5.84450769
REMARK minimizedRMSD -1
REMARK  2 active torsions:
REMARK  status: ('A' for Active; 'I' for Inactive)
REMARK    1  A    between atoms: C2'_3  and  C1'_4 
REMARK    2  A    between atoms: C1'_4  and  C1_5 
ROOT
ATOM      1  C1  I4B d   1       0.061   0.213  -0.346  0.00  0.00    -0.075 A 
ATOM      2  C2  I4B d   1      -0.085  -0.280   0.927  0.00  0.00     0.003 A 
ATOM      3  C3  I4B d   1      -1.034   0.293   1.809  0.00  0.00     0.002 A 
ATOM      4  C4  I4B d   1      -1.774   1.382   1.396  0.00  0.00    -0.004 A 
ATOM      5  C5  I4B d   1      -1.641   1.865   0.098  0.00  0.00     0.002 A 
ATOM      6  C6  I4B d   1      -0.727   1.270  -0.783  0.00  0.00     0.003 A 
ENDROOT
BRANCH   1   7
ATOM      7  C1' I4B d   1       1.095  -0.394  -1.239  0.00  0.00     0.060 C 
BRANCH   7   8
ATOM      8  C2' I4B d   1       0.714  -1.841  -1.479  0.00  0.00    -0.013 C 
ATOM      9  C4' I4B d   1       0.334  -2.074  -2.917  0.00  0.00     0.013 C 
ATOM     10  C3' I4B d   1       1.879  -2.698  -1.080  0.00  0.00     0.013 C 
ENDBRANCH   7   8
ENDBRANCH   1   7
TORSDOF 2
ENDMDL
