MODEL 1
REMARK minimizedAffinity -5.80882883
REMARK minimizedRMSD -1
REMARK  2 active torsions:
REMARK  status: ('A' for Active; 'I' for Inactive)
REMARK    1  A    between atoms: C2'_3  and  C1'_4 
REMARK    2  A    between atoms: C1'_4  and  C1_5 
ROOT
ATOM      1  C1  I4B d   1       0.268  -0.254  -0.108  0.00  0.00    -0.075 A 
ATOM      2  C2  I4B d   1      -0.077   0.985  -0.586  0.00  0.00     0.003 A 
ATOM      3  C3  I4B d   1      -0.933   1.826   0.166  0.00  0.00     0.002 A 
ATOM      4  C4  I4B d   1      -1.457   1.371   1.359  0.00  0.00    -0.004 A 
ATOM      5  C5  I4B d   1      -1.087   0.123   1.853  0.00  0.00     0.002 A 
ATOM      6  C6  I4B d   1      -0.209  -0.690   1.121  0.00  0.00     0.003 A 
ENDROOT
BRANCH   1   7
ATOM      7  C1' I4B d   1       1.148  -1.129  -0.944  0.00  0.00     0.060 C 
BRANCH   7   8
ATOM      8  C2' I4B d   1       0.321  -1.655  -2.099  0.00  0.00    -0.013 C 
ATOM      9  C4' I4B d   1       1.081  -1.570  -3.397  0.00  0.00     0.013 C 
ATOM     10  C3' I4B d   1      -0.063  -3.071  -1.788  0.00  0.00     0.013 C 
ENDBRANCH   7   8
ENDBRANCH   1   7
TORSDOF 2
ENDMDL
