MODEL 1
REMARK minimizedAffinity -3.78449011
REMARK minimizedRMSD -1
REMARK  2 active torsions:
REMARK  status: ('A' for Active; 'I' for Inactive)
REMARK    1  A    between atoms: C2'_3  and  C1'_4 
REMARK    2  A    between atoms: C1'_4  and  C1_5 
ROOT
ATOM      1  C1  I4B d   1      -0.206   0.176  -0.011  0.00  0.00    -0.075 A 
ATOM      2  C2  I4B d   1      -0.112   0.160   1.358  0.00  0.00     0.003 A 
ATOM      3  C3  I4B d   1      -1.094   0.806   2.148  0.00  0.00     0.002 A 
ATOM      4  C4  I4B d   1      -2.118   1.494   1.530  0.00  0.00    -0.004 A 
ATOM      5  C5  I4B d   1      -2.225   1.490   0.142  0.00  0.00     0.002 A 
ATOM      6  C6  I4B d   1      -1.270   0.817  -0.633  0.00  0.00     0.003 A 
ENDROOT
BRANCH   1   7
ATOM      7  C1' I4B d   1       0.866  -0.488  -0.815  0.00  0.00     0.060 C 
BRANCH   7   8
ATOM      8  C2' I4B d   1       0.365  -1.860  -1.219  0.00  0.00    -0.013 C 
ATOM      9  C4' I4B d   1      -0.079  -1.876  -2.658  0.00  0.00     0.013 C 
ATOM     10  C3' I4B d   1       1.471  -2.844  -0.982  0.00  0.00     0.013 C 
ENDBRANCH   7   8
ENDBRANCH   1   7
TORSDOF 2
ENDMDL
