MODEL 1
REMARK minimizedAffinity -0.415987104
REMARK minimizedRMSD -1
REMARK  2 active torsions:
REMARK  status: ('A' for Active; 'I' for Inactive)
REMARK    1  A    between atoms: C2'_3  and  C1'_4 
REMARK    2  A    between atoms: C1'_4  and  C1_5 
ROOT
ATOM      1  C1  I4B d   1       0.440  -0.091  -0.137  0.00  0.00    -0.075 A 
ATOM      2  C2  I4B d   1       0.356  -0.613   1.130  0.00  0.00     0.003 A 
ATOM      3  C3  I4B d   1      -0.467   0.005   2.102  0.00  0.00     0.002 A 
ATOM      4  C4  I4B d   1      -1.145   1.163   1.781  0.00  0.00    -0.004 A 
ATOM      5  C5  I4B d   1      -1.077   1.677   0.490  0.00  0.00     0.002 A 
ATOM      6  C6  I4B d   1      -0.290   1.040  -0.480  0.00  0.00     0.003 A 
ENDROOT
BRANCH   1   7
ATOM      7  C1' I4B d   1       1.345  -0.750  -1.130  0.00  0.00     0.060 C 
BRANCH   7   8
ATOM      8  C2' I4B d   1       0.748  -2.097  -1.483  0.00  0.00    -0.013 C 
ATOM      9  C4' I4B d   1       0.347  -2.152  -2.934  0.00  0.00     0.013 C 
ATOM     10  C3' I4B d   1       1.763  -3.153  -1.161  0.00  0.00     0.013 C 
ENDBRANCH   7   8
ENDBRANCH   1   7
TORSDOF 2
ENDMDL
