MODEL 1
REMARK minimizedAffinity -1.43409371
REMARK minimizedRMSD -1
REMARK  2 active torsions:
REMARK  status: ('A' for Active; 'I' for Inactive)
REMARK    1  A    between atoms: C2'_3  and  C1'_4 
REMARK    2  A    between atoms: C1'_4  and  C1_5 
ROOT
ATOM      1  C1  I4B d   1      -0.420   0.281  -0.272  0.00  0.00    -0.075 A 
ATOM      2  C2  I4B d   1       0.016   0.362   1.027  0.00  0.00     0.003 A 
ATOM      3  C3  I4B d   1      -0.757   1.046   1.996  0.00  0.00     0.002 A 
ATOM      4  C4  I4B d   1      -1.926   1.672   1.616  0.00  0.00    -0.004 A 
ATOM      5  C5  I4B d   1      -2.378   1.568   0.303  0.00  0.00     0.002 A 
ATOM      6  C6  I4B d   1      -1.627   0.858  -0.644  0.00  0.00     0.003 A 
ENDROOT
BRANCH   1   7
ATOM      7  C1' I4B d   1       0.437  -0.421  -1.277  0.00  0.00     0.060 C 
BRANCH   7   8
ATOM      8  C2' I4B d   1      -0.280  -1.686  -1.701  0.00  0.00    -0.013 C 
ATOM      9  C4' I4B d   1      -0.520  -1.705  -3.188  0.00  0.00     0.013 C 
ATOM     10  C3' I4B d   1       0.553  -2.857  -1.272  0.00  0.00     0.013 C 
ENDBRANCH   7   8
ENDBRANCH   1   7
TORSDOF 2
ENDMDL
