MODEL 1
REMARK minimizedAffinity -5.19974756
REMARK minimizedRMSD -1
REMARK  2 active torsions:
REMARK  status: ('A' for Active; 'I' for Inactive)
REMARK    1  A    between atoms: C2'_3  and  C1'_4 
REMARK    2  A    between atoms: C1'_4  and  C1_5 
ROOT
ATOM      1  C1  I4B d   1       0.441   0.023  -0.341  0.00  0.00    -0.075 A 
ATOM      2  C2  I4B d   1      -0.153   1.210  -0.691  0.00  0.00     0.003 A 
ATOM      3  C3  I4B d   1      -1.048   1.850   0.201  0.00  0.00     0.002 A 
ATOM      4  C4  I4B d   1      -1.358   1.246   1.402  0.00  0.00    -0.004 A 
ATOM      5  C5  I4B d   1      -0.738   0.054   1.765  0.00  0.00     0.002 A 
ATOM      6  C6  I4B d   1       0.177  -0.556   0.894  0.00  0.00     0.003 A 
ENDROOT
BRANCH   1   7
ATOM      7  C1' I4B d   1       1.355  -0.642  -1.320  0.00  0.00     0.060 C 
BRANCH   7   8
ATOM      8  C2' I4B d   1       0.917  -2.085  -1.463  0.00  0.00    -0.013 C 
ATOM      9  C4' I4B d   1       0.324  -2.343  -2.823  0.00  0.00     0.013 C 
ATOM     10  C3' I4B d   1       2.112  -2.958  -1.219  0.00  0.00     0.013 C 
ENDBRANCH   7   8
ENDBRANCH   1   7
TORSDOF 2
ENDMDL
