MODEL 1
REMARK minimizedAffinity -2.71001887
REMARK minimizedRMSD -1
REMARK  2 active torsions:
REMARK  status: ('A' for Active; 'I' for Inactive)
REMARK    1  A    between atoms: C2'_3  and  C1'_4 
REMARK    2  A    between atoms: C1'_4  and  C1_5 
ROOT
ATOM      1  C1  I4B d   1       0.499  -0.071  -0.318  0.00  0.00    -0.075 A 
ATOM      2  C2  I4B d   1      -0.047  -0.692   0.777  0.00  0.00     0.003 A 
ATOM      3  C3  I4B d   1      -1.007  -0.020   1.573  0.00  0.00     0.002 A 
ATOM      4  C4  I4B d   1      -1.351   1.281   1.268  0.00  0.00    -0.004 A 
ATOM      5  C5  I4B d   1      -0.813   1.901   0.144  0.00  0.00     0.002 A 
ATOM      6  C6  I4B d   1       0.109   1.217  -0.661  0.00  0.00     0.003 A 
ENDROOT
BRANCH   1   7
ATOM      7  C1' I4B d   1       1.534  -0.798  -1.117  0.00  0.00     0.060 C 
BRANCH   7   8
ATOM      8  C2' I4B d   1       0.962  -2.146  -1.506  0.00  0.00    -0.013 C 
ATOM      9  C4' I4B d   1       0.575  -2.175  -2.961  0.00  0.00     0.013 C 
ATOM     10  C3' I4B d   1       1.992  -3.192  -1.199  0.00  0.00     0.013 C 
ENDBRANCH   7   8
ENDBRANCH   1   7
TORSDOF 2
ENDMDL
