MODEL 1
REMARK minimizedAffinity -5.13750076
REMARK minimizedRMSD -1
REMARK  2 active torsions:
REMARK  status: ('A' for Active; 'I' for Inactive)
REMARK    1  A    between atoms: C2'_3  and  C1'_4 
REMARK    2  A    between atoms: C1'_4  and  C1_5 
ROOT
ATOM      1  C1  I4B d   1       0.127  -0.410  -0.258  0.00  0.00    -0.075 A 
ATOM      2  C2  I4B d   1       0.091  -1.032   0.965  0.00  0.00     0.003 A 
ATOM      3  C3  I4B d   1      -0.661  -0.473   2.026  0.00  0.00     0.002 A 
ATOM      4  C4  I4B d   1      -1.317   0.726   1.837  0.00  0.00    -0.004 A 
ATOM      5  C5  I4B d   1      -1.298   1.343   0.589  0.00  0.00     0.002 A 
ATOM      6  C6  I4B d   1      -0.582   0.765  -0.469  0.00  0.00     0.003 A 
ENDROOT
BRANCH   1   7
ATOM      7  C1' I4B d   1       0.958  -1.011  -1.348  0.00  0.00     0.060 C 
BRANCH   7   8
ATOM      8  C2' I4B d   1       0.442  -2.410  -1.611  0.00  0.00    -0.013 C 
ATOM      9  C4' I4B d   1      -0.254  -2.493  -2.945  0.00  0.00     0.013 C 
ATOM     10  C3' I4B d   1       1.607  -3.353  -1.550  0.00  0.00     0.013 C 
ENDBRANCH   7   8
ENDBRANCH   1   7
TORSDOF 2
ENDMDL
