MODEL 1
REMARK minimizedAffinity -5.66222858
REMARK minimizedRMSD -1
REMARK  2 active torsions:
REMARK  status: ('A' for Active; 'I' for Inactive)
REMARK    1  A    between atoms: C2'_3  and  C1'_4 
REMARK    2  A    between atoms: C1'_4  and  C1_5 
ROOT
ATOM      1  C1  I4B d   1       0.042  -0.609  -0.109  0.00  0.00    -0.075 A 
ATOM      2  C2  I4B d   1      -0.457   0.471  -0.793  0.00  0.00     0.003 A 
ATOM      3  C3  I4B d   1      -1.220   1.453  -0.117  0.00  0.00     0.002 A 
ATOM      4  C4  I4B d   1      -1.502   1.291   1.224  0.00  0.00    -0.004 A 
ATOM      5  C5  I4B d   1      -0.976   0.207   1.922  0.00  0.00     0.002 A 
ATOM      6  C6  I4B d   1      -0.189  -0.743   1.254  0.00  0.00     0.003 A 
ENDROOT
BRANCH   1   7
ATOM      7  C1' I4B d   1       0.817  -1.644  -0.861  0.00  0.00     0.060 C 
BRANCH   7   8
ATOM      8  C2' I4B d   1      -0.161  -2.438  -1.703  0.00  0.00    -0.013 C 
ATOM      9  C4' I4B d   1       0.238  -2.430  -3.155  0.00  0.00     0.013 C 
ATOM     10  C3' I4B d   1      -0.209  -3.837  -1.162  0.00  0.00     0.013 C 
ENDBRANCH   7   8
ENDBRANCH   1   7
TORSDOF 2
ENDMDL
