MODEL 1
REMARK minimizedAffinity -5.42546606
REMARK minimizedRMSD -1
REMARK  2 active torsions:
REMARK  status: ('A' for Active; 'I' for Inactive)
REMARK    1  A    between atoms: C2'_3  and  C1'_4 
REMARK    2  A    between atoms: C1'_4  and  C1_5 
ROOT
ATOM      1  C1  I4B d   1       0.157   0.283   0.063  0.00  0.00    -0.075 A 
ATOM      2  C2  I4B d   1      -0.640   1.295  -0.410  0.00  0.00     0.003 A 
ATOM      3  C3  I4B d   1      -1.615   1.886   0.429  0.00  0.00     0.002 A 
ATOM      4  C4  I4B d   1      -1.792   1.404   1.710  0.00  0.00    -0.004 A 
ATOM      5  C5  I4B d   1      -0.967   0.393   2.196  0.00  0.00     0.002 A 
ATOM      6  C6  I4B d   1       0.022  -0.163   1.371  0.00  0.00     0.003 A 
ENDROOT
BRANCH   1   7
ATOM      7  C1' I4B d   1       1.154  -0.341  -0.861  0.00  0.00     0.060 C 
BRANCH   7   8
ATOM      8  C2' I4B d   1       0.656  -1.727  -1.218  0.00  0.00    -0.013 C 
ATOM      9  C4' I4B d   1       0.028  -1.746  -2.586  0.00  0.00     0.013 C 
ATOM     10  C3' I4B d   1       1.820  -2.671  -1.143  0.00  0.00     0.013 C 
ENDBRANCH   7   8
ENDBRANCH   1   7
TORSDOF 2
ENDMDL
