MODEL 1
REMARK minimizedAffinity -4.66318989
REMARK minimizedRMSD -1
REMARK  2 active torsions:
REMARK  status: ('A' for Active; 'I' for Inactive)
REMARK    1  A    between atoms: C2'_3  and  C1'_4 
REMARK    2  A    between atoms: C1'_4  and  C1_5 
ROOT
ATOM      1  C1  I4B d   1       0.347  -0.140  -0.240  0.00  0.00    -0.075 A 
ATOM      2  C2  I4B d   1      -0.577   0.746  -0.734  0.00  0.00     0.003 A 
ATOM      3  C3  I4B d   1      -1.447   1.435   0.146  0.00  0.00     0.002 A 
ATOM      4  C4  I4B d   1      -1.392   1.171   1.500  0.00  0.00    -0.004 A 
ATOM      5  C5  I4B d   1      -0.439   0.289   2.002  0.00  0.00     0.002 A 
ATOM      6  C6  I4B d   1       0.444  -0.361   1.128  0.00  0.00     0.003 A 
ENDROOT
BRANCH   1   7
ATOM      7  C1' I4B d   1       1.227  -0.874  -1.200  0.00  0.00     0.060 C 
BRANCH   7   8
ATOM      8  C2' I4B d   1       0.522  -2.156  -1.593  0.00  0.00    -0.013 C 
ATOM      9  C4' I4B d   1       0.214  -2.180  -3.067  0.00  0.00     0.013 C 
ATOM     10  C3' I4B d   1       1.403  -3.307  -1.206  0.00  0.00     0.013 C 
ENDBRANCH   7   8
ENDBRANCH   1   7
TORSDOF 2
ENDMDL
