MODEL 1
REMARK minimizedAffinity 29.5297623
REMARK minimizedRMSD -1
REMARK  0 active torsions:
REMARK  status: ('A' for Active; 'I' for Inactive)
ROOT
ATOM      1  C   UNL d   1       4.127  -0.835  -0.198  0.00  0.00     0.124 A 
ATOM      2  C1  UNL d   1       4.757   0.396  -0.082  0.00  0.00     0.062 A 
ATOM      3  C2  UNL d   1       4.102   1.463   0.527  0.00  0.00     0.162 A 
ATOM      4  C3  UNL d   1       2.809   1.302   1.026  0.00  0.00    -0.034 A 
ATOM      5  C4  UNL d   1       2.182   0.061   0.904  0.00  0.00     0.162 A 
ATOM      6  C5  UNL d   1       2.841  -1.002   0.295  0.00  0.00     0.062 A 
ATOM      7  F   UNL d   1       2.231  -2.191   0.184  0.00  0.00    -0.097 F 
ATOM      8  F1  UNL d   1       0.939  -0.128   1.373  0.00  0.00    -0.096 F 
ATOM      9  I   UNL d   1       1.826   2.894   1.937  0.00  0.00    -0.060 I 
ATOM     10  F2  UNL d   1       4.734   2.642   0.625  0.00  0.00    -0.096 F 
ATOM     11  F3  UNL d   1       5.999   0.560  -0.558  0.00  0.00    -0.097 F 
ATOM     12  F4  UNL d   1       4.760  -1.859  -0.785  0.00  0.00    -0.092 F 
ENDROOT
TORSDOF 0
ENDMDL
