MODEL 1
REMARK minimizedAffinity 17.2037811
REMARK minimizedRMSD -1
REMARK  0 active torsions:
REMARK  status: ('A' for Active; 'I' for Inactive)
ROOT
ATOM      1  C   UNL d   1       4.208   3.904  -5.991  0.00  0.00     0.124 A 
ATOM      2  C1  UNL d   1       3.028   4.635  -5.988  0.00  0.00     0.062 A 
ATOM      3  C2  UNL d   1       1.799   3.980  -5.980  0.00  0.00     0.162 A 
ATOM      4  C3  UNL d   1       1.745   2.586  -5.975  0.00  0.00    -0.034 A 
ATOM      5  C4  UNL d   1       2.936   1.858  -5.980  0.00  0.00     0.162 A 
ATOM      6  C5  UNL d   1       4.161   2.517  -5.988  0.00  0.00     0.062 A 
ATOM      7  F   UNL d   1       5.301   1.810  -5.991  0.00  0.00    -0.097 F 
ATOM      8  F1  UNL d   1       2.920   0.517  -5.976  0.00  0.00    -0.096 F 
ATOM      9  I   UNL d   1      -0.090   1.603  -5.964  0.00  0.00    -0.060 I 
ATOM     10  F2  UNL d   1       0.675   4.711  -5.977  0.00  0.00    -0.096 F 
ATOM     11  F3  UNL d   1       3.070   5.975  -5.992  0.00  0.00    -0.097 F 
ATOM     12  F4  UNL d   1       5.388   4.537  -5.999  0.00  0.00    -0.092 F 
ENDROOT
TORSDOF 0
ENDMDL
