MODEL 1
REMARK minimizedAffinity 7.64376211
REMARK minimizedRMSD -1
REMARK  0 active torsions:
REMARK  status: ('A' for Active; 'I' for Inactive)
ROOT
ATOM      1  C   UNL d   1       1.776  -2.432   1.322  0.00  0.00     0.124 A 
ATOM      2  C1  UNL d   1       2.687  -1.861   0.444  0.00  0.00     0.062 A 
ATOM      3  C2  UNL d   1       2.839  -0.479   0.394  0.00  0.00     0.162 A 
ATOM      4  C3  UNL d   1       2.079   0.344   1.225  0.00  0.00    -0.034 A 
ATOM      5  C4  UNL d   1       1.163  -0.237   2.105  0.00  0.00     0.162 A 
ATOM      6  C5  UNL d   1       1.015  -1.619   2.151  0.00  0.00     0.062 A 
ATOM      7  F   UNL d   1       0.134  -2.169   3.000  0.00  0.00    -0.097 F 
ATOM      8  F1  UNL d   1       0.416   0.524   2.918  0.00  0.00    -0.096 F 
ATOM      9  I   UNL d   1       2.303   2.412   1.152  0.00  0.00    -0.060 I 
ATOM     10  F2  UNL d   1       3.727   0.045  -0.464  0.00  0.00    -0.096 F 
ATOM     11  F3  UNL d   1       3.423  -2.644  -0.359  0.00  0.00    -0.097 F 
ATOM     12  F4  UNL d   1       1.631  -3.762   1.368  0.00  0.00    -0.092 F 
ENDROOT
TORSDOF 0
ENDMDL
