MODEL 1
REMARK minimizedAffinity 11.3005018
REMARK minimizedRMSD -1
REMARK  0 active torsions:
REMARK  status: ('A' for Active; 'I' for Inactive)
ROOT
ATOM      1  C   UNL d   1       2.947  -3.069   2.158  0.00  0.00     0.124 A 
ATOM      2  C1  UNL d   1       2.607  -2.657   0.877  0.00  0.00     0.062 A 
ATOM      3  C2  UNL d   1       3.247  -3.208  -0.229  0.00  0.00     0.162 A 
ATOM      4  C3  UNL d   1       4.235  -4.178  -0.059  0.00  0.00    -0.034 A 
ATOM      5  C4  UNL d   1       4.573  -4.586   1.232  0.00  0.00     0.162 A 
ATOM      6  C5  UNL d   1       3.930  -4.033   2.334  0.00  0.00     0.062 A 
ATOM      7  F   UNL d   1       4.261  -4.432   3.571  0.00  0.00    -0.097 F 
ATOM      8  F1  UNL d   1       5.519  -5.517   1.431  0.00  0.00    -0.096 F 
ATOM      9  I   UNL d   1       5.196  -5.004  -1.711  0.00  0.00    -0.060 I 
ATOM     10  F2  UNL d   1       2.898  -2.791  -1.455  0.00  0.00    -0.096 F 
ATOM     11  F3  UNL d   1       1.658  -1.725   0.704  0.00  0.00    -0.097 F 
ATOM     12  F4  UNL d   1       2.330  -2.537   3.221  0.00  0.00    -0.092 F 
ENDROOT
TORSDOF 0
ENDMDL
