MODEL 1
REMARK minimizedAffinity -1.58156359
REMARK minimizedRMSD -1
REMARK  0 active torsions:
REMARK  status: ('A' for Active; 'I' for Inactive)
ROOT
ATOM      1  C   UNL d   1      -0.506   1.422   0.806  0.00  0.00     0.124 A 
ATOM      2  C1  UNL d   1       0.129   1.423  -0.428  0.00  0.00     0.062 A 
ATOM      3  C2  UNL d   1       0.635   0.239  -0.956  0.00  0.00     0.162 A 
ATOM      4  C3  UNL d   1       0.508  -0.957  -0.250  0.00  0.00    -0.034 A 
ATOM      5  C4  UNL d   1      -0.131  -0.950   0.992  0.00  0.00     0.162 A 
ATOM      6  C5  UNL d   1      -0.635   0.236   1.515  0.00  0.00     0.062 A 
ATOM      7  F   UNL d   1      -1.248   0.234   2.708  0.00  0.00    -0.097 F 
ATOM      8  F1  UNL d   1      -0.271  -2.082   1.697  0.00  0.00    -0.096 F 
ATOM      9  I   UNL d   1       1.263  -2.730  -1.035  0.00  0.00    -0.060 I 
ATOM     10  F2  UNL d   1       1.243   0.269  -2.151  0.00  0.00    -0.096 F 
ATOM     11  F3  UNL d   1       0.256   2.568  -1.114  0.00  0.00    -0.097 F 
ATOM     12  F4  UNL d   1      -0.991   2.564   1.312  0.00  0.00    -0.092 F 
ENDROOT
TORSDOF 0
ENDMDL
