MODEL 1
REMARK minimizedAffinity 1.46783972
REMARK minimizedRMSD -1
REMARK  0 active torsions:
REMARK  status: ('A' for Active; 'I' for Inactive)
ROOT
ATOM      1  C   UNL d   1      -1.046   1.989  -0.855  0.00  0.00     0.124 A 
ATOM      2  C1  UNL d   1       0.234   1.834  -1.368  0.00  0.00     0.062 A 
ATOM      3  C2  UNL d   1       0.856   0.589  -1.334  0.00  0.00     0.162 A 
ATOM      4  C3  UNL d   1       0.197  -0.512  -0.785  0.00  0.00    -0.034 A 
ATOM      5  C4  UNL d   1      -1.090  -0.347  -0.270  0.00  0.00     0.162 A 
ATOM      6  C5  UNL d   1      -1.707   0.899  -0.306  0.00  0.00     0.062 A 
ATOM      7  F   UNL d   1      -2.944   1.047   0.190  0.00  0.00    -0.097 F 
ATOM      8  F1  UNL d   1      -1.752  -1.384   0.265  0.00  0.00    -0.096 F 
ATOM      9  I   UNL d   1       1.123  -2.375  -0.732  0.00  0.00    -0.060 I 
ATOM     10  F2  UNL d   1       2.093   0.468  -1.837  0.00  0.00    -0.096 F 
ATOM     11  F3  UNL d   1       0.875   2.886  -1.898  0.00  0.00    -0.097 F 
ATOM     12  F4  UNL d   1      -1.641   3.188  -0.888  0.00  0.00    -0.092 F 
ENDROOT
TORSDOF 0
ENDMDL
