MODEL 1
REMARK minimizedAffinity -0.616416931
REMARK minimizedRMSD -1
REMARK  0 active torsions:
REMARK  status: ('A' for Active; 'I' for Inactive)
ROOT
ATOM      1  C   UNL d   1      -1.281   2.536   0.656  0.00  0.00     0.124 A 
ATOM      2  C1  UNL d   1      -0.597   2.453  -0.549  0.00  0.00     0.062 A 
ATOM      3  C2  UNL d   1       0.066   1.280  -0.899  0.00  0.00     0.162 A 
ATOM      4  C3  UNL d   1       0.047   0.179  -0.042  0.00  0.00    -0.034 A 
ATOM      5  C4  UNL d   1      -0.642   0.270   1.169  0.00  0.00     0.162 A 
ATOM      6  C5  UNL d   1      -1.303   1.445   1.514  0.00  0.00     0.062 A 
ATOM      7  F   UNL d   1      -1.963   1.523   2.678  0.00  0.00    -0.097 F 
ATOM      8  F1  UNL d   1      -0.680  -0.769   2.016  0.00  0.00    -0.096 F 
ATOM      9  I   UNL d   1       1.037  -1.577  -0.561  0.00  0.00    -0.060 I 
ATOM     10  F2  UNL d   1       0.718   1.228  -2.069  0.00  0.00    -0.096 F 
ATOM     11  F3  UNL d   1      -0.574   3.506  -1.379  0.00  0.00    -0.097 F 
ATOM     12  F4  UNL d   1      -1.917   3.666   0.990  0.00  0.00    -0.092 F 
ENDROOT
TORSDOF 0
ENDMDL
