MODEL 1
REMARK minimizedAffinity -2.29046416
REMARK minimizedRMSD -1
REMARK  0 active torsions:
REMARK  status: ('A' for Active; 'I' for Inactive)
ROOT
ATOM      1  C   UNL d   1      -0.758   1.515  -0.824  0.00  0.00     0.124 A 
ATOM      2  C1  UNL d   1      -1.464   1.457   0.369  0.00  0.00     0.062 A 
ATOM      3  C2  UNL d   1      -1.040   0.615   1.393  0.00  0.00     0.162 A 
ATOM      4  C3  UNL d   1       0.097  -0.176   1.229  0.00  0.00    -0.034 A 
ATOM      5  C4  UNL d   1       0.802  -0.113   0.025  0.00  0.00     0.162 A 
ATOM      6  C5  UNL d   1       0.374   0.730  -0.995  0.00  0.00     0.062 A 
ATOM      7  F   UNL d   1       1.057   0.785  -2.148  0.00  0.00    -0.097 F 
ATOM      8  F1  UNL d   1       1.899  -0.860  -0.167  0.00  0.00    -0.096 F 
ATOM      9  I   UNL d   1       0.734  -1.436   2.757  0.00  0.00    -0.060 I 
ATOM     10  F2  UNL d   1      -1.742   0.580   2.536  0.00  0.00    -0.096 F 
ATOM     11  F3  UNL d   1      -2.558   2.214   0.536  0.00  0.00    -0.097 F 
ATOM     12  F4  UNL d   1      -1.169   2.325  -1.809  0.00  0.00    -0.092 F 
ENDROOT
TORSDOF 0
ENDMDL
