MODEL 1
REMARK minimizedAffinity 4.833951
REMARK minimizedRMSD -1
REMARK  0 active torsions:
REMARK  status: ('A' for Active; 'I' for Inactive)
ROOT
ATOM      1  C   UNL d   1       0.082  -0.263  -0.580  0.00  0.00     0.124 A 
ATOM      2  C1  UNL d   1       0.893  -0.651   0.477  0.00  0.00     0.062 A 
ATOM      3  C2  UNL d   1       0.841   0.036   1.687  0.00  0.00     0.162 A 
ATOM      4  C3  UNL d   1      -0.027   1.116   1.846  0.00  0.00    -0.034 A 
ATOM      5  C4  UNL d   1      -0.839   1.501   0.778  0.00  0.00     0.162 A 
ATOM      6  C5  UNL d   1      -0.783   0.812  -0.429  0.00  0.00     0.062 A 
ATOM      7  F   UNL d   1      -1.567   1.187  -1.450  0.00  0.00    -0.097 F 
ATOM      8  F1  UNL d   1      -1.684   2.535   0.897  0.00  0.00    -0.096 F 
ATOM      9  I   UNL d   1      -0.108   2.145   3.654  0.00  0.00    -0.060 I 
ATOM     10  F2  UNL d   1       1.635  -0.361   2.692  0.00  0.00    -0.096 F 
ATOM     11  F3  UNL d   1       1.730  -1.688   0.334  0.00  0.00    -0.097 F 
ATOM     12  F4  UNL d   1       0.135  -0.925  -1.744  0.00  0.00    -0.092 F 
ENDROOT
TORSDOF 0
ENDMDL
