MODEL 1
REMARK minimizedAffinity -0.708766103
REMARK minimizedRMSD -1
REMARK  0 active torsions:
REMARK  status: ('A' for Active; 'I' for Inactive)
ROOT
ATOM      1  C   UNL d   1      -0.767   1.036   1.731  0.00  0.00     0.124 A 
ATOM      2  C1  UNL d   1       0.405   0.293   1.710  0.00  0.00     0.062 A 
ATOM      3  C2  UNL d   1       0.723  -0.480   0.597  0.00  0.00     0.162 A 
ATOM      4  C3  UNL d   1      -0.132  -0.514  -0.504  0.00  0.00    -0.034 A 
ATOM      5  C4  UNL d   1      -1.309   0.236  -0.475  0.00  0.00     0.162 A 
ATOM      6  C5  UNL d   1      -1.623   1.007   0.639  0.00  0.00     0.062 A 
ATOM      7  F   UNL d   1      -2.755   1.725   0.658  0.00  0.00    -0.097 F 
ATOM      8  F1  UNL d   1      -2.153   0.227  -1.517  0.00  0.00    -0.096 F 
ATOM      9  I   UNL d   1       0.341  -1.669  -2.170  0.00  0.00    -0.060 I 
ATOM     10  F2  UNL d   1       1.862  -1.189   0.604  0.00  0.00    -0.096 F 
ATOM     11  F3  UNL d   1       1.233   0.319   2.764  0.00  0.00    -0.097 F 
ATOM     12  F4  UNL d   1      -1.071   1.779   2.803  0.00  0.00    -0.092 F 
ENDROOT
TORSDOF 0
ENDMDL
