MODEL 1
REMARK minimizedAffinity -1.43697429
REMARK minimizedRMSD -1
REMARK  0 active torsions:
REMARK  status: ('A' for Active; 'I' for Inactive)
ROOT
ATOM      1  C   UNL d   1      -1.395   1.990   1.033  0.00  0.00     0.124 A 
ATOM      2  C1  UNL d   1      -0.977   0.965   1.871  0.00  0.00     0.062 A 
ATOM      3  C2  UNL d   1      -0.269  -0.116   1.355  0.00  0.00     0.162 A 
ATOM      4  C3  UNL d   1       0.027  -0.179  -0.006  0.00  0.00    -0.034 A 
ATOM      5  C4  UNL d   1      -0.397   0.855  -0.843  0.00  0.00     0.162 A 
ATOM      6  C5  UNL d   1      -1.104   1.934  -0.323  0.00  0.00     0.062 A 
ATOM      7  F   UNL d   1      -1.507   2.922  -1.135  0.00  0.00    -0.097 F 
ATOM      8  F1  UNL d   1      -0.129   0.827  -2.157  0.00  0.00    -0.096 F 
ATOM      9  I   UNL d   1       1.086  -1.794  -0.781  0.00  0.00    -0.060 I 
ATOM     10  F2  UNL d   1       0.122  -1.092   2.189  0.00  0.00    -0.096 F 
ATOM     11  F3  UNL d   1      -1.257   1.017   3.181  0.00  0.00    -0.097 F 
ATOM     12  F4  UNL d   1      -2.077   3.029   1.531  0.00  0.00    -0.092 F 
ENDROOT
TORSDOF 0
ENDMDL
