MODEL 1
REMARK minimizedAffinity -0.737748802
REMARK minimizedRMSD -1
REMARK  0 active torsions:
REMARK  status: ('A' for Active; 'I' for Inactive)
ROOT
ATOM      1  C   UNL d   1       1.429  -0.179  -1.251  0.00  0.00     0.124 A 
ATOM      2  C1  UNL d   1       1.137   1.162  -1.461  0.00  0.00     0.062 A 
ATOM      3  C2  UNL d   1       0.266   1.830  -0.606  0.00  0.00     0.162 A 
ATOM      4  C3  UNL d   1      -0.319   1.160   0.468  0.00  0.00    -0.034 A 
ATOM      5  C4  UNL d   1      -0.021  -0.189   0.672  0.00  0.00     0.162 A 
ATOM      6  C5  UNL d   1       0.850  -0.852  -0.185  0.00  0.00     0.062 A 
ATOM      7  F   UNL d   1       1.132  -2.148   0.019  0.00  0.00    -0.097 F 
ATOM      8  F1  UNL d   1      -0.566  -0.864   1.695  0.00  0.00    -0.096 F 
ATOM      9  I   UNL d   1      -1.622   2.156   1.749  0.00  0.00    -0.060 I 
ATOM     10  F2  UNL d   1       0.001   3.126  -0.833  0.00  0.00    -0.096 F 
ATOM     11  F3  UNL d   1       1.694   1.815  -2.491  0.00  0.00    -0.097 F 
ATOM     12  F4  UNL d   1       2.267  -0.820  -2.076  0.00  0.00    -0.092 F 
ENDROOT
TORSDOF 0
ENDMDL
