MODEL 1
REMARK minimizedAffinity 2.920825
REMARK minimizedRMSD -1
REMARK  0 active torsions:
REMARK  status: ('A' for Active; 'I' for Inactive)
ROOT
ATOM      1  C   UNL d   1      -0.253   0.433   1.101  0.00  0.00     0.124 A 
ATOM      2  C1  UNL d   1       0.646  -0.625   1.094  0.00  0.00     0.062 A 
ATOM      3  C2  UNL d   1       0.822  -1.387  -0.057  0.00  0.00     0.162 A 
ATOM      4  C3  UNL d   1       0.097  -1.095  -1.212  0.00  0.00    -0.034 A 
ATOM      5  C4  UNL d   1      -0.806  -0.030  -1.198  0.00  0.00     0.162 A 
ATOM      6  C5  UNL d   1      -0.978   0.729  -0.045  0.00  0.00     0.062 A 
ATOM      7  F   UNL d   1      -1.847   1.750  -0.040  0.00  0.00    -0.097 F 
ATOM      8  F1  UNL d   1      -1.519   0.279  -2.291  0.00  0.00    -0.096 F 
ATOM      9  I   UNL d   1       0.356  -2.232  -2.936  0.00  0.00    -0.060 I 
ATOM     10  F2  UNL d   1       1.697  -2.403  -0.035  0.00  0.00    -0.096 F 
ATOM     11  F3  UNL d   1       1.348  -0.913   2.200  0.00  0.00    -0.097 F 
ATOM     12  F4  UNL d   1      -0.420   1.164   2.210  0.00  0.00    -0.092 F 
ENDROOT
TORSDOF 0
ENDMDL
