MODEL 1
REMARK minimizedAffinity -1.81753588
REMARK minimizedRMSD -1
REMARK  0 active torsions:
REMARK  status: ('A' for Active; 'I' for Inactive)
ROOT
ATOM      1  C   UNL d   1      -0.689   0.416   1.400  0.00  0.00     0.124 A 
ATOM      2  C1  UNL d   1      -1.341   0.830   0.247  0.00  0.00     0.062 A 
ATOM      3  C2  UNL d   1      -1.000   0.281  -0.985  0.00  0.00     0.162 A 
ATOM      4  C3  UNL d   1      -0.001  -0.689  -1.072  0.00  0.00    -0.034 A 
ATOM      5  C4  UNL d   1       0.652  -1.099   0.092  0.00  0.00     0.162 A 
ATOM      6  C5  UNL d   1       0.307  -0.548   1.322  0.00  0.00     0.062 A 
ATOM      7  F   UNL d   1       0.938  -0.948   2.435  0.00  0.00    -0.097 F 
ATOM      8  F1  UNL d   1       1.617  -2.029   0.046  0.00  0.00    -0.096 F 
ATOM      9  I   UNL d   1       0.512  -1.512  -2.913  0.00  0.00    -0.060 I 
ATOM     10  F2  UNL d   1      -1.647   0.699  -2.083  0.00  0.00    -0.096 F 
ATOM     11  F3  UNL d   1      -2.303   1.761   0.320  0.00  0.00    -0.097 F 
ATOM     12  F4  UNL d   1      -1.019   0.947   2.585  0.00  0.00    -0.092 F 
ENDROOT
TORSDOF 0
ENDMDL
