MODEL 1
REMARK minimizedAffinity -2.14025164
REMARK minimizedRMSD -1
REMARK  0 active torsions:
REMARK  status: ('A' for Active; 'I' for Inactive)
ROOT
ATOM      1  C   UNL d   1      -1.040   1.790  -0.246  0.00  0.00     0.124 A 
ATOM      2  C1  UNL d   1       0.291   1.787  -0.640  0.00  0.00     0.062 A 
ATOM      3  C2  UNL d   1       0.968   0.583  -0.808  0.00  0.00     0.162 A 
ATOM      4  C3  UNL d   1       0.316  -0.629  -0.581  0.00  0.00    -0.034 A 
ATOM      5  C4  UNL d   1      -1.022  -0.618  -0.183  0.00  0.00     0.162 A 
ATOM      6  C5  UNL d   1      -1.695   0.588  -0.017  0.00  0.00     0.062 A 
ATOM      7  F   UNL d   1      -2.980   0.590   0.364  0.00  0.00    -0.097 F 
ATOM      8  F1  UNL d   1      -1.680  -1.765   0.043  0.00  0.00    -0.096 F 
ATOM      9  I   UNL d   1       1.326  -2.432  -0.830  0.00  0.00    -0.060 I 
ATOM     10  F2  UNL d   1       2.254   0.610  -1.190  0.00  0.00    -0.096 F 
ATOM     11  F3  UNL d   1       0.926   2.947  -0.861  0.00  0.00    -0.097 F 
ATOM     12  F4  UNL d   1      -1.689   2.951  -0.084  0.00  0.00    -0.092 F 
ENDROOT
TORSDOF 0
ENDMDL
