MODEL 1
REMARK minimizedAffinity 1.88281715
REMARK minimizedRMSD -1
REMARK  0 active torsions:
REMARK  status: ('A' for Active; 'I' for Inactive)
ROOT
ATOM      1  C   UNL d   1      -1.565   1.784   1.567  0.00  0.00     0.124 A 
ATOM      2  C1  UNL d   1      -1.638   1.580   0.196  0.00  0.00     0.062 A 
ATOM      3  C2  UNL d   1      -0.860   0.596  -0.408  0.00  0.00     0.162 A 
ATOM      4  C3  UNL d   1      -0.002  -0.192   0.358  0.00  0.00    -0.034 A 
ATOM      5  C4  UNL d   1       0.067   0.020   1.737  0.00  0.00     0.162 A 
ATOM      6  C5  UNL d   1      -0.712   1.004   2.336  0.00  0.00     0.062 A 
ATOM      7  F   UNL d   1      -0.640   1.199   3.660  0.00  0.00    -0.097 F 
ATOM      8  F1  UNL d   1       0.882  -0.720   2.504  0.00  0.00    -0.096 F 
ATOM      9  I   UNL d   1       1.163  -1.663  -0.541  0.00  0.00    -0.060 I 
ATOM     10  F2  UNL d   1      -0.952   0.421  -1.735  0.00  0.00    -0.096 F 
ATOM     11  F3  UNL d   1      -2.460   2.333  -0.549  0.00  0.00    -0.097 F 
ATOM     12  F4  UNL d   1      -2.313   2.731   2.145  0.00  0.00    -0.092 F 
ENDROOT
TORSDOF 0
ENDMDL
