MODEL 1
REMARK minimizedAffinity 4.69837713
REMARK minimizedRMSD -1
REMARK  0 active torsions:
REMARK  status: ('A' for Active; 'I' for Inactive)
ROOT
ATOM      1  C   UNL d   1      -0.266   1.791   0.747  0.00  0.00     0.124 A 
ATOM      2  C1  UNL d   1      -0.649   0.600   1.348  0.00  0.00     0.062 A 
ATOM      3  C2  UNL d   1      -0.297  -0.618   0.775  0.00  0.00     0.162 A 
ATOM      4  C3  UNL d   1       0.443  -0.652  -0.407  0.00  0.00    -0.034 A 
ATOM      5  C4  UNL d   1       0.823   0.549  -1.007  0.00  0.00     0.162 A 
ATOM      6  C5  UNL d   1       0.469   1.765  -0.430  0.00  0.00     0.062 A 
ATOM      7  F   UNL d   1       0.840   2.914  -1.012  0.00  0.00    -0.097 F 
ATOM      8  F1  UNL d   1       1.536   0.553  -2.143  0.00  0.00    -0.096 F 
ATOM      9  I   UNL d   1       0.971  -2.472  -1.268  0.00  0.00    -0.060 I 
ATOM     10  F2  UNL d   1      -0.681  -1.754   1.378  0.00  0.00    -0.096 F 
ATOM     11  F3  UNL d   1      -1.361   0.623   2.484  0.00  0.00    -0.097 F 
ATOM     12  F4  UNL d   1      -0.607   2.962   1.300  0.00  0.00    -0.092 F 
ENDROOT
TORSDOF 0
ENDMDL
