MODEL 1
REMARK minimizedAffinity -2.26747894
REMARK minimizedRMSD -1
REMARK  0 active torsions:
REMARK  status: ('A' for Active; 'I' for Inactive)
ROOT
ATOM      1  C   UNL d   1      -1.016   1.129   1.394  0.00  0.00     0.124 A 
ATOM      2  C1  UNL d   1      -1.555   1.133   0.115  0.00  0.00     0.062 A 
ATOM      3  C2  UNL d   1      -1.436   0.010  -0.698  0.00  0.00     0.162 A 
ATOM      4  C3  UNL d   1      -0.776  -1.128  -0.234  0.00  0.00    -0.034 A 
ATOM      5  C4  UNL d   1      -0.236  -1.124   1.054  0.00  0.00     0.162 A 
ATOM      6  C5  UNL d   1      -0.358   0.001   1.862  0.00  0.00     0.062 A 
ATOM      7  F   UNL d   1       0.163  -0.005   3.098  0.00  0.00    -0.097 F 
ATOM      8  F1  UNL d   1       0.405  -2.201   1.531  0.00  0.00    -0.096 F 
ATOM      9  I   UNL d   1      -0.596  -2.810  -1.446  0.00  0.00    -0.060 I 
ATOM     10  F2  UNL d   1      -1.966   0.042  -1.930  0.00  0.00    -0.096 F 
ATOM     11  F3  UNL d   1      -2.191   2.222  -0.340  0.00  0.00    -0.097 F 
ATOM     12  F4  UNL d   1      -1.131   2.212   2.174  0.00  0.00    -0.092 F 
ENDROOT
TORSDOF 0
ENDMDL
