MODEL 1
REMARK minimizedAffinity 1.68315816
REMARK minimizedRMSD -1
REMARK  1 active torsions:
REMARK  status: ('A' for Active; 'I' for Inactive)
REMARK    1  A    between atoms: C3_4  and  O_7 
ROOT
ATOM      1  C   UNL d   1       5.999   3.945   4.112  0.00  0.00    -0.033 A 
ATOM      2  C1  UNL d   1       5.998   3.191   2.937  0.00  0.00     0.039 A 
ATOM      3  C2  UNL d   1       5.995   3.830   1.695  0.00  0.00    -0.080 A 
ATOM      4  C3  UNL d   1       5.993   5.221   1.643  0.00  0.00     0.150 A 
ATOM      5  C4  UNL d   1       5.997   5.979   2.809  0.00  0.00    -0.007 A 
ATOM      6  C5  UNL d   1       6.000   5.339   4.048  0.00  0.00     0.039 A 
ENDROOT
BRANCH   4   7
ATOM      7  O   UNL d   1       5.984   5.889   0.454  0.00  0.00    -0.526 OA
ATOM      8  H5  UNL d   1       5.953   5.237  -0.265  0.00  0.00     0.418 HD
ENDBRANCH   4   7
TORSDOF 1
ENDMDL
