MODEL 1
REMARK minimizedAffinity 3.05720282
REMARK minimizedRMSD -1
REMARK  1 active torsions:
REMARK  status: ('A' for Active; 'I' for Inactive)
REMARK    1  A    between atoms: C3_4  and  O_7 
ROOT
ATOM      1  C   UNL d   1      -3.513   5.997   5.954  0.00  0.00    -0.033 A 
ATOM      2  C1  UNL d   1      -2.840   6.000   4.731  0.00  0.00     0.039 A 
ATOM      3  C2  UNL d   1      -3.562   6.000   3.535  0.00  0.00    -0.080 A 
ATOM      4  C3  UNL d   1      -4.954   5.998   3.577  0.00  0.00     0.150 A 
ATOM      5  C4  UNL d   1      -5.630   6.000   4.793  0.00  0.00    -0.007 A 
ATOM      6  C5  UNL d   1      -4.908   5.999   5.985  0.00  0.00     0.039 A 
ENDROOT
BRANCH   4   7
ATOM      7  O   UNL d   1      -5.701   5.993   2.437  0.00  0.00    -0.526 OA
ATOM      8  H5  UNL d   1      -5.099   5.964   1.675  0.00  0.00     0.418 HD
ENDBRANCH   4   7
TORSDOF 1
ENDMDL
