MODEL 1
REMARK minimizedAffinity 0.534992278
REMARK minimizedRMSD -1
REMARK  1 active torsions:
REMARK  status: ('A' for Active; 'I' for Inactive)
REMARK    1  A    between atoms: C3_4  and  O_7 
ROOT
ATOM      1  C   UNL d   1       5.955   1.946   3.070  0.00  0.00    -0.033 A 
ATOM      2  C1  UNL d   1       5.984   2.980   2.132  0.00  0.00     0.039 A 
ATOM      3  C2  UNL d   1       6.000   4.310   2.558  0.00  0.00    -0.080 A 
ATOM      4  C3  UNL d   1       5.988   4.591   3.921  0.00  0.00     0.150 A 
ATOM      5  C4  UNL d   1       5.963   3.566   4.860  0.00  0.00    -0.007 A 
ATOM      6  C5  UNL d   1       5.946   2.239   4.434  0.00  0.00     0.039 A 
ENDROOT
BRANCH   4   7
ATOM      7  O   UNL d   1       5.998   5.874   4.384  0.00  0.00    -0.526 OA
ATOM      8  H5  UNL d   1       5.986   6.476   3.621  0.00  0.00     0.418 HD
ENDBRANCH   4   7
TORSDOF 1
ENDMDL
