MODEL 1
REMARK minimizedAffinity 5.92836094
REMARK minimizedRMSD -1
REMARK  1 active torsions:
REMARK  status: ('A' for Active; 'I' for Inactive)
REMARK    1  A    between atoms: C3_4  and  O_7 
ROOT
ATOM      1  C   UNL d   1       5.982  -0.065   6.000  0.00  0.00    -0.033 A 
ATOM      2  C1  UNL d   1       5.561  -1.169   5.256  0.00  0.00     0.039 A 
ATOM      3  C2  UNL d   1       5.151  -1.005   3.931  0.00  0.00    -0.080 A 
ATOM      4  C3  UNL d   1       5.169   0.265   3.362  0.00  0.00     0.150 A 
ATOM      5  C4  UNL d   1       5.592   1.369   4.096  0.00  0.00    -0.007 A 
ATOM      6  C5  UNL d   1       6.000   1.204   5.419  0.00  0.00     0.039 A 
ENDROOT
BRANCH   4   7
ATOM      7  O   UNL d   1       4.774   0.475   2.074  0.00  0.00    -0.526 OA
ATOM      8  H5  UNL d   1       4.482  -0.373   1.700  0.00  0.00     0.418 HD
ENDBRANCH   4   7
TORSDOF 1
ENDMDL
