MODEL 1
REMARK minimizedAffinity 3.8988061
REMARK minimizedRMSD -1
REMARK  1 active torsions:
REMARK  status: ('A' for Active; 'I' for Inactive)
REMARK    1  A    between atoms: C3_4  and  O_7 
ROOT
ATOM      1  C   UNL d   1      -0.046   0.092   1.277  0.00  0.00    -0.033 A 
ATOM      2  C1  UNL d   1       0.857   0.992   0.709  0.00  0.00     0.039 A 
ATOM      3  C2  UNL d   1       1.207   0.876  -0.638  0.00  0.00    -0.080 A 
ATOM      4  C3  UNL d   1       0.647  -0.143  -1.404  0.00  0.00     0.150 A 
ATOM      5  C4  UNL d   1      -0.257  -1.040  -0.845  0.00  0.00    -0.007 A 
ATOM      6  C5  UNL d   1      -0.604  -0.923   0.500  0.00  0.00     0.039 A 
ENDROOT
BRANCH   4   7
ATOM      7  O   UNL d   1       0.961  -0.299  -2.722  0.00  0.00    -0.526 OA
ATOM      8  H5  UNL d   1       1.618   0.375  -2.963  0.00  0.00     0.418 HD
ENDBRANCH   4   7
TORSDOF 1
ENDMDL
