MODEL 1
REMARK minimizedAffinity 0.913437784
REMARK minimizedRMSD -1
REMARK  1 active torsions:
REMARK  status: ('A' for Active; 'I' for Inactive)
REMARK    1  A    between atoms: C3_4  and  O_7 
ROOT
ATOM      1  C   UNL d   1       2.578   0.023  -0.380  0.00  0.00    -0.033 A 
ATOM      2  C1  UNL d   1       2.030  -0.734  -1.417  0.00  0.00     0.039 A 
ATOM      3  C2  UNL d   1       0.644  -0.836  -1.552  0.00  0.00    -0.080 A 
ATOM      4  C3  UNL d   1      -0.181  -0.177  -0.645  0.00  0.00     0.150 A 
ATOM      5  C4  UNL d   1       0.358   0.582   0.388  0.00  0.00    -0.007 A 
ATOM      6  C5  UNL d   1       1.743   0.682   0.522  0.00  0.00     0.039 A 
ENDROOT
BRANCH   4   7
ATOM      7  O   UNL d   1      -1.539  -0.251  -0.734  0.00  0.00    -0.526 OA
ATOM      8  H5  UNL d   1      -1.768  -0.832  -1.478  0.00  0.00     0.418 HD
ENDBRANCH   4   7
TORSDOF 1
ENDMDL
