MODEL 1
REMARK minimizedAffinity 0.283463508
REMARK minimizedRMSD -1
REMARK  1 active torsions:
REMARK  status: ('A' for Active; 'I' for Inactive)
REMARK    1  A    between atoms: C3_4  and  O_7 
ROOT
ATOM      1  C   UNL d   1       1.806  -4.829   0.995  0.00  0.00    -0.033 A 
ATOM      2  C1  UNL d   1       2.133  -6.000   1.683  0.00  0.00     0.039 A 
ATOM      3  C2  UNL d   1       2.519  -5.940   3.023  0.00  0.00    -0.080 A 
ATOM      4  C3  UNL d   1       2.572  -4.705   3.664  0.00  0.00     0.150 A 
ATOM      5  C4  UNL d   1       2.244  -3.535   2.987  0.00  0.00    -0.007 A 
ATOM      6  C5  UNL d   1       1.860  -3.597   1.648  0.00  0.00     0.039 A 
ENDROOT
BRANCH   4   7
ATOM      7  O   UNL d   1       2.948  -4.596   4.970  0.00  0.00    -0.526 OA
ATOM      8  H5  UNL d   1       3.173  -5.482   5.301  0.00  0.00     0.418 HD
ENDBRANCH   4   7
TORSDOF 1
ENDMDL
