MODEL 1
REMARK minimizedAffinity 0.901027739
REMARK minimizedRMSD -1
REMARK  1 active torsions:
REMARK  status: ('A' for Active; 'I' for Inactive)
REMARK    1  A    between atoms: C3_4  and  O_7 
ROOT
ATOM      1  C   UNL d   1       2.511   1.125   0.066  0.00  0.00    -0.033 A 
ATOM      2  C1  UNL d   1       2.976   0.307  -0.966  0.00  0.00     0.039 A 
ATOM      3  C2  UNL d   1       2.319  -0.889  -1.262  0.00  0.00    -0.080 A 
ATOM      4  C3  UNL d   1       1.199  -1.254  -0.521  0.00  0.00     0.150 A 
ATOM      5  C4  UNL d   1       0.728  -0.442   0.506  0.00  0.00    -0.007 A 
ATOM      6  C5  UNL d   1       1.386   0.751   0.801  0.00  0.00     0.039 A 
ENDROOT
BRANCH   4   7
ATOM      7  O   UNL d   1       0.527  -2.414  -0.769  0.00  0.00    -0.526 OA
ATOM      8  H5  UNL d   1       0.983  -2.886  -1.486  0.00  0.00     0.418 HD
ENDBRANCH   4   7
TORSDOF 1
ENDMDL
