MODEL 1
REMARK minimizedAffinity 5.86901999
REMARK minimizedRMSD -1
REMARK  1 active torsions:
REMARK  status: ('A' for Active; 'I' for Inactive)
REMARK    1  A    between atoms: C3_4  and  O_7 
ROOT
ATOM      1  C   UNL d   1       5.997   2.231  -4.226  0.00  0.00    -0.033 A 
ATOM      2  C1  UNL d   1       4.970   1.968  -3.317  0.00  0.00     0.039 A 
ATOM      3  C2  UNL d   1       3.642   1.949  -3.748  0.00  0.00    -0.080 A 
ATOM      4  C3  UNL d   1       3.355   2.194  -5.088  0.00  0.00     0.150 A 
ATOM      5  C4  UNL d   1       4.374   2.454  -5.999  0.00  0.00    -0.007 A 
ATOM      6  C5  UNL d   1       5.699   2.473  -5.567  0.00  0.00     0.039 A 
ENDROOT
BRANCH   4   7
ATOM      7  O   UNL d   1       2.074   2.192  -5.554  0.00  0.00    -0.526 OA
ATOM      8  H5  UNL d   1       1.475   2.027  -4.807  0.00  0.00     0.418 HD
ENDBRANCH   4   7
TORSDOF 1
ENDMDL
