MODEL 1
REMARK minimizedAffinity 8.25882721
REMARK minimizedRMSD -1
REMARK  1 active torsions:
REMARK  status: ('A' for Active; 'I' for Inactive)
REMARK    1  A    between atoms: C3_4  and  O_7 
ROOT
ATOM      1  C   UNL d   1       1.255   3.872   1.460  0.00  0.00    -0.033 A 
ATOM      2  C1  UNL d   1      -0.107   3.640   1.655  0.00  0.00     0.039 A 
ATOM      3  C2  UNL d   1      -0.638   2.366   1.439  0.00  0.00    -0.080 A 
ATOM      4  C3  UNL d   1       0.205   1.335   1.032  0.00  0.00     0.150 A 
ATOM      5  C4  UNL d   1       1.564   1.559   0.840  0.00  0.00    -0.007 A 
ATOM      6  C5  UNL d   1       2.091   2.832   1.054  0.00  0.00     0.039 A 
ENDROOT
BRANCH   4   7
ATOM      7  O   UNL d   1      -0.268   0.077   0.804  0.00  0.00    -0.526 OA
ATOM      8  H5  UNL d   1      -1.229   0.078   0.949  0.00  0.00     0.418 HD
ENDBRANCH   4   7
TORSDOF 1
ENDMDL
