MODEL 1
REMARK minimizedAffinity 0.739449859
REMARK minimizedRMSD -1
REMARK  1 active torsions:
REMARK  status: ('A' for Active; 'I' for Inactive)
REMARK    1  A    between atoms: C3_4  and  O_7 
ROOT
ATOM      1  C   UNL d   1      -2.693  -5.399   0.758  0.00  0.00    -0.033 A 
ATOM      2  C1  UNL d   1      -3.437  -4.336   0.241  0.00  0.00     0.039 A 
ATOM      3  C2  UNL d   1      -2.813  -3.123  -0.055  0.00  0.00    -0.080 A 
ATOM      4  C3  UNL d   1      -1.446  -2.986   0.170  0.00  0.00     0.150 A 
ATOM      5  C4  UNL d   1      -0.698  -4.041   0.682  0.00  0.00    -0.007 A 
ATOM      6  C5  UNL d   1      -1.323  -5.251   0.977  0.00  0.00     0.039 A 
ENDROOT
BRANCH   4   7
ATOM      7  O   UNL d   1      -0.793  -1.819  -0.099  0.00  0.00    -0.526 OA
ATOM      8  H5  UNL d   1      -1.442  -1.170  -0.419  0.00  0.00     0.418 HD
ENDBRANCH   4   7
TORSDOF 1
ENDMDL
