MODEL 1
REMARK minimizedAffinity 10.904954
REMARK minimizedRMSD -1
REMARK  1 active torsions:
REMARK  status: ('A' for Active; 'I' for Inactive)
REMARK    1  A    between atoms: C3_4  and  O_7 
ROOT
ATOM      1  C   UNL d   1       5.922  -0.832   3.458  0.00  0.00    -0.033 A 
ATOM      2  C1  UNL d   1       5.968  -0.003   2.336  0.00  0.00     0.039 A 
ATOM      3  C2  UNL d   1       5.995   1.385   2.492  0.00  0.00    -0.080 A 
ATOM      4  C3  UNL d   1       5.977   1.929   3.773  0.00  0.00     0.150 A 
ATOM      5  C4  UNL d   1       5.935   1.108   4.896  0.00  0.00    -0.007 A 
ATOM      6  C5  UNL d   1       5.906  -0.277   4.738  0.00  0.00     0.039 A 
ENDROOT
BRANCH   4   7
ATOM      7  O   UNL d   1       5.997   3.277   3.975  0.00  0.00    -0.526 OA
ATOM      8  H5  UNL d   1       5.997   3.718   3.109  0.00  0.00     0.418 HD
ENDBRANCH   4   7
TORSDOF 1
ENDMDL
