MODEL 1
REMARK minimizedAffinity 7.04742956
REMARK minimizedRMSD -1
REMARK  1 active torsions:
REMARK  status: ('A' for Active; 'I' for Inactive)
REMARK    1  A    between atoms: C3_4  and  O_7 
ROOT
ATOM      1  C   UNL d   1      -4.088  -1.839   4.837  0.00  0.00    -0.033 A 
ATOM      2  C1  UNL d   1      -3.024  -1.352   5.599  0.00  0.00     0.039 A 
ATOM      3  C2  UNL d   1      -3.004  -0.015   6.000  0.00  0.00    -0.080 A 
ATOM      4  C3  UNL d   1      -4.052   0.824   5.632  0.00  0.00     0.150 A 
ATOM      5  C4  UNL d   1      -5.117   0.346   4.875  0.00  0.00    -0.007 A 
ATOM      6  C5  UNL d   1      -5.135  -0.990   4.476  0.00  0.00     0.039 A 
ENDROOT
BRANCH   4   7
ATOM      7  O   UNL d   1      -4.074   2.138   5.995  0.00  0.00    -0.526 OA
ATOM      8  H5  UNL d   1      -3.261   2.334   6.489  0.00  0.00     0.418 HD
ENDBRANCH   4   7
TORSDOF 1
ENDMDL
