MODEL 1
REMARK minimizedAffinity -2.21464324
REMARK minimizedRMSD -1
REMARK  0 active torsions:
REMARK  status: ('A' for Active; 'I' for Inactive)
ROOT
ATOM      1  C   UNL d   1       0.039  -2.868  -1.402  0.00  0.00     0.023 A 
ATOM      2  C1  UNL d   1      -0.872  -1.864  -1.733  0.00  0.00     0.003 A 
ATOM      3  C2  UNL d   1      -0.633  -0.546  -1.342  0.00  0.00     0.048 A 
ATOM      4  C3  UNL d   1       0.519  -0.236  -0.620  0.00  0.00     0.023 A 
ATOM      5  C4  UNL d   1       1.434  -1.237  -0.287  0.00  0.00     0.048 A 
ATOM      6  C5  UNL d   1       1.191  -2.554  -0.680  0.00  0.00     0.003 A 
ATOM      7  I   UNL d   1       0.877   1.726  -0.036  0.00  0.00    -0.146 I 
ENDROOT
TORSDOF 0
ENDMDL
