MODEL 1
REMARK minimizedAffinity 8.40717125
REMARK minimizedRMSD -1
REMARK  0 active torsions:
REMARK  status: ('A' for Active; 'I' for Inactive)
ROOT
ATOM      1  C   UNL d   1       5.268   2.680   4.610  0.00  0.00     0.023 A 
ATOM      2  C1  UNL d   1       4.441   1.766   5.262  0.00  0.00     0.003 A 
ATOM      3  C2  UNL d   1       3.274   1.313   4.644  0.00  0.00     0.048 A 
ATOM      4  C3  UNL d   1       2.940   1.778   3.373  0.00  0.00     0.023 A 
ATOM      5  C4  UNL d   1       3.765   2.692   2.715  0.00  0.00     0.048 A 
ATOM      6  C5  UNL d   1       4.930   3.143   3.338  0.00  0.00     0.003 A 
ATOM      7  I   UNL d   1       1.203   1.106   2.450  0.00  0.00    -0.146 I 
ENDROOT
TORSDOF 0
ENDMDL
