MODEL 1
REMARK minimizedAffinity 1.79971421
REMARK minimizedRMSD -1
REMARK  0 active torsions:
REMARK  status: ('A' for Active; 'I' for Inactive)
ROOT
ATOM      1  C   UNL d   1      -0.501  -1.569  -0.487  0.00  0.00     0.023 A 
ATOM      2  C1  UNL d   1       0.618  -2.391  -0.621  0.00  0.00     0.003 A 
ATOM      3  C2  UNL d   1       1.891  -1.827  -0.731  0.00  0.00     0.048 A 
ATOM      4  C3  UNL d   1       2.038  -0.441  -0.703  0.00  0.00     0.023 A 
ATOM      5  C4  UNL d   1       0.922   0.386  -0.568  0.00  0.00     0.048 A 
ATOM      6  C5  UNL d   1      -0.349  -0.182  -0.460  0.00  0.00     0.003 A 
ATOM      7  I   UNL d   1       3.932   0.400  -0.866  0.00  0.00    -0.146 I 
ENDROOT
TORSDOF 0
ENDMDL
