MODEL 1
REMARK minimizedAffinity -0.66130507
REMARK minimizedRMSD -1
REMARK  0 active torsions:
REMARK  status: ('A' for Active; 'I' for Inactive)
ROOT
ATOM      1  C   UNL d   1       4.369  -1.496  -2.446  0.00  0.00     0.023 A 
ATOM      2  C1  UNL d   1       4.112  -0.260  -1.852  0.00  0.00     0.003 A 
ATOM      3  C2  UNL d   1       2.907  -0.043  -1.182  0.00  0.00     0.048 A 
ATOM      4  C3  UNL d   1       1.963  -1.067  -1.109  0.00  0.00     0.023 A 
ATOM      5  C4  UNL d   1       2.216  -2.306  -1.701  0.00  0.00     0.048 A 
ATOM      6  C5  UNL d   1       3.422  -2.517  -2.371  0.00  0.00     0.003 A 
ATOM      7  I   UNL d   1       0.167  -0.747  -0.112  0.00  0.00    -0.146 I 
ENDROOT
TORSDOF 0
ENDMDL
