MODEL 1
REMARK minimizedAffinity 0.0835134834
REMARK minimizedRMSD -1
REMARK  0 active torsions:
REMARK  status: ('A' for Active; 'I' for Inactive)
ROOT
ATOM      1  C   UNL d   1       0.812  -1.748  -0.630  0.00  0.00     0.023 A 
ATOM      2  C1  UNL d   1       1.974  -2.475  -0.889  0.00  0.00     0.003 A 
ATOM      3  C2  UNL d   1       3.176  -1.809  -1.136  0.00  0.00     0.048 A 
ATOM      4  C3  UNL d   1       3.209  -0.415  -1.121  0.00  0.00     0.023 A 
ATOM      5  C4  UNL d   1       2.049   0.317  -0.861  0.00  0.00     0.048 A 
ATOM      6  C5  UNL d   1       0.849  -0.354  -0.616  0.00  0.00     0.003 A 
ATOM      7  I   UNL d   1       4.997   0.579  -1.488  0.00  0.00    -0.146 I 
ENDROOT
TORSDOF 0
ENDMDL
