MODEL 1
REMARK minimizedAffinity -1.14127183
REMARK minimizedRMSD -1
REMARK  0 active torsions:
REMARK  status: ('A' for Active; 'I' for Inactive)
ROOT
ATOM      1  C   UNL d   1       4.953  -1.006  -2.393  0.00  0.00     0.023 A 
ATOM      2  C1  UNL d   1       4.658   0.264  -1.898  0.00  0.00     0.003 A 
ATOM      3  C2  UNL d   1       3.417   0.515  -1.309  0.00  0.00     0.048 A 
ATOM      4  C3  UNL d   1       2.476  -0.510  -1.217  0.00  0.00     0.023 A 
ATOM      5  C4  UNL d   1       2.767  -1.783  -1.709  0.00  0.00     0.048 A 
ATOM      6  C5  UNL d   1       4.009  -2.029  -2.298  0.00  0.00     0.003 A 
ATOM      7  I   UNL d   1       0.629  -0.140  -0.340  0.00  0.00    -0.146 I 
ENDROOT
TORSDOF 0
ENDMDL
