MODEL 1
REMARK minimizedAffinity 1.37932849
REMARK minimizedRMSD -1
REMARK  0 active torsions:
REMARK  status: ('A' for Active; 'I' for Inactive)
ROOT
ATOM      1  C   UNL d   1       4.724  -0.144  -1.654  0.00  0.00     0.023 A 
ATOM      2  C1  UNL d   1       4.006   1.028  -1.414  0.00  0.00     0.003 A 
ATOM      3  C2  UNL d   1       2.632   0.970  -1.174  0.00  0.00     0.048 A 
ATOM      4  C3  UNL d   1       1.982  -0.264  -1.174  0.00  0.00     0.023 A 
ATOM      5  C4  UNL d   1       2.696  -1.439  -1.413  0.00  0.00     0.048 A 
ATOM      6  C5  UNL d   1       4.070  -1.376  -1.653  0.00  0.00     0.003 A 
ATOM      7  I   UNL d   1      -0.064  -0.353  -0.817  0.00  0.00    -0.146 I 
ENDROOT
TORSDOF 0
ENDMDL
