MODEL 1
REMARK minimizedAffinity 5.00788307
REMARK minimizedRMSD -1
REMARK  0 active torsions:
REMARK  status: ('A' for Active; 'I' for Inactive)
ROOT
ATOM      1  C   UNL d   1       0.097  -1.569  -0.850  0.00  0.00     0.023 A 
ATOM      2  C1  UNL d   1       1.271  -2.284  -1.092  0.00  0.00     0.003 A 
ATOM      3  C2  UNL d   1       2.486  -1.609  -1.223  0.00  0.00     0.048 A 
ATOM      4  C3  UNL d   1       2.522  -0.220  -1.110  0.00  0.00     0.023 A 
ATOM      5  C4  UNL d   1       1.351   0.500  -0.868  0.00  0.00     0.048 A 
ATOM      6  C5  UNL d   1       0.137  -0.179  -0.738  0.00  0.00     0.003 A 
ATOM      7  I   UNL d   1       4.330   0.786  -1.304  0.00  0.00    -0.146 I 
ENDROOT
TORSDOF 0
ENDMDL
