MODEL 1
REMARK minimizedAffinity -3.77454305
REMARK minimizedRMSD -1
REMARK  1 active torsions:
REMARK  status: ('A' for Active; 'I' for Inactive)
REMARK    1  A    between atoms: C1_2  and  C2_3 
ROOT
ATOM      1  C2  UNL d   1       0.370  -0.011  -1.773  0.00  0.00    -0.081 A 
ATOM      2  C3  UNL d   1      -0.366   1.116  -1.390  0.00  0.00     0.006 A 
ATOM      3  C4  UNL d   1      -0.919   1.199  -0.109  0.00  0.00     0.002 A 
ATOM      4  C5  UNL d   1      -0.738   0.160   0.810  0.00  0.00    -0.080 A 
ATOM      5  C6  UNL d   1      -1.300   0.250   2.198  0.00  0.00     0.076 C 
ATOM      6  C7  UNL d   1      -0.016  -0.974   0.421  0.00  0.00     0.002 A 
ATOM      7  C8  UNL d   1       0.536  -1.057  -0.859  0.00  0.00     0.006 A 
ENDROOT
BRANCH   1   8
ATOM      8  C1  UNL d   1       1.022  -0.075  -3.131  0.00  0.00     0.054 C 
ATOM      9  C   UNL d   1       0.500  -1.254  -3.941  0.00  0.00     0.018 C 
ENDBRANCH   1   8
TORSDOF 1
ENDMDL
