MODEL 1
REMARK minimizedAffinity -3.65229154
REMARK minimizedRMSD -1
REMARK  1 active torsions:
REMARK  status: ('A' for Active; 'I' for Inactive)
REMARK    1  A    between atoms: C1_2  and  C2_3 
ROOT
ATOM      1  C2  UNL d   1      -1.047   0.259   1.224  0.00  0.00    -0.081 A 
ATOM      2  C3  UNL d   1       0.328   0.384   0.986  0.00  0.00     0.006 A 
ATOM      3  C4  UNL d   1       0.826   0.360  -0.319  0.00  0.00     0.002 A 
ATOM      4  C5  UNL d   1      -0.042   0.219  -1.407  0.00  0.00    -0.080 A 
ATOM      5  C6  UNL d   1       0.477   0.222  -2.814  0.00  0.00     0.076 C 
ATOM      6  C7  UNL d   1      -1.413   0.076  -1.169  0.00  0.00     0.002 A 
ATOM      7  C8  UNL d   1      -1.912   0.099   0.136  0.00  0.00     0.006 A 
ENDROOT
BRANCH   1   8
ATOM      8  C1  UNL d   1      -1.593   0.349   2.626  0.00  0.00     0.054 C 
ATOM      9  C   UNL d   1      -0.744   1.268   3.493  0.00  0.00     0.018 C 
ENDBRANCH   1   8
TORSDOF 1
ENDMDL
