MODEL 1
REMARK minimizedAffinity 0.592207968
REMARK minimizedRMSD -1
REMARK  1 active torsions:
REMARK  status: ('A' for Active; 'I' for Inactive)
REMARK    1  A    between atoms: C1_2  and  C2_3 
ROOT
ATOM      1  C2  UNL d   1       0.174   0.023  -1.775  0.00  0.00    -0.081 A 
ATOM      2  C3  UNL d   1      -1.025   0.744  -1.831  0.00  0.00     0.006 A 
ATOM      3  C4  UNL d   1      -1.811   0.901  -0.686  0.00  0.00     0.002 A 
ATOM      4  C5  UNL d   1      -1.407   0.349   0.534  0.00  0.00    -0.080 A 
ATOM      5  C6  UNL d   1      -2.225   0.536   1.776  0.00  0.00     0.076 C 
ATOM      6  C7  UNL d   1      -0.217  -0.386   0.586  0.00  0.00     0.002 A 
ATOM      7  C8  UNL d   1       0.568  -0.545  -0.558  0.00  0.00     0.006 A 
ENDROOT
BRANCH   1   8
ATOM      8  C1  UNL d   1       1.056  -0.094  -2.992  0.00  0.00     0.054 C 
ATOM      9  C   UNL d   1       0.229  -0.224  -4.263  0.00  0.00     0.018 C 
ENDBRANCH   1   8
TORSDOF 1
ENDMDL
