MODEL 1
REMARK minimizedAffinity -1.91675758
REMARK minimizedRMSD -1
REMARK  1 active torsions:
REMARK  status: ('A' for Active; 'I' for Inactive)
REMARK    1  A    between atoms: C1_2  and  C2_3 
ROOT
ATOM      1  C2  UNL d   1       0.060  -0.093  -1.459  0.00  0.00    -0.081 A 
ATOM      2  C3  UNL d   1      -1.112   0.639  -1.233  0.00  0.00     0.006 A 
ATOM      3  C4  UNL d   1      -1.579   0.845   0.067  0.00  0.00     0.002 A 
ATOM      4  C5  UNL d   1      -0.878   0.330   1.163  0.00  0.00    -0.080 A 
ATOM      5  C6  UNL d   1      -1.352   0.570   2.566  0.00  0.00     0.076 C 
ATOM      6  C7  UNL d   1       0.284  -0.415   0.937  0.00  0.00     0.002 A 
ATOM      7  C8  UNL d   1       0.751  -0.622  -0.363  0.00  0.00     0.006 A 
ENDROOT
BRANCH   1   8
ATOM      8  C1  UNL d   1       0.601  -0.262  -2.856  0.00  0.00     0.054 C 
ATOM      9  C   UNL d   1      -0.501  -0.644  -3.833  0.00  0.00     0.018 C 
ENDBRANCH   1   8
TORSDOF 1
ENDMDL
