MODEL 1
REMARK minimizedAffinity -3.35507536
REMARK minimizedRMSD -1
REMARK  1 active torsions:
REMARK  status: ('A' for Active; 'I' for Inactive)
REMARK    1  A    between atoms: C1_2  and  C2_3 
ROOT
ATOM      1  C2  UNL d   1       0.686   0.033  -2.055  0.00  0.00    -0.081 A 
ATOM      2  C3  UNL d   1       0.511  -1.078  -1.222  0.00  0.00     0.006 A 
ATOM      3  C4  UNL d   1      -0.222  -0.967  -0.038  0.00  0.00     0.002 A 
ATOM      4  C5  UNL d   1      -0.798   0.254   0.329  0.00  0.00    -0.080 A 
ATOM      5  C6  UNL d   1      -1.612   0.380   1.582  0.00  0.00     0.076 C 
ATOM      6  C7  UNL d   1      -0.609   1.369  -0.496  0.00  0.00     0.002 A 
ATOM      7  C8  UNL d   1       0.124   1.258  -1.679  0.00  0.00     0.006 A 
ENDROOT
BRANCH   1   8
ATOM      8  C1  UNL d   1       1.420  -0.100  -3.365  0.00  0.00     0.054 C 
ATOM      9  C   UNL d   1       0.851   0.843  -4.416  0.00  0.00     0.018 C 
ENDBRANCH   1   8
TORSDOF 1
ENDMDL
