MODEL 1
REMARK minimizedAffinity -4.5815959
REMARK minimizedRMSD -1
REMARK  1 active torsions:
REMARK  status: ('A' for Active; 'I' for Inactive)
REMARK    1  A    between atoms: C1_2  and  C2_3 
ROOT
ATOM      1  C2  UNL d   1       0.381   0.140  -1.870  0.00  0.00    -0.081 A 
ATOM      2  C3  UNL d   1       0.775  -0.751  -0.864  0.00  0.00     0.006 A 
ATOM      3  C4  UNL d   1       0.138  -0.742   0.380  0.00  0.00     0.002 A 
ATOM      4  C5  UNL d   1      -0.908   0.152   0.635  0.00  0.00    -0.080 A 
ATOM      5  C6  UNL d   1      -1.620   0.151   1.955  0.00  0.00     0.076 C 
ATOM      6  C7  UNL d   1      -1.290   1.053  -0.364  0.00  0.00     0.002 A 
ATOM      7  C8  UNL d   1      -0.653   1.045  -1.607  0.00  0.00     0.006 A 
ENDROOT
BRANCH   1   8
ATOM      8  C1  UNL d   1       1.022   0.089  -3.233  0.00  0.00     0.054 C 
ATOM      9  C   UNL d   1       2.459   0.590  -3.188  0.00  0.00     0.018 C 
ENDBRANCH   1   8
TORSDOF 1
ENDMDL
