MODEL 1
REMARK minimizedAffinity -0.835450947
REMARK minimizedRMSD -1
REMARK  1 active torsions:
REMARK  status: ('A' for Active; 'I' for Inactive)
REMARK    1  A    between atoms: C1_2  and  C2_3 
ROOT
ATOM      1  C2  UNL d   1       0.049  -0.192  -1.550  0.00  0.00    -0.081 A 
ATOM      2  C3  UNL d   1      -0.926   0.802  -1.406  0.00  0.00     0.006 A 
ATOM      3  C4  UNL d   1      -1.523   1.034  -0.164  0.00  0.00     0.002 A 
ATOM      4  C5  UNL d   1      -1.149   0.282   0.954  0.00  0.00    -0.080 A 
ATOM      5  C6  UNL d   1      -1.760   0.541   2.299  0.00  0.00     0.076 C 
ATOM      6  C7  UNL d   1      -0.188  -0.723   0.807  0.00  0.00     0.002 A 
ATOM      7  C8  UNL d   1       0.409  -0.956  -0.434  0.00  0.00     0.006 A 
ENDROOT
BRANCH   1   8
ATOM      8  C1  UNL d   1       0.741  -0.402  -2.873  0.00  0.00     0.054 C 
ATOM      9  C   UNL d   1      -0.215  -0.188  -4.037  0.00  0.00     0.018 C 
ENDBRANCH   1   8
TORSDOF 1
ENDMDL
