MODEL 1
REMARK minimizedAffinity -0.161126569
REMARK minimizedRMSD -1
REMARK  1 active torsions:
REMARK  status: ('A' for Active; 'I' for Inactive)
REMARK    1  A    between atoms: C1_2  and  C2_3 
ROOT
ATOM      1  C2  UNL d   1       0.168  -0.266  -2.189  0.00  0.00    -0.081 A 
ATOM      2  C3  UNL d   1      -1.175   0.124  -2.122  0.00  0.00     0.006 A 
ATOM      3  C4  UNL d   1      -1.836   0.181  -0.893  0.00  0.00     0.002 A 
ATOM      4  C5  UNL d   1      -1.163  -0.144   0.290  0.00  0.00    -0.080 A 
ATOM      5  C6  UNL d   1      -1.852  -0.059   1.620  0.00  0.00     0.076 C 
ATOM      6  C7  UNL d   1       0.174  -0.551   0.222  0.00  0.00     0.002 A 
ATOM      7  C8  UNL d   1       0.834  -0.609  -1.008  0.00  0.00     0.006 A 
ENDROOT
BRANCH   1   8
ATOM      8  C1  UNL d   1       0.901  -0.266  -3.506  0.00  0.00     0.054 C 
ATOM      9  C   UNL d   1       0.058   0.358  -4.609  0.00  0.00     0.018 C 
ENDBRANCH   1   8
TORSDOF 1
ENDMDL
