MODEL 1
REMARK minimizedAffinity -4.3496623
REMARK minimizedRMSD -1
REMARK  1 active torsions:
REMARK  status: ('A' for Active; 'I' for Inactive)
REMARK    1  A    between atoms: C1_2  and  C2_3 
ROOT
ATOM      1  C2  UNL d   1       0.337   0.118  -1.794  0.00  0.00    -0.081 A 
ATOM      2  C3  UNL d   1      -0.305   1.290  -1.377  0.00  0.00     0.006 A 
ATOM      3  C4  UNL d   1      -0.904   1.360  -0.117  0.00  0.00     0.002 A 
ATOM      4  C5  UNL d   1      -0.864   0.263   0.750  0.00  0.00    -0.080 A 
ATOM      5  C6  UNL d   1      -1.476   0.335   2.117  0.00  0.00     0.076 C 
ATOM      6  C7  UNL d   1      -0.237  -0.914   0.327  0.00  0.00     0.002 A 
ATOM      7  C8  UNL d   1       0.361  -0.985  -0.933  0.00  0.00     0.006 A 
ENDROOT
BRANCH   1   8
ATOM      8  C1  UNL d   1       1.039   0.061  -3.126  0.00  0.00     0.054 C 
ATOM      9  C   UNL d   1       2.378   0.784  -3.078  0.00  0.00     0.018 C 
ENDBRANCH   1   8
TORSDOF 1
ENDMDL
