MODEL 1
REMARK minimizedAffinity -4.14879227
REMARK minimizedRMSD -1
REMARK  1 active torsions:
REMARK  status: ('A' for Active; 'I' for Inactive)
REMARK    1  A    between atoms: C1_2  and  C2_3 
ROOT
ATOM      1  C2  UNL d   1      -0.012  -0.705  -0.262  0.00  0.00    -0.081 A 
ATOM      2  C3  UNL d   1       1.202  -1.059   0.339  0.00  0.00     0.006 A 
ATOM      3  C4  UNL d   1       1.381  -0.907   1.717  0.00  0.00     0.002 A 
ATOM      4  C5  UNL d   1       0.347  -0.407   2.516  0.00  0.00    -0.080 A 
ATOM      5  C6  UNL d   1       0.516  -0.268   4.000  0.00  0.00     0.076 C 
ATOM      6  C7  UNL d   1      -0.860  -0.037   1.912  0.00  0.00     0.002 A 
ATOM      7  C8  UNL d   1      -1.039  -0.188   0.536  0.00  0.00     0.006 A 
ENDROOT
BRANCH   1   8
ATOM      8  C1  UNL d   1      -0.230  -0.928  -1.737  0.00  0.00     0.054 C 
ATOM      9  C   UNL d   1       0.308   0.236  -2.558  0.00  0.00     0.018 C 
ENDBRANCH   1   8
TORSDOF 1
ENDMDL
