MODEL 1
REMARK minimizedAffinity -1.15400314
REMARK minimizedRMSD -1
REMARK  1 active torsions:
REMARK  status: ('A' for Active; 'I' for Inactive)
REMARK    1  A    between atoms: N_2  and  C1_3 
ROOT
ATOM      1  C1  UNL d   1      -1.385   0.948  -1.669  0.00  0.00     0.143 A 
ATOM      2  C2  UNL d   1      -0.275   0.105  -1.550  0.00  0.00    -0.057 A 
ATOM      3  C3  UNL d   1       0.492   0.077  -0.379  0.00  0.00     0.033 A 
ATOM      4  C4  UNL d   1       0.179   0.916   0.685  0.00  0.00    -0.042 A 
ATOM      5  C5  UNL d   1      -0.905   1.781   0.579  0.00  0.00     0.033 A 
ATOM      6  C6  UNL d   1      -1.671   1.799  -0.590  0.00  0.00    -0.057 A 
ENDROOT
BRANCH   1   7
ATOM      7  N   UNL d   1      -2.129   1.093  -2.843  0.00  0.00    -0.732 N 
ATOM      8  C   UNL d   1      -1.557   1.745  -4.002  0.00  0.00     0.284 C 
ATOM      9  H3  UNL d   1      -2.677   0.264  -3.061  0.00  0.00     0.395 HD
ENDBRANCH   1   7
TORSDOF 1
ENDMDL
