MODEL 1
REMARK minimizedAffinity -2.46661973
REMARK minimizedRMSD -1
REMARK  1 active torsions:
REMARK  status: ('A' for Active; 'I' for Inactive)
REMARK    1  A    between atoms: N_2  and  C1_3 
ROOT
ATOM      1  C1  UNL d   1      -1.173   1.648  -1.109  0.00  0.00     0.143 A 
ATOM      2  C2  UNL d   1      -0.901   2.566  -2.129  0.00  0.00    -0.057 A 
ATOM      3  C3  UNL d   1      -1.833   2.825  -3.142  0.00  0.00     0.033 A 
ATOM      4  C4  UNL d   1      -3.047   2.146  -3.168  0.00  0.00    -0.042 A 
ATOM      5  C5  UNL d   1      -3.329   1.211  -2.178  0.00  0.00     0.033 A 
ATOM      6  C6  UNL d   1      -2.396   0.962  -1.166  0.00  0.00    -0.057 A 
ENDROOT
BRANCH   1   7
ATOM      7  N   UNL d   1      -0.248   1.275  -0.131  0.00  0.00    -0.732 N 
ATOM      8  C   UNL d   1       0.561   0.087  -0.297  0.00  0.00     0.284 C 
ATOM      9  H3  UNL d   1       0.256   2.072   0.250  0.00  0.00     0.395 HD
ENDBRANCH   1   7
TORSDOF 1
ENDMDL
