MODEL 1
REMARK minimizedAffinity -2.13568711
REMARK minimizedRMSD -1
REMARK  1 active torsions:
REMARK  status: ('A' for Active; 'I' for Inactive)
REMARK    1  A    between atoms: N_2  and  C1_3 
ROOT
ATOM      1  C1  UNL d   1      -0.205   0.385  -0.315  0.00  0.00     0.143 A 
ATOM      2  C2  UNL d   1       1.044  -0.199  -0.553  0.00  0.00    -0.057 A 
ATOM      3  C3  UNL d   1       1.586  -1.139   0.331  0.00  0.00     0.033 A 
ATOM      4  C4  UNL d   1       0.900  -1.491   1.489  0.00  0.00    -0.042 A 
ATOM      5  C5  UNL d   1      -0.332  -0.905   1.758  0.00  0.00     0.033 A 
ATOM      6  C6  UNL d   1      -0.871   0.028   0.868  0.00  0.00    -0.057 A 
ENDROOT
BRANCH   1   7
ATOM      7  N   UNL d   1      -0.753   1.399  -1.105  0.00  0.00    -0.732 N 
ATOM      8  C   UNL d   1      -1.196   1.123  -2.455  0.00  0.00     0.284 C 
ATOM      9  H3  UNL d   1      -1.377   2.007  -0.579  0.00  0.00     0.395 HD
ENDBRANCH   1   7
TORSDOF 1
ENDMDL
