MODEL 1
REMARK minimizedAffinity 3.3705523
REMARK minimizedRMSD -1
REMARK  1 active torsions:
REMARK  status: ('A' for Active; 'I' for Inactive)
REMARK    1  A    between atoms: N_2  and  C1_3 
ROOT
ATOM      1  C1  UNL d   1      -0.316   0.046   1.132  0.00  0.00     0.143 A 
ATOM      2  C2  UNL d   1      -0.305  -1.316   1.453  0.00  0.00    -0.057 A 
ATOM      3  C3  UNL d   1       0.878  -2.063   1.410  0.00  0.00     0.033 A 
ATOM      4  C4  UNL d   1       2.071  -1.465   1.015  0.00  0.00    -0.042 A 
ATOM      5  C5  UNL d   1       2.079  -0.119   0.668  0.00  0.00     0.033 A 
ATOM      6  C6  UNL d   1       0.895   0.623   0.719  0.00  0.00    -0.057 A 
ENDROOT
BRANCH   1   7
ATOM      7  N   UNL d   1      -1.478   0.819   1.061  0.00  0.00    -0.732 N 
ATOM      8  C   UNL d   1      -2.415   0.642  -0.028  0.00  0.00     0.284 C 
ATOM      9  H3  UNL d   1      -1.916   0.946   1.970  0.00  0.00     0.395 HD
ENDBRANCH   1   7
TORSDOF 1
ENDMDL
