MODEL 1
REMARK minimizedAffinity -1.93824291
REMARK minimizedRMSD -1
REMARK  1 active torsions:
REMARK  status: ('A' for Active; 'I' for Inactive)
REMARK    1  A    between atoms: N_2  and  C1_3 
ROOT
ATOM      1  C1  UNL d   1      -1.109   1.104  -1.261  0.00  0.00     0.143 A 
ATOM      2  C2  UNL d   1      -0.584   1.242  -2.551  0.00  0.00    -0.057 A 
ATOM      3  C3  UNL d   1      -1.408   1.546  -3.641  0.00  0.00     0.033 A 
ATOM      4  C4  UNL d   1      -2.780   1.689  -3.466  0.00  0.00    -0.042 A 
ATOM      5  C5  UNL d   1      -3.327   1.532  -2.197  0.00  0.00     0.033 A 
ATOM      6  C6  UNL d   1      -2.499   1.235  -1.111  0.00  0.00    -0.057 A 
ENDROOT
BRANCH   1   7
ATOM      7  N   UNL d   1      -0.357   0.706  -0.154  0.00  0.00    -0.732 N 
ATOM      8  C   UNL d   1       0.756  -0.206  -0.308  0.00  0.00     0.284 C 
ATOM      9  H3  UNL d   1      -0.181   1.472   0.492  0.00  0.00     0.395 HD
ENDBRANCH   1   7
TORSDOF 1
ENDMDL
