MODEL 1
REMARK minimizedAffinity -4.45758581
REMARK minimizedRMSD -1
REMARK  1 active torsions:
REMARK  status: ('A' for Active; 'I' for Inactive)
REMARK    1  A    between atoms: N_2  and  C1_3 
ROOT
ATOM      1  C1  UNL d   1       1.165  -0.878   0.534  0.00  0.00     0.143 A 
ATOM      2  C2  UNL d   1       1.870  -1.633   1.477  0.00  0.00    -0.057 A 
ATOM      3  C3  UNL d   1       1.252  -2.094   2.646  0.00  0.00     0.033 A 
ATOM      4  C4  UNL d   1      -0.078  -1.782   2.907  0.00  0.00    -0.042 A 
ATOM      5  C5  UNL d   1      -0.791  -1.011   1.995  0.00  0.00     0.033 A 
ATOM      6  C6  UNL d   1      -0.170  -0.559   0.827  0.00  0.00    -0.057 A 
ENDROOT
BRANCH   1   7
ATOM      7  N   UNL d   1       1.750  -0.307  -0.599  0.00  0.00    -0.732 N 
ATOM      8  C   UNL d   1       1.858   1.130  -0.729  0.00  0.00     0.284 C 
ATOM      9  H3  UNL d   1       2.576  -0.816  -0.908  0.00  0.00     0.395 HD
ENDBRANCH   1   7
TORSDOF 1
ENDMDL
