MODEL 1
REMARK minimizedAffinity -4.26177359
REMARK minimizedRMSD -1
REMARK  1 active torsions:
REMARK  status: ('A' for Active; 'I' for Inactive)
REMARK    1  A    between atoms: N_2  and  C1_3 
ROOT
ATOM      1  C1  UNL d   1      -0.920   0.549  -0.849  0.00  0.00     0.143 A 
ATOM      2  C2  UNL d   1      -1.762  -0.256  -1.624  0.00  0.00    -0.057 A 
ATOM      3  C3  UNL d   1      -2.606   0.298  -2.594  0.00  0.00     0.033 A 
ATOM      4  C4  UNL d   1      -2.644   1.675  -2.787  0.00  0.00    -0.042 A 
ATOM      5  C5  UNL d   1      -1.834   2.497  -2.011  0.00  0.00     0.033 A 
ATOM      6  C6  UNL d   1      -0.988   1.937  -1.049  0.00  0.00    -0.057 A 
ENDROOT
BRANCH   1   7
ATOM      7  N   UNL d   1      -0.131   0.067   0.198  0.00  0.00    -0.732 N 
ATOM      8  C   UNL d   1       1.286  -0.158   0.010  0.00  0.00     0.284 C 
ATOM      9  H3  UNL d   1      -0.369   0.492   1.091  0.00  0.00     0.395 HD
ENDBRANCH   1   7
TORSDOF 1
ENDMDL
