MODEL 1
REMARK minimizedAffinity 0.0312330462
REMARK minimizedRMSD -1
REMARK  1 active torsions:
REMARK  status: ('A' for Active; 'I' for Inactive)
REMARK    1  A    between atoms: C1_2  and  C2_3 
ROOT
ATOM      1  C2  UNL d   1       1.998  -3.582   3.051  0.00  0.00    -0.077 A 
ATOM      2  C3  UNL d   1       2.059  -2.626   4.075  0.00  0.00     0.002 A 
ATOM      3  C4  UNL d   1       1.615  -1.321   3.850  0.00  0.00     0.002 A 
ATOM      4  C5  UNL d   1       1.105  -0.962   2.605  0.00  0.00    -0.004 A 
ATOM      5  C6  UNL d   1       1.043  -1.905   1.579  0.00  0.00     0.002 A 
ATOM      6  C7  UNL d   1       1.486  -3.209   1.802  0.00  0.00     0.002 A 
ENDROOT
BRANCH   1   7
ATOM      7  C1  UNL d   1       2.430  -5.003   3.307  0.00  0.00     0.055 C 
ATOM      8  C   UNL d   1       1.856  -5.529   4.614  0.00  0.00     0.019 C 
ENDBRANCH   1   7
TORSDOF 1
ENDMDL
