MODEL 1
REMARK minimizedAffinity 9.94347668
REMARK minimizedRMSD -1
REMARK  1 active torsions:
REMARK  status: ('A' for Active; 'I' for Inactive)
REMARK    1  A    between atoms: C1_2  and  C2_3 
ROOT
ATOM      1  C2  UNL d   1      -5.262  -3.240  -4.653  0.00  0.00    -0.077 A 
ATOM      2  C3  UNL d   1      -4.523  -4.122  -3.853  0.00  0.00     0.002 A 
ATOM      3  C4  UNL d   1      -4.524  -5.492  -4.123  0.00  0.00     0.002 A 
ATOM      4  C5  UNL d   1      -5.259  -5.991  -5.197  0.00  0.00    -0.004 A 
ATOM      5  C6  UNL d   1      -5.999  -5.122  -5.998  0.00  0.00     0.002 A 
ATOM      6  C7  UNL d   1      -5.999  -3.753  -5.728  0.00  0.00     0.002 A 
ENDROOT
BRANCH   1   7
ATOM      7  C1  UNL d   1      -5.222  -1.757  -4.393  0.00  0.00     0.055 C 
ATOM      8  C   UNL d   1      -4.711  -1.455  -2.992  0.00  0.00     0.019 C 
ENDBRANCH   1   7
TORSDOF 1
ENDMDL
