MODEL 1
REMARK minimizedAffinity 2.15072203
REMARK minimizedRMSD -1
REMARK  1 active torsions:
REMARK  status: ('A' for Active; 'I' for Inactive)
REMARK    1  A    between atoms: C1_2  and  C2_3 
ROOT
ATOM      1  C2  UNL d   1      -5.232  -3.648  -3.696  0.00  0.00    -0.077 A 
ATOM      2  C3  UNL d   1      -5.636  -2.967  -4.853  0.00  0.00     0.002 A 
ATOM      3  C4  UNL d   1      -5.997  -3.677  -6.000  0.00  0.00     0.002 A 
ATOM      4  C5  UNL d   1      -5.962  -5.070  -6.000  0.00  0.00    -0.004 A 
ATOM      5  C6  UNL d   1      -5.559  -5.756  -4.855  0.00  0.00     0.002 A 
ATOM      6  C7  UNL d   1      -5.197  -5.049  -3.707  0.00  0.00     0.002 A 
ENDROOT
BRANCH   1   7
ATOM      7  C1  UNL d   1      -4.890  -2.887  -2.442  0.00  0.00     0.055 C 
ATOM      8  C   UNL d   1      -4.448  -3.824  -1.328  0.00  0.00     0.019 C 
ENDBRANCH   1   7
TORSDOF 1
ENDMDL
