MODEL 1
REMARK minimizedAffinity -3.83885264
REMARK minimizedRMSD -1
REMARK  1 active torsions:
REMARK  status: ('A' for Active; 'I' for Inactive)
REMARK    1  A    between atoms: C1_2  and  C2_3 
ROOT
ATOM      1  C2  UNL d   1       1.090  -3.555   2.578  0.00  0.00    -0.077 A 
ATOM      2  C3  UNL d   1      -0.026  -2.723   2.744  0.00  0.00     0.002 A 
ATOM      3  C4  UNL d   1      -0.046  -1.447   2.177  0.00  0.00     0.002 A 
ATOM      4  C5  UNL d   1       1.045  -0.995   1.437  0.00  0.00    -0.004 A 
ATOM      5  C6  UNL d   1       2.160  -1.814   1.268  0.00  0.00     0.002 A 
ATOM      6  C7  UNL d   1       2.182  -3.089   1.835  0.00  0.00     0.002 A 
ENDROOT
BRANCH   1   7
ATOM      7  C1  UNL d   1       1.094  -4.950   3.147  0.00  0.00     0.055 C 
ATOM      8  C   UNL d   1       1.067  -5.998   2.044  0.00  0.00     0.019 C 
ENDBRANCH   1   7
TORSDOF 1
ENDMDL
