MODEL 1
REMARK minimizedAffinity -4.4280653
REMARK minimizedRMSD -1
REMARK  1 active torsions:
REMARK  status: ('A' for Active; 'I' for Inactive)
REMARK    1  A    between atoms: C1_2  and  C2_3 
ROOT
ATOM      1  C2  UNL d   1       1.871  -2.336   3.429  0.00  0.00    -0.077 A 
ATOM      2  C3  UNL d   1       1.250  -2.479   4.677  0.00  0.00     0.002 A 
ATOM      3  C4  UNL d   1       1.984  -2.902   5.787  0.00  0.00     0.002 A 
ATOM      4  C5  UNL d   1       3.343  -3.180   5.661  0.00  0.00    -0.004 A 
ATOM      5  C6  UNL d   1       3.970  -3.042   4.423  0.00  0.00     0.002 A 
ATOM      6  C7  UNL d   1       3.237  -2.621   3.312  0.00  0.00     0.002 A 
ENDROOT
BRANCH   1   7
ATOM      7  C1  UNL d   1       1.092  -1.833   2.241  0.00  0.00     0.055 C 
ATOM      8  C   UNL d   1       1.531  -0.431   1.844  0.00  0.00     0.019 C 
ENDBRANCH   1   7
TORSDOF 1
ENDMDL
