MODEL 1
REMARK minimizedAffinity 5.23057985
REMARK minimizedRMSD -1
REMARK  1 active torsions:
REMARK  status: ('A' for Active; 'I' for Inactive)
REMARK    1  A    between atoms: C1_2  and  C2_3 
ROOT
ATOM      1  C2  UNL d   1       1.192  -1.670   3.762  0.00  0.00    -0.077 A 
ATOM      2  C3  UNL d   1       0.970  -2.790   2.948  0.00  0.00     0.002 A 
ATOM      3  C4  UNL d   1       1.323  -2.762   1.598  0.00  0.00     0.002 A 
ATOM      4  C5  UNL d   1       1.903  -1.619   1.051  0.00  0.00    -0.004 A 
ATOM      5  C6  UNL d   1       2.126  -0.500   1.852  0.00  0.00     0.002 A 
ATOM      6  C7  UNL d   1       1.772  -0.525   3.201  0.00  0.00     0.002 A 
ENDROOT
BRANCH   1   7
ATOM      7  C1  UNL d   1       0.857  -1.715   5.230  0.00  0.00     0.055 C 
ATOM      8  C   UNL d   1       1.225  -3.060   5.841  0.00  0.00     0.019 C 
ENDBRANCH   1   7
TORSDOF 1
ENDMDL
