MODEL 1
REMARK minimizedAffinity 6.42840052
REMARK minimizedRMSD -1
REMARK  1 active torsions:
REMARK  status: ('A' for Active; 'I' for Inactive)
REMARK    1  A    between atoms: C1_2  and  C2_3 
ROOT
ATOM      1  C2  UNL d   1       4.578   5.661  -2.941  0.00  0.00    -0.077 A 
ATOM      2  C3  UNL d   1       4.419   5.000  -1.715  0.00  0.00     0.002 A 
ATOM      3  C4  UNL d   1       3.145   4.670  -1.250  0.00  0.00     0.002 A 
ATOM      4  C5  UNL d   1       2.020   4.994  -2.006  0.00  0.00    -0.004 A 
ATOM      5  C6  UNL d   1       2.168   5.653  -3.226  0.00  0.00     0.002 A 
ATOM      6  C7  UNL d   1       3.441   5.984  -3.692  0.00  0.00     0.002 A 
ENDROOT
BRANCH   1   7
ATOM      7  C1  UNL d   1       5.955   5.973  -3.467  0.00  0.00     0.055 C 
ATOM      8  C   UNL d   1       5.973   6.000  -4.989  0.00  0.00     0.019 C 
ENDBRANCH   1   7
TORSDOF 1
ENDMDL
