MODEL 1
REMARK minimizedAffinity 11.1951427
REMARK minimizedRMSD -1
REMARK  1 active torsions:
REMARK  status: ('A' for Active; 'I' for Inactive)
REMARK    1  A    between atoms: C1_2  and  C2_3 
ROOT
ATOM      1  C2  UNL d   1       3.233  -3.154   4.012  0.00  0.00    -0.077 A 
ATOM      2  C3  UNL d   1       4.137  -3.104   2.942  0.00  0.00     0.002 A 
ATOM      3  C4  UNL d   1       5.513  -3.109   3.179  0.00  0.00     0.002 A 
ATOM      4  C5  UNL d   1       5.997  -3.166   4.485  0.00  0.00    -0.004 A 
ATOM      5  C6  UNL d   1       5.105  -3.214   5.556  0.00  0.00     0.002 A 
ATOM      6  C7  UNL d   1       3.730  -3.209   5.321  0.00  0.00     0.002 A 
ENDROOT
BRANCH   1   7
ATOM      7  C1  UNL d   1       1.749  -3.199   3.756  0.00  0.00     0.055 C 
ATOM      8  C   UNL d   1       1.322  -2.110   2.783  0.00  0.00     0.019 C 
ENDBRANCH   1   7
TORSDOF 1
ENDMDL
