MODEL 1
REMARK minimizedAffinity 12.8536415
REMARK minimizedRMSD -1
REMARK  3 active torsions:
REMARK  status: ('A' for Active; 'I' for Inactive)
REMARK    1  A    between atoms: C3'_2  and  C2'_3 
REMARK    2  A    between atoms: C2'_3  and  C1'_4 
REMARK    3  A    between atoms: C1'_4  and  C1_5 
ROOT
ATOM      1  C1  N4B d   1      -1.857  -1.439   2.318  0.00  0.00    -0.075 A 
ATOM      2  C2  N4B d   1      -1.882  -1.118   3.693  0.00  0.00     0.002 A 
ATOM      3  C3  N4B d   1      -2.697  -0.111   4.148  0.00  0.00     0.002 A 
ATOM      4  C4  N4B d   1      -3.479   0.598   3.248  0.00  0.00    -0.004 A 
ATOM      5  C5  N4B d   1      -3.468   0.265   1.925  0.00  0.00     0.002 A 
ATOM      6  C6  N4B d   1      -2.656  -0.748   1.454  0.00  0.00     0.002 A 
ENDROOT
BRANCH   1   7
ATOM      7  C1' N4B d   1      -0.918  -2.475   1.761  0.00  0.00     0.057 C 
BRANCH   7   8
ATOM      8  C2' N4B d   1       0.490  -2.207   2.284  0.00  0.00     0.009 C 
BRANCH   8   9
ATOM      9  C3' N4B d   1       1.174  -3.480   2.752  0.00  0.00     0.004 C 
ATOM     10  C4' N4B d   1       1.667  -3.388   4.165  0.00  0.00     0.003 C 
ENDBRANCH   8   9
ENDBRANCH   7   8
ENDBRANCH   1   7
TORSDOF 3
ENDMDL
