MODEL 1
REMARK minimizedAffinity 18.5549603
REMARK minimizedRMSD -1
REMARK  3 active torsions:
REMARK  status: ('A' for Active; 'I' for Inactive)
REMARK    1  A    between atoms: C3'_2  and  C2'_3 
REMARK    2  A    between atoms: C2'_3  and  C1'_4 
REMARK    3  A    between atoms: C1'_4  and  C1_5 
ROOT
ATOM      1  C1  N4B d   1      -0.116  -1.872   2.420  0.00  0.00    -0.075 A 
ATOM      2  C2  N4B d   1       0.491  -3.099   2.072  0.00  0.00     0.002 A 
ATOM      3  C3  N4B d   1       1.689  -3.457   2.639  0.00  0.00     0.002 A 
ATOM      4  C4  N4B d   1       2.306  -2.599   3.538  0.00  0.00    -0.004 A 
ATOM      5  C5  N4B d   1       1.701  -1.428   3.888  0.00  0.00     0.002 A 
ATOM      6  C6  N4B d   1       0.495  -1.057   3.329  0.00  0.00     0.002 A 
ENDROOT
BRANCH   1   7
ATOM      7  C1' N4B d   1      -1.383  -1.398   1.762  0.00  0.00     0.057 C 
BRANCH   7   8
ATOM      8  C2' N4B d   1      -1.976  -2.538   0.939  0.00  0.00     0.009 C 
BRANCH   8   9
ATOM      9  C3' N4B d   1      -3.370  -2.915   1.412  0.00  0.00     0.004 C 
ATOM     10  C4' N4B d   1      -3.486  -4.365   1.778  0.00  0.00     0.003 C 
ENDBRANCH   8   9
ENDBRANCH   7   8
ENDBRANCH   1   7
TORSDOF 3
ENDMDL
