MODEL 1
REMARK minimizedAffinity 15.7479391
REMARK minimizedRMSD -1
REMARK  3 active torsions:
REMARK  status: ('A' for Active; 'I' for Inactive)
REMARK    1  A    between atoms: C3'_2  and  C2'_3 
REMARK    2  A    between atoms: C2'_3  and  C1'_4 
REMARK    3  A    between atoms: C1'_4  and  C1_5 
ROOT
ATOM      1  C1  N4B d   1       4.425  -2.994  -0.589  0.00  0.00    -0.075 A 
ATOM      2  C2  N4B d   1       5.754  -3.408  -0.354  0.00  0.00     0.002 A 
ATOM      3  C3  N4B d   1       6.000  -4.604   0.274  0.00  0.00     0.002 A 
ATOM      4  C4  N4B d   1       4.937  -5.391   0.691  0.00  0.00    -0.004 A 
ATOM      5  C5  N4B d   1       3.656  -4.995   0.438  0.00  0.00     0.002 A 
ATOM      6  C6  N4B d   1       3.394  -3.797  -0.195  0.00  0.00     0.002 A 
ENDROOT
BRANCH   1   7
ATOM      7  C1' N4B d   1       4.106  -1.654  -1.195  0.00  0.00     0.057 C 
BRANCH   7   8
ATOM      8  C2' N4B d   1       3.298  -0.832  -0.195  0.00  0.00     0.009 C 
BRANCH   8   9
ATOM      9  C3' N4B d   1       2.893   0.517  -0.764  0.00  0.00     0.004 C 
ATOM     10  C4' N4B d   1       2.585   1.528   0.300  0.00  0.00     0.003 C 
ENDBRANCH   8   9
ENDBRANCH   7   8
ENDBRANCH   1   7
TORSDOF 3
ENDMDL
