MODEL 1
REMARK minimizedAffinity 17.738142
REMARK minimizedRMSD -1
REMARK  3 active torsions:
REMARK  status: ('A' for Active; 'I' for Inactive)
REMARK    1  A    between atoms: C3'_2  and  C2'_3 
REMARK    2  A    between atoms: C2'_3  and  C1'_4 
REMARK    3  A    between atoms: C1'_4  and  C1_5 
ROOT
ATOM      1  C1  N4B d   1       5.107   3.975  -2.613  0.00  0.00    -0.075 A 
ATOM      2  C2  N4B d   1       3.801   3.520  -2.327  0.00  0.00     0.002 A 
ATOM      3  C3  N4B d   1       2.993   3.070  -3.342  0.00  0.00     0.002 A 
ATOM      4  C4  N4B d   1       3.460   3.084  -4.648  0.00  0.00    -0.004 A 
ATOM      5  C5  N4B d   1       4.731   3.501  -4.912  0.00  0.00     0.002 A 
ATOM      6  C6  N4B d   1       5.556   3.952  -3.902  0.00  0.00     0.002 A 
ENDROOT
BRANCH   1   7
ATOM      7  C1' N4B d   1       5.996   4.556  -1.548  0.00  0.00     0.057 C 
BRANCH   7   8
ATOM      8  C2' N4B d   1       5.912   3.688  -0.296  0.00  0.00     0.009 C 
BRANCH   8   9
ATOM      9  C3' N4B d   1       5.999   4.515   0.975  0.00  0.00     0.004 C 
ATOM     10  C4' N4B d   1       5.626   5.951   0.761  0.00  0.00     0.003 C 
ENDBRANCH   8   9
ENDBRANCH   7   8
ENDBRANCH   1   7
TORSDOF 3
ENDMDL
