MODEL 1
REMARK minimizedAffinity 20.9755306
REMARK minimizedRMSD -1
REMARK  3 active torsions:
REMARK  status: ('A' for Active; 'I' for Inactive)
REMARK    1  A    between atoms: C3'_2  and  C2'_3 
REMARK    2  A    between atoms: C2'_3  and  C1'_4 
REMARK    3  A    between atoms: C1'_4  and  C1_5 
ROOT
ATOM      1  C1  N4B d   1      -2.710  -2.829   0.167  0.00  0.00    -0.075 A 
ATOM      2  C2  N4B d   1      -1.934  -3.915  -0.294  0.00  0.00     0.002 A 
ATOM      3  C3  N4B d   1      -2.217  -5.190   0.130  0.00  0.00     0.002 A 
ATOM      4  C4  N4B d   1      -3.255  -5.401   1.026  0.00  0.00    -0.004 A 
ATOM      5  C5  N4B d   1      -4.015  -4.349   1.447  0.00  0.00     0.002 A 
ATOM      6  C6  N4B d   1      -3.745  -3.063   1.026  0.00  0.00     0.002 A 
ENDROOT
BRANCH   1   7
ATOM      7  C1' N4B d   1      -2.384  -1.408  -0.202  0.00  0.00     0.057 C 
BRANCH   7   8
ATOM      8  C2' N4B d   1      -2.861  -1.138  -1.626  0.00  0.00     0.009 C 
BRANCH   8   9
ATOM      9  C3' N4B d   1      -4.282  -0.602  -1.658  0.00  0.00     0.004 C 
ATOM     10  C4' N4B d   1      -4.568   0.351  -0.536  0.00  0.00     0.003 C 
ENDBRANCH   8   9
ENDBRANCH   7   8
ENDBRANCH   1   7
TORSDOF 3
ENDMDL
