MODEL 1
REMARK minimizedAffinity 9.1787262
REMARK minimizedRMSD -1
REMARK  3 active torsions:
REMARK  status: ('A' for Active; 'I' for Inactive)
REMARK    1  A    between atoms: C3'_2  and  C2'_3 
REMARK    2  A    between atoms: C2'_3  and  C1'_4 
REMARK    3  A    between atoms: C1'_4  and  C1_5 
ROOT
ATOM      1  C1  N4B d   1       3.081   3.234  -3.309  0.00  0.00    -0.075 A 
ATOM      2  C2  N4B d   1       4.093   4.051  -2.759  0.00  0.00     0.002 A 
ATOM      3  C3  N4B d   1       5.056   4.592  -3.574  0.00  0.00     0.002 A 
ATOM      4  C4  N4B d   1       5.039   4.316  -4.933  0.00  0.00    -0.004 A 
ATOM      5  C5  N4B d   1       4.044   3.546  -5.460  0.00  0.00     0.002 A 
ATOM      6  C6  N4B d   1       3.067   2.999  -4.653  0.00  0.00     0.002 A 
ENDROOT
BRANCH   1   7
ATOM      7  C1' N4B d   1       2.056   2.550  -2.446  0.00  0.00     0.057 C 
BRANCH   7   8
ATOM      8  C2' N4B d   1       2.743   1.475  -1.608  0.00  0.00     0.009 C 
BRANCH   8   9
ATOM      9  C3' N4B d   1       2.207   1.432  -0.188  0.00  0.00     0.004 C 
ATOM     10  C4' N4B d   1       3.290   1.523   0.845  0.00  0.00     0.003 C 
ENDBRANCH   8   9
ENDBRANCH   7   8
ENDBRANCH   1   7
TORSDOF 3
ENDMDL
