MODEL 1
REMARK minimizedAffinity 16.0815392
REMARK minimizedRMSD -1
REMARK  3 active torsions:
REMARK  status: ('A' for Active; 'I' for Inactive)
REMARK    1  A    between atoms: C3'_2  and  C2'_3 
REMARK    2  A    between atoms: C2'_3  and  C1'_4 
REMARK    3  A    between atoms: C1'_4  and  C1_5 
ROOT
ATOM      1  C1  N4B d   1       3.078   0.190   0.792  0.00  0.00    -0.075 A 
ATOM      2  C2  N4B d   1       3.992   0.868   1.628  0.00  0.00     0.002 A 
ATOM      3  C3  N4B d   1       4.050   2.240   1.611  0.00  0.00     0.002 A 
ATOM      4  C4  N4B d   1       3.221   2.951   0.756  0.00  0.00    -0.004 A 
ATOM      5  C5  N4B d   1       2.324   2.289  -0.030  0.00  0.00     0.002 A 
ATOM      6  C6  N4B d   1       2.252   0.911  -0.020  0.00  0.00     0.002 A 
ENDROOT
BRANCH   1   7
ATOM      7  C1' N4B d   1       3.038  -1.312   0.713  0.00  0.00     0.057 C 
BRANCH   7   8
ATOM      8  C2' N4B d   1       3.781  -1.768  -0.540  0.00  0.00     0.009 C 
BRANCH   8   9
ATOM      9  C3' N4B d   1       4.262  -3.204  -0.424  0.00  0.00     0.004 C 
ATOM     10  C4' N4B d   1       3.135  -4.189  -0.338  0.00  0.00     0.003 C 
ENDBRANCH   8   9
ENDBRANCH   7   8
ENDBRANCH   1   7
TORSDOF 3
ENDMDL
