MODEL 1
REMARK minimizedAffinity -3.75776386
REMARK minimizedRMSD -1
REMARK  0 active torsions:
REMARK  status: ('A' for Active; 'I' for Inactive)
ROOT
ATOM      1  C   UNL d   1      -0.646  -0.730   3.252  0.00  0.00     0.077 C 
ATOM      2  C1  UNL d   1      -0.386  -0.030   1.952  0.00  0.00    -0.074 A 
ATOM      3  C2  UNL d   1      -1.347  -0.021   0.935  0.00  0.00    -0.005 A 
ATOM      4  C3  UNL d   1      -1.094   0.643  -0.265  0.00  0.00     0.006 A 
ATOM      5  C4  UNL d   1       0.120   1.303  -0.461  0.00  0.00    -0.005 A 
ATOM      6  C5  UNL d   1       1.092   1.305   0.544  0.00  0.00    -0.074 A 
ATOM      7  C6  UNL d   1       2.398   2.018   0.353  0.00  0.00     0.077 C 
ATOM      8  C7  UNL d   1       0.828   0.642   1.750  0.00  0.00    -0.001 A 
ENDROOT
TORSDOF 0
ENDMDL
