MODEL 1
REMARK minimizedAffinity -2.50179982
REMARK minimizedRMSD -1
REMARK  0 active torsions:
REMARK  status: ('A' for Active; 'I' for Inactive)
ROOT
ATOM      1  C   UNL d   1       1.063  -2.869  -2.819  0.00  0.00     0.077 C 
ATOM      2  C1  UNL d   1       0.710  -1.711  -1.934  0.00  0.00    -0.074 A 
ATOM      3  C2  UNL d   1       0.620  -0.413  -2.449  0.00  0.00    -0.005 A 
ATOM      4  C3  UNL d   1       0.281   0.652  -1.615  0.00  0.00     0.006 A 
ATOM      5  C4  UNL d   1       0.028   0.432  -0.261  0.00  0.00    -0.005 A 
ATOM      6  C5  UNL d   1       0.112  -0.858   0.272  0.00  0.00    -0.074 A 
ATOM      7  C6  UNL d   1      -0.166  -1.114   1.724  0.00  0.00     0.077 C 
ATOM      8  C7  UNL d   1       0.447  -1.925  -0.573  0.00  0.00    -0.001 A 
ENDROOT
TORSDOF 0
ENDMDL
