MODEL 1
REMARK minimizedAffinity -4.77803612
REMARK minimizedRMSD -1
REMARK  0 active torsions:
REMARK  status: ('A' for Active; 'I' for Inactive)
ROOT
ATOM      1  C   UNL d   1       0.839   0.013  -2.118  0.00  0.00     0.077 C 
ATOM      2  C1  UNL d   1       0.269  -0.101  -0.735  0.00  0.00    -0.074 A 
ATOM      3  C2  UNL d   1      -1.095  -0.335  -0.537  0.00  0.00    -0.005 A 
ATOM      4  C3  UNL d   1      -1.609  -0.447   0.755  0.00  0.00     0.006 A 
ATOM      5  C4  UNL d   1      -0.765  -0.327   1.860  0.00  0.00    -0.005 A 
ATOM      6  C5  UNL d   1       0.602  -0.094   1.681  0.00  0.00    -0.074 A 
ATOM      7  C6  UNL d   1       1.525   0.029   2.857  0.00  0.00     0.077 C 
ATOM      8  C7  UNL d   1       1.112   0.011   0.379  0.00  0.00    -0.001 A 
ENDROOT
TORSDOF 0
ENDMDL
