MODEL 1
REMARK minimizedAffinity -1.21002722
REMARK minimizedRMSD -1
REMARK  0 active torsions:
REMARK  status: ('A' for Active; 'I' for Inactive)
ROOT
ATOM      1  C   UNL d   1      -0.656  -1.516   2.458  0.00  0.00     0.077 C 
ATOM      2  C1  UNL d   1       0.008  -0.872   1.277  0.00  0.00    -0.074 A 
ATOM      3  C2  UNL d   1       0.469   0.447   1.343  0.00  0.00    -0.005 A 
ATOM      4  C3  UNL d   1       1.093   1.030   0.240  0.00  0.00     0.006 A 
ATOM      5  C4  UNL d   1       1.262   0.301  -0.938  0.00  0.00    -0.005 A 
ATOM      6  C5  UNL d   1       0.808  -1.019  -1.022  0.00  0.00    -0.074 A 
ATOM      7  C6  UNL d   1       0.990  -1.819  -2.277  0.00  0.00     0.077 C 
ATOM      8  C7  UNL d   1       0.188  -1.600   0.093  0.00  0.00    -0.001 A 
ENDROOT
TORSDOF 0
ENDMDL
