MODEL 1
REMARK minimizedAffinity -3.37489152
REMARK minimizedRMSD -1
REMARK  0 active torsions:
REMARK  status: ('A' for Active; 'I' for Inactive)
ROOT
ATOM      1  C   UNL d   1      -0.751  -1.188   2.470  0.00  0.00     0.077 C 
ATOM      2  C1  UNL d   1      -1.005  -0.643   1.097  0.00  0.00    -0.074 A 
ATOM      3  C2  UNL d   1      -2.291  -0.261   0.701  0.00  0.00    -0.005 A 
ATOM      4  C3  UNL d   1      -2.511   0.253  -0.576  0.00  0.00     0.006 A 
ATOM      5  C4  UNL d   1      -1.449   0.390  -1.471  0.00  0.00    -0.005 A 
ATOM      6  C5  UNL d   1      -0.156   0.014  -1.093  0.00  0.00    -0.074 A 
ATOM      7  C6  UNL d   1       0.999   0.165  -2.038  0.00  0.00     0.077 C 
ATOM      8  C7  UNL d   1       0.058  -0.495   0.195  0.00  0.00    -0.001 A 
ENDROOT
TORSDOF 0
ENDMDL
