MODEL 1
REMARK minimizedAffinity -3.93922734
REMARK minimizedRMSD -1
REMARK  0 active torsions:
REMARK  status: ('A' for Active; 'I' for Inactive)
ROOT
ATOM      1  C   UNL d   1       0.584   1.800   3.596  0.00  0.00     0.077 C 
ATOM      2  C1  UNL d   1       0.135   0.725   2.652  0.00  0.00    -0.074 A 
ATOM      3  C2  UNL d   1      -0.581  -0.384   3.115  0.00  0.00    -0.005 A 
ATOM      4  C3  UNL d   1      -1.000  -1.372   2.223  0.00  0.00     0.006 A 
ATOM      5  C4  UNL d   1      -0.708  -1.261   0.863  0.00  0.00    -0.005 A 
ATOM      6  C5  UNL d   1       0.006  -0.159   0.383  0.00  0.00    -0.074 A 
ATOM      7  C6  UNL d   1       0.320  -0.020  -1.077  0.00  0.00     0.077 C 
ATOM      8  C7  UNL d   1       0.418   0.833   1.283  0.00  0.00    -0.001 A 
ENDROOT
TORSDOF 0
ENDMDL
