MODEL 1
REMARK minimizedAffinity -5.87113953
REMARK minimizedRMSD -1
REMARK  0 active torsions:
REMARK  status: ('A' for Active; 'I' for Inactive)
ROOT
ATOM      1  C   UNL d   1       0.170   0.382  -1.627  0.00  0.00     0.077 C 
ATOM      2  C1  UNL d   1      -0.108   0.302  -0.155  0.00  0.00    -0.074 A 
ATOM      3  C2  UNL d   1       0.928   0.401   0.779  0.00  0.00    -0.005 A 
ATOM      4  C3  UNL d   1       0.652   0.334   2.145  0.00  0.00     0.006 A 
ATOM      5  C4  UNL d   1      -0.660   0.169   2.589  0.00  0.00    -0.005 A 
ATOM      6  C5  UNL d   1      -1.709   0.069   1.670  0.00  0.00    -0.074 A 
ATOM      7  C6  UNL d   1      -3.126  -0.099   2.131  0.00  0.00     0.077 C 
ATOM      8  C7  UNL d   1      -1.425   0.144   0.300  0.00  0.00    -0.001 A 
ENDROOT
TORSDOF 0
ENDMDL
