MODEL 1
REMARK minimizedAffinity -5.03430653
REMARK minimizedRMSD -1
REMARK  0 active torsions:
REMARK  status: ('A' for Active; 'I' for Inactive)
ROOT
ATOM      1  C   UNL d   1       2.349   0.245   2.603  0.00  0.00     0.077 C 
ATOM      2  C1  UNL d   1       1.046   0.153   1.867  0.00  0.00    -0.074 A 
ATOM      3  C2  UNL d   1      -0.095  -0.367   2.487  0.00  0.00    -0.005 A 
ATOM      4  C3  UNL d   1      -1.303  -0.437   1.793  0.00  0.00     0.006 A 
ATOM      5  C4  UNL d   1      -1.382   0.012   0.474  0.00  0.00    -0.005 A 
ATOM      6  C5  UNL d   1      -0.252   0.537  -0.162  0.00  0.00    -0.074 A 
ATOM      7  C6  UNL d   1      -0.323   1.033  -1.575  0.00  0.00     0.077 C 
ATOM      8  C7  UNL d   1       0.956   0.610   0.545  0.00  0.00    -0.001 A 
ENDROOT
TORSDOF 0
ENDMDL
