MODEL 1
REMARK minimizedAffinity -5.73465061
REMARK minimizedRMSD -1
REMARK  0 active torsions:
REMARK  status: ('A' for Active; 'I' for Inactive)
ROOT
ATOM      1  C   UNL d   1      -0.838  -0.861   3.503  0.00  0.00     0.077 C 
ATOM      2  C1  UNL d   1      -0.089  -0.415   2.283  0.00  0.00    -0.074 A 
ATOM      3  C2  UNL d   1       1.233   0.033   2.374  0.00  0.00    -0.005 A 
ATOM      4  C3  UNL d   1       1.919   0.437   1.229  0.00  0.00     0.006 A 
ATOM      5  C4  UNL d   1       1.292   0.396  -0.017  0.00  0.00    -0.005 A 
ATOM      6  C5  UNL d   1      -0.029  -0.050  -0.128  0.00  0.00    -0.074 A 
ATOM      7  C6  UNL d   1      -0.714  -0.109  -1.461  0.00  0.00     0.077 C 
ATOM      8  C7  UNL d   1      -0.710  -0.460   1.026  0.00  0.00    -0.001 A 
ENDROOT
TORSDOF 0
ENDMDL
