MODEL 1
REMARK minimizedAffinity -4.91886663
REMARK minimizedRMSD -1
REMARK  0 active torsions:
REMARK  status: ('A' for Active; 'I' for Inactive)
ROOT
ATOM      1  C   UNL d   1      -1.076  -1.265   3.306  0.00  0.00     0.077 C 
ATOM      2  C1  UNL d   1      -0.516  -0.654   2.057  0.00  0.00    -0.074 A 
ATOM      3  C2  UNL d   1      -1.277  -0.586   0.885  0.00  0.00    -0.005 A 
ATOM      4  C3  UNL d   1      -0.746  -0.006  -0.266  0.00  0.00     0.006 A 
ATOM      5  C4  UNL d   1       0.550   0.512  -0.258  0.00  0.00    -0.005 A 
ATOM      6  C5  UNL d   1       1.326   0.454   0.904  0.00  0.00    -0.074 A 
ATOM      7  C6  UNL d   1       2.717   1.015   0.932  0.00  0.00     0.077 C 
ATOM      8  C7  UNL d   1       0.782  -0.124   2.059  0.00  0.00    -0.001 A 
ENDROOT
TORSDOF 0
ENDMDL
