MODEL 1
REMARK minimizedAffinity -4.56615591
REMARK minimizedRMSD -1
REMARK  0 active torsions:
REMARK  status: ('A' for Active; 'I' for Inactive)
ROOT
ATOM      1  C   UNL d   1       0.707   0.559  -1.146  0.00  0.00     0.077 C 
ATOM      2  C1  UNL d   1      -0.490   0.445  -0.250  0.00  0.00    -0.074 A 
ATOM      3  C2  UNL d   1      -1.786   0.570  -0.763  0.00  0.00    -0.005 A 
ATOM      4  C3  UNL d   1      -2.890   0.452   0.081  0.00  0.00     0.006 A 
ATOM      5  C4  UNL d   1      -2.711   0.209   1.444  0.00  0.00    -0.005 A 
ATOM      6  C5  UNL d   1      -1.423   0.080   1.974  0.00  0.00    -0.074 A 
ATOM      7  C6  UNL d   1      -1.213  -0.191   3.434  0.00  0.00     0.077 C 
ATOM      8  C7  UNL d   1      -0.319   0.193   1.118  0.00  0.00    -0.001 A 
ENDROOT
TORSDOF 0
ENDMDL
