MODEL 1
REMARK minimizedAffinity -3.05897498
REMARK minimizedRMSD -1
REMARK  0 active torsions:
REMARK  status: ('A' for Active; 'I' for Inactive)
ROOT
ATOM      1  C   UNL d   1      -0.754  -0.761   3.078  0.00  0.00     0.077 C 
ATOM      2  C1  UNL d   1       0.004  -0.318   1.861  0.00  0.00    -0.074 A 
ATOM      3  C2  UNL d   1       1.267   0.270   1.976  0.00  0.00    -0.005 A 
ATOM      4  C3  UNL d   1       1.964   0.669   0.836  0.00  0.00     0.006 A 
ATOM      5  C4  UNL d   1       1.405   0.483  -0.430  0.00  0.00    -0.005 A 
ATOM      6  C5  UNL d   1       0.143  -0.105  -0.564  0.00  0.00    -0.074 A 
ATOM      7  C6  UNL d   1      -0.467  -0.321  -1.917  0.00  0.00     0.077 C 
ATOM      8  C7  UNL d   1      -0.548  -0.509   0.586  0.00  0.00    -0.001 A 
ENDROOT
TORSDOF 0
ENDMDL
