MODEL 1
REMARK minimizedAffinity -2.34632349
REMARK minimizedRMSD -1
REMARK  0 active torsions:
REMARK  status: ('A' for Active; 'I' for Inactive)
ROOT
ATOM      1  C   UNL d   1      -0.386  -0.752   3.021  0.00  0.00     0.077 C 
ATOM      2  C1  UNL d   1      -0.680  -0.390   1.595  0.00  0.00    -0.074 A 
ATOM      3  C2  UNL d   1      -1.984  -0.102   1.181  0.00  0.00    -0.005 A 
ATOM      4  C3  UNL d   1      -2.241   0.242  -0.146  0.00  0.00     0.006 A 
ATOM      5  C4  UNL d   1      -1.198   0.302  -1.071  0.00  0.00    -0.005 A 
ATOM      6  C5  UNL d   1       0.113   0.018  -0.675  0.00  0.00    -0.074 A 
ATOM      7  C6  UNL d   1       1.247   0.087  -1.654  0.00  0.00     0.077 C 
ATOM      8  C7  UNL d   1       0.364  -0.321   0.662  0.00  0.00    -0.001 A 
ENDROOT
TORSDOF 0
ENDMDL
