MODEL 1
REMARK minimizedAffinity -4.01627684
REMARK minimizedRMSD -1
REMARK  0 active torsions:
REMARK  status: ('A' for Active; 'I' for Inactive)
ROOT
ATOM      1  C   UNL d   1      -3.054  -0.116   0.963  0.00  0.00     0.077 C 
ATOM      2  C1  UNL d   1      -1.587  -0.114   0.651  0.00  0.00    -0.074 A 
ATOM      3  C2  UNL d   1      -0.636  -0.232   1.670  0.00  0.00    -0.005 A 
ATOM      4  C3  UNL d   1       0.725  -0.239   1.364  0.00  0.00     0.006 A 
ATOM      5  C4  UNL d   1       1.148  -0.127   0.039  0.00  0.00    -0.005 A 
ATOM      6  C5  UNL d   1       0.211  -0.009  -0.993  0.00  0.00    -0.074 A 
ATOM      7  C6  UNL d   1       0.649   0.103  -2.423  0.00  0.00     0.077 C 
ATOM      8  C7  UNL d   1      -1.154  -0.010  -0.678  0.00  0.00    -0.001 A 
ENDROOT
TORSDOF 0
ENDMDL
