MODEL 1
REMARK minimizedAffinity -1.32159567
REMARK minimizedRMSD -1
REMARK  0 active torsions:
REMARK  status: ('A' for Active; 'I' for Inactive)
ROOT
ATOM      1  C   UNL d   1       1.902  -2.228  -3.548  0.00  0.00     0.077 C 
ATOM      2  C1  UNL d   1       1.125  -1.245  -2.724  0.00  0.00    -0.074 A 
ATOM      3  C2  UNL d   1       0.207  -0.375  -3.319  0.00  0.00    -0.005 A 
ATOM      4  C3  UNL d   1      -0.515   0.527  -2.539  0.00  0.00     0.006 A 
ATOM      5  C4  UNL d   1      -0.327   0.568  -1.156  0.00  0.00    -0.005 A 
ATOM      6  C5  UNL d   1       0.585  -0.296  -0.543  0.00  0.00    -0.074 A 
ATOM      7  C6  UNL d   1       0.792  -0.272   0.942  0.00  0.00     0.077 C 
ATOM      8  C7  UNL d   1       1.303  -1.204  -1.334  0.00  0.00    -0.001 A 
ENDROOT
TORSDOF 0
ENDMDL
