MODEL 1
REMARK minimizedAffinity -4.02128172
REMARK minimizedRMSD -1
REMARK  0 active torsions:
REMARK  status: ('A' for Active; 'I' for Inactive)
ROOT
ATOM      1  C   UNL d   1       0.871   0.103  -1.859  0.00  0.00     0.077 C 
ATOM      2  C1  UNL d   1      -0.246   0.088  -0.858  0.00  0.00    -0.074 A 
ATOM      3  C2  UNL d   1      -1.524   0.541  -1.200  0.00  0.00    -0.005 A 
ATOM      4  C3  UNL d   1      -2.555   0.512  -0.261  0.00  0.00     0.006 A 
ATOM      5  C4  UNL d   1      -2.319   0.031   1.027  0.00  0.00    -0.005 A 
ATOM      6  C5  UNL d   1      -1.048  -0.427   1.387  0.00  0.00    -0.074 A 
ATOM      7  C6  UNL d   1      -0.780  -0.957   2.764  0.00  0.00     0.077 C 
ATOM      8  C7  UNL d   1      -0.019  -0.402   0.436  0.00  0.00    -0.001 A 
ENDROOT
TORSDOF 0
ENDMDL
