MODEL 1
REMARK minimizedAffinity -1.08863282
REMARK minimizedRMSD -1
REMARK  1 active torsions:
REMARK  status: ('A' for Active; 'I' for Inactive)
REMARK    1  A    between atoms: C1_2  and  C2_3 
ROOT
ATOM      1  C2  UNL d   1       5.140  -1.830   4.992  0.00  0.00    -0.081 A 
ATOM      2  C3  UNL d   1       6.000  -2.660   5.722  0.00  0.00     0.006 A 
ATOM      3  C4  UNL d   1       5.683  -4.005   5.924  0.00  0.00     0.002 A 
ATOM      4  C5  UNL d   1       4.507  -4.545   5.392  0.00  0.00    -0.080 A 
ATOM      5  C6  UNL d   1       4.171  -5.995   5.576  0.00  0.00     0.076 C 
ATOM      6  C7  UNL d   1       3.640  -3.712   4.678  0.00  0.00     0.002 A 
ATOM      7  C8  UNL d   1       3.955  -2.366   4.477  0.00  0.00     0.006 A 
ENDROOT
BRANCH   1   8
ATOM      8  C1  UNL d   1       5.510  -0.394   4.719  0.00  0.00     0.054 C 
ATOM      9  C   UNL d   1       5.996   0.302   5.981  0.00  0.00     0.018 C 
ENDBRANCH   1   8
TORSDOF 1
ENDMDL
