MODEL 1
REMARK minimizedAffinity -1.85746968
REMARK minimizedRMSD -1
REMARK  1 active torsions:
REMARK  status: ('A' for Active; 'I' for Inactive)
REMARK    1  A    between atoms: C1_2  and  C2_3 
ROOT
ATOM      1  C2  UNL d   1       5.019   1.565   4.595  0.00  0.00    -0.081 A 
ATOM      2  C3  UNL d   1       4.781   1.044   3.317  0.00  0.00     0.006 A 
ATOM      3  C4  UNL d   1       4.998  -0.310   3.052  0.00  0.00     0.002 A 
ATOM      4  C5  UNL d   1       5.448  -1.167   4.062  0.00  0.00    -0.080 A 
ATOM      5  C6  UNL d   1       5.655  -2.629   3.799  0.00  0.00     0.076 C 
ATOM      6  C7  UNL d   1       5.703  -0.644   5.334  0.00  0.00     0.002 A 
ATOM      7  C8  UNL d   1       5.487   0.710   5.599  0.00  0.00     0.006 A 
ENDROOT
BRANCH   1   8
ATOM      8  C1  UNL d   1       4.725   3.012   4.900  0.00  0.00     0.054 C 
ATOM      9  C   UNL d   1       5.998   3.846   4.907  0.00  0.00     0.018 C 
ENDBRANCH   1   8
TORSDOF 1
ENDMDL
