MODEL 1
REMARK minimizedAffinity 3.7806108
REMARK minimizedRMSD -1
REMARK  1 active torsions:
REMARK  status: ('A' for Active; 'I' for Inactive)
REMARK    1  A    between atoms: C1_2  and  C2_3 
ROOT
ATOM      1  C2  UNL d   1       0.410  -1.787  -0.556  0.00  0.00    -0.081 A 
ATOM      2  C3  UNL d   1      -0.180  -0.518  -0.558  0.00  0.00     0.006 A 
ATOM      3  C4  UNL d   1       0.129   0.405  -1.559  0.00  0.00     0.002 A 
ATOM      4  C5  UNL d   1       1.027   0.072  -2.579  0.00  0.00    -0.080 A 
ATOM      5  C6  UNL d   1       1.344   1.043  -3.678  0.00  0.00     0.076 C 
ATOM      6  C7  UNL d   1       1.630  -1.190  -2.568  0.00  0.00     0.002 A 
ATOM      7  C8  UNL d   1       1.322  -2.113  -1.566  0.00  0.00     0.006 A 
ENDROOT
BRANCH   1   8
ATOM      8  C1  UNL d   1       0.030  -2.808   0.487  0.00  0.00     0.054 C 
ATOM      9  C   UNL d   1      -1.022  -3.772  -0.041  0.00  0.00     0.018 C 
ENDBRANCH   1   8
TORSDOF 1
ENDMDL
