MODEL 1
REMARK minimizedAffinity 5.25925922
REMARK minimizedRMSD -1
REMARK  1 active torsions:
REMARK  status: ('A' for Active; 'I' for Inactive)
REMARK    1  A    between atoms: C1_2  and  C2_3 
ROOT
ATOM      1  C2  UNL d   1       4.925   1.136   4.828  0.00  0.00    -0.081 A 
ATOM      2  C3  UNL d   1       4.549   0.246   3.815  0.00  0.00     0.006 A 
ATOM      3  C4  UNL d   1       4.892  -1.105   3.896  0.00  0.00     0.002 A 
ATOM      4  C5  UNL d   1       5.609  -1.591   4.995  0.00  0.00    -0.080 A 
ATOM      5  C6  UNL d   1       5.958  -3.045   5.110  0.00  0.00     0.076 C 
ATOM      6  C7  UNL d   1       6.000  -0.698   5.999  0.00  0.00     0.002 A 
ATOM      7  C8  UNL d   1       5.658   0.653   5.918  0.00  0.00     0.006 A 
ENDROOT
BRANCH   1   8
ATOM      8  C1  UNL d   1       4.501   2.582   4.775  0.00  0.00     0.054 C 
ATOM      9  C   UNL d   1       3.943   2.945   3.406  0.00  0.00     0.018 C 
ENDBRANCH   1   8
TORSDOF 1
ENDMDL
