MODEL 1
REMARK minimizedAffinity -3.16602659
REMARK minimizedRMSD -1
REMARK  1 active torsions:
REMARK  status: ('A' for Active; 'I' for Inactive)
REMARK    1  A    between atoms: C1_2  and  C2_3 
ROOT
ATOM      1  C2  UNL d   1       5.607   2.387   4.691  0.00  0.00    -0.081 A 
ATOM      2  C3  UNL d   1       5.623   1.611   3.526  0.00  0.00     0.006 A 
ATOM      3  C4  UNL d   1       5.475   0.224   3.596  0.00  0.00     0.002 A 
ATOM      4  C5  UNL d   1       5.301  -0.409   4.831  0.00  0.00    -0.080 A 
ATOM      5  C6  UNL d   1       5.111  -1.895   4.918  0.00  0.00     0.076 C 
ATOM      6  C7  UNL d   1       5.302   0.364   5.997  0.00  0.00     0.002 A 
ATOM      7  C8  UNL d   1       5.451   1.751   5.928  0.00  0.00     0.006 A 
ENDROOT
BRANCH   1   8
ATOM      8  C1  UNL d   1       5.701   3.889   4.614  0.00  0.00     0.054 C 
ATOM      9  C   UNL d   1       5.999   4.497   5.977  0.00  0.00     0.018 C 
ENDBRANCH   1   8
TORSDOF 1
ENDMDL
