MODEL 1
REMARK minimizedAffinity -1.64885139
REMARK minimizedRMSD -1
REMARK  1 active torsions:
REMARK  status: ('A' for Active; 'I' for Inactive)
REMARK    1  A    between atoms: C1_2  and  C2_3 
ROOT
ATOM      1  C2  UNL d   1       5.860   0.963   4.800  0.00  0.00    -0.081 A 
ATOM      2  C3  UNL d   1       5.991   0.254   3.599  0.00  0.00     0.006 A 
ATOM      3  C4  UNL d   1       5.997  -1.143   3.599  0.00  0.00     0.002 A 
ATOM      4  C5  UNL d   1       5.863  -1.854   4.797  0.00  0.00    -0.080 A 
ATOM      5  C6  UNL d   1       5.837  -3.353   4.807  0.00  0.00     0.076 C 
ATOM      6  C7  UNL d   1       5.750  -1.145   5.998  0.00  0.00     0.002 A 
ATOM      7  C8  UNL d   1       5.745   0.251   5.999  0.00  0.00     0.006 A 
ENDROOT
BRANCH   1   8
ATOM      8  C1  UNL d   1       5.789   2.469   4.796  0.00  0.00     0.054 C 
ATOM      9  C   UNL d   1       4.974   2.987   5.973  0.00  0.00     0.018 C 
ENDBRANCH   1   8
TORSDOF 1
ENDMDL
