MODEL 1
REMARK minimizedAffinity -1.08704019
REMARK minimizedRMSD -1
REMARK  1 active torsions:
REMARK  status: ('A' for Active; 'I' for Inactive)
REMARK    1  A    between atoms: C1_2  and  C2_3 
ROOT
ATOM      1  C2  UNL d   1       5.729   2.494   4.719  0.00  0.00    -0.081 A 
ATOM      2  C3  UNL d   1       5.649   1.734   3.546  0.00  0.00     0.006 A 
ATOM      3  C4  UNL d   1       5.697   0.339   3.600  0.00  0.00     0.002 A 
ATOM      4  C5  UNL d   1       5.816  -0.319   4.829  0.00  0.00    -0.080 A 
ATOM      5  C6  UNL d   1       5.838  -1.817   4.904  0.00  0.00     0.076 C 
ATOM      6  C7  UNL d   1       5.913   0.440   6.000  0.00  0.00     0.002 A 
ATOM      7  C8  UNL d   1       5.867   1.835   5.946  0.00  0.00     0.006 A 
ENDROOT
BRANCH   1   8
ATOM      8  C1  UNL d   1       5.612   3.996   4.669  0.00  0.00     0.054 C 
ATOM      9  C   UNL d   1       6.000   4.625   6.000  0.00  0.00     0.018 C 
ENDBRANCH   1   8
TORSDOF 1
ENDMDL
