MODEL 1
REMARK minimizedAffinity 8.14750862
REMARK minimizedRMSD -1
REMARK  1 active torsions:
REMARK  status: ('A' for Active; 'I' for Inactive)
REMARK    1  A    between atoms: C1_2  and  C2_3 
ROOT
ATOM      1  C2  UNL d   1       0.933   0.806  -0.328  0.00  0.00    -0.081 A 
ATOM      2  C3  UNL d   1       2.169   0.150  -0.316  0.00  0.00     0.006 A 
ATOM      3  C4  UNL d   1       2.240  -1.223  -0.066  0.00  0.00     0.002 A 
ATOM      4  C5  UNL d   1       1.076  -1.962   0.168  0.00  0.00    -0.080 A 
ATOM      5  C6  UNL d   1       1.136  -3.442   0.407  0.00  0.00     0.076 C 
ATOM      6  C7  UNL d   1      -0.158  -1.303   0.173  0.00  0.00     0.002 A 
ATOM      7  C8  UNL d   1      -0.229   0.069  -0.076  0.00  0.00     0.006 A 
ENDROOT
BRANCH   1   8
ATOM      8  C1  UNL d   1       0.847   2.274  -0.661  0.00  0.00     0.054 C 
ATOM      9  C   UNL d   1       0.710   3.120   0.597  0.00  0.00     0.018 C 
ENDBRANCH   1   8
TORSDOF 1
ENDMDL
