MODEL 1
REMARK minimizedAffinity 3.94380832
REMARK minimizedRMSD -1
REMARK  1 active torsions:
REMARK  status: ('A' for Active; 'I' for Inactive)
REMARK    1  A    between atoms: C1_2  and  C2_3 
ROOT
ATOM      1  C2  UNL d   1       5.494   0.971   3.980  0.00  0.00    -0.081 A 
ATOM      2  C3  UNL d   1       5.559   1.060   5.375  0.00  0.00     0.006 A 
ATOM      3  C4  UNL d   1       5.735   2.297   5.999  0.00  0.00     0.002 A 
ATOM      4  C5  UNL d   1       5.841   3.466   5.239  0.00  0.00    -0.080 A 
ATOM      5  C6  UNL d   1       6.000   4.805   5.897  0.00  0.00     0.076 C 
ATOM      6  C7  UNL d   1       5.794   3.376   3.843  0.00  0.00     0.002 A 
ATOM      7  C8  UNL d   1       5.618   2.139   3.219  0.00  0.00     0.006 A 
ENDROOT
BRANCH   1   8
ATOM      8  C1  UNL d   1       5.239  -0.354   3.307  0.00  0.00     0.054 C 
ATOM      9  C   UNL d   1       5.991  -1.480   4.001  0.00  0.00     0.018 C 
ENDBRANCH   1   8
TORSDOF 1
ENDMDL
