MODEL 1
REMARK minimizedAffinity -2.41112351
REMARK minimizedRMSD -1
REMARK  1 active torsions:
REMARK  status: ('A' for Active; 'I' for Inactive)
REMARK    1  A    between atoms: C1_2  and  C2_3 
ROOT
ATOM      1  C2  UNL d   1       5.364  -0.053   4.733  0.00  0.00    -0.081 A 
ATOM      2  C3  UNL d   1       5.046   0.769   3.644  0.00  0.00     0.006 A 
ATOM      3  C4  UNL d   1       5.205   2.154   3.731  0.00  0.00     0.002 A 
ATOM      4  C5  UNL d   1       5.692   2.739   4.905  0.00  0.00    -0.080 A 
ATOM      5  C6  UNL d   1       5.896   4.222   5.001  0.00  0.00     0.076 C 
ATOM      6  C7  UNL d   1       5.993   1.921   5.999  0.00  0.00     0.002 A 
ATOM      7  C8  UNL d   1       5.833   0.536   5.912  0.00  0.00     0.006 A 
ENDROOT
BRANCH   1   8
ATOM      8  C1  UNL d   1       5.254  -1.552   4.620  0.00  0.00     0.054 C 
ATOM      9  C   UNL d   1       5.998  -2.248   5.751  0.00  0.00     0.018 C 
ENDBRANCH   1   8
TORSDOF 1
ENDMDL
