MODEL 1
REMARK minimizedAffinity -0.805684209
REMARK minimizedRMSD -1
REMARK  1 active torsions:
REMARK  status: ('A' for Active; 'I' for Inactive)
REMARK    1  A    between atoms: C1_2  and  C2_3 
ROOT
ATOM      1  C2  UNL d   1       5.811  -1.849   4.683  0.00  0.00    -0.081 A 
ATOM      2  C3  UNL d   1       5.818  -1.078   3.514  0.00  0.00     0.006 A 
ATOM      3  C4  UNL d   1       5.864   0.316   3.586  0.00  0.00     0.002 A 
ATOM      4  C5  UNL d   1       5.912   0.962   4.826  0.00  0.00    -0.080 A 
ATOM      5  C6  UNL d   1       5.993   2.457   4.917  0.00  0.00     0.076 C 
ATOM      6  C7  UNL d   1       5.888   0.192   5.994  0.00  0.00     0.002 A 
ATOM      7  C8  UNL d   1       5.840  -1.202   5.923  0.00  0.00     0.006 A 
ENDROOT
BRANCH   1   8
ATOM      8  C1  UNL d   1       5.826  -3.355   4.608  0.00  0.00     0.054 C 
ATOM      9  C   UNL d   1       5.889  -3.977   5.995  0.00  0.00     0.018 C 
ENDBRANCH   1   8
TORSDOF 1
ENDMDL
