MODEL 1
REMARK minimizedAffinity -1.9080447
REMARK minimizedRMSD -1
REMARK  1 active torsions:
REMARK  status: ('A' for Active; 'I' for Inactive)
REMARK    1  A    between atoms: C1_2  and  C2_3 
ROOT
ATOM      1  C2  UNL d   1       5.416   0.925   4.503  0.00  0.00    -0.081 A 
ATOM      2  C3  UNL d   1       5.177   1.859   3.488  0.00  0.00     0.006 A 
ATOM      3  C4  UNL d   1       5.353   3.224   3.725  0.00  0.00     0.002 A 
ATOM      4  C5  UNL d   1       5.778   3.677   4.979  0.00  0.00    -0.080 A 
ATOM      5  C6  UNL d   1       6.000   5.138   5.238  0.00  0.00     0.076 C 
ATOM      6  C7  UNL d   1       6.000   2.746   5.998  0.00  0.00     0.002 A 
ATOM      7  C8  UNL d   1       5.823   1.381   5.762  0.00  0.00     0.006 A 
ENDROOT
BRANCH   1   8
ATOM      8  C1  UNL d   1       5.289  -0.552   4.231  0.00  0.00     0.054 C 
ATOM      9  C   UNL d   1       5.634  -1.374   5.465  0.00  0.00     0.018 C 
ENDBRANCH   1   8
TORSDOF 1
ENDMDL
