MODEL 1
REMARK minimizedAffinity 3.72187805
REMARK minimizedRMSD -1
REMARK  1 active torsions:
REMARK  status: ('A' for Active; 'I' for Inactive)
REMARK    1  A    between atoms: C1_2  and  C2_3 
ROOT
ATOM      1  C2  UNL d   1      -0.029  -0.047   0.361  0.00  0.00    -0.081 A 
ATOM      2  C3  UNL d   1       0.657   0.556  -0.701  0.00  0.00     0.006 A 
ATOM      3  C4  UNL d   1       0.983   1.914  -0.653  0.00  0.00     0.002 A 
ATOM      4  C5  UNL d   1       0.636   2.688   0.460  0.00  0.00    -0.080 A 
ATOM      5  C6  UNL d   1       1.007   4.140   0.537  0.00  0.00     0.076 C 
ATOM      6  C7  UNL d   1      -0.064   2.090   1.512  0.00  0.00     0.002 A 
ATOM      7  C8  UNL d   1      -0.391   0.733   1.465  0.00  0.00     0.006 A 
ENDROOT
BRANCH   1   8
ATOM      8  C1  UNL d   1      -0.325  -1.525   0.341  0.00  0.00     0.054 C 
ATOM      9  C   UNL d   1       0.932  -2.337   0.063  0.00  0.00     0.018 C 
ENDBRANCH   1   8
TORSDOF 1
ENDMDL
