MODEL 1
REMARK minimizedAffinity -2.65756822
REMARK minimizedRMSD -1
REMARK  1 active torsions:
REMARK  status: ('A' for Active; 'I' for Inactive)
REMARK    1  A    between atoms: C1_2  and  C2_3 
ROOT
ATOM      1  C2  UNL d   1       5.580   1.561   4.693  0.00  0.00    -0.081 A 
ATOM      2  C3  UNL d   1       5.651   0.905   5.928  0.00  0.00     0.006 A 
ATOM      3  C4  UNL d   1       5.531  -0.485   5.999  0.00  0.00     0.002 A 
ATOM      4  C5  UNL d   1       5.348  -1.242   4.836  0.00  0.00    -0.080 A 
ATOM      5  C6  UNL d   1       5.249  -2.737   4.895  0.00  0.00     0.076 C 
ATOM      6  C7  UNL d   1       5.260  -0.584   3.605  0.00  0.00     0.002 A 
ATOM      7  C8  UNL d   1       5.378   0.805   3.533  0.00  0.00     0.006 A 
ENDROOT
BRANCH   1   8
ATOM      8  C1  UNL d   1       5.773   3.054   4.607  0.00  0.00     0.054 C 
ATOM      9  C   UNL d   1       5.998   3.663   5.984  0.00  0.00     0.018 C 
ENDBRANCH   1   8
TORSDOF 1
ENDMDL
