MODEL 1
REMARK minimizedAffinity -3.36838174
REMARK minimizedRMSD -1
REMARK  1 active torsions:
REMARK  status: ('A' for Active; 'I' for Inactive)
REMARK    1  A    between atoms: C1_2  and  C2_3 
ROOT
ATOM      1  C2  UNL d   1       5.995   1.718   4.248  0.00  0.00    -0.081 A 
ATOM      2  C3  UNL d   1       6.000   2.591   5.342  0.00  0.00     0.006 A 
ATOM      3  C4  UNL d   1       5.999   3.974   5.145  0.00  0.00     0.002 A 
ATOM      4  C5  UNL d   1       5.985   4.507   3.851  0.00  0.00    -0.080 A 
ATOM      5  C6  UNL d   1       5.952   5.989   3.626  0.00  0.00     0.076 C 
ATOM      6  C7  UNL d   1       5.997   3.634   2.758  0.00  0.00     0.002 A 
ATOM      7  C8  UNL d   1       5.999   2.252   2.954  0.00  0.00     0.006 A 
ENDROOT
BRANCH   1   8
ATOM      8  C1  UNL d   1       5.931   0.227   4.457  0.00  0.00     0.054 C 
ATOM      9  C   UNL d   1       5.613  -0.115   5.906  0.00  0.00     0.018 C 
ENDBRANCH   1   8
TORSDOF 1
ENDMDL
