MODEL 1
REMARK minimizedAffinity 13.1202221
REMARK minimizedRMSD -1
REMARK  0 active torsions:
REMARK  status: ('A' for Active; 'I' for Inactive)
ROOT
ATOM      1  C   UNL d   1       2.481   3.367   3.759  0.00  0.00    -0.002 A 
ATOM      2  C1  UNL d   1       1.774   4.195   2.898  0.00  0.00     0.010 A 
ATOM      3  C2  UNL d   1       0.891   3.657   1.961  0.00  0.00     0.041 A 
ATOM      4  C3  UNL d   1       0.726   2.259   1.903  0.00  0.00    -0.075 A 
ATOM      5  S   UNL d   1      -0.302   1.377   0.836  0.00  0.00     0.015 SA
ATOM      6  C4  UNL d   1       0.172  -0.120   1.499  0.00  0.00     0.022 A 
ATOM      7  C5  UNL d   1       1.091   0.031   2.510  0.00  0.00     0.026 A 
ATOM      8  C6  UNL d   1       1.425   1.405   2.760  0.00  0.00    -0.082 A 
ATOM      9  C7  UNL d   1       2.315   1.981   3.699  0.00  0.00     0.045 A 
ENDROOT
TORSDOF 0
ENDMDL
