MODEL 1
REMARK minimizedAffinity -1.31289887
REMARK minimizedRMSD -1
REMARK  0 active torsions:
REMARK  status: ('A' for Active; 'I' for Inactive)
ROOT
ATOM      1  C   UNL d   1      -1.494   2.876  -0.014  0.00  0.00    -0.002 A 
ATOM      2  C1  UNL d   1      -1.165   3.313  -1.289  0.00  0.00     0.010 A 
ATOM      3  C2  UNL d   1      -0.595   2.437  -2.215  0.00  0.00     0.041 A 
ATOM      4  C3  UNL d   1      -0.361   1.100  -1.834  0.00  0.00    -0.075 A 
ATOM      5  S   UNL d   1       0.326  -0.151  -2.801  0.00  0.00     0.015 SA
ATOM      6  C4  UNL d   1       0.197  -1.295  -1.545  0.00  0.00     0.022 A 
ATOM      7  C5  UNL d   1      -0.355  -0.753  -0.408  0.00  0.00     0.026 A 
ATOM      8  C6  UNL d   1      -0.686   0.637  -0.556  0.00  0.00    -0.082 A 
ATOM      9  C7  UNL d   1      -1.261   1.550   0.360  0.00  0.00     0.045 A 
ENDROOT
TORSDOF 0
ENDMDL
