MODEL 1
REMARK minimizedAffinity -3.89648461
REMARK minimizedRMSD -1
REMARK  0 active torsions:
REMARK  status: ('A' for Active; 'I' for Inactive)
ROOT
ATOM      1  C   UNL d   1      -1.543   3.337  -0.078  0.00  0.00    -0.002 A 
ATOM      2  C1  UNL d   1      -0.993   3.421   1.193  0.00  0.00     0.010 A 
ATOM      3  C2  UNL d   1      -0.143   2.420   1.668  0.00  0.00     0.041 A 
ATOM      4  C3  UNL d   1       0.149   1.323   0.834  0.00  0.00    -0.075 A 
ATOM      5  S   UNL d   1       1.165  -0.021   1.203  0.00  0.00     0.015 SA
ATOM      6  C4  UNL d   1       0.894  -0.738  -0.319  0.00  0.00     0.022 A 
ATOM      7  C5  UNL d   1       0.052   0.015  -1.102  0.00  0.00     0.026 A 
ATOM      8  C6  UNL d   1      -0.391   1.216  -0.450  0.00  0.00    -0.082 A 
ATOM      9  C7  UNL d   1      -1.250   2.247  -0.902  0.00  0.00     0.045 A 
ENDROOT
TORSDOF 0
ENDMDL
