MODEL 1
REMARK minimizedAffinity -2.36780691
REMARK minimizedRMSD -1
REMARK  0 active torsions:
REMARK  status: ('A' for Active; 'I' for Inactive)
ROOT
ATOM      1  C   UNL d   1      -1.162   3.558   0.710  0.00  0.00    -0.002 A 
ATOM      2  C1  UNL d   1      -1.225   3.456  -0.673  0.00  0.00     0.010 A 
ATOM      3  C2  UNL d   1      -0.835   2.281  -1.317  0.00  0.00     0.041 A 
ATOM      4  C3  UNL d   1      -0.378   1.198  -0.542  0.00  0.00    -0.075 A 
ATOM      5  S   UNL d   1       0.150  -0.341  -1.113  0.00  0.00     0.015 SA
ATOM      6  C4  UNL d   1       0.472  -0.900   0.464  0.00  0.00     0.022 A 
ATOM      7  C5  UNL d   1       0.189   0.051   1.416  0.00  0.00     0.026 A 
ATOM      8  C6  UNL d   1      -0.306   1.275   0.852  0.00  0.00    -0.082 A 
ATOM      9  C7  UNL d   1      -0.708   2.481   1.476  0.00  0.00     0.045 A 
ENDROOT
TORSDOF 0
ENDMDL
