MODEL 1
REMARK minimizedAffinity -0.0936850533
REMARK minimizedRMSD -1
REMARK  0 active torsions:
REMARK  status: ('A' for Active; 'I' for Inactive)
ROOT
ATOM      1  C   UNL d   1       1.537   0.881   2.963  0.00  0.00    -0.002 A 
ATOM      2  C1  UNL d   1       0.940   2.113   2.736  0.00  0.00     0.010 A 
ATOM      3  C2  UNL d   1       0.519   2.473   1.455  0.00  0.00     0.041 A 
ATOM      4  C3  UNL d   1       0.707   1.564   0.395  0.00  0.00    -0.075 A 
ATOM      5  S   UNL d   1       0.269   1.789  -1.257  0.00  0.00     0.015 SA
ATOM      6  C4  UNL d   1       0.863   0.255  -1.701  0.00  0.00     0.022 A 
ATOM      7  C5  UNL d   1       1.387  -0.426  -0.628  0.00  0.00     0.026 A 
ATOM      8  C6  UNL d   1       1.305   0.317   0.598  0.00  0.00    -0.082 A 
ATOM      9  C7  UNL d   1       1.722  -0.018   1.909  0.00  0.00     0.045 A 
ENDROOT
TORSDOF 0
ENDMDL
