MODEL 1
REMARK minimizedAffinity -3.89770651
REMARK minimizedRMSD -1
REMARK  0 active torsions:
REMARK  status: ('A' for Active; 'I' for Inactive)
ROOT
ATOM      1  O1  BZF d   1      -0.673  -0.298  -0.954  0.00  0.00    -0.204 OA
ATOM      2  C2  BZF d   1       0.090   0.179   0.093  0.00  0.00     0.174 A 
ATOM      3  C3  BZF d   1       0.170   1.525   0.053  0.00  0.00    -0.012 A 
ATOM      4  C3A BZF d   1      -0.667   1.919  -1.039  0.00  0.00    -0.107 A 
ATOM      5  C4  BZF d   1      -1.008   3.130  -1.570  0.00  0.00     0.055 A 
ATOM      6  C5  BZF d   1      -1.789   3.166  -2.682  0.00  0.00    -0.016 A 
ATOM      7  C6  BZF d   1      -2.242   2.013  -3.290  0.00  0.00     0.022 A 
ATOM      8  C7  BZF d   1      -1.933   0.790  -2.796  0.00  0.00     0.029 A 
ATOM      9  C7A BZF d   1      -1.171   0.750  -1.654  0.00  0.00     0.058 A 
ENDROOT
TORSDOF 0
ENDMDL
