MODEL 1
REMARK minimizedAffinity -1.63680458
REMARK minimizedRMSD -1
REMARK  0 active torsions:
REMARK  status: ('A' for Active; 'I' for Inactive)
ROOT
ATOM      1  O1  BZF d   1      -0.860   0.940   0.927  0.00  0.00    -0.204 OA
ATOM      2  C2  BZF d   1      -0.908   1.843  -0.117  0.00  0.00     0.174 A 
ATOM      3  C3  BZF d   1       0.134   1.661  -0.955  0.00  0.00    -0.012 A 
ATOM      4  C3A BZF d   1       0.828   0.516  -0.449  0.00  0.00    -0.107 A 
ATOM      5  C4  BZF d   1       1.937  -0.166  -0.860  0.00  0.00     0.055 A 
ATOM      6  C5  BZF d   1       2.397  -1.196  -0.102  0.00  0.00    -0.016 A 
ATOM      7  C6  BZF d   1       1.776  -1.568   1.072  0.00  0.00     0.022 A 
ATOM      8  C7  BZF d   1       0.669  -0.924   1.517  0.00  0.00     0.029 A 
ATOM      9  C7A BZF d   1       0.183   0.096   0.737  0.00  0.00     0.058 A 
ENDROOT
TORSDOF 0
ENDMDL
