MODEL 1
REMARK minimizedAffinity -2.85206461
REMARK minimizedRMSD -1
REMARK  0 active torsions:
REMARK  status: ('A' for Active; 'I' for Inactive)
ROOT
ATOM      1  O1  BZF d   1      -0.744  -0.405  -0.919  0.00  0.00    -0.204 OA
ATOM      2  C2  BZF d   1      -0.253   0.269   0.182  0.00  0.00     0.174 A 
ATOM      3  C3  BZF d   1      -0.400   1.601   0.032  0.00  0.00    -0.012 A 
ATOM      4  C3A BZF d   1      -1.105   1.765  -1.203  0.00  0.00    -0.107 A 
ATOM      5  C4  BZF d   1      -1.560   2.856  -1.887  0.00  0.00     0.055 A 
ATOM      6  C5  BZF d   1      -2.145   2.679  -3.100  0.00  0.00    -0.016 A 
ATOM      7  C6  BZF d   1      -2.289   1.426  -3.660  0.00  0.00     0.022 A 
ATOM      8  C7  BZF d   1      -1.858   0.313  -3.017  0.00  0.00     0.029 A 
ATOM      9  C7A BZF d   1      -1.295   0.487  -1.776  0.00  0.00     0.058 A 
ENDROOT
TORSDOF 0
ENDMDL
