MODEL 1
REMARK minimizedAffinity -2.58053851
REMARK minimizedRMSD -1
REMARK  0 active torsions:
REMARK  status: ('A' for Active; 'I' for Inactive)
ROOT
ATOM      1  O1  BZF d   1      -0.596   0.392   0.605  0.00  0.00    -0.204 OA
ATOM      2  C2  BZF d   1       0.146   0.651  -0.531  0.00  0.00     0.174 A 
ATOM      3  C3  BZF d   1       1.198  -0.189  -0.617  0.00  0.00    -0.012 A 
ATOM      4  C3A BZF d   1       1.055  -1.085   0.489  0.00  0.00    -0.107 A 
ATOM      5  C4  BZF d   1       1.782  -2.153   0.932  0.00  0.00     0.055 A 
ATOM      6  C5  BZF d   1       1.415  -2.769   2.086  0.00  0.00    -0.016 A 
ATOM      7  C6  BZF d   1       0.331  -2.341   2.825  0.00  0.00     0.022 A 
ATOM      8  C7  BZF d   1      -0.423  -1.289   2.423  0.00  0.00     0.029 A 
ATOM      9  C7A BZF d   1      -0.075  -0.685   1.239  0.00  0.00     0.058 A 
ENDROOT
TORSDOF 0
ENDMDL
