MODEL 1
REMARK minimizedAffinity -4.07057333
REMARK minimizedRMSD -1
REMARK  0 active torsions:
REMARK  status: ('A' for Active; 'I' for Inactive)
ROOT
ATOM      1  O1  BZF d   1      -0.839  -0.791   2.655  0.00  0.00    -0.204 OA
ATOM      2  C2  BZF d   1      -0.100  -1.668   3.427  0.00  0.00     0.174 A 
ATOM      3  C3  BZF d   1       1.065  -1.974   2.820  0.00  0.00    -0.012 A 
ATOM      4  C3A BZF d   1       1.095  -1.171   1.636  0.00  0.00    -0.107 A 
ATOM      5  C4  BZF d   1       2.003  -1.019   0.628  0.00  0.00     0.055 A 
ATOM      6  C5  BZF d   1       1.698  -0.210  -0.420  0.00  0.00    -0.016 A 
ATOM      7  C6  BZF d   1       0.492   0.457  -0.495  0.00  0.00     0.022 A 
ATOM      8  C7  BZF d   1      -0.438   0.341   0.483  0.00  0.00     0.029 A 
ATOM      9  C7A BZF d   1      -0.119  -0.450   1.560  0.00  0.00     0.058 A 
ENDROOT
TORSDOF 0
ENDMDL
