MODEL 1
REMARK minimizedAffinity -5.44091988
REMARK minimizedRMSD -1
REMARK  0 active torsions:
REMARK  status: ('A' for Active; 'I' for Inactive)
ROOT
ATOM      1  O1  BZF d   1      -1.052   0.428   0.557  0.00  0.00    -0.204 OA
ATOM      2  C2  BZF d   1      -0.325   0.939  -0.500  0.00  0.00     0.174 A 
ATOM      3  C3  BZF d   1       0.847   0.286  -0.635  0.00  0.00    -0.012 A 
ATOM      4  C3A BZF d   1       0.812  -0.756   0.345  0.00  0.00    -0.107 A 
ATOM      5  C4  BZF d   1       1.683  -1.749   0.690  0.00  0.00     0.055 A 
ATOM      6  C5  BZF d   1       1.381  -2.556   1.741  0.00  0.00    -0.016 A 
ATOM      7  C6  BZF d   1       0.222  -2.395   2.471  0.00  0.00     0.022 A 
ATOM      8  C7  BZF d   1      -0.675  -1.426   2.163  0.00  0.00     0.029 A 
ATOM      9  C7A BZF d   1      -0.388  -0.630   1.081  0.00  0.00     0.058 A 
ENDROOT
TORSDOF 0
ENDMDL
