MODEL 1
REMARK minimizedAffinity -2.98237252
REMARK minimizedRMSD -1
REMARK  0 active torsions:
REMARK  status: ('A' for Active; 'I' for Inactive)
ROOT
ATOM      1  O1  BZF d   1      -1.156  -0.561   2.732  0.00  0.00    -0.204 OA
ATOM      2  C2  BZF d   1      -0.764  -1.485   3.682  0.00  0.00     0.174 A 
ATOM      3  C3  BZF d   1       0.322  -2.167   3.267  0.00  0.00    -0.012 A 
ATOM      4  C3A BZF d   1       0.684  -1.573   2.017  0.00  0.00    -0.107 A 
ATOM      5  C4  BZF d   1       1.690  -1.806   1.123  0.00  0.00     0.055 A 
ATOM      6  C5  BZF d   1       1.720  -1.099  -0.037  0.00  0.00    -0.016 A 
ATOM      7  C6  BZF d   1       0.758  -0.157  -0.338  0.00  0.00     0.022 A 
ATOM      8  C7  BZF d   1      -0.256   0.113   0.520  0.00  0.00     0.029 A 
ATOM      9  C7A BZF d   1      -0.270  -0.577   1.707  0.00  0.00     0.058 A 
ENDROOT
TORSDOF 0
ENDMDL
