MODEL 1
REMARK minimizedAffinity -2.08406925
REMARK minimizedRMSD -1
REMARK  0 active torsions:
REMARK  status: ('A' for Active; 'I' for Inactive)
ROOT
ATOM      1  O1  BZF d   1       0.211  -0.720  -1.155  0.00  0.00    -0.204 OA
ATOM      2  C2  BZF d   1       1.041  -0.570  -0.060  0.00  0.00     0.174 A 
ATOM      3  C3  BZF d   1       0.760   0.571   0.601  0.00  0.00    -0.012 A 
ATOM      4  C3A BZF d   1      -0.374   1.127  -0.073  0.00  0.00    -0.107 A 
ATOM      5  C4  BZF d   1      -1.126   2.249   0.126  0.00  0.00     0.055 A 
ATOM      6  C5  BZF d   1      -2.120   2.542  -0.754  0.00  0.00    -0.016 A 
ATOM      7  C6  BZF d   1      -2.384   1.739  -1.845  0.00  0.00     0.022 A 
ATOM      8  C7  BZF d   1      -1.667   0.613  -2.080  0.00  0.00     0.029 A 
ATOM      9  C7A BZF d   1      -0.684   0.297  -1.174  0.00  0.00     0.058 A 
ENDROOT
TORSDOF 0
ENDMDL
