MODEL 1
REMARK minimizedAffinity -3.73659945
REMARK minimizedRMSD -1
REMARK  0 active torsions:
REMARK  status: ('A' for Active; 'I' for Inactive)
ROOT
ATOM      1  O1  BZF d   1       0.148   1.134  -1.445  0.00  0.00    -0.204 OA
ATOM      2  C2  BZF d   1      -1.091   1.122  -0.834  0.00  0.00     0.174 A 
ATOM      3  C3  BZF d   1      -1.146   0.167   0.117  0.00  0.00    -0.012 A 
ATOM      4  C3A BZF d   1       0.169  -0.395   0.163  0.00  0.00    -0.107 A 
ATOM      5  C4  BZF d   1       0.745  -1.375   0.919  0.00  0.00     0.055 A 
ATOM      6  C5  BZF d   1       2.030  -1.736   0.665  0.00  0.00    -0.016 A 
ATOM      7  C6  BZF d   1       2.766  -1.142  -0.340  0.00  0.00     0.022 A 
ATOM      8  C7  BZF d   1       2.239  -0.162  -1.113  0.00  0.00     0.029 A 
ATOM      9  C7A BZF d   1       0.951   0.228  -0.837  0.00  0.00     0.058 A 
ENDROOT
TORSDOF 0
ENDMDL
