MODEL 1
REMARK minimizedAffinity -2.21529222
REMARK minimizedRMSD -1
REMARK  0 active torsions:
REMARK  status: ('A' for Active; 'I' for Inactive)
ROOT
ATOM      1  O1  BZF d   1      -2.094   2.937  -1.691  0.00  0.00    -0.204 OA
ATOM      2  C2  BZF d   1      -2.852   2.349  -2.685  0.00  0.00     0.174 A 
ATOM      3  C3  BZF d   1      -2.537   1.044  -2.818  0.00  0.00    -0.012 A 
ATOM      4  C3A BZF d   1      -1.584   0.780  -1.784  0.00  0.00    -0.107 A 
ATOM      5  C4  BZF d   1      -0.909  -0.341  -1.394  0.00  0.00     0.055 A 
ATOM      6  C5  BZF d   1       0.006  -0.246  -0.393  0.00  0.00    -0.016 A 
ATOM      7  C6  BZF d   1       0.274   0.953   0.234  0.00  0.00     0.022 A 
ATOM      8  C7  BZF d   1      -0.373   2.091  -0.115  0.00  0.00     0.029 A 
ATOM      9  C7A BZF d   1      -1.322   1.992  -1.104  0.00  0.00     0.058 A 
ENDROOT
TORSDOF 0
ENDMDL
