MODEL 1
REMARK minimizedAffinity -3.10190725
REMARK minimizedRMSD -1
REMARK  0 active torsions:
REMARK  status: ('A' for Active; 'I' for Inactive)
ROOT
ATOM      1  O1  BZF d   1       0.325  -2.175   2.478  0.00  0.00    -0.204 OA
ATOM      2  C2  BZF d   1      -0.904  -1.766   2.958  0.00  0.00     0.174 A 
ATOM      3  C3  BZF d   1      -1.360  -0.704   2.263  0.00  0.00    -0.012 A 
ATOM      4  C3A BZF d   1      -0.396  -0.490   1.228  0.00  0.00    -0.107 A 
ATOM      5  C4  BZF d   1      -0.301   0.411   0.206  0.00  0.00     0.055 A 
ATOM      6  C5  BZF d   1       0.804   0.398  -0.585  0.00  0.00    -0.016 A 
ATOM      7  C6  BZF d   1       1.833  -0.496  -0.379  0.00  0.00     0.022 A 
ATOM      8  C7  BZF d   1       1.782  -1.412   0.619  0.00  0.00     0.029 A 
ATOM      9  C7A BZF d   1       0.652  -1.423   1.399  0.00  0.00     0.058 A 
ENDROOT
TORSDOF 0
ENDMDL
