MODEL 1
REMARK minimizedAffinity -4.0618372
REMARK minimizedRMSD -1
REMARK  0 active torsions:
REMARK  status: ('A' for Active; 'I' for Inactive)
ROOT
ATOM      1  O1  BZF d   1      -0.632   0.755  -3.393  0.00  0.00    -0.204 OA
ATOM      2  C2  BZF d   1      -1.541   1.794  -3.440  0.00  0.00     0.174 A 
ATOM      3  C3  BZF d   1      -1.841   2.223  -2.197  0.00  0.00    -0.012 A 
ATOM      4  C3A BZF d   1      -1.001   1.462  -1.323  0.00  0.00    -0.107 A 
ATOM      5  C4  BZF d   1      -0.827   1.444   0.031  0.00  0.00     0.055 A 
ATOM      6  C5  BZF d   1       0.019   0.531   0.576  0.00  0.00    -0.016 A 
ATOM      7  C6  BZF d   1       0.701  -0.382  -0.202  0.00  0.00     0.022 A 
ATOM      8  C7  BZF d   1       0.565  -0.399  -1.550  0.00  0.00     0.029 A 
ATOM      9  C7A BZF d   1      -0.264   0.544  -2.107  0.00  0.00     0.058 A 
ENDROOT
TORSDOF 0
ENDMDL
