MODEL 1
REMARK minimizedAffinity -3.91572571
REMARK minimizedRMSD -1
REMARK  0 active torsions:
REMARK  status: ('A' for Active; 'I' for Inactive)
ROOT
ATOM      1  O1  BZF d   1      -1.475   3.113  -1.819  0.00  0.00    -0.204 OA
ATOM      2  C2  BZF d   1      -2.015   2.767  -3.043  0.00  0.00     0.174 A 
ATOM      3  C3  BZF d   1      -2.042   1.427  -3.192  0.00  0.00    -0.012 A 
ATOM      4  C3A BZF d   1      -1.569   0.900  -1.949  0.00  0.00    -0.107 A 
ATOM      5  C4  BZF d   1      -1.382  -0.368  -1.476  0.00  0.00     0.055 A 
ATOM      6  C5  BZF d   1      -0.836  -0.539  -0.244  0.00  0.00    -0.016 A 
ATOM      7  C6  BZF d   1      -0.461   0.532   0.540  0.00  0.00     0.022 A 
ATOM      8  C7  BZF d   1      -0.631   1.808   0.116  0.00  0.00     0.029 A 
ATOM      9  C7A BZF d   1      -1.213   1.986  -1.115  0.00  0.00     0.058 A 
ENDROOT
TORSDOF 0
ENDMDL
