MODEL 1
REMARK minimizedAffinity -4.08749342
REMARK minimizedRMSD -1
REMARK  0 active torsions:
REMARK  status: ('A' for Active; 'I' for Inactive)
ROOT
ATOM      1  O1  BZF d   1      -0.989  -0.893   2.685  0.00  0.00    -0.204 OA
ATOM      2  C2  BZF d   1      -0.351  -1.844   3.458  0.00  0.00     0.174 A 
ATOM      3  C3  BZF d   1       0.832  -2.191   2.911  0.00  0.00    -0.012 A 
ATOM      4  C3A BZF d   1       0.982  -1.340   1.770  0.00  0.00    -0.107 A 
ATOM      5  C4  BZF d   1       1.961  -1.197   0.828  0.00  0.00     0.055 A 
ATOM      6  C5  BZF d   1       1.768  -0.327  -0.198  0.00  0.00    -0.016 A 
ATOM      7  C6  BZF d   1       0.609   0.411  -0.315  0.00  0.00     0.022 A 
ATOM      8  C7  BZF d   1      -0.388   0.307   0.597  0.00  0.00     0.029 A 
ATOM      9  C7A BZF d   1      -0.182  -0.547   1.653  0.00  0.00     0.058 A 
ENDROOT
TORSDOF 0
ENDMDL
