MODEL 1
REMARK minimizedAffinity -0.00527566718
REMARK minimizedRMSD -1
REMARK  0 active torsions:
REMARK  status: ('A' for Active; 'I' for Inactive)
ROOT
ATOM      1  O1  BZF d   1      -1.244   0.019   1.552  0.00  0.00    -0.204 OA
ATOM      2  C2  BZF d   1      -1.668   1.180   0.934  0.00  0.00     0.174 A 
ATOM      3  C3  BZF d   1      -0.734   1.631   0.073  0.00  0.00    -0.012 A 
ATOM      4  C3A BZF d   1       0.303   0.645   0.090  0.00  0.00    -0.107 A 
ATOM      5  C4  BZF d   1       1.492   0.521  -0.569  0.00  0.00     0.055 A 
ATOM      6  C5  BZF d   1       2.306  -0.526  -0.271  0.00  0.00    -0.016 A 
ATOM      7  C6  BZF d   1       1.965  -1.462   0.682  0.00  0.00     0.022 A 
ATOM      8  C7  BZF d   1       0.793  -1.384   1.359  0.00  0.00     0.029 A 
ATOM      9  C7A BZF d   1      -0.046  -0.346   1.036  0.00  0.00     0.058 A 
ENDROOT
TORSDOF 0
ENDMDL
