MODEL 1
REMARK minimizedAffinity -3.30165625
REMARK minimizedRMSD -1
REMARK  0 active torsions:
REMARK  status: ('A' for Active; 'I' for Inactive)
ROOT
ATOM      1  O1  BZF d   1      -0.820   3.428  -4.898  0.00  0.00    -0.204 OA
ATOM      2  C2  BZF d   1       0.025   4.418  -4.435  0.00  0.00     0.174 A 
ATOM      3  C3  BZF d   1       0.031   4.449  -3.086  0.00  0.00    -0.012 A 
ATOM      4  C3A BZF d   1      -0.795   3.353  -2.681  0.00  0.00    -0.107 A 
ATOM      5  C4  BZF d   1      -1.165   2.856  -1.464  0.00  0.00     0.055 A 
ATOM      6  C5  BZF d   1      -2.041   1.819  -1.413  0.00  0.00    -0.016 A 
ATOM      7  C6  BZF d   1      -2.572   1.259  -2.557  0.00  0.00     0.022 A 
ATOM      8  C7  BZF d   1      -2.231   1.715  -3.787  0.00  0.00     0.029 A 
ATOM      9  C7A BZF d   1      -1.320   2.742  -3.843  0.00  0.00     0.058 A 
ENDROOT
TORSDOF 0
ENDMDL
