MODEL 1
REMARK minimizedAffinity -5.15028763
REMARK minimizedRMSD -1
REMARK  3 active torsions:
REMARK  status: ('A' for Active; 'I' for Inactive)
REMARK    1  A    between atoms: C3'_2  and  C2'_3 
REMARK    2  A    between atoms: C2'_3  and  C1'_4 
REMARK    3  A    between atoms: C1'_4  and  C1_5 
ROOT
ATOM      1  C1  N4B d   1       0.349   0.352  -0.580  0.00  0.00    -0.075 A 
ATOM      2  C2  N4B d   1       0.698   0.818  -1.866  0.00  0.00     0.002 A 
ATOM      3  C3  N4B d   1       1.977   0.644  -2.336  0.00  0.00     0.002 A 
ATOM      4  C4  N4B d   1       2.924   0.026  -1.533  0.00  0.00    -0.004 A 
ATOM      5  C5  N4B d   1       2.571  -0.445  -0.302  0.00  0.00     0.002 A 
ATOM      6  C6  N4B d   1       1.289  -0.280   0.181  0.00  0.00     0.002 A 
ENDROOT
BRANCH   1   7
ATOM      7  C1' N4B d   1      -1.013   0.596   0.011  0.00  0.00     0.057 C 
BRANCH   7   8
ATOM      8  C2' N4B d   1      -0.859   1.009   1.471  0.00  0.00     0.009 C 
BRANCH   8   9
ATOM      9  C3' N4B d   1      -1.968   0.444   2.342  0.00  0.00     0.004 C 
ATOM     10  C4' N4B d   1      -1.888   0.916   3.763  0.00  0.00     0.003 C 
ENDBRANCH   8   9
ENDBRANCH   7   8
ENDBRANCH   1   7
TORSDOF 3
ENDMDL
