MODEL 1
REMARK minimizedAffinity -2.9633286
REMARK minimizedRMSD -1
REMARK  3 active torsions:
REMARK  status: ('A' for Active; 'I' for Inactive)
REMARK    1  A    between atoms: C3'_2  and  C2'_3 
REMARK    2  A    between atoms: C2'_3  and  C1'_4 
REMARK    3  A    between atoms: C1'_4  and  C1_5 
ROOT
ATOM      1  C1  N4B d   1      -0.224  -0.343  -0.125  0.00  0.00    -0.075 A 
ATOM      2  C2  N4B d   1       1.049  -0.137  -0.702  0.00  0.00     0.002 A 
ATOM      3  C3  N4B d   1       1.818  -1.214  -1.072  0.00  0.00     0.002 A 
ATOM      4  C4  N4B d   1       1.344  -2.500  -0.860  0.00  0.00    -0.004 A 
ATOM      5  C5  N4B d   1       0.103  -2.690  -0.326  0.00  0.00     0.002 A 
ATOM      6  C6  N4B d   1      -0.682  -1.617   0.047  0.00  0.00     0.002 A 
ENDROOT
BRANCH   1   7
ATOM      7  C1' N4B d   1      -1.063   0.800   0.374  0.00  0.00     0.057 C 
BRANCH   7   8
ATOM      8  C2' N4B d   1      -0.381   1.432   1.584  0.00  0.00     0.009 C 
BRANCH   8   9
ATOM      9  C3' N4B d   1      -1.383   2.045   2.546  0.00  0.00     0.004 C 
ATOM     10  C4' N4B d   1      -2.239   1.017   3.226  0.00  0.00     0.003 C 
ENDBRANCH   8   9
ENDBRANCH   7   8
ENDBRANCH   1   7
TORSDOF 3
ENDMDL
