MODEL 1
REMARK minimizedAffinity -5.36168957
REMARK minimizedRMSD -1
REMARK  3 active torsions:
REMARK  status: ('A' for Active; 'I' for Inactive)
REMARK    1  A    between atoms: C3'_2  and  C2'_3 
REMARK    2  A    between atoms: C2'_3  and  C1'_4 
REMARK    3  A    between atoms: C1'_4  and  C1_5 
ROOT
ATOM      1  C1  N4B d   1       0.420  -0.216  -0.274  0.00  0.00    -0.075 A 
ATOM      2  C2  N4B d   1       0.671  -1.209  -1.245  0.00  0.00     0.002 A 
ATOM      3  C3  N4B d   1       1.955  -1.444  -1.672  0.00  0.00     0.002 A 
ATOM      4  C4  N4B d   1       2.998  -0.688  -1.157  0.00  0.00    -0.004 A 
ATOM      5  C5  N4B d   1       2.750   0.253  -0.200  0.00  0.00     0.002 A 
ATOM      6  C6  N4B d   1       1.465   0.497   0.240  0.00  0.00     0.002 A 
ENDROOT
BRANCH   1   7
ATOM      7  C1' N4B d   1      -0.976   0.136   0.161  0.00  0.00     0.057 C 
BRANCH   7   8
ATOM      8  C2' N4B d   1      -1.140  -0.201   1.640  0.00  0.00     0.009 C 
BRANCH   8   9
ATOM      9  C3' N4B d   1      -1.611   0.997   2.447  0.00  0.00     0.004 C 
ATOM     10  C4' N4B d   1      -1.468   0.794   3.925  0.00  0.00     0.003 C 
ENDBRANCH   8   9
ENDBRANCH   7   8
ENDBRANCH   1   7
TORSDOF 3
ENDMDL
