MODEL 1
REMARK minimizedAffinity -0.948273063
REMARK minimizedRMSD -1
REMARK  3 active torsions:
REMARK  status: ('A' for Active; 'I' for Inactive)
REMARK    1  A    between atoms: C3'_2  and  C2'_3 
REMARK    2  A    between atoms: C2'_3  and  C1'_4 
REMARK    3  A    between atoms: C1'_4  and  C1_5 
ROOT
ATOM      1  C1  N4B d   1       0.222  -0.199  -0.483  0.00  0.00    -0.075 A 
ATOM      2  C2  N4B d   1       1.273   0.648  -0.069  0.00  0.00     0.002 A 
ATOM      3  C3  N4B d   1       2.563   0.382  -0.458  0.00  0.00     0.002 A 
ATOM      4  C4  N4B d   1       2.828  -0.732  -1.241  0.00  0.00    -0.004 A 
ATOM      5  C5  N4B d   1       1.804  -1.531  -1.657  0.00  0.00     0.002 A 
ATOM      6  C6  N4B d   1       0.502  -1.273  -1.278  0.00  0.00     0.002 A 
ENDROOT
BRANCH   1   7
ATOM      7  C1' N4B d   1      -1.192   0.002  -0.013  0.00  0.00     0.057 C 
BRANCH   7   8
ATOM      8  C2' N4B d   1      -1.176   0.455   1.444  0.00  0.00     0.009 C 
BRANCH   8   9
ATOM      9  C3' N4B d   1      -2.454   0.073   2.172  0.00  0.00     0.004 C 
ATOM     10  C4' N4B d   1      -2.233  -0.194   3.631  0.00  0.00     0.003 C 
ENDBRANCH   8   9
ENDBRANCH   7   8
ENDBRANCH   1   7
TORSDOF 3
ENDMDL
