MODEL 1
REMARK minimizedAffinity -5.40240526
REMARK minimizedRMSD -1
REMARK  3 active torsions:
REMARK  status: ('A' for Active; 'I' for Inactive)
REMARK    1  A    between atoms: C3'_2  and  C2'_3 
REMARK    2  A    between atoms: C2'_3  and  C1'_4 
REMARK    3  A    between atoms: C1'_4  and  C1_5 
ROOT
ATOM      1  C1  N4B d   1      -0.039  -0.325  -0.146  0.00  0.00    -0.075 A 
ATOM      2  C2  N4B d   1      -0.064  -1.696  -0.484  0.00  0.00     0.002 A 
ATOM      3  C3  N4B d   1       0.940  -2.231  -1.254  0.00  0.00     0.002 A 
ATOM      4  C4  N4B d   1       1.964  -1.415  -1.710  0.00  0.00    -0.004 A 
ATOM      5  C5  N4B d   1       1.994  -0.097  -1.357  0.00  0.00     0.002 A 
ATOM      6  C6  N4B d   1       0.994   0.453  -0.581  0.00  0.00     0.002 A 
ENDROOT
BRANCH   1   7
ATOM      7  C1' N4B d   1      -1.159   0.324   0.621  0.00  0.00     0.057 C 
BRANCH   7   8
ATOM      8  C2' N4B d   1      -1.203  -0.258   2.031  0.00  0.00     0.009 C 
BRANCH   8   9
ATOM      9  C3' N4B d   1      -2.226   0.447   2.905  0.00  0.00     0.004 C 
ATOM     10  C4' N4B d   1      -1.834   1.856   3.237  0.00  0.00     0.003 C 
ENDBRANCH   8   9
ENDBRANCH   7   8
ENDBRANCH   1   7
TORSDOF 3
ENDMDL
