MODEL 1
REMARK minimizedAffinity -5.6007328
REMARK minimizedRMSD -1
REMARK  3 active torsions:
REMARK  status: ('A' for Active; 'I' for Inactive)
REMARK    1  A    between atoms: C3'_2  and  C2'_3 
REMARK    2  A    between atoms: C2'_3  and  C1'_4 
REMARK    3  A    between atoms: C1'_4  and  C1_5 
ROOT
ATOM      1  C1  N4B d   1       0.404  -0.692  -0.475  0.00  0.00    -0.075 A 
ATOM      2  C2  N4B d   1       0.889  -1.547  -1.489  0.00  0.00     0.002 A 
ATOM      3  C3  N4B d   1       2.108  -1.298  -2.071  0.00  0.00     0.002 A 
ATOM      4  C4  N4B d   1       2.847  -0.195  -1.670  0.00  0.00    -0.004 A 
ATOM      5  C5  N4B d   1       2.382   0.612  -0.673  0.00  0.00     0.002 A 
ATOM      6  C6  N4B d   1       1.161   0.372  -0.076  0.00  0.00     0.002 A 
ENDROOT
BRANCH   1   7
ATOM      7  C1' N4B d   1      -0.961  -0.874   0.131  0.00  0.00     0.057 C 
BRANCH   7   8
ATOM      8  C2' N4B d   1      -1.519   0.490   0.527  0.00  0.00     0.009 C 
BRANCH   8   9
ATOM      9  C3' N4B d   1      -2.318   0.424   1.818  0.00  0.00     0.004 C 
ATOM     10  C4' N4B d   1      -1.906   1.470   2.810  0.00  0.00     0.003 C 
ENDBRANCH   8   9
ENDBRANCH   7   8
ENDBRANCH   1   7
TORSDOF 3
ENDMDL
