MODEL 1
REMARK minimizedAffinity -4.02829456
REMARK minimizedRMSD -1
REMARK  3 active torsions:
REMARK  status: ('A' for Active; 'I' for Inactive)
REMARK    1  A    between atoms: C3'_2  and  C2'_3 
REMARK    2  A    between atoms: C2'_3  and  C1'_4 
REMARK    3  A    between atoms: C1'_4  and  C1_5 
ROOT
ATOM      1  C1  N4B d   1       0.184  -0.275  -0.203  0.00  0.00    -0.075 A 
ATOM      2  C2  N4B d   1       0.674  -1.568  -0.491  0.00  0.00     0.002 A 
ATOM      3  C3  N4B d   1       1.842  -1.717  -1.198  0.00  0.00     0.002 A 
ATOM      4  C4  N4B d   1       2.525  -0.594  -1.641  0.00  0.00    -0.004 A 
ATOM      5  C5  N4B d   1       2.058   0.651  -1.337  0.00  0.00     0.002 A 
ATOM      6  C6  N4B d   1       0.887   0.817  -0.624  0.00  0.00     0.002 A 
ENDROOT
BRANCH   1   7
ATOM      7  C1' N4B d   1      -1.133  -0.062   0.492  0.00  0.00     0.057 C 
BRANCH   7   8
ATOM      8  C2' N4B d   1      -0.917   0.829   1.711  0.00  0.00     0.009 C 
BRANCH   8   9
ATOM      9  C3' N4B d   1      -1.948   0.566   2.796  0.00  0.00     0.004 C 
ATOM     10  C4' N4B d   1      -3.143  -0.185   2.292  0.00  0.00     0.003 C 
ENDBRANCH   8   9
ENDBRANCH   7   8
ENDBRANCH   1   7
TORSDOF 3
ENDMDL
