MODEL 1
REMARK minimizedAffinity -5.7680459
REMARK minimizedRMSD -1
REMARK  3 active torsions:
REMARK  status: ('A' for Active; 'I' for Inactive)
REMARK    1  A    between atoms: C3'_2  and  C2'_3 
REMARK    2  A    between atoms: C2'_3  and  C1'_4 
REMARK    3  A    between atoms: C1'_4  and  C1_5 
ROOT
ATOM      1  C1  N4B d   1       0.504  -0.794   0.215  0.00  0.00    -0.075 A 
ATOM      2  C2  N4B d   1       1.501   0.159  -0.091  0.00  0.00     0.002 A 
ATOM      3  C3  N4B d   1       2.349  -0.051  -1.151  0.00  0.00     0.002 A 
ATOM      4  C4  N4B d   1       2.231  -1.208  -1.905  0.00  0.00    -0.004 A 
ATOM      5  C5  N4B d   1       1.249  -2.111  -1.619  0.00  0.00     0.002 A 
ATOM      6  C6  N4B d   1       0.388  -1.912  -0.559  0.00  0.00     0.002 A 
ENDROOT
BRANCH   1   7
ATOM      7  C1' N4B d   1      -0.389  -0.650   1.416  0.00  0.00     0.057 C 
BRANCH   7   8
ATOM      8  C2' N4B d   1      -1.136   0.678   1.329  0.00  0.00     0.009 C 
BRANCH   8   9
ATOM      9  C3' N4B d   1      -2.248   0.773   2.359  0.00  0.00     0.004 C 
ATOM     10  C4' N4B d   1      -2.126   1.983   3.236  0.00  0.00     0.003 C 
ENDBRANCH   8   9
ENDBRANCH   7   8
ENDBRANCH   1   7
TORSDOF 3
ENDMDL
