MODEL 1
REMARK minimizedAffinity 2.24622536
REMARK minimizedRMSD -1
REMARK  3 active torsions:
REMARK  status: ('A' for Active; 'I' for Inactive)
REMARK    1  A    between atoms: C3'_2  and  C2'_3 
REMARK    2  A    between atoms: C2'_3  and  C1'_4 
REMARK    3  A    between atoms: C1'_4  and  C1_5 
ROOT
ATOM      1  C1  N4B d   1      -0.084   0.265   0.323  0.00  0.00    -0.075 A 
ATOM      2  C2  N4B d   1       1.130   0.961   0.518  0.00  0.00     0.002 A 
ATOM      3  C3  N4B d   1       2.243   0.615  -0.207  0.00  0.00     0.002 A 
ATOM      4  C4  N4B d   1       2.173  -0.431  -1.115  0.00  0.00    -0.004 A 
ATOM      5  C5  N4B d   1       0.991  -1.081  -1.316  0.00  0.00     0.002 A 
ATOM      6  C6  N4B d   1      -0.138  -0.741  -0.597  0.00  0.00     0.002 A 
ENDROOT
BRANCH   1   7
ATOM      7  C1' N4B d   1      -1.305   0.551   1.154  0.00  0.00     0.057 C 
BRANCH   7   8
ATOM      8  C2' N4B d   1      -0.950   1.570   2.232  0.00  0.00     0.009 C 
BRANCH   8   9
ATOM      9  C3' N4B d   1      -1.747   1.350   3.507  0.00  0.00     0.004 C 
ATOM     10  C4' N4B d   1      -2.323  -0.031   3.600  0.00  0.00     0.003 C 
ENDBRANCH   8   9
ENDBRANCH   7   8
ENDBRANCH   1   7
TORSDOF 3
ENDMDL
