MODEL 1
REMARK minimizedAffinity 4.02910614
REMARK minimizedRMSD -1
REMARK  2 active torsions:
REMARK  status: ('A' for Active; 'I' for Inactive)
REMARK    1  A    between atoms: C1_2  and  C2_3 
REMARK    2  A    between atoms: C2_3  and  C3_4 
ROOT
ATOM      1  C3  UNL d   1       2.195  -0.722   1.861  0.00  0.00    -0.075 A 
ATOM      2  C4  UNL d   1       1.889  -0.603   0.497  0.00  0.00     0.002 A 
ATOM      3  C5  UNL d   1       0.561  -0.553   0.072  0.00  0.00     0.002 A 
ATOM      4  C6  UNL d   1      -0.475  -0.631   1.000  0.00  0.00    -0.004 A 
ATOM      5  C7  UNL d   1      -0.182  -0.765   2.355  0.00  0.00     0.002 A 
ATOM      6  C8  UNL d   1       1.145  -0.812   2.785  0.00  0.00     0.002 A 
ENDROOT
BRANCH   1   7
ATOM      7  C2  UNL d   1       3.630  -0.748   2.331  0.00  0.00     0.056 C 
BRANCH   7   8
ATOM      8  C1  UNL d   1       3.863  -1.611   3.575  0.00  0.00     0.007 C 
ATOM      9  C   UNL d   1       5.321  -1.649   4.015  0.00  0.00     0.009 C 
ENDBRANCH   7   8
ENDBRANCH   1   7
TORSDOF 2
ENDMDL
