MODEL 1
REMARK minimizedAffinity 4.67192173
REMARK minimizedRMSD -1
REMARK  2 active torsions:
REMARK  status: ('A' for Active; 'I' for Inactive)
REMARK    1  A    between atoms: C1_2  and  C2_3 
REMARK    2  A    between atoms: C2_3  and  C3_4 
ROOT
ATOM      1  C3  UNL d   1       0.381   1.913   2.224  0.00  0.00    -0.075 A 
ATOM      2  C4  UNL d   1       0.346   2.941   1.272  0.00  0.00     0.002 A 
ATOM      3  C5  UNL d   1       1.134   4.082   1.431  0.00  0.00     0.002 A 
ATOM      4  C6  UNL d   1       1.957   4.213   2.546  0.00  0.00    -0.004 A 
ATOM      5  C7  UNL d   1       1.988   3.205   3.507  0.00  0.00     0.002 A 
ATOM      6  C8  UNL d   1       1.204   2.061   3.349  0.00  0.00     0.002 A 
ENDROOT
BRANCH   1   7
ATOM      7  C2  UNL d   1      -0.447   0.663   2.043  0.00  0.00     0.056 C 
BRANCH   7   8
ATOM      8  C1  UNL d   1       0.338  -0.639   2.239  0.00  0.00     0.007 C 
ATOM      9  C   UNL d   1       1.076  -1.089   0.985  0.00  0.00     0.009 C 
ENDBRANCH   7   8
ENDBRANCH   1   7
TORSDOF 2
ENDMDL
