MODEL 1
REMARK minimizedAffinity 7.33251905
REMARK minimizedRMSD -1
REMARK  2 active torsions:
REMARK  status: ('A' for Active; 'I' for Inactive)
REMARK    1  A    between atoms: C1_2  and  C2_3 
REMARK    2  A    between atoms: C2_3  and  C3_4 
ROOT
ATOM      1  C3  UNL d   1       0.721   2.319   2.794  0.00  0.00    -0.075 A 
ATOM      2  C4  UNL d   1       0.442   3.106   1.668  0.00  0.00     0.002 A 
ATOM      3  C5  UNL d   1       1.177   4.264   1.413  0.00  0.00     0.002 A 
ATOM      4  C6  UNL d   1       2.191   4.655   2.284  0.00  0.00    -0.004 A 
ATOM      5  C7  UNL d   1       2.466   3.890   3.415  0.00  0.00     0.002 A 
ATOM      6  C8  UNL d   1       1.735   2.728   3.671  0.00  0.00     0.002 A 
ENDROOT
BRANCH   1   7
ATOM      7  C2  UNL d   1      -0.052   1.049   3.060  0.00  0.00     0.056 C 
BRANCH   7   8
ATOM      8  C1  UNL d   1       0.798  -0.224   2.987  0.00  0.00     0.007 C 
ATOM      9  C   UNL d   1       0.623  -1.132   4.197  0.00  0.00     0.009 C 
ENDBRANCH   7   8
ENDBRANCH   1   7
TORSDOF 2
ENDMDL
