MODEL 1
REMARK minimizedAffinity 8.12952518
REMARK minimizedRMSD -1
REMARK  2 active torsions:
REMARK  status: ('A' for Active; 'I' for Inactive)
REMARK    1  A    between atoms: C1_2  and  C2_3 
REMARK    2  A    between atoms: C2_3  and  C3_4 
ROOT
ATOM      1  C3  UNL d   1       0.198   2.925   0.890  0.00  0.00    -0.075 A 
ATOM      2  C4  UNL d   1      -0.127   1.609   0.528  0.00  0.00     0.002 A 
ATOM      3  C5  UNL d   1      -0.050   0.577   1.463  0.00  0.00     0.002 A 
ATOM      4  C6  UNL d   1       0.363   0.844   2.767  0.00  0.00    -0.004 A 
ATOM      5  C7  UNL d   1       0.704   2.144   3.133  0.00  0.00     0.002 A 
ATOM      6  C8  UNL d   1       0.623   3.179   2.201  0.00  0.00     0.002 A 
ENDROOT
BRANCH   1   7
ATOM      7  C2  UNL d   1       0.087   4.051  -0.109  0.00  0.00     0.056 C 
BRANCH   7   8
ATOM      8  C1  UNL d   1      -0.691   3.686  -1.378  0.00  0.00     0.007 C 
ATOM      9  C   UNL d   1      -1.103   4.900  -2.200  0.00  0.00     0.009 C 
ENDBRANCH   7   8
ENDBRANCH   1   7
TORSDOF 2
ENDMDL
