MODEL 1
REMARK minimizedAffinity 4.84439325
REMARK minimizedRMSD -1
REMARK  2 active torsions:
REMARK  status: ('A' for Active; 'I' for Inactive)
REMARK    1  A    between atoms: C1_2  and  C2_3 
REMARK    2  A    between atoms: C2_3  and  C3_4 
ROOT
ATOM      1  C3  UNL d   1       0.582  -4.568  -0.277  0.00  0.00    -0.075 A 
ATOM      2  C4  UNL d   1       0.793  -3.204  -0.024  0.00  0.00     0.002 A 
ATOM      3  C5  UNL d   1      -0.085  -2.245  -0.530  0.00  0.00     0.002 A 
ATOM      4  C6  UNL d   1      -1.176  -2.635  -1.303  0.00  0.00    -0.004 A 
ATOM      5  C7  UNL d   1      -1.386  -3.985  -1.575  0.00  0.00     0.002 A 
ATOM      6  C8  UNL d   1      -0.512  -4.947  -1.066  0.00  0.00     0.002 A 
ENDROOT
BRANCH   1   7
ATOM      7  C2  UNL d   1       1.511  -5.612   0.292  0.00  0.00     0.056 C 
BRANCH   7   8
ATOM      8  C1  UNL d   1       2.997  -5.316   0.065  0.00  0.00     0.007 C 
ATOM      9  C   UNL d   1       3.907  -6.000   1.077  0.00  0.00     0.009 C 
ENDBRANCH   7   8
ENDBRANCH   1   7
TORSDOF 2
ENDMDL
