MODEL 1
REMARK minimizedAffinity -2.32254314
REMARK minimizedRMSD -1
REMARK  2 active torsions:
REMARK  status: ('A' for Active; 'I' for Inactive)
REMARK    1  A    between atoms: C1_2  and  C2_3 
REMARK    2  A    between atoms: C2_3  and  C3_4 
ROOT
ATOM      1  C3  UNL d   1      -0.963   0.051  -0.611  0.00  0.00    -0.075 A 
ATOM      2  C4  UNL d   1      -1.598   1.195  -1.118  0.00  0.00     0.002 A 
ATOM      3  C5  UNL d   1      -2.756   1.079  -1.888  0.00  0.00     0.002 A 
ATOM      4  C6  UNL d   1      -3.286  -0.177  -2.170  0.00  0.00    -0.004 A 
ATOM      5  C7  UNL d   1      -2.654  -1.321  -1.686  0.00  0.00     0.002 A 
ATOM      6  C8  UNL d   1      -1.498  -1.209  -0.911  0.00  0.00     0.002 A 
ENDROOT
BRANCH   1   7
ATOM      7  C2  UNL d   1       0.274   0.170   0.247  0.00  0.00     0.056 C 
BRANCH   7   8
ATOM      8  C1  UNL d   1       0.027   0.831   1.608  0.00  0.00     0.007 C 
ATOM      9  C   UNL d   1      -0.233  -0.172   2.724  0.00  0.00     0.009 C 
ENDBRANCH   7   8
ENDBRANCH   1   7
TORSDOF 2
ENDMDL
