MODEL 1
REMARK minimizedAffinity 12.6446772
REMARK minimizedRMSD -1
REMARK  0 active torsions:
REMARK  status: ('A' for Active; 'I' for Inactive)
ROOT
ATOM      1  C4' PXY d   1      -5.879  -5.992   4.399  0.00  0.00     0.077 C 
ATOM      2  C1' PXY d   1      -5.998  -0.529   2.513  0.00  0.00     0.077 C 
ATOM      3  C1  PXY d   1      -5.961  -1.957   3.019  0.00  0.00    -0.082 A 
ATOM      4  C2  PXY d   1      -5.980  -2.958   2.153  0.00  0.00     0.003 A 
ATOM      5  C3  PXY d   1      -5.980  -4.256   2.594  0.00  0.00     0.003 A 
ATOM      6  C4  PXY d   1      -5.905  -4.533   3.933  0.00  0.00    -0.082 A 
ATOM      7  C5  PXY d   1      -5.875  -3.518   4.822  0.00  0.00     0.003 A 
ATOM      8  C6  PXY d   1      -5.918  -2.207   4.355  0.00  0.00     0.003 A 
ENDROOT
TORSDOF 0
ENDMDL
