MODEL 1
REMARK minimizedAffinity 14.6030407
REMARK minimizedRMSD -1
REMARK  0 active torsions:
REMARK  status: ('A' for Active; 'I' for Inactive)
ROOT
ATOM      1  C4' PXY d   1       2.750  -2.321  -0.061  0.00  0.00     0.077 C 
ATOM      2  C1' PXY d   1       1.303   2.701  -2.530  0.00  0.00     0.077 C 
ATOM      3  C1  PXY d   1       1.692   1.390  -1.876  0.00  0.00    -0.082 A 
ATOM      4  C2  PXY d   1       1.425   0.248  -2.489  0.00  0.00     0.003 A 
ATOM      5  C3  PXY d   1       1.741  -0.947  -1.897  0.00  0.00     0.003 A 
ATOM      6  C4  PXY d   1       2.384  -0.974  -0.688  0.00  0.00    -0.082 A 
ATOM      7  C5  PXY d   1       2.669   0.187  -0.061  0.00  0.00     0.003 A 
ATOM      8  C6  PXY d   1       2.304   1.389  -0.660  0.00  0.00     0.003 A 
ENDROOT
TORSDOF 0
ENDMDL
