MODEL 1
REMARK minimizedAffinity 3.31350231
REMARK minimizedRMSD -1
REMARK  0 active torsions:
REMARK  status: ('A' for Active; 'I' for Inactive)
ROOT
ATOM      1  C4' PXY d   1       5.306  -6.000   0.002  0.00  0.00     0.077 C 
ATOM      2  C1' PXY d   1       1.846  -2.984  -3.512  0.00  0.00     0.077 C 
ATOM      3  C1  PXY d   1       2.756  -3.764  -2.583  0.00  0.00    -0.082 A 
ATOM      4  C2  PXY d   1       3.317  -4.885  -3.007  0.00  0.00     0.003 A 
ATOM      5  C3  PXY d   1       4.117  -5.619  -2.170  0.00  0.00     0.003 A 
ATOM      6  C4  PXY d   1       4.388  -5.175  -0.904  0.00  0.00    -0.082 A 
ATOM      7  C5  PXY d   1       3.827  -4.027  -0.467  0.00  0.00     0.003 A 
ATOM      8  C6  PXY d   1       2.985  -3.318  -1.319  0.00  0.00     0.003 A 
ENDROOT
TORSDOF 0
ENDMDL
