MODEL 1
REMARK minimizedAffinity 10.6174545
REMARK minimizedRMSD -1
REMARK  0 active torsions:
REMARK  status: ('A' for Active; 'I' for Inactive)
ROOT
ATOM      1  C4' PXY d   1       1.276   0.466   1.898  0.00  0.00     0.077 C 
ATOM      2  C1' PXY d   1       5.035   4.857   1.842  0.00  0.00     0.077 C 
ATOM      3  C1  PXY d   1       4.053   3.702   1.845  0.00  0.00    -0.082 A 
ATOM      4  C2  PXY d   1       2.999   3.742   2.644  0.00  0.00     0.003 A 
ATOM      5  C3  PXY d   1       2.118   2.692   2.682  0.00  0.00     0.003 A 
ATOM      6  C4  PXY d   1       2.288   1.614   1.855  0.00  0.00    -0.082 A 
ATOM      7  C5  PXY d   1       3.355   1.571   1.029  0.00  0.00     0.003 A 
ATOM      8  C6  PXY d   1       4.260   2.628   1.035  0.00  0.00     0.003 A 
ENDROOT
TORSDOF 0
ENDMDL
