MODEL 1
REMARK minimizedAffinity 8.36021233
REMARK minimizedRMSD -1
REMARK  0 active torsions:
REMARK  status: ('A' for Active; 'I' for Inactive)
ROOT
ATOM      1  C4' PXY d   1      -3.075   0.149   2.646  0.00  0.00     0.077 C 
ATOM      2  C1' PXY d   1       2.245   2.363   2.189  0.00  0.00     0.077 C 
ATOM      3  C1  PXY d   1       0.855   1.770   2.309  0.00  0.00    -0.082 A 
ATOM      4  C2  PXY d   1      -0.192   2.475   1.913  0.00  0.00     0.003 A 
ATOM      5  C3  PXY d   1      -1.459   1.967   2.044  0.00  0.00     0.003 A 
ATOM      6  C4  PXY d   1      -1.652   0.704   2.535  0.00  0.00    -0.082 A 
ATOM      7  C5  PXY d   1      -0.587  -0.026   2.931  0.00  0.00     0.003 A 
ATOM      8  C6  PXY d   1       0.687   0.524   2.828  0.00  0.00     0.003 A 
ENDROOT
TORSDOF 0
ENDMDL
