MODEL 1
REMARK minimizedAffinity 1.43282855
REMARK minimizedRMSD -1
REMARK  0 active torsions:
REMARK  status: ('A' for Active; 'I' for Inactive)
ROOT
ATOM      1  C4' PXY d   1       1.420   0.728  -4.210  0.00  0.00     0.077 C 
ATOM      2  C1' PXY d   1       3.873  -1.701   0.428  0.00  0.00     0.077 C 
ATOM      3  C1  PXY d   1       3.231  -1.052  -0.783  0.00  0.00    -0.082 A 
ATOM      4  C2  PXY d   1       2.433  -1.765  -1.561  0.00  0.00     0.003 A 
ATOM      5  C3  PXY d   1       1.869  -1.203  -2.677  0.00  0.00     0.003 A 
ATOM      6  C4  PXY d   1       2.083   0.117  -2.972  0.00  0.00    -0.082 A 
ATOM      7  C5  PXY d   1       2.888   0.854  -2.177  0.00  0.00     0.003 A 
ATOM      8  C6  PXY d   1       3.483   0.254  -1.071  0.00  0.00     0.003 A 
ENDROOT
TORSDOF 0
ENDMDL
