MODEL 1
REMARK minimizedAffinity 12.2691107
REMARK minimizedRMSD -1
REMARK  0 active torsions:
REMARK  status: ('A' for Active; 'I' for Inactive)
ROOT
ATOM      1  C4' PXY d   1       3.090   0.368   0.056  0.00  0.00     0.077 C 
ATOM      2  C1' PXY d   1       2.625   3.228   5.058  0.00  0.00     0.077 C 
ATOM      3  C1  PXY d   1       2.749   2.489   3.740  0.00  0.00    -0.082 A 
ATOM      4  C2  PXY d   1       2.210   1.288   3.611  0.00  0.00     0.003 A 
ATOM      5  C3  PXY d   1       2.340   0.592   2.436  0.00  0.00     0.003 A 
ATOM      6  C4  PXY d   1       2.982   1.154   1.365  0.00  0.00    -0.082 A 
ATOM      7  C5  PXY d   1       3.525   2.384   1.486  0.00  0.00     0.003 A 
ATOM      8  C6  PXY d   1       3.418   3.057   2.700  0.00  0.00     0.003 A 
ENDROOT
TORSDOF 0
ENDMDL
