MODEL 1
REMARK minimizedAffinity 18.3135853
REMARK minimizedRMSD -1
REMARK  0 active torsions:
REMARK  status: ('A' for Active; 'I' for Inactive)
ROOT
ATOM      1  C4' PXY d   1       1.809   1.430   3.198  0.00  0.00     0.077 C 
ATOM      2  C1' PXY d   1       5.232   1.963  -1.430  0.00  0.00     0.077 C 
ATOM      3  C1  PXY d   1       4.340   1.834  -0.211  0.00  0.00    -0.082 A 
ATOM      4  C2  PXY d   1       3.813   0.658   0.092  0.00  0.00     0.003 A 
ATOM      5  C3  PXY d   1       2.978   0.531   1.172  0.00  0.00     0.003 A 
ATOM      6  C4  PXY d   1       2.723   1.605   1.982  0.00  0.00    -0.082 A 
ATOM      7  C5  PXY d   1       3.266   2.805   1.686  0.00  0.00     0.003 A 
ATOM      8  C6  PXY d   1       4.077   2.923   0.561  0.00  0.00     0.003 A 
ENDROOT
TORSDOF 0
ENDMDL
