MODEL 1
REMARK minimizedAffinity 17.3803749
REMARK minimizedRMSD -1
REMARK  0 active torsions:
REMARK  status: ('A' for Active; 'I' for Inactive)
ROOT
ATOM      1  C4' PXY d   1       2.476  -0.337  -0.235  0.00  0.00     0.077 C 
ATOM      2  C1' PXY d   1      -1.290  -4.026  -2.605  0.00  0.00     0.077 C 
ATOM      3  C1  PXY d   1      -0.303  -3.065  -1.972  0.00  0.00    -0.082 A 
ATOM      4  C2  PXY d   1      -0.154  -1.853  -2.480  0.00  0.00     0.003 A 
ATOM      5  C3  PXY d   1       0.757  -0.982  -1.939  0.00  0.00     0.003 A 
ATOM      6  C4  PXY d   1       1.485  -1.337  -0.835  0.00  0.00    -0.082 A 
ATOM      7  C5  PXY d   1       1.330  -2.569  -0.305  0.00  0.00     0.003 A 
ATOM      8  C6  PXY d   1       0.430  -3.453  -0.893  0.00  0.00     0.003 A 
ENDROOT
TORSDOF 0
ENDMDL
