MODEL 1
REMARK minimizedAffinity 12.0806866
REMARK minimizedRMSD -1
REMARK  0 active torsions:
REMARK  status: ('A' for Active; 'I' for Inactive)
ROOT
ATOM      1  C4' PXY d   1       1.781  -0.131  -1.472  0.00  0.00     0.077 C 
ATOM      2  C1' PXY d   1      -1.223  -5.053  -1.887  0.00  0.00     0.077 C 
ATOM      3  C1  PXY d   1      -0.430  -3.766  -1.768  0.00  0.00    -0.082 A 
ATOM      4  C2  PXY d   1      -0.892  -2.659  -2.324  0.00  0.00     0.003 A 
ATOM      5  C3  PXY d   1      -0.171  -1.494  -2.253  0.00  0.00     0.003 A 
ATOM      6  C4  PXY d   1       1.009  -1.451  -1.560  0.00  0.00    -0.082 A 
ATOM      7  C5  PXY d   1       1.482  -2.574  -0.980  0.00  0.00     0.003 A 
ATOM      8  C6  PXY d   1       0.755  -3.756  -1.099  0.00  0.00     0.003 A 
ENDROOT
TORSDOF 0
ENDMDL
