MODEL 1
REMARK minimizedAffinity 5.68587303
REMARK minimizedRMSD -1
REMARK  0 active torsions:
REMARK  status: ('A' for Active; 'I' for Inactive)
ROOT
ATOM      1  C4' PXY d   1      -2.303  -2.645  -2.636  0.00  0.00     0.077 C 
ATOM      2  C1' PXY d   1       2.939  -3.491  -0.350  0.00  0.00     0.077 C 
ATOM      3  C1  PXY d   1       1.565  -3.281  -0.955  0.00  0.00    -0.082 A 
ATOM      4  C2  PXY d   1       1.098  -2.052  -1.107  0.00  0.00     0.003 A 
ATOM      5  C3  PXY d   1      -0.155  -1.845  -1.623  0.00  0.00     0.003 A 
ATOM      6  C4  PXY d   1      -0.917  -2.904  -2.038  0.00  0.00    -0.082 A 
ATOM      7  C5  PXY d   1      -0.444  -4.161  -1.896  0.00  0.00     0.003 A 
ATOM      8  C6  PXY d   1       0.814  -4.351  -1.332  0.00  0.00     0.003 A 
ENDROOT
TORSDOF 0
ENDMDL
