MODEL 1
REMARK minimizedAffinity 12.0137577
REMARK minimizedRMSD -1
REMARK  0 active torsions:
REMARK  status: ('A' for Active; 'I' for Inactive)
ROOT
ATOM      1  C4' PXY d   1       0.751  -1.074   4.256  0.00  0.00     0.077 C 
ATOM      2  C1' PXY d   1       3.237   4.045   5.273  0.00  0.00     0.077 C 
ATOM      3  C1  PXY d   1       2.580   2.707   4.995  0.00  0.00    -0.082 A 
ATOM      4  C2  PXY d   1       2.311   1.889   6.000  0.00  0.00     0.003 A 
ATOM      5  C3  PXY d   1       1.746   0.663   5.763  0.00  0.00     0.003 A 
ATOM      6  C4  PXY d   1       1.405   0.291   4.491  0.00  0.00    -0.082 A 
ATOM      7  C5  PXY d   1       1.667   1.124   3.461  0.00  0.00     0.003 A 
ATOM      8  C6  PXY d   1       2.278   2.348   3.718  0.00  0.00     0.003 A 
ENDROOT
TORSDOF 0
ENDMDL
