MODEL 1
REMARK minimizedAffinity 12.8524828
REMARK minimizedRMSD -1
REMARK  0 active torsions:
REMARK  status: ('A' for Active; 'I' for Inactive)
ROOT
ATOM      1  C4' PXY d   1      -1.258  -5.401  -1.833  0.00  0.00     0.077 C 
ATOM      2  C1' PXY d   1      -2.094   0.112  -3.356  0.00  0.00     0.077 C 
ATOM      3  C1  PXY d   1      -1.862  -1.332  -2.958  0.00  0.00    -0.082 A 
ATOM      4  C2  PXY d   1      -2.816  -2.226  -3.155  0.00  0.00     0.003 A 
ATOM      5  C3  PXY d   1      -2.635  -3.530  -2.771  0.00  0.00     0.003 A 
ATOM      6  C4  PXY d   1      -1.445  -3.934  -2.228  0.00  0.00    -0.082 A 
ATOM      7  C5  PXY d   1      -0.462  -3.029  -2.033  0.00  0.00     0.003 A 
ATOM      8  C6  PXY d   1      -0.681  -1.702  -2.392  0.00  0.00     0.003 A 
ENDROOT
TORSDOF 0
ENDMDL
