MODEL 1
REMARK minimizedAffinity 6.47788763
REMARK minimizedRMSD -1
REMARK  0 active torsions:
REMARK  status: ('A' for Active; 'I' for Inactive)
ROOT
ATOM      1  C4' PXY d   1      -2.757  -2.588  -3.824  0.00  0.00     0.077 C 
ATOM      2  C1' PXY d   1       2.009  -3.038  -0.583  0.00  0.00     0.077 C 
ATOM      3  C1  PXY d   1       0.758  -2.933  -1.433  0.00  0.00    -0.082 A 
ATOM      4  C2  PXY d   1       0.563  -1.859  -2.181  0.00  0.00     0.003 A 
ATOM      5  C3  PXY d   1      -0.578  -1.733  -2.931  0.00  0.00     0.003 A 
ATOM      6  C4  PXY d   1      -1.504  -2.741  -2.957  0.00  0.00    -0.082 A 
ATOM      7  C5  PXY d   1      -1.308  -3.845  -2.206  0.00  0.00     0.003 A 
ATOM      8  C6  PXY d   1      -0.163  -3.935  -1.419  0.00  0.00     0.003 A 
ENDROOT
TORSDOF 0
ENDMDL
