MODEL 1
REMARK minimizedAffinity 8.47402573
REMARK minimizedRMSD -1
REMARK  0 active torsions:
REMARK  status: ('A' for Active; 'I' for Inactive)
ROOT
ATOM      1  C4' PXY d   1       1.663   4.910  -1.981  0.00  0.00     0.077 C 
ATOM      2  C1' PXY d   1       1.792  -0.830  -2.652  0.00  0.00     0.077 C 
ATOM      3  C1  PXY d   1       1.754   0.677  -2.489  0.00  0.00    -0.082 A 
ATOM      4  C2  PXY d   1       2.506   1.253  -1.566  0.00  0.00     0.003 A 
ATOM      5  C3  PXY d   1       2.460   2.612  -1.383  0.00  0.00     0.003 A 
ATOM      6  C4  PXY d   1       1.676   3.393  -2.188  0.00  0.00    -0.082 A 
ATOM      7  C5  PXY d   1       0.913   2.813  -3.139  0.00  0.00     0.003 A 
ATOM      8  C6  PXY d   1       0.943   1.429  -3.281  0.00  0.00     0.003 A 
ENDROOT
TORSDOF 0
ENDMDL
