MODEL 1
REMARK minimizedAffinity 11.0929928
REMARK minimizedRMSD -1
REMARK  0 active torsions:
REMARK  status: ('A' for Active; 'I' for Inactive)
ROOT
ATOM      1  C4' PXY d   1      -5.990   0.235   1.246  0.00  0.00     0.077 C 
ATOM      2  C1' PXY d   1      -5.987  -4.509   4.549  0.00  0.00     0.077 C 
ATOM      3  C1  PXY d   1      -5.982  -3.272   3.673  0.00  0.00    -0.082 A 
ATOM      4  C2  PXY d   1      -5.971  -2.073   4.234  0.00  0.00     0.003 A 
ATOM      5  C3  PXY d   1      -5.999  -0.944   3.457  0.00  0.00     0.003 A 
ATOM      6  C4  PXY d   1      -5.985  -1.042   2.091  0.00  0.00    -0.082 A 
ATOM      7  C5  PXY d   1      -5.986  -2.261   1.512  0.00  0.00     0.003 A 
ATOM      8  C6  PXY d   1      -5.999  -3.395   2.318  0.00  0.00     0.003 A 
ENDROOT
TORSDOF 0
ENDMDL
