MODEL 1
REMARK minimizedAffinity 16.1191978
REMARK minimizedRMSD -1
REMARK  0 active torsions:
REMARK  status: ('A' for Active; 'I' for Inactive)
ROOT
ATOM      1  C4' PXY d   1       2.201  -2.436  -0.774  0.00  0.00     0.077 C 
ATOM      2  C1' PXY d   1       1.632   2.983  -2.705  0.00  0.00     0.077 C 
ATOM      3  C1  PXY d   1       1.791   1.565  -2.192  0.00  0.00    -0.082 A 
ATOM      4  C2  PXY d   1       1.268   0.560  -2.874  0.00  0.00     0.003 A 
ATOM      5  C3  PXY d   1       1.375  -0.725  -2.408  0.00  0.00     0.003 A 
ATOM      6  C4  PXY d   1       2.072  -0.989  -1.259  0.00  0.00    -0.082 A 
ATOM      7  C5  PXY d   1       2.618   0.030  -0.563  0.00  0.00     0.003 A 
ATOM      8  C6  PXY d   1       2.463   1.331  -1.032  0.00  0.00     0.003 A 
ENDROOT
TORSDOF 0
ENDMDL
