MODEL 1
REMARK minimizedAffinity 1.72401547
REMARK minimizedRMSD -1
REMARK  0 active torsions:
REMARK  status: ('A' for Active; 'I' for Inactive)
ROOT
ATOM      1  C4' PXY d   1       3.153   0.235  -1.135  0.00  0.00     0.077 C 
ATOM      2  C1' PXY d   1      -0.589  -4.037  -2.211  0.00  0.00     0.077 C 
ATOM      3  C1  PXY d   1       0.394  -2.915  -1.941  0.00  0.00    -0.082 A 
ATOM      4  C2  PXY d   1       1.031  -2.867  -0.782  0.00  0.00     0.003 A 
ATOM      5  C3  PXY d   1       1.899  -1.842  -0.510  0.00  0.00     0.003 A 
ATOM      6  C4  PXY d   1       2.159  -0.885  -1.454  0.00  0.00    -0.082 A 
ATOM      7  C5  PXY d   1       1.522  -0.933  -2.643  0.00  0.00     0.003 A 
ATOM      8  C6  PXY d   1       0.613  -1.959  -2.884  0.00  0.00     0.003 A 
ENDROOT
TORSDOF 0
ENDMDL
