MODEL 1
REMARK minimizedAffinity -4.02136612
REMARK minimizedRMSD -1
REMARK  0 active torsions:
REMARK  status: ('A' for Active; 'I' for Inactive)
ROOT
ATOM      1  C4' PXY d   1       0.749   2.507   0.750  0.00  0.00     0.077 C 
ATOM      2  C1' PXY d   1       1.782  -2.625  -1.701  0.00  0.00     0.077 C 
ATOM      3  C1  PXY d   1       1.500  -1.284  -1.054  0.00  0.00    -0.082 A 
ATOM      4  C2  PXY d   1       2.098  -0.197  -1.514  0.00  0.00     0.003 A 
ATOM      5  C3  PXY d   1       1.878   1.020  -0.920  0.00  0.00     0.003 A 
ATOM      6  C4  PXY d   1       0.997   1.133   0.122  0.00  0.00    -0.082 A 
ATOM      7  C5  PXY d   1       0.375   0.030   0.590  0.00  0.00     0.003 A 
ATOM      8  C6  PXY d   1       0.643  -1.201  -0.000  0.00  0.00     0.003 A 
ENDROOT
TORSDOF 0
ENDMDL
