MODEL 1
REMARK minimizedAffinity -0.493828773
REMARK minimizedRMSD -1
REMARK  1 active torsions:
REMARK  status: ('A' for Active; 'I' for Inactive)
REMARK    1  A    between atoms: C1_2  and  C2_3 
ROOT
ATOM      1  C2  UNL d   1       0.915   0.287   0.305  0.00  0.00    -0.081 A 
ATOM      2  C3  UNL d   1       0.280  -0.957   0.392  0.00  0.00     0.006 A 
ATOM      3  C4  UNL d   1      -1.112  -1.037   0.485  0.00  0.00     0.002 A 
ATOM      4  C5  UNL d   1      -1.891   0.124   0.485  0.00  0.00    -0.080 A 
ATOM      5  C6  UNL d   1      -3.388   0.051   0.554  0.00  0.00     0.076 C 
ATOM      6  C7  UNL d   1      -1.256   1.369   0.415  0.00  0.00     0.002 A 
ATOM      7  C8  UNL d   1       0.136   1.449   0.322  0.00  0.00     0.006 A 
ENDROOT
BRANCH   1   8
ATOM      8  C1  UNL d   1       2.411   0.375   0.139  0.00  0.00     0.054 C 
ATOM      9  C   UNL d   1       3.083  -0.949   0.475  0.00  0.00     0.018 C 
ENDBRANCH   1   8
TORSDOF 1
ENDMDL
