MODEL 1
REMARK minimizedAffinity -3.97387409
REMARK minimizedRMSD -1
REMARK  1 active torsions:
REMARK  status: ('A' for Active; 'I' for Inactive)
REMARK    1  A    between atoms: C1_2  and  C2_3 
ROOT
ATOM      1  C2  UNL d   1       0.264   0.595   0.193  0.00  0.00    -0.081 A 
ATOM      2  C3  UNL d   1       0.938  -0.631   0.140  0.00  0.00     0.006 A 
ATOM      3  C4  UNL d   1       0.242  -1.830   0.310  0.00  0.00     0.002 A 
ATOM      4  C5  UNL d   1      -1.140  -1.823   0.528  0.00  0.00    -0.080 A 
ATOM      5  C6  UNL d   1      -1.905  -3.104   0.681  0.00  0.00     0.076 C 
ATOM      6  C7  UNL d   1      -1.811  -0.597   0.598  0.00  0.00     0.002 A 
ATOM      7  C8  UNL d   1      -1.115   0.602   0.429  0.00  0.00     0.006 A 
ENDROOT
BRANCH   1   8
ATOM      8  C1  UNL d   1       1.002   1.887  -0.054  0.00  0.00     0.054 C 
ATOM      9  C   UNL d   1       1.176   2.148  -1.543  0.00  0.00     0.018 C 
ENDBRANCH   1   8
TORSDOF 1
ENDMDL
