MODEL 1
REMARK minimizedAffinity -1.67175627
REMARK minimizedRMSD -1
REMARK  1 active torsions:
REMARK  status: ('A' for Active; 'I' for Inactive)
REMARK    1  A    between atoms: C1_2  and  C2_3 
ROOT
ATOM      1  C2  UNL d   1      -0.539   1.311  -0.364  0.00  0.00    -0.081 A 
ATOM      2  C3  UNL d   1      -1.066   1.893  -1.523  0.00  0.00     0.006 A 
ATOM      3  C4  UNL d   1      -0.218   2.337  -2.541  0.00  0.00     0.002 A 
ATOM      4  C5  UNL d   1       1.169   2.199  -2.420  0.00  0.00    -0.080 A 
ATOM      5  C6  UNL d   1       2.089   2.643  -3.519  0.00  0.00     0.076 C 
ATOM      6  C7  UNL d   1       1.696   1.633  -1.254  0.00  0.00     0.002 A 
ATOM      7  C8  UNL d   1       0.849   1.190  -0.236  0.00  0.00     0.006 A 
ENDROOT
BRANCH   1   8
ATOM      8  C1  UNL d   1      -1.453   0.774   0.707  0.00  0.00     0.054 C 
ATOM      9  C   UNL d   1      -2.027  -0.581   0.316  0.00  0.00     0.018 C 
ENDBRANCH   1   8
TORSDOF 1
ENDMDL
