MODEL 1
REMARK minimizedAffinity -2.43562055
REMARK minimizedRMSD -1
REMARK  1 active torsions:
REMARK  status: ('A' for Active; 'I' for Inactive)
REMARK    1  A    between atoms: C1_2  and  C2_3 
ROOT
ATOM      1  C2  UNL d   1       0.807   0.816  -1.095  0.00  0.00    -0.081 A 
ATOM      2  C3  UNL d   1      -0.272   1.129  -0.258  0.00  0.00     0.006 A 
ATOM      3  C4  UNL d   1      -0.785   0.173   0.622  0.00  0.00     0.002 A 
ATOM      4  C5  UNL d   1      -0.225  -1.107   0.686  0.00  0.00    -0.080 A 
ATOM      5  C6  UNL d   1      -0.748  -2.132   1.648  0.00  0.00     0.076 C 
ATOM      6  C7  UNL d   1       0.841  -1.425  -0.163  0.00  0.00     0.002 A 
ATOM      7  C8  UNL d   1       1.354  -0.470  -1.043  0.00  0.00     0.006 A 
ENDROOT
BRANCH   1   8
ATOM      8  C1  UNL d   1       1.405   1.864  -1.998  0.00  0.00     0.054 C 
ATOM      9  C   UNL d   1       0.581   2.037  -3.266  0.00  0.00     0.018 C 
ENDBRANCH   1   8
TORSDOF 1
ENDMDL
