MODEL 1
REMARK minimizedAffinity -3.98425579
REMARK minimizedRMSD -1
REMARK  1 active torsions:
REMARK  status: ('A' for Active; 'I' for Inactive)
REMARK    1  A    between atoms: C1_2  and  C2_3 
ROOT
ATOM      1  C2  UNL d   1       0.210   0.247  -0.506  0.00  0.00    -0.081 A 
ATOM      2  C3  UNL d   1       0.743  -0.969  -0.059  0.00  0.00     0.006 A 
ATOM      3  C4  UNL d   1      -0.066  -1.898   0.598  0.00  0.00     0.002 A 
ATOM      4  C5  UNL d   1      -1.422  -1.632   0.813  0.00  0.00    -0.080 A 
ATOM      5  C6  UNL d   1      -2.309  -2.634   1.491  0.00  0.00     0.076 C 
ATOM      6  C7  UNL d   1      -1.951  -0.410   0.383  0.00  0.00     0.002 A 
ATOM      7  C8  UNL d   1      -1.142   0.520  -0.274  0.00  0.00     0.006 A 
ENDROOT
BRANCH   1   8
ATOM      8  C1  UNL d   1       1.065   1.223  -1.272  0.00  0.00     0.054 C 
ATOM      9  C   UNL d   1       0.494   1.490  -2.658  0.00  0.00     0.018 C 
ENDBRANCH   1   8
TORSDOF 1
ENDMDL
