MODEL 1
REMARK minimizedAffinity -4.41267109
REMARK minimizedRMSD -1
REMARK  1 active torsions:
REMARK  status: ('A' for Active; 'I' for Inactive)
REMARK    1  A    between atoms: C1_2  and  C2_3 
ROOT
ATOM      1  C2  UNL d   1       0.449   0.483  -0.102  0.00  0.00    -0.081 A 
ATOM      2  C3  UNL d   1       1.131  -0.707   0.180  0.00  0.00     0.006 A 
ATOM      3  C4  UNL d   1       0.442  -1.821   0.664  0.00  0.00     0.002 A 
ATOM      4  C5  UNL d   1      -0.941  -1.767   0.867  0.00  0.00    -0.080 A 
ATOM      5  C6  UNL d   1      -1.698  -2.966   1.358  0.00  0.00     0.076 C 
ATOM      6  C7  UNL d   1      -1.620  -0.573   0.603  0.00  0.00     0.002 A 
ATOM      7  C8  UNL d   1      -0.932   0.542   0.119  0.00  0.00     0.006 A 
ENDROOT
BRANCH   1   8
ATOM      8  C1  UNL d   1       1.179   1.666  -0.685  0.00  0.00     0.054 C 
ATOM      9  C   UNL d   1       1.203   1.606  -2.205  0.00  0.00     0.018 C 
ENDBRANCH   1   8
TORSDOF 1
ENDMDL
