MODEL 1
REMARK minimizedAffinity -3.57592535
REMARK minimizedRMSD -1
REMARK  1 active torsions:
REMARK  status: ('A' for Active; 'I' for Inactive)
REMARK    1  A    between atoms: C1_2  and  C2_3 
ROOT
ATOM      1  C2  UNL d   1       0.878   0.557  -0.800  0.00  0.00    -0.081 A 
ATOM      2  C3  UNL d   1       1.392  -0.136   0.302  0.00  0.00     0.006 A 
ATOM      3  C4  UNL d   1       0.656  -1.161   0.901  0.00  0.00     0.002 A 
ATOM      4  C5  UNL d   1      -0.602  -1.516   0.402  0.00  0.00    -0.080 A 
ATOM      5  C6  UNL d   1      -1.390  -2.634   1.017  0.00  0.00     0.076 C 
ATOM      6  C7  UNL d   1      -1.124  -0.811  -0.688  0.00  0.00     0.002 A 
ATOM      7  C8  UNL d   1      -0.388   0.214  -1.286  0.00  0.00     0.006 A 
ENDROOT
BRANCH   1   8
ATOM      8  C1  UNL d   1       1.697   1.619  -1.488  0.00  0.00     0.054 C 
ATOM      9  C   UNL d   1       1.288   1.777  -2.945  0.00  0.00     0.018 C 
ENDBRANCH   1   8
TORSDOF 1
ENDMDL
