MODEL 1
REMARK minimizedAffinity -0.837803304
REMARK minimizedRMSD -1
REMARK  1 active torsions:
REMARK  status: ('A' for Active; 'I' for Inactive)
REMARK    1  A    between atoms: C1_2  and  C2_3 
ROOT
ATOM      1  C2  UNL d   1       0.736   0.892  -0.764  0.00  0.00    -0.081 A 
ATOM      2  C3  UNL d   1       1.238  -0.369  -0.420  0.00  0.00     0.006 A 
ATOM      3  C4  UNL d   1       0.422  -1.305   0.221  0.00  0.00     0.002 A 
ATOM      4  C5  UNL d   1      -0.909  -0.999   0.521  0.00  0.00    -0.080 A 
ATOM      5  C6  UNL d   1      -1.804  -2.006   1.181  0.00  0.00     0.076 C 
ATOM      6  C7  UNL d   1      -1.406   0.267   0.192  0.00  0.00     0.002 A 
ATOM      7  C8  UNL d   1      -0.591   1.203  -0.448  0.00  0.00     0.006 A 
ENDROOT
BRANCH   1   8
ATOM      8  C1  UNL d   1       1.593   1.880  -1.513  0.00  0.00     0.054 C 
ATOM      9  C   UNL d   1       1.224   1.926  -2.989  0.00  0.00     0.018 C 
ENDBRANCH   1   8
TORSDOF 1
ENDMDL
