MODEL 1
REMARK minimizedAffinity -5.21331263
REMARK minimizedRMSD -1
REMARK  1 active torsions:
REMARK  status: ('A' for Active; 'I' for Inactive)
REMARK    1  A    between atoms: C1_2  and  C2_3 
ROOT
ATOM      1  C2  UNL d   1      -1.201  -0.604   1.245  0.00  0.00    -0.081 A 
ATOM      2  C3  UNL d   1      -1.276   0.787   1.393  0.00  0.00     0.006 A 
ATOM      3  C4  UNL d   1      -0.454   1.625   0.637  0.00  0.00     0.002 A 
ATOM      4  C5  UNL d   1       0.451   1.088  -0.285  0.00  0.00    -0.080 A 
ATOM      5  C6  UNL d   1       1.319   1.978  -1.125  0.00  0.00     0.076 C 
ATOM      6  C7  UNL d   1       0.539  -0.302  -0.420  0.00  0.00     0.002 A 
ATOM      7  C8  UNL d   1      -0.283  -1.140   0.336  0.00  0.00     0.006 A 
ENDROOT
BRANCH   1   8
ATOM      8  C1  UNL d   1      -2.132  -1.507   2.012  0.00  0.00     0.054 C 
ATOM      9  C   UNL d   1      -1.940  -2.964   1.616  0.00  0.00     0.018 C 
ENDBRANCH   1   8
TORSDOF 1
ENDMDL
