MODEL 1
REMARK minimizedAffinity 18.7919731
REMARK minimizedRMSD -1
REMARK  1 active torsions:
REMARK  status: ('A' for Active; 'I' for Inactive)
REMARK    1  A    between atoms: C1_2  and  C2_3 
ROOT
ATOM      1  C2  UNL d   1       3.743  -0.887  -0.001  0.00  0.00    -0.081 A 
ATOM      2  C3  UNL d   1       2.906  -1.913   0.453  0.00  0.00     0.006 A 
ATOM      3  C4  UNL d   1       1.838  -1.629   1.308  0.00  0.00     0.002 A 
ATOM      4  C5  UNL d   1       1.585  -0.315   1.716  0.00  0.00    -0.080 A 
ATOM      5  C6  UNL d   1       0.424   0.008   2.609  0.00  0.00     0.076 C 
ATOM      6  C7  UNL d   1       2.433   0.708   1.276  0.00  0.00     0.002 A 
ATOM      7  C8  UNL d   1       3.501   0.425   0.422  0.00  0.00     0.006 A 
ENDROOT
BRANCH   1   8
ATOM      8  C1  UNL d   1       4.857  -1.181  -0.974  0.00  0.00     0.054 C 
ATOM      9  C   UNL d   1       4.696  -0.377  -2.257  0.00  0.00     0.018 C 
ENDBRANCH   1   8
TORSDOF 1
ENDMDL
