MODEL 1
REMARK minimizedAffinity 13.5700979
REMARK minimizedRMSD -1
REMARK  1 active torsions:
REMARK  status: ('A' for Active; 'I' for Inactive)
REMARK    1  A    between atoms: C1_2  and  C2_3 
ROOT
ATOM      1  C2  UNL d   1       0.023   3.582  -2.154  0.00  0.00    -0.081 A 
ATOM      2  C3  UNL d   1      -0.816   4.677  -2.396  0.00  0.00     0.006 A 
ATOM      3  C4  UNL d   1      -2.185   4.488  -2.604  0.00  0.00     0.002 A 
ATOM      4  C5  UNL d   1      -2.738   3.203  -2.566  0.00  0.00    -0.080 A 
ATOM      5  C6  UNL d   1      -4.210   2.990  -2.757  0.00  0.00     0.076 C 
ATOM      6  C7  UNL d   1      -1.897   2.108  -2.341  0.00  0.00     0.002 A 
ATOM      7  C8  UNL d   1      -0.528   2.296  -2.134  0.00  0.00     0.006 A 
ENDROOT
BRANCH   1   8
ATOM      8  C1  UNL d   1       1.488   3.788  -1.866  0.00  0.00     0.054 C 
ATOM      9  C   UNL d   1       2.349   2.802  -2.642  0.00  0.00     0.018 C 
ENDBRANCH   1   8
TORSDOF 1
ENDMDL
