MODEL 1
REMARK minimizedAffinity 10.8804588
REMARK minimizedRMSD -1
REMARK  1 active torsions:
REMARK  status: ('A' for Active; 'I' for Inactive)
REMARK    1  A    between atoms: C1_2  and  C2_3 
ROOT
ATOM      1  C2  UNL d   1      -2.458   4.041  -3.482  0.00  0.00    -0.081 A 
ATOM      2  C3  UNL d   1      -3.093   2.935  -2.904  0.00  0.00     0.006 A 
ATOM      3  C4  UNL d   1      -3.960   3.101  -1.822  0.00  0.00     0.002 A 
ATOM      4  C5  UNL d   1      -4.215   4.376  -1.305  0.00  0.00    -0.080 A 
ATOM      5  C6  UNL d   1      -5.167   4.572  -0.163  0.00  0.00     0.076 C 
ATOM      6  C7  UNL d   1      -3.568   5.480  -1.871  0.00  0.00     0.002 A 
ATOM      7  C8  UNL d   1      -2.699   5.314  -2.952  0.00  0.00     0.006 A 
ENDROOT
BRANCH   1   8
ATOM      8  C1  UNL d   1      -1.573   3.873  -4.689  0.00  0.00     0.054 C 
ATOM      9  C   UNL d   1      -2.342   4.120  -5.979  0.00  0.00     0.018 C 
ENDBRANCH   1   8
TORSDOF 1
ENDMDL
