MODEL 1
REMARK minimizedAffinity 17.5720787
REMARK minimizedRMSD -1
REMARK  1 active torsions:
REMARK  status: ('A' for Active; 'I' for Inactive)
REMARK    1  A    between atoms: C1_2  and  C2_3 
ROOT
ATOM      1  C2  UNL d   1      -2.497   3.467  -2.447  0.00  0.00    -0.081 A 
ATOM      2  C3  UNL d   1      -2.639   4.855  -2.329  0.00  0.00     0.006 A 
ATOM      3  C4  UNL d   1      -3.742   5.401  -1.669  0.00  0.00     0.002 A 
ATOM      4  C5  UNL d   1      -4.718   4.569  -1.110  0.00  0.00    -0.080 A 
ATOM      5  C6  UNL d   1      -5.892   5.141  -0.372  0.00  0.00     0.076 C 
ATOM      6  C7  UNL d   1      -4.586   3.182  -1.242  0.00  0.00     0.002 A 
ATOM      7  C8  UNL d   1      -3.483   2.636  -1.903  0.00  0.00     0.006 A 
ENDROOT
BRANCH   1   8
ATOM      8  C1  UNL d   1      -1.276   2.874  -3.101  0.00  0.00     0.054 C 
ATOM      9  C   UNL d   1      -0.228   2.486  -2.068  0.00  0.00     0.018 C 
ENDBRANCH   1   8
TORSDOF 1
ENDMDL
