MODEL 1
REMARK minimizedAffinity 16.5205078
REMARK minimizedRMSD -1
REMARK  1 active torsions:
REMARK  status: ('A' for Active; 'I' for Inactive)
REMARK    1  A    between atoms: C1_2  and  C2_3 
ROOT
ATOM      1  C2  UNL d   1       1.548   2.912   0.239  0.00  0.00    -0.081 A 
ATOM      2  C3  UNL d   1       2.772   2.346   0.614  0.00  0.00     0.006 A 
ATOM      3  C4  UNL d   1       2.834   1.022   1.056  0.00  0.00     0.002 A 
ATOM      4  C5  UNL d   1       1.675   0.241   1.123  0.00  0.00    -0.080 A 
ATOM      5  C6  UNL d   1       1.732  -1.190   1.568  0.00  0.00     0.076 C 
ATOM      6  C7  UNL d   1       0.449   0.813   0.766  0.00  0.00     0.002 A 
ATOM      7  C8  UNL d   1       0.386   2.136   0.325  0.00  0.00     0.006 A 
ENDROOT
BRANCH   1   8
ATOM      8  C1  UNL d   1       1.487   4.319  -0.299  0.00  0.00     0.054 C 
ATOM      9  C   UNL d   1       0.903   5.280   0.727  0.00  0.00     0.018 C 
ENDBRANCH   1   8
TORSDOF 1
ENDMDL
