MODEL 1
REMARK minimizedAffinity 16.5188522
REMARK minimizedRMSD -1
REMARK  1 active torsions:
REMARK  status: ('A' for Active; 'I' for Inactive)
REMARK    1  A    between atoms: C1_2  and  C2_3 
ROOT
ATOM      1  C2  UNL d   1       1.852   1.826  -0.219  0.00  0.00    -0.081 A 
ATOM      2  C3  UNL d   1       2.697   2.784   0.354  0.00  0.00     0.006 A 
ATOM      3  C4  UNL d   1       2.350   4.137   0.333  0.00  0.00     0.002 A 
ATOM      4  C5  UNL d   1       1.150   4.553  -0.255  0.00  0.00    -0.080 A 
ATOM      5  C6  UNL d   1       0.752   5.999  -0.258  0.00  0.00     0.076 C 
ATOM      6  C7  UNL d   1       0.314   3.598  -0.842  0.00  0.00     0.002 A 
ATOM      7  C8  UNL d   1       0.661   2.245  -0.822  0.00  0.00     0.006 A 
ENDROOT
BRANCH   1   8
ATOM      8  C1  UNL d   1       2.192   0.359  -0.140  0.00  0.00     0.054 C 
ATOM      9  C   UNL d   1       1.798  -0.228   1.208  0.00  0.00     0.018 C 
ENDBRANCH   1   8
TORSDOF 1
ENDMDL
