MODEL 1
REMARK minimizedAffinity 16.2944603
REMARK minimizedRMSD -1
REMARK  1 active torsions:
REMARK  status: ('A' for Active; 'I' for Inactive)
REMARK    1  A    between atoms: C1_2  and  C2_3 
ROOT
ATOM      1  C2  UNL d   1      -2.447   3.863  -3.511  0.00  0.00    -0.081 A 
ATOM      2  C3  UNL d   1      -3.044   2.735  -2.935  0.00  0.00     0.006 A 
ATOM      3  C4  UNL d   1      -3.850   2.861  -1.802  0.00  0.00     0.002 A 
ATOM      4  C5  UNL d   1      -4.079   4.117  -1.230  0.00  0.00    -0.080 A 
ATOM      5  C6  UNL d   1      -4.967   4.271  -0.031  0.00  0.00     0.076 C 
ATOM      6  C7  UNL d   1      -3.469   5.242  -1.795  0.00  0.00     0.002 A 
ATOM      7  C8  UNL d   1      -2.662   5.116  -2.928  0.00  0.00     0.006 A 
ENDROOT
BRANCH   1   8
ATOM      8  C1  UNL d   1      -1.629   3.738  -4.771  0.00  0.00     0.054 C 
ATOM      9  C   UNL d   1      -2.446   4.114  -6.000  0.00  0.00     0.018 C 
ENDBRANCH   1   8
TORSDOF 1
ENDMDL
