MODEL 1
REMARK minimizedAffinity 4.13279772
REMARK minimizedRMSD -1
REMARK  1 active torsions:
REMARK  status: ('A' for Active; 'I' for Inactive)
REMARK    1  A    between atoms: C1_2  and  C2_3 
ROOT
ATOM      1  C2  UNL d   1      -2.016  -1.608   4.762  0.00  0.00    -0.081 A 
ATOM      2  C3  UNL d   1      -2.230  -2.566   3.763  0.00  0.00     0.006 A 
ATOM      3  C4  UNL d   1      -1.320  -2.710   2.713  0.00  0.00     0.002 A 
ATOM      4  C5  UNL d   1      -0.178  -1.905   2.648  0.00  0.00    -0.080 A 
ATOM      5  C6  UNL d   1       0.822  -2.070   1.542  0.00  0.00     0.076 C 
ATOM      6  C7  UNL d   1       0.027  -0.936   3.636  0.00  0.00     0.002 A 
ATOM      7  C8  UNL d   1      -0.882  -0.791   4.686  0.00  0.00     0.006 A 
ENDROOT
BRANCH   1   8
ATOM      8  C1  UNL d   1      -2.961  -1.494   5.931  0.00  0.00     0.054 C 
ATOM      9  C   UNL d   1      -3.902  -2.688   5.999  0.00  0.00     0.018 C 
ENDBRANCH   1   8
TORSDOF 1
ENDMDL
