MODEL 1
REMARK minimizedAffinity 11.8758488
REMARK minimizedRMSD -1
REMARK  1 active torsions:
REMARK  status: ('A' for Active; 'I' for Inactive)
REMARK    1  A    between atoms: C1_2  and  C2_3 
ROOT
ATOM      1  C2  UNL d   1      -2.424   3.508  -2.510  0.00  0.00    -0.081 A 
ATOM      2  C3  UNL d   1      -2.586   4.893  -2.378  0.00  0.00     0.006 A 
ATOM      3  C4  UNL d   1      -3.619   5.414  -1.596  0.00  0.00     0.002 A 
ATOM      4  C5  UNL d   1      -4.502   4.560  -0.927  0.00  0.00    -0.080 A 
ATOM      5  C6  UNL d   1      -5.598   5.106  -0.059  0.00  0.00     0.076 C 
ATOM      6  C7  UNL d   1      -4.352   3.177  -1.072  0.00  0.00     0.002 A 
ATOM      7  C8  UNL d   1      -3.319   2.655  -1.854  0.00  0.00     0.006 A 
ENDROOT
BRANCH   1   8
ATOM      8  C1  UNL d   1      -1.272   2.943  -3.300  0.00  0.00     0.054 C 
ATOM      9  C   UNL d   1      -0.233   2.307  -2.386  0.00  0.00     0.018 C 
ENDBRANCH   1   8
TORSDOF 1
ENDMDL
