MODEL 1
REMARK minimizedAffinity 11.7124472
REMARK minimizedRMSD -1
REMARK  1 active torsions:
REMARK  status: ('A' for Active; 'I' for Inactive)
REMARK    1  A    between atoms: C1_2  and  C2_3 
ROOT
ATOM      1  C2  UNL d   1       2.253   0.025   1.041  0.00  0.00    -0.081 A 
ATOM      2  C3  UNL d   1       1.229  -0.012   1.995  0.00  0.00     0.006 A 
ATOM      3  C4  UNL d   1       0.762  -1.235   2.485  0.00  0.00     0.002 A 
ATOM      4  C5  UNL d   1       1.316  -2.438   2.035  0.00  0.00    -0.080 A 
ATOM      5  C6  UNL d   1       0.845  -3.755   2.575  0.00  0.00     0.076 C 
ATOM      6  C7  UNL d   1       2.327  -2.401   1.069  0.00  0.00     0.002 A 
ATOM      7  C8  UNL d   1       2.794  -1.179   0.578  0.00  0.00     0.006 A 
ENDROOT
BRANCH   1   8
ATOM      8  C1  UNL d   1       2.803   1.343   0.559  0.00  0.00     0.054 C 
ATOM      9  C   UNL d   1       1.687   2.341   0.283  0.00  0.00     0.018 C 
ENDBRANCH   1   8
TORSDOF 1
ENDMDL
