MODEL 1
REMARK minimizedAffinity 5.72127676
REMARK minimizedRMSD -1
REMARK  1 active torsions:
REMARK  status: ('A' for Active; 'I' for Inactive)
REMARK    1  A    between atoms: C1_2  and  C2_3 
ROOT
ATOM      1  C2  UNL d   1       0.344  -2.105   2.725  0.00  0.00    -0.081 A 
ATOM      2  C3  UNL d   1       0.196  -1.049   3.633  0.00  0.00     0.006 A 
ATOM      3  C4  UNL d   1      -0.773  -1.110   4.638  0.00  0.00     0.002 A 
ATOM      4  C5  UNL d   1      -1.604  -2.230   4.756  0.00  0.00    -0.080 A 
ATOM      5  C6  UNL d   1      -2.628  -2.321   5.848  0.00  0.00     0.076 C 
ATOM      6  C7  UNL d   1      -1.468  -3.277   3.838  0.00  0.00     0.002 A 
ATOM      7  C8  UNL d   1      -0.499  -3.216   2.833  0.00  0.00     0.006 A 
ENDROOT
BRANCH   1   8
ATOM      8  C1  UNL d   1       1.431  -2.071   1.681  0.00  0.00     0.054 C 
ATOM      9  C   UNL d   1       1.948  -0.655   1.466  0.00  0.00     0.018 C 
ENDBRANCH   1   8
TORSDOF 1
ENDMDL
