MODEL 1
REMARK minimizedAffinity 10.0157948
REMARK minimizedRMSD -1
REMARK  1 active torsions:
REMARK  status: ('A' for Active; 'I' for Inactive)
REMARK    1  A    between atoms: C1_2  and  C2_3 
ROOT
ATOM      1  C2  UNL d   1       1.246  -1.067   2.468  0.00  0.00    -0.081 A 
ATOM      2  C3  UNL d   1       0.806  -2.191   1.756  0.00  0.00     0.006 A 
ATOM      3  C4  UNL d   1      -0.403  -2.808   2.084  0.00  0.00     0.002 A 
ATOM      4  C5  UNL d   1      -1.197  -2.308   3.122  0.00  0.00    -0.080 A 
ATOM      5  C6  UNL d   1      -2.512  -2.944   3.464  0.00  0.00     0.076 C 
ATOM      6  C7  UNL d   1      -0.750  -1.197   3.844  0.00  0.00     0.002 A 
ATOM      7  C8  UNL d   1       0.460  -0.579   3.518  0.00  0.00     0.006 A 
ENDROOT
BRANCH   1   8
ATOM      8  C1  UNL d   1       2.518  -0.360   2.075  0.00  0.00     0.054 C 
ATOM      9  C   UNL d   1       3.167  -1.020   0.867  0.00  0.00     0.018 C 
ENDBRANCH   1   8
TORSDOF 1
ENDMDL
