MODEL 1
REMARK minimizedAffinity 14.1722603
REMARK minimizedRMSD -1
REMARK  1 active torsions:
REMARK  status: ('A' for Active; 'I' for Inactive)
REMARK    1  A    between atoms: C1_2  and  C2_3 
ROOT
ATOM      1  C2  UNL d   1       0.815  -1.394   2.253  0.00  0.00    -0.081 A 
ATOM      2  C3  UNL d   1       0.193  -2.648   2.200  0.00  0.00     0.006 A 
ATOM      3  C4  UNL d   1      -0.963  -2.897   2.944  0.00  0.00     0.002 A 
ATOM      4  C5  UNL d   1      -1.520  -1.895   3.747  0.00  0.00    -0.080 A 
ATOM      5  C6  UNL d   1      -2.777  -2.140   4.527  0.00  0.00     0.076 C 
ATOM      6  C7  UNL d   1      -0.888  -0.649   3.814  0.00  0.00     0.002 A 
ATOM      7  C8  UNL d   1       0.267  -0.399   3.070  0.00  0.00     0.006 A 
ENDROOT
BRANCH   1   8
ATOM      8  C1  UNL d   1       2.024  -1.102   1.402  0.00  0.00     0.054 C 
ATOM      9  C   UNL d   1       2.385   0.376   1.442  0.00  0.00     0.018 C 
ENDBRANCH   1   8
TORSDOF 1
ENDMDL
