MODEL 1
REMARK minimizedAffinity 11.4526043
REMARK minimizedRMSD -1
REMARK  1 active torsions:
REMARK  status: ('A' for Active; 'I' for Inactive)
REMARK    1  A    between atoms: C1_2  and  C2_3 
ROOT
ATOM      1  C2  UNL d   1       1.206  -1.709   2.142  0.00  0.00    -0.081 A 
ATOM      2  C3  UNL d   1       0.929  -3.002   2.603  0.00  0.00     0.006 A 
ATOM      3  C4  UNL d   1      -0.270  -3.277   3.263  0.00  0.00     0.002 A 
ATOM      4  C5  UNL d   1      -1.216  -2.266   3.468  0.00  0.00    -0.080 A 
ATOM      5  C6  UNL d   1      -2.520  -2.555   4.149  0.00  0.00     0.076 C 
ATOM      6  C7  UNL d   1      -0.932  -0.970   3.024  0.00  0.00     0.002 A 
ATOM      7  C8  UNL d   1       0.268  -0.695   2.363  0.00  0.00     0.006 A 
ENDROOT
BRANCH   1   8
ATOM      8  C1  UNL d   1       2.470  -1.424   1.372  0.00  0.00     0.054 C 
ATOM      9  C   UNL d   1       2.878   0.037   1.500  0.00  0.00     0.018 C 
ENDBRANCH   1   8
TORSDOF 1
ENDMDL
