MODEL 1
REMARK minimizedAffinity 7.98919201
REMARK minimizedRMSD -1
REMARK  2 active torsions:
REMARK  status: ('A' for Active; 'I' for Inactive)
REMARK    1  A    between atoms: C2'_3  and  C1'_4 
REMARK    2  A    between atoms: C1'_4  and  C1_5 
ROOT
ATOM      1  C1  I4B d   1       0.345   1.703   2.066  0.00  0.00    -0.075 A 
ATOM      2  C2  I4B d   1       1.101   0.637   2.485  0.00  0.00     0.003 A 
ATOM      3  C3  I4B d   1       1.001  -0.612   1.825  0.00  0.00     0.002 A 
ATOM      4  C4  I4B d   1       0.101  -0.763   0.790  0.00  0.00    -0.004 A 
ATOM      5  C5  I4B d   1      -0.648   0.325   0.351  0.00  0.00     0.002 A 
ATOM      6  C6  I4B d   1      -0.516   1.569   0.985  0.00  0.00     0.003 A 
ENDROOT
BRANCH   1   7
ATOM      7  C1' I4B d   1       0.452   2.998   2.806  0.00  0.00     0.060 C 
BRANCH   7   8
ATOM      8  C2' I4B d   1       1.864   3.519   2.634  0.00  0.00    -0.013 C 
ATOM      9  C4' I4B d   1       1.878   4.813   1.864  0.00  0.00     0.013 C 
ATOM     10  C3' I4B d   1       2.462   3.694   3.998  0.00  0.00     0.013 C 
ENDBRANCH   7   8
ENDBRANCH   1   7
TORSDOF 2
ENDMDL
