MODEL 1
REMARK minimizedAffinity 18.0341167
REMARK minimizedRMSD -1
REMARK  2 active torsions:
REMARK  status: ('A' for Active; 'I' for Inactive)
REMARK    1  A    between atoms: C2'_3  and  C1'_4 
REMARK    2  A    between atoms: C1'_4  and  C1_5 
ROOT
ATOM      1  C1  I4B d   1       1.433  -1.514   4.282  0.00  0.00    -0.075 A 
ATOM      2  C2  I4B d   1       2.437  -2.103   5.009  0.00  0.00     0.003 A 
ATOM      3  C3  I4B d   1       3.718  -2.290   4.434  0.00  0.00     0.002 A 
ATOM      4  C4  I4B d   1       3.934  -1.922   3.122  0.00  0.00    -0.004 A 
ATOM      5  C5  I4B d   1       2.922  -1.304   2.394  0.00  0.00     0.002 A 
ATOM      6  C6  I4B d   1       1.667  -1.087   2.981  0.00  0.00     0.003 A 
ENDROOT
BRANCH   1   7
ATOM      7  C1' I4B d   1       0.083  -1.362   4.908  0.00  0.00     0.060 C 
BRANCH   7   8
ATOM      8  C2' I4B d   1      -0.798  -2.483   4.395  0.00  0.00    -0.013 C 
ATOM      9  C4' I4B d   1      -2.167  -2.430   5.022  0.00  0.00     0.013 C 
ATOM     10  C3' I4B d   1      -0.881  -2.360   2.903  0.00  0.00     0.013 C 
ENDBRANCH   7   8
ENDBRANCH   1   7
TORSDOF 2
ENDMDL
