MODEL 1
REMARK minimizedAffinity 5.51298046
REMARK minimizedRMSD -1
REMARK  2 active torsions:
REMARK  status: ('A' for Active; 'I' for Inactive)
REMARK    1  A    between atoms: C2'_3  and  C1'_4 
REMARK    2  A    between atoms: C1'_4  and  C1_5 
ROOT
ATOM      1  C1  I4B d   1      -0.131  -0.738  -0.232  0.00  0.00    -0.075 A 
ATOM      2  C2  I4B d   1      -0.915  -0.323  -1.280  0.00  0.00     0.003 A 
ATOM      3  C3  I4B d   1      -1.610  -1.271  -2.070  0.00  0.00     0.002 A 
ATOM      4  C4  I4B d   1      -1.453  -2.617  -1.811  0.00  0.00    -0.004 A 
ATOM      5  C5  I4B d   1      -0.676  -3.035  -0.734  0.00  0.00     0.002 A 
ATOM      6  C6  I4B d   1      -0.021  -2.090   0.068  0.00  0.00     0.003 A 
ENDROOT
BRANCH   1   7
ATOM      7  C1' I4B d   1       0.614   0.288   0.561  0.00  0.00     0.060 C 
BRANCH   7   8
ATOM      8  C2' I4B d   1       0.499  -0.081   2.026  0.00  0.00    -0.013 C 
ATOM      9  C4' I4B d   1       1.854  -0.324   2.635  0.00  0.00     0.013 C 
ATOM     10  C3' I4B d   1      -0.218   1.033   2.728  0.00  0.00     0.013 C 
ENDBRANCH   7   8
ENDBRANCH   1   7
TORSDOF 2
ENDMDL
