MODEL 1
REMARK minimizedAffinity 4.88373566
REMARK minimizedRMSD -1
REMARK  2 active torsions:
REMARK  status: ('A' for Active; 'I' for Inactive)
REMARK    1  A    between atoms: C2'_3  and  C1'_4 
REMARK    2  A    between atoms: C1'_4  and  C1_5 
ROOT
ATOM      1  C1  I4B d   1       1.079   1.952   2.456  0.00  0.00    -0.075 A 
ATOM      2  C2  I4B d   1       1.642   1.990   3.708  0.00  0.00     0.003 A 
ATOM      3  C3  I4B d   1       2.213   3.190   4.196  0.00  0.00     0.002 A 
ATOM      4  C4  I4B d   1       2.245   4.306   3.386  0.00  0.00    -0.004 A 
ATOM      5  C5  I4B d   1       1.653   4.272   2.126  0.00  0.00     0.002 A 
ATOM      6  C6  I4B d   1       1.056   3.091   1.663  0.00  0.00     0.003 A 
ENDROOT
BRANCH   1   7
ATOM      7  C1' I4B d   1       0.514   0.659   1.959  0.00  0.00     0.060 C 
BRANCH   7   8
ATOM      8  C2' I4B d   1      -0.057   0.900   0.577  0.00  0.00    -0.013 C 
ATOM      9  C4' I4B d   1       0.527  -0.057  -0.429  0.00  0.00     0.013 C 
ATOM     10  C3' I4B d   1      -1.547   0.755   0.660  0.00  0.00     0.013 C 
ENDBRANCH   7   8
ENDBRANCH   1   7
TORSDOF 2
ENDMDL
