MODEL 1
REMARK minimizedAffinity 11.5143747
REMARK minimizedRMSD -1
REMARK  2 active torsions:
REMARK  status: ('A' for Active; 'I' for Inactive)
REMARK    1  A    between atoms: C2'_3  and  C1'_4 
REMARK    2  A    between atoms: C1'_4  and  C1_5 
ROOT
ATOM      1  C1  I4B d   1      -1.818  -2.928  -1.864  0.00  0.00    -0.075 A 
ATOM      2  C2  I4B d   1      -3.120  -3.042  -2.283  0.00  0.00     0.003 A 
ATOM      3  C3  I4B d   1      -3.852  -1.889  -2.656  0.00  0.00     0.002 A 
ATOM      4  C4  I4B d   1      -3.263  -0.645  -2.548  0.00  0.00    -0.004 A 
ATOM      5  C5  I4B d   1      -1.936  -0.534  -2.145  0.00  0.00     0.002 A 
ATOM      6  C6  I4B d   1      -1.204  -1.683  -1.812  0.00  0.00     0.003 A 
ENDROOT
BRANCH   1   7
ATOM      7  C1' I4B d   1      -1.084  -4.163  -1.446  0.00  0.00     0.060 C 
BRANCH   7   8
ATOM      8  C2' I4B d   1       0.049  -3.746  -0.531  0.00  0.00    -0.013 C 
ATOM      9  C4' I4B d   1      -0.475  -3.112   0.731  0.00  0.00     0.013 C 
ATOM     10  C3' I4B d   1       0.869  -4.963  -0.225  0.00  0.00     0.013 C 
ENDBRANCH   7   8
ENDBRANCH   1   7
TORSDOF 2
ENDMDL
