MODEL 1
REMARK minimizedAffinity 3.73722267
REMARK minimizedRMSD -1
REMARK  2 active torsions:
REMARK  status: ('A' for Active; 'I' for Inactive)
REMARK    1  A    between atoms: C2'_3  and  C1'_4 
REMARK    2  A    between atoms: C1'_4  and  C1_5 
ROOT
ATOM      1  C1  I4B d   1      -0.986  -0.477  -0.303  0.00  0.00    -0.075 A 
ATOM      2  C2  I4B d   1      -1.128   0.888  -0.328  0.00  0.00     0.003 A 
ATOM      3  C3  I4B d   1      -0.158   1.717   0.285  0.00  0.00     0.002 A 
ATOM      4  C4  I4B d   1       0.906   1.141   0.950  0.00  0.00    -0.004 A 
ATOM      5  C5  I4B d   1       1.061  -0.242   0.954  0.00  0.00     0.002 A 
ATOM      6  C6  I4B d   1       0.116  -1.056   0.313  0.00  0.00     0.003 A 
ENDROOT
BRANCH   1   7
ATOM      7  C1' I4B d   1      -2.046  -1.324  -0.932  0.00  0.00     0.060 C 
BRANCH   7   8
ATOM      8  C2' I4B d   1      -2.338  -2.478   0.005  0.00  0.00    -0.013 C 
ATOM      9  C4' I4B d   1      -3.638  -2.271   0.737  0.00  0.00     0.013 C 
ATOM     10  C3' I4B d   1      -2.370  -3.738  -0.808  0.00  0.00     0.013 C 
ENDBRANCH   7   8
ENDBRANCH   1   7
TORSDOF 2
ENDMDL
