MODEL 1
REMARK minimizedAffinity 6.32992458
REMARK minimizedRMSD -1
REMARK  2 active torsions:
REMARK  status: ('A' for Active; 'I' for Inactive)
REMARK    1  A    between atoms: C2'_3  and  C1'_4 
REMARK    2  A    between atoms: C1'_4  and  C1_5 
ROOT
ATOM      1  C1  I4B d   1      -0.073   0.313   0.117  0.00  0.00    -0.075 A 
ATOM      2  C2  I4B d   1      -0.895  -0.781   0.010  0.00  0.00     0.003 A 
ATOM      3  C3  I4B d   1      -2.291  -0.612  -0.151  0.00  0.00     0.002 A 
ATOM      4  C4  I4B d   1      -2.826   0.660  -0.150  0.00  0.00    -0.004 A 
ATOM      5  C5  I4B d   1      -1.989   1.770  -0.065  0.00  0.00     0.002 A 
ATOM      6  C6  I4B d   1      -0.603   1.596   0.057  0.00  0.00     0.003 A 
ENDROOT
BRANCH   1   7
ATOM      7  C1' I4B d   1       1.393   0.097   0.320  0.00  0.00     0.060 C 
BRANCH   7   8
ATOM      8  C2' I4B d   1       1.581  -1.269   0.946  0.00  0.00    -0.013 C 
ATOM      9  C4' I4B d   1       2.438  -2.153   0.078  0.00  0.00     0.013 C 
ATOM     10  C3' I4B d   1       2.198  -1.078   2.299  0.00  0.00     0.013 C 
ENDBRANCH   7   8
ENDBRANCH   1   7
TORSDOF 2
ENDMDL
