MODEL 1
REMARK minimizedAffinity -2.37612247
REMARK minimizedRMSD -1
REMARK  3 active torsions:
REMARK  status: ('A' for Active; 'I' for Inactive)
REMARK    1  A    between atoms: C3'_2  and  C2'_3 
REMARK    2  A    between atoms: C2'_3  and  C1'_4 
REMARK    3  A    between atoms: C1'_4  and  C1_5 
ROOT
ATOM      1  C1  N4B d   1      -3.532   0.739   2.746  0.00  0.00    -0.075 A 
ATOM      2  C2  N4B d   1      -4.629   0.979   1.889  0.00  0.00     0.002 A 
ATOM      3  C3  N4B d   1      -5.847   1.332   2.415  0.00  0.00     0.002 A 
ATOM      4  C4  N4B d   1      -5.998   1.432   3.790  0.00  0.00    -0.004 A 
ATOM      5  C5  N4B d   1      -4.927   1.223   4.610  0.00  0.00     0.002 A 
ATOM      6  C6  N4B d   1      -3.696   0.872   4.095  0.00  0.00     0.002 A 
ENDROOT
BRANCH   1   7
ATOM      7  C1' N4B d   1      -2.203   0.267   2.223  0.00  0.00     0.057 C 
BRANCH   7   8
ATOM      8  C2' N4B d   1      -2.383  -1.092   1.553  0.00  0.00     0.009 C 
BRANCH   8   9
ATOM      9  C3' N4B d   1      -1.052  -1.718   1.173  0.00  0.00     0.004 C 
ATOM     10  C4' N4B d   1       0.115  -1.050   1.837  0.00  0.00     0.003 C 
ENDBRANCH   8   9
ENDBRANCH   7   8
ENDBRANCH   1   7
TORSDOF 3
ENDMDL
