MODEL 1
REMARK minimizedAffinity 6.5421195
REMARK minimizedRMSD -1
REMARK  3 active torsions:
REMARK  status: ('A' for Active; 'I' for Inactive)
REMARK    1  A    between atoms: C3'_2  and  C2'_3 
REMARK    2  A    between atoms: C2'_3  and  C1'_4 
REMARK    3  A    between atoms: C1'_4  and  C1_5 
ROOT
ATOM      1  C1  N4B d   1       5.219   4.037  -0.362  0.00  0.00    -0.075 A 
ATOM      2  C2  N4B d   1       6.000   3.853   0.801  0.00  0.00     0.002 A 
ATOM      3  C3  N4B d   1       5.593   2.967   1.768  0.00  0.00     0.002 A 
ATOM      4  C4  N4B d   1       4.404   2.272   1.605  0.00  0.00    -0.004 A 
ATOM      5  C5  N4B d   1       3.669   2.436   0.468  0.00  0.00     0.002 A 
ATOM      6  C6  N4B d   1       4.068   3.320  -0.515  0.00  0.00     0.002 A 
ENDROOT
BRANCH   1   7
ATOM      7  C1' N4B d   1       5.579   5.056  -1.407  0.00  0.00     0.057 C 
BRANCH   7   8
ATOM      8  C2' N4B d   1       4.636   4.908  -2.597  0.00  0.00     0.009 C 
BRANCH   8   9
ATOM      9  C3' N4B d   1       5.382   4.547  -3.871  0.00  0.00     0.004 C 
ATOM     10  C4' N4B d   1       4.521   3.821  -4.862  0.00  0.00     0.003 C 
ENDBRANCH   8   9
ENDBRANCH   7   8
ENDBRANCH   1   7
TORSDOF 3
ENDMDL
