MODEL 1
REMARK minimizedAffinity -0.322864413
REMARK minimizedRMSD -1
REMARK  3 active torsions:
REMARK  status: ('A' for Active; 'I' for Inactive)
REMARK    1  A    between atoms: C3'_2  and  C2'_3 
REMARK    2  A    between atoms: C2'_3  and  C1'_4 
REMARK    3  A    between atoms: C1'_4  and  C1_5 
ROOT
ATOM      1  C1  N4B d   1      -0.734  -5.430  -5.356  0.00  0.00    -0.075 A 
ATOM      2  C2  N4B d   1      -1.862  -5.999  -5.988  0.00  0.00     0.002 A 
ATOM      3  C3  N4B d   1      -3.125  -5.682  -5.552  0.00  0.00     0.002 A 
ATOM      4  C4  N4B d   1      -3.284  -4.817  -4.480  0.00  0.00    -0.004 A 
ATOM      5  C5  N4B d   1      -2.190  -4.252  -3.892  0.00  0.00     0.002 A 
ATOM      6  C6  N4B d   1      -0.915  -4.558  -4.322  0.00  0.00     0.002 A 
ENDROOT
BRANCH   1   7
ATOM      7  C1' N4B d   1       0.669  -5.813  -5.741  0.00  0.00     0.057 C 
BRANCH   7   8
ATOM      8  C2' N4B d   1       1.647  -5.207  -4.739  0.00  0.00     0.009 C 
BRANCH   8   9
ATOM      9  C3' N4B d   1       2.940  -5.999  -4.657  0.00  0.00     0.004 C 
ATOM     10  C4' N4B d   1       3.711  -5.987  -5.943  0.00  0.00     0.003 C 
ENDBRANCH   8   9
ENDBRANCH   7   8
ENDBRANCH   1   7
TORSDOF 3
ENDMDL
