MODEL 1
REMARK minimizedAffinity 3.99586487
REMARK minimizedRMSD -1
REMARK  3 active torsions:
REMARK  status: ('A' for Active; 'I' for Inactive)
REMARK    1  A    between atoms: C3'_2  and  C2'_3 
REMARK    2  A    between atoms: C2'_3  and  C1'_4 
REMARK    3  A    between atoms: C1'_4  and  C1_5 
ROOT
ATOM      1  C1  N4B d   1      -3.148   1.320   2.653  0.00  0.00    -0.075 A 
ATOM      2  C2  N4B d   1      -3.645   1.159   1.341  0.00  0.00     0.002 A 
ATOM      3  C3  N4B d   1      -3.164   0.149   0.544  0.00  0.00     0.002 A 
ATOM      4  C4  N4B d   1      -2.178  -0.697   1.028  0.00  0.00    -0.004 A 
ATOM      5  C5  N4B d   1      -1.722  -0.551   2.306  0.00  0.00     0.002 A 
ATOM      6  C6  N4B d   1      -2.198   0.457   3.119  0.00  0.00     0.002 A 
ENDROOT
BRANCH   1   7
ATOM      7  C1' N4B d   1      -3.580   2.462   3.532  0.00  0.00     0.057 C 
BRANCH   7   8
ATOM      8  C2' N4B d   1      -5.086   2.374   3.763  0.00  0.00     0.009 C 
BRANCH   8   9
ATOM      9  C3' N4B d   1      -5.545   3.301   4.875  0.00  0.00     0.004 C 
ATOM     10  C4' N4B d   1      -4.879   4.644   4.823  0.00  0.00     0.003 C 
ENDBRANCH   8   9
ENDBRANCH   7   8
ENDBRANCH   1   7
TORSDOF 3
ENDMDL
