MODEL 1
REMARK minimizedAffinity 10.5264482
REMARK minimizedRMSD -1
REMARK  3 active torsions:
REMARK  status: ('A' for Active; 'I' for Inactive)
REMARK    1  A    between atoms: C3'_2  and  C2'_3 
REMARK    2  A    between atoms: C2'_3  and  C1'_4 
REMARK    3  A    between atoms: C1'_4  and  C1_5 
ROOT
ATOM      1  C1  N4B d   1      -4.172   0.464   1.073  0.00  0.00    -0.075 A 
ATOM      2  C2  N4B d   1      -3.052  -0.387   0.951  0.00  0.00     0.002 A 
ATOM      3  C3  N4B d   1      -2.063  -0.362   1.904  0.00  0.00     0.002 A 
ATOM      4  C4  N4B d   1      -2.164   0.516   2.973  0.00  0.00    -0.004 A 
ATOM      5  C5  N4B d   1      -3.261   1.316   3.098  0.00  0.00     0.002 A 
ATOM      6  C6  N4B d   1      -4.265   1.299   2.150  0.00  0.00     0.002 A 
ENDROOT
BRANCH   1   7
ATOM      7  C1' N4B d   1      -5.236   0.534   0.012  0.00  0.00     0.057 C 
BRANCH   7   8
ATOM      8  C2' N4B d   1      -4.574   0.524  -1.362  0.00  0.00     0.009 C 
BRANCH   8   9
ATOM      9  C3' N4B d   1      -4.145  -0.873  -1.776  0.00  0.00     0.004 C 
ATOM     10  C4' N4B d   1      -2.658  -1.062  -1.728  0.00  0.00     0.003 C 
ENDBRANCH   8   9
ENDBRANCH   7   8
ENDBRANCH   1   7
TORSDOF 3
ENDMDL
