MODEL 1
REMARK minimizedAffinity 4.1785593
REMARK minimizedRMSD -1
REMARK  3 active torsions:
REMARK  status: ('A' for Active; 'I' for Inactive)
REMARK    1  A    between atoms: C3'_2  and  C2'_3 
REMARK    2  A    between atoms: C2'_3  and  C1'_4 
REMARK    3  A    between atoms: C1'_4  and  C1_5 
ROOT
ATOM      1  C1  N4B d   1      -3.714   1.387   4.637  0.00  0.00    -0.075 A 
ATOM      2  C2  N4B d   1      -4.711   1.420   3.638  0.00  0.00     0.002 A 
ATOM      3  C3  N4B d   1      -4.443   0.928   2.384  0.00  0.00     0.002 A 
ATOM      4  C4  N4B d   1      -3.184   0.419   2.102  0.00  0.00    -0.004 A 
ATOM      5  C5  N4B d   1      -2.235   0.367   3.080  0.00  0.00     0.002 A 
ATOM      6  C6  N4B d   1      -2.492   0.854   4.346  0.00  0.00     0.002 A 
ENDROOT
BRANCH   1   7
ATOM      7  C1' N4B d   1      -3.933   1.991   5.998  0.00  0.00     0.057 C 
BRANCH   7   8
ATOM      8  C2' N4B d   1      -5.168   2.886   5.955  0.00  0.00     0.009 C 
BRANCH   8   9
ATOM      9  C3' N4B d   1      -4.803   4.360   6.000  0.00  0.00     0.004 C 
ATOM     10  C4' N4B d   1      -5.999   5.258   5.901  0.00  0.00     0.003 C 
ENDBRANCH   8   9
ENDBRANCH   7   8
ENDBRANCH   1   7
TORSDOF 3
ENDMDL
