MODEL 1
REMARK minimizedAffinity 8.52817535
REMARK minimizedRMSD -1
REMARK  3 active torsions:
REMARK  status: ('A' for Active; 'I' for Inactive)
REMARK    1  A    between atoms: C3'_2  and  C2'_3 
REMARK    2  A    between atoms: C2'_3  and  C1'_4 
REMARK    3  A    between atoms: C1'_4  and  C1_5 
ROOT
ATOM      1  C1  N4B d   1      -0.673  -1.338   2.187  0.00  0.00    -0.075 A 
ATOM      2  C2  N4B d   1      -0.877  -0.457   3.272  0.00  0.00     0.002 A 
ATOM      3  C3  N4B d   1      -1.914   0.443   3.240  0.00  0.00     0.002 A 
ATOM      4  C4  N4B d   1      -2.745   0.493   2.131  0.00  0.00    -0.004 A 
ATOM      5  C5  N4B d   1      -2.556  -0.379   1.098  0.00  0.00     0.002 A 
ATOM      6  C6  N4B d   1      -1.521  -1.291   1.119  0.00  0.00     0.002 A 
ENDROOT
BRANCH   1   7
ATOM      7  C1' N4B d   1       0.498  -2.281   2.139  0.00  0.00     0.057 C 
BRANCH   7   8
ATOM      8  C2' N4B d   1       1.756  -1.498   1.774  0.00  0.00     0.009 C 
BRANCH   8   9
ATOM      9  C3' N4B d   1       1.430  -0.211   1.036  0.00  0.00     0.004 C 
ATOM     10  C4' N4B d   1       2.634   0.410   0.392  0.00  0.00     0.003 C 
ENDBRANCH   8   9
ENDBRANCH   7   8
ENDBRANCH   1   7
TORSDOF 3
ENDMDL
