MODEL 1
REMARK minimizedAffinity 7.89177895
REMARK minimizedRMSD -1
REMARK  3 active torsions:
REMARK  status: ('A' for Active; 'I' for Inactive)
REMARK    1  A    between atoms: C3'_2  and  C2'_3 
REMARK    2  A    between atoms: C2'_3  and  C1'_4 
REMARK    3  A    between atoms: C1'_4  and  C1_5 
ROOT
ATOM      1  C1  N4B d   1      -0.322  -0.260   1.965  0.00  0.00    -0.075 A 
ATOM      2  C2  N4B d   1      -1.112   0.528   2.830  0.00  0.00     0.002 A 
ATOM      3  C3  N4B d   1      -2.420   0.185   3.069  0.00  0.00     0.002 A 
ATOM      4  C4  N4B d   1      -2.963  -0.926   2.441  0.00  0.00    -0.004 A 
ATOM      5  C5  N4B d   1      -2.186  -1.697   1.626  0.00  0.00     0.002 A 
ATOM      6  C6  N4B d   1      -0.868  -1.366   1.381  0.00  0.00     0.002 A 
ENDROOT
BRANCH   1   7
ATOM      7  C1' N4B d   1       1.088   0.124   1.606  0.00  0.00     0.057 C 
BRANCH   7   8
ATOM      8  C2' N4B d   1       1.058   1.354   0.704  0.00  0.00     0.009 C 
BRANCH   8   9
ATOM      9  C3' N4B d   1       2.170   1.328  -0.330  0.00  0.00     0.004 C 
ATOM     10  C4' N4B d   1       1.700   1.720  -1.699  0.00  0.00     0.003 C 
ENDBRANCH   8   9
ENDBRANCH   7   8
ENDBRANCH   1   7
TORSDOF 3
ENDMDL
