MODEL 1
REMARK minimizedAffinity 5.40060806
REMARK minimizedRMSD -1
REMARK  3 active torsions:
REMARK  status: ('A' for Active; 'I' for Inactive)
REMARK    1  A    between atoms: C3'_2  and  C2'_3 
REMARK    2  A    between atoms: C2'_3  and  C1'_4 
REMARK    3  A    between atoms: C1'_4  and  C1_5 
ROOT
ATOM      1  C1  N4B d   1       3.121   3.764  -3.032  0.00  0.00    -0.075 A 
ATOM      2  C2  N4B d   1       3.402   4.879  -2.213  0.00  0.00     0.002 A 
ATOM      3  C3  N4B d   1       4.552   5.603  -2.409  0.00  0.00     0.002 A 
ATOM      4  C4  N4B d   1       5.442   5.220  -3.401  0.00  0.00    -0.004 A 
ATOM      5  C5  N4B d   1       5.151   4.157  -4.205  0.00  0.00     0.002 A 
ATOM      6  C6  N4B d   1       3.997   3.423  -4.022  0.00  0.00     0.002 A 
ENDROOT
BRANCH   1   7
ATOM      7  C1' N4B d   1       1.918   2.890  -2.801  0.00  0.00     0.057 C 
BRANCH   7   8
ATOM      8  C2' N4B d   1       2.350   1.632  -2.054  0.00  0.00     0.009 C 
BRANCH   8   9
ATOM      9  C3' N4B d   1       2.219   1.791  -0.549  0.00  0.00     0.004 C 
ATOM     10  C4' N4B d   1       3.005   0.768   0.215  0.00  0.00     0.003 C 
ENDBRANCH   8   9
ENDBRANCH   7   8
ENDBRANCH   1   7
TORSDOF 3
ENDMDL
