MODEL 1
REMARK minimizedAffinity 5.98734283
REMARK minimizedRMSD -1
REMARK  3 active torsions:
REMARK  status: ('A' for Active; 'I' for Inactive)
REMARK    1  A    between atoms: C3'_2  and  C2'_3 
REMARK    2  A    between atoms: C2'_3  and  C1'_4 
REMARK    3  A    between atoms: C1'_4  and  C1_5 
ROOT
ATOM      1  C1  N4B d   1      -4.226  -0.998   3.940  0.00  0.00    -0.075 A 
ATOM      2  C2  N4B d   1      -3.277   0.015   3.679  0.00  0.00     0.002 A 
ATOM      3  C3  N4B d   1      -3.091   1.031   4.585  0.00  0.00     0.002 A 
ATOM      4  C4  N4B d   1      -3.852   1.064   5.744  0.00  0.00    -0.004 A 
ATOM      5  C5  N4B d   1      -4.748   0.068   6.000  0.00  0.00     0.002 A 
ATOM      6  C6  N4B d   1      -4.943  -0.961   5.101  0.00  0.00     0.002 A 
ENDROOT
BRANCH   1   7
ATOM      7  C1' N4B d   1      -4.526  -2.081   2.940  0.00  0.00     0.057 C 
BRANCH   7   8
ATOM      8  C2' N4B d   1      -5.166  -3.264   3.661  0.00  0.00     0.009 C 
BRANCH   8   9
ATOM      9  C3' N4B d   1      -5.122  -4.531   2.824  0.00  0.00     0.004 C 
ATOM     10  C4' N4B d   1      -5.316  -5.774   3.640  0.00  0.00     0.003 C 
ENDBRANCH   8   9
ENDBRANCH   7   8
ENDBRANCH   1   7
TORSDOF 3
ENDMDL
