MODEL 1
REMARK minimizedAffinity 4.80415201
REMARK minimizedRMSD -1
REMARK  3 active torsions:
REMARK  status: ('A' for Active; 'I' for Inactive)
REMARK    1  A    between atoms: C3'_2  and  C2'_3 
REMARK    2  A    between atoms: C2'_3  and  C1'_4 
REMARK    3  A    between atoms: C1'_4  and  C1_5 
ROOT
ATOM      1  C1  N4B d   1      -5.189   4.791  -3.262  0.00  0.00    -0.075 A 
ATOM      2  C2  N4B d   1      -4.470   5.660  -2.411  0.00  0.00     0.002 A 
ATOM      3  C3  N4B d   1      -4.536   5.497  -1.049  0.00  0.00     0.002 A 
ATOM      4  C4  N4B d   1      -5.326   4.490  -0.516  0.00  0.00    -0.004 A 
ATOM      5  C5  N4B d   1      -5.998   3.639  -1.345  0.00  0.00     0.002 A 
ATOM      6  C6  N4B d   1      -5.937   3.788  -2.716  0.00  0.00     0.002 A 
ENDROOT
BRANCH   1   7
ATOM      7  C1' N4B d   1      -5.216   4.983  -4.754  0.00  0.00     0.057 C 
BRANCH   7   8
ATOM      8  C2' N4B d   1      -4.149   6.000  -5.147  0.00  0.00     0.009 C 
BRANCH   8   9
ATOM      9  C3' N4B d   1      -3.025   5.364  -5.946  0.00  0.00     0.004 C 
ATOM     10  C4' N4B d   1      -1.713   5.384  -5.219  0.00  0.00     0.003 C 
ENDBRANCH   8   9
ENDBRANCH   7   8
ENDBRANCH   1   7
TORSDOF 3
ENDMDL
