MODEL 1
REMARK minimizedAffinity 4.64583111
REMARK minimizedRMSD -1
REMARK  3 active torsions:
REMARK  status: ('A' for Active; 'I' for Inactive)
REMARK    1  A    between atoms: C3'_2  and  C2'_3 
REMARK    2  A    between atoms: C2'_3  and  C1'_4 
REMARK    3  A    between atoms: C1'_4  and  C1_5 
ROOT
ATOM      1  C1  N4B d   1      -3.500   1.126   4.633  0.00  0.00    -0.075 A 
ATOM      2  C2  N4B d   1      -4.570   0.985   3.723  0.00  0.00     0.002 A 
ATOM      3  C3  N4B d   1      -4.341   0.477   2.468  0.00  0.00     0.002 A 
ATOM      4  C4  N4B d   1      -3.053   0.121   2.096  0.00  0.00    -0.004 A 
ATOM      5  C5  N4B d   1      -2.030   0.237   2.990  0.00  0.00     0.002 A 
ATOM      6  C6  N4B d   1      -2.246   0.742   4.256  0.00  0.00     0.002 A 
ENDROOT
BRANCH   1   7
ATOM      7  C1' N4B d   1      -3.687   1.757   5.986  0.00  0.00     0.057 C 
BRANCH   7   8
ATOM      8  C2' N4B d   1      -4.849   2.743   5.923  0.00  0.00     0.009 C 
BRANCH   8   9
ATOM      9  C3' N4B d   1      -4.377   4.184   5.996  0.00  0.00     0.004 C 
ATOM     10  C4' N4B d   1      -5.508   5.168   5.980  0.00  0.00     0.003 C 
ENDBRANCH   8   9
ENDBRANCH   7   8
ENDBRANCH   1   7
TORSDOF 3
ENDMDL
