MODEL 1
REMARK minimizedAffinity 5.81166553
REMARK minimizedRMSD -1
REMARK  0 active torsions:
REMARK  status: ('A' for Active; 'I' for Inactive)
ROOT
ATOM      1  C1  BNZ d   1      -3.723   1.520  -0.277  0.00  0.00     0.000 A 
ATOM      2  C2  BNZ d   1      -3.716   0.340  -0.972  0.00  0.00     0.000 A 
ATOM      3  C3  BNZ d   1      -4.851  -0.413  -1.082  0.00  0.00     0.000 A 
ATOM      4  C4  BNZ d   1      -5.979  -0.007  -0.465  0.00  0.00     0.000 A 
ATOM      5  C5  BNZ d   1      -5.999   1.176   0.247  0.00  0.00     0.000 A 
ATOM      6  C6  BNZ d   1      -4.865   1.951   0.324  0.00  0.00     0.000 A 
ENDROOT
TORSDOF 0
ENDMDL
