MODEL 1
REMARK minimizedAffinity 3.18282008
REMARK minimizedRMSD -1
REMARK  0 active torsions:
REMARK  status: ('A' for Active; 'I' for Inactive)
ROOT
ATOM      1  C1  BNZ d   1       2.551  -0.359   1.326  0.00  0.00     0.000 A 
ATOM      2  C2  BNZ d   1       2.027   0.853   0.962  0.00  0.00     0.000 A 
ATOM      3  C3  BNZ d   1       2.416   1.464  -0.197  0.00  0.00     0.000 A 
ATOM      4  C4  BNZ d   1       3.356   0.883  -0.970  0.00  0.00     0.000 A 
ATOM      5  C5  BNZ d   1       3.900  -0.335  -0.612  0.00  0.00     0.000 A 
ATOM      6  C6  BNZ d   1       3.478  -0.965   0.536  0.00  0.00     0.000 A 
ENDROOT
TORSDOF 0
ENDMDL
