MODEL 1
REMARK minimizedAffinity 3.06533527
REMARK minimizedRMSD -1
REMARK  0 active torsions:
REMARK  status: ('A' for Active; 'I' for Inactive)
ROOT
ATOM      1  C1  BNZ d   1       4.168   1.751   0.108  0.00  0.00     0.000 A 
ATOM      2  C2  BNZ d   1       3.583   0.937   1.042  0.00  0.00     0.000 A 
ATOM      3  C3  BNZ d   1       2.443   0.243   0.749  0.00  0.00     0.000 A 
ATOM      4  C4  BNZ d   1       1.868   0.393  -0.462  0.00  0.00     0.000 A 
ATOM      5  C5  BNZ d   1       2.440   1.217  -1.410  0.00  0.00     0.000 A 
ATOM      6  C6  BNZ d   1       3.609   1.884  -1.126  0.00  0.00     0.000 A 
ENDROOT
TORSDOF 0
ENDMDL
