MODEL 1
REMARK minimizedAffinity 7.55717659
REMARK minimizedRMSD -1
REMARK  0 active torsions:
REMARK  status: ('A' for Active; 'I' for Inactive)
ROOT
ATOM      1  C1  BNZ d   1       3.050   1.338   0.000  0.00  0.00     0.000 A 
ATOM      2  C2  BNZ d   1       3.811   1.581   1.113  0.00  0.00     0.000 A 
ATOM      3  C3  BNZ d   1       4.902   2.402   1.048  0.00  0.00     0.000 A 
ATOM      4  C4  BNZ d   1       5.253   2.947  -0.134  0.00  0.00     0.000 A 
ATOM      5  C5  BNZ d   1       4.501   2.704  -1.266  0.00  0.00     0.000 A 
ATOM      6  C6  BNZ d   1       3.381   1.909  -1.190  0.00  0.00     0.000 A 
ENDROOT
TORSDOF 0
ENDMDL
