MODEL 1
REMARK minimizedAffinity 4.58605576
REMARK minimizedRMSD -1
REMARK  0 active torsions:
REMARK  status: ('A' for Active; 'I' for Inactive)
ROOT
ATOM      1  C1  BNZ d   1       1.170   4.462   5.076  0.00  0.00     0.000 A 
ATOM      2  C2  BNZ d   1       2.025   3.429   4.798  0.00  0.00     0.000 A 
ATOM      3  C3  BNZ d   1       3.155   3.637   4.057  0.00  0.00     0.000 A 
ATOM      4  C4  BNZ d   1       3.407   4.866   3.563  0.00  0.00     0.000 A 
ATOM      5  C5  BNZ d   1       2.549   5.915   3.826  0.00  0.00     0.000 A 
ATOM      6  C6  BNZ d   1       1.433   5.711   4.605  0.00  0.00     0.000 A 
ENDROOT
TORSDOF 0
ENDMDL
