MODEL 1
REMARK minimizedAffinity 5.44122934
REMARK minimizedRMSD -1
REMARK  0 active torsions:
REMARK  status: ('A' for Active; 'I' for Inactive)
ROOT
ATOM      1  C1  BNZ d   1      -3.356  -0.002  -1.075  0.00  0.00     0.000 A 
ATOM      2  C2  BNZ d   1      -3.047   0.925  -0.116  0.00  0.00     0.000 A 
ATOM      3  C3  BNZ d   1      -4.034   1.593   0.555  0.00  0.00     0.000 A 
ATOM      4  C4  BNZ d   1      -5.324   1.363   0.238  0.00  0.00     0.000 A 
ATOM      5  C5  BNZ d   1      -5.651   0.438  -0.734  0.00  0.00     0.000 A 
ATOM      6  C6  BNZ d   1      -4.657  -0.261  -1.379  0.00  0.00     0.000 A 
ENDROOT
TORSDOF 0
ENDMDL
