MODEL 1
REMARK minimizedAffinity 10.7315035
REMARK minimizedRMSD -1
REMARK  0 active torsions:
REMARK  status: ('A' for Active; 'I' for Inactive)
ROOT
ATOM      1  C1  DEN d   1       0.609   4.958  -2.514  0.00  0.00     0.130 A 
ATOM      2  C2  DEN d   1       1.795   5.760  -2.228  0.00  0.00    -0.031 A 
ATOM      3  C3  DEN d   1       2.395   5.258  -0.976  0.00  0.00     0.027 A 
ATOM      4  C4  DEN d   1       1.610   3.323   0.538  0.00  0.00     0.027 A 
ATOM      5  C5  DEN d   1       0.646   2.355   0.712  0.00  0.00    -0.003 A 
ATOM      6  C6  DEN d   1      -0.408   2.210  -0.150  0.00  0.00     0.001 A 
ATOM      7  C7  DEN d   1      -0.499   3.017  -1.253  0.00  0.00     0.017 A 
ATOM      8  C8  DEN d   1       0.465   4.000  -1.432  0.00  0.00    -0.094 A 
ATOM      9  C9  DEN d   1       1.530   4.123  -0.555  0.00  0.00    -0.072 A 
ENDROOT
TORSDOF 0
ENDMDL
