MODEL 1
REMARK minimizedAffinity 6.71694517
REMARK minimizedRMSD -1
REMARK  0 active torsions:
REMARK  status: ('A' for Active; 'I' for Inactive)
ROOT
ATOM      1  C1  DEN d   1       4.829  -2.658   4.728  0.00  0.00     0.130 A 
ATOM      2  C2  DEN d   1       4.779  -3.744   5.704  0.00  0.00    -0.031 A 
ATOM      3  C3  DEN d   1       3.461  -4.399   5.591  0.00  0.00     0.027 A 
ATOM      4  C4  DEN d   1       1.504  -3.845   4.005  0.00  0.00     0.027 A 
ATOM      5  C5  DEN d   1       1.074  -3.000   3.005  0.00  0.00    -0.003 A 
ATOM      6  C6  DEN d   1       1.845  -1.969   2.538  0.00  0.00     0.001 A 
ATOM      7  C7  DEN d   1       3.107  -1.785   3.039  0.00  0.00     0.017 A 
ATOM      8  C8  DEN d   1       3.545  -2.628   4.052  0.00  0.00    -0.094 A 
ATOM      9  C9  DEN d   1       2.754  -3.672   4.502  0.00  0.00    -0.072 A 
ENDROOT
TORSDOF 0
ENDMDL
