MODEL 1
REMARK minimizedAffinity 4.77947521
REMARK minimizedRMSD -1
REMARK  0 active torsions:
REMARK  status: ('A' for Active; 'I' for Inactive)
ROOT
ATOM      1  C1  DEN d   1       2.248  -6.000   0.357  0.00  0.00     0.130 A 
ATOM      2  C2  DEN d   1       3.373  -5.855   1.276  0.00  0.00    -0.031 A 
ATOM      3  C3  DEN d   1       4.596  -5.657   0.473  0.00  0.00     0.027 A 
ATOM      4  C4  DEN d   1       4.854  -5.554  -2.091  0.00  0.00     0.027 A 
ATOM      5  C5  DEN d   1       4.183  -5.637  -3.291  0.00  0.00    -0.003 A 
ATOM      6  C6  DEN d   1       2.836  -5.878  -3.360  0.00  0.00     0.001 A 
ATOM      7  C7  DEN d   1       2.109  -6.000  -2.205  0.00  0.00     0.017 A 
ATOM      8  C8  DEN d   1       2.780  -5.926  -0.992  0.00  0.00    -0.094 A 
ATOM      9  C9  DEN d   1       4.140  -5.669  -0.943  0.00  0.00    -0.072 A 
ENDROOT
TORSDOF 0
ENDMDL
