MODEL 1
REMARK minimizedAffinity 0.544265211
REMARK minimizedRMSD -1
REMARK  0 active torsions:
REMARK  status: ('A' for Active; 'I' for Inactive)
ROOT
ATOM      1  C1  DEN d   1       5.999  -5.936  -4.368  0.00  0.00     0.130 A 
ATOM      2  C2  DEN d   1       5.631  -5.968  -5.781  0.00  0.00    -0.031 A 
ATOM      3  C3  DEN d   1       4.158  -6.000  -5.869  0.00  0.00     0.027 A 
ATOM      4  C4  DEN d   1       2.419  -6.000  -3.963  0.00  0.00     0.027 A 
ATOM      5  C5  DEN d   1       2.252  -5.991  -2.596  0.00  0.00    -0.003 A 
ATOM      6  C6  DEN d   1       3.314  -5.998  -1.731  0.00  0.00     0.001 A 
ATOM      7  C7  DEN d   1       4.591  -5.969  -2.224  0.00  0.00     0.017 A 
ATOM      8  C8  DEN d   1       4.768  -5.984  -3.601  0.00  0.00    -0.094 A 
ATOM      9  C9  DEN d   1       3.682  -5.965  -4.459  0.00  0.00    -0.072 A 
ENDROOT
TORSDOF 0
ENDMDL
