MODEL 1
REMARK minimizedAffinity 6.44519711
REMARK minimizedRMSD -1
REMARK  0 active torsions:
REMARK  status: ('A' for Active; 'I' for Inactive)
ROOT
ATOM      1  C1  DEN d   1       2.512  -5.943  -0.523  0.00  0.00     0.130 A 
ATOM      2  C2  DEN d   1       3.630  -5.974   0.416  0.00  0.00    -0.031 A 
ATOM      3  C3  DEN d   1       4.882  -6.000  -0.366  0.00  0.00     0.027 A 
ATOM      4  C4  DEN d   1       5.197  -5.989  -2.926  0.00  0.00     0.027 A 
ATOM      5  C5  DEN d   1       4.541  -5.978  -4.138  0.00  0.00    -0.003 A 
ATOM      6  C6  DEN d   1       3.175  -5.989  -4.229  0.00  0.00     0.001 A 
ATOM      7  C7  DEN d   1       2.418  -5.966  -3.087  0.00  0.00     0.017 A 
ATOM      8  C8  DEN d   1       3.072  -5.984  -1.862  0.00  0.00    -0.094 A 
ATOM      9  C9  DEN d   1       4.454  -5.961  -1.791  0.00  0.00    -0.072 A 
ENDROOT
TORSDOF 0
ENDMDL
