MODEL 1
REMARK minimizedAffinity 4.49810886
REMARK minimizedRMSD -1
REMARK  0 active torsions:
REMARK  status: ('A' for Active; 'I' for Inactive)
ROOT
ATOM      1  C1  DEN d   1       5.826  -1.704   3.011  0.00  0.00     0.130 A 
ATOM      2  C2  DEN d   1       6.000  -2.556   4.184  0.00  0.00    -0.031 A 
ATOM      3  C3  DEN d   1       4.661  -2.957   4.659  0.00  0.00     0.027 A 
ATOM      4  C4  DEN d   1       2.347  -2.348   3.695  0.00  0.00     0.027 A 
ATOM      5  C5  DEN d   1       1.692  -1.640   2.712  0.00  0.00    -0.003 A 
ATOM      6  C6  DEN d   1       2.361  -0.883   1.788  0.00  0.00     0.001 A 
ATOM      7  C7  DEN d   1       3.731  -0.851   1.800  0.00  0.00     0.017 A 
ATOM      8  C8  DEN d   1       4.399  -1.557   2.793  0.00  0.00    -0.094 A 
ATOM      9  C9  DEN d   1       3.704  -2.326   3.710  0.00  0.00    -0.072 A 
ENDROOT
TORSDOF 0
ENDMDL
