MODEL 1
REMARK minimizedAffinity 1.80356097
REMARK minimizedRMSD -1
REMARK  0 active torsions:
REMARK  status: ('A' for Active; 'I' for Inactive)
ROOT
ATOM      1  C1  DEN d   1       3.458  -5.951  -5.963  0.00  0.00     0.130 A 
ATOM      2  C2  DEN d   1       1.999  -5.978  -5.997  0.00  0.00    -0.031 A 
ATOM      3  C3  DEN d   1       1.509  -5.998  -4.604  0.00  0.00     0.027 A 
ATOM      4  C4  DEN d   1       2.862  -5.987  -2.409  0.00  0.00     0.027 A 
ATOM      5  C5  DEN d   1       4.130  -5.979  -1.872  0.00  0.00    -0.003 A 
ATOM      6  C6  DEN d   1       5.255  -5.996  -2.654  0.00  0.00     0.001 A 
ATOM      7  C7  DEN d   1       5.132  -5.976  -4.018  0.00  0.00     0.017 A 
ATOM      8  C8  DEN d   1       3.857  -5.991  -4.567  0.00  0.00    -0.094 A 
ATOM      9  C9  DEN d   1       2.733  -5.961  -3.759  0.00  0.00    -0.072 A 
ENDROOT
TORSDOF 0
ENDMDL
