MODEL 1
REMARK minimizedAffinity 6.75933123
REMARK minimizedRMSD -1
REMARK  0 active torsions:
REMARK  status: ('A' for Active; 'I' for Inactive)
ROOT
ATOM      1  C1  DEN d   1       1.887  -5.976  -0.063  0.00  0.00     0.130 A 
ATOM      2  C2  DEN d   1       1.971  -5.999   1.395  0.00  0.00    -0.031 A 
ATOM      3  C3  DEN d   1       3.400  -5.999   1.769  0.00  0.00     0.027 A 
ATOM      4  C4  DEN d   1       5.477  -5.961   0.241  0.00  0.00     0.027 A 
ATOM      5  C5  DEN d   1       5.909  -5.949  -1.067  0.00  0.00    -0.003 A 
ATOM      6  C6  DEN d   1       5.038  -5.980  -2.123  0.00  0.00     0.001 A 
ATOM      7  C7  DEN d   1       3.688  -5.978  -1.890  0.00  0.00     0.017 A 
ATOM      8  C8  DEN d   1       3.245  -5.997  -0.574  0.00  0.00    -0.094 A 
ATOM      9  C9  DEN d   1       4.142  -5.954   0.480  0.00  0.00    -0.072 A 
ENDROOT
TORSDOF 0
ENDMDL
