MODEL 1
REMARK minimizedAffinity 9.39126587
REMARK minimizedRMSD -1
REMARK  0 active torsions:
REMARK  status: ('A' for Active; 'I' for Inactive)
ROOT
ATOM      1  C1  DEN d   1       4.709  -5.953  -3.791  0.00  0.00     0.130 A 
ATOM      2  C2  DEN d   1       3.656  -5.979  -4.803  0.00  0.00    -0.031 A 
ATOM      3  C3  DEN d   1       2.354  -5.999  -4.106  0.00  0.00     0.027 A 
ATOM      4  C4  DEN d   1       1.869  -5.989  -1.573  0.00  0.00     0.027 A 
ATOM      5  C5  DEN d   1       2.442  -5.982  -0.320  0.00  0.00    -0.003 A 
ATOM      6  C6  DEN d   1       3.800  -5.999  -0.138  0.00  0.00     0.001 A 
ATOM      7  C7  DEN d   1       4.631  -5.979  -1.227  0.00  0.00     0.017 A 
ATOM      8  C8  DEN d   1       4.061  -5.993  -2.493  0.00  0.00    -0.094 A 
ATOM      9  C9  DEN d   1       2.686  -5.963  -2.656  0.00  0.00    -0.072 A 
ENDROOT
TORSDOF 0
ENDMDL
