MODEL 1
REMARK minimizedAffinity 6.9782896
REMARK minimizedRMSD -1
REMARK  3 active torsions:
REMARK  status: ('A' for Active; 'I' for Inactive)
REMARK    1  A    between atoms: C3'_2  and  C2'_3 
REMARK    2  A    between atoms: C2'_3  and  C1'_4 
REMARK    3  A    between atoms: C1'_4  and  C1_5 
ROOT
ATOM      1  C1  N4B d   1       1.427  -2.427   1.251  0.00  0.00    -0.075 A 
ATOM      2  C2  N4B d   1       0.789  -1.221   1.615  0.00  0.00     0.002 A 
ATOM      3  C3  N4B d   1      -0.388  -1.253   2.322  0.00  0.00     0.002 A 
ATOM      4  C4  N4B d   1      -0.953  -2.475   2.658  0.00  0.00    -0.004 A 
ATOM      5  C5  N4B d   1      -0.317  -3.635   2.324  0.00  0.00     0.002 A 
ATOM      6  C6  N4B d   1       0.868  -3.617   1.617  0.00  0.00     0.002 A 
ENDROOT
BRANCH   1   7
ATOM      7  C1' N4B d   1       2.670  -2.443   0.404  0.00  0.00     0.057 C 
BRANCH   7   8
ATOM      8  C2' N4B d   1       3.365  -3.792   0.561  0.00  0.00     0.009 C 
BRANCH   8   9
ATOM      9  C3' N4B d   1       4.582  -3.702   1.467  0.00  0.00     0.004 C 
ATOM     10  C4' N4B d   1       4.769  -4.927   2.311  0.00  0.00     0.003 C 
ENDBRANCH   8   9
ENDBRANCH   7   8
ENDBRANCH   1   7
TORSDOF 3
ENDMDL
