MODEL 1
REMARK minimizedAffinity -6.82125902
REMARK minimizedRMSD -1
REMARK  2 active torsions:
REMARK  status: ('A' for Active; 'I' for Inactive)
REMARK    1  A    between atoms: C1_2  and  C2_3 
REMARK    2  A    between atoms: C2_3  and  C3_4 
ROOT
ATOM      1  C3  UNL d   1      -0.719  -0.047   0.289  0.00  0.00    -0.075 A 
ATOM      2  C4  UNL d   1       0.447   0.373  -0.367  0.00  0.00     0.002 A 
ATOM      3  C5  UNL d   1       1.605  -0.404  -0.321  0.00  0.00     0.002 A 
ATOM      4  C6  UNL d   1       1.615  -1.603   0.388  0.00  0.00    -0.004 A 
ATOM      5  C7  UNL d   1       0.467  -2.022   1.057  0.00  0.00     0.002 A 
ATOM      6  C8  UNL d   1      -0.694  -1.248   1.010  0.00  0.00     0.002 A 
ENDROOT
BRANCH   1   7
ATOM      7  C2  UNL d   1      -1.984   0.775   0.219  0.00  0.00     0.056 C 
BRANCH   7   8
ATOM      8  C1  UNL d   1      -2.758   0.618  -1.094  0.00  0.00     0.007 C 
ATOM      9  C   UNL d   1      -2.385   1.661  -2.139  0.00  0.00     0.009 C 
ENDBRANCH   7   8
ENDBRANCH   1   7
TORSDOF 2
ENDMDL
