MODEL 1
REMARK minimizedAffinity -1.91636837
REMARK minimizedRMSD -1
REMARK  2 active torsions:
REMARK  status: ('A' for Active; 'I' for Inactive)
REMARK    1  A    between atoms: C1_2  and  C2_3 
REMARK    2  A    between atoms: C2_3  and  C3_4 
ROOT
ATOM      1  C3  UNL d   1      -0.264   0.980  -0.852  0.00  0.00    -0.075 A 
ATOM      2  C4  UNL d   1      -1.393   0.150  -0.783  0.00  0.00     0.002 A 
ATOM      3  C5  UNL d   1      -2.490   0.375  -1.616  0.00  0.00     0.002 A 
ATOM      4  C6  UNL d   1      -2.476   1.435  -2.519  0.00  0.00    -0.004 A 
ATOM      5  C7  UNL d   1      -1.367   2.276  -2.585  0.00  0.00     0.002 A 
ATOM      6  C8  UNL d   1      -0.267   2.051  -1.756  0.00  0.00     0.002 A 
ENDROOT
BRANCH   1   7
ATOM      7  C2  UNL d   1       0.937   0.724   0.026  0.00  0.00     0.056 C 
BRANCH   7   8
ATOM      8  C1  UNL d   1       1.934  -0.283  -0.559  0.00  0.00     0.007 C 
ATOM      9  C   UNL d   1       2.335  -1.371   0.427  0.00  0.00     0.009 C 
ENDBRANCH   7   8
ENDBRANCH   1   7
TORSDOF 2
ENDMDL
