MODEL 1
REMARK minimizedAffinity -3.3832438
REMARK minimizedRMSD -1
REMARK  2 active torsions:
REMARK  status: ('A' for Active; 'I' for Inactive)
REMARK    1  A    between atoms: C1_2  and  C2_3 
REMARK    2  A    between atoms: C2_3  and  C3_4 
ROOT
ATOM      1  C3  UNL d   1      -0.595   1.337  -0.923  0.00  0.00    -0.075 A 
ATOM      2  C4  UNL d   1      -1.490   0.613  -0.121  0.00  0.00     0.002 A 
ATOM      3  C5  UNL d   1      -1.019  -0.340   0.782  0.00  0.00     0.002 A 
ATOM      4  C6  UNL d   1       0.348  -0.588   0.888  0.00  0.00    -0.004 A 
ATOM      5  C7  UNL d   1       1.244   0.113   0.085  0.00  0.00     0.002 A 
ATOM      6  C8  UNL d   1       0.776   1.070  -0.817  0.00  0.00     0.002 A 
ENDROOT
BRANCH   1   7
ATOM      7  C2  UNL d   1      -1.096   2.391  -1.882  0.00  0.00     0.056 C 
BRANCH   7   8
ATOM      8  C1  UNL d   1      -1.412   1.860  -3.284  0.00  0.00     0.007 C 
ATOM      9  C   UNL d   1      -2.855   1.399  -3.440  0.00  0.00     0.009 C 
ENDBRANCH   7   8
ENDBRANCH   1   7
TORSDOF 2
ENDMDL
