MODEL 1
REMARK minimizedAffinity -2.68113065
REMARK minimizedRMSD -1
REMARK  2 active torsions:
REMARK  status: ('A' for Active; 'I' for Inactive)
REMARK    1  A    between atoms: C1_2  and  C2_3 
REMARK    2  A    between atoms: C2_3  and  C3_4 
ROOT
ATOM      1  C3  UNL d   1       0.380  -0.096   0.501  0.00  0.00    -0.075 A 
ATOM      2  C4  UNL d   1       1.049   0.543  -0.553  0.00  0.00     0.002 A 
ATOM      3  C5  UNL d   1       2.287   0.075  -0.994  0.00  0.00     0.002 A 
ATOM      4  C6  UNL d   1       2.876  -1.029  -0.382  0.00  0.00    -0.004 A 
ATOM      5  C7  UNL d   1       2.228  -1.662   0.677  0.00  0.00     0.002 A 
ATOM      6  C8  UNL d   1       0.987  -1.198   1.117  0.00  0.00     0.002 A 
ENDROOT
BRANCH   1   7
ATOM      7  C2  UNL d   1      -0.973   0.388   0.964  0.00  0.00     0.056 C 
BRANCH   7   8
ATOM      8  C1  UNL d   1      -1.756  -0.641   1.787  0.00  0.00     0.007 C 
ATOM      9  C   UNL d   1      -2.133  -0.139   3.174  0.00  0.00     0.009 C 
ENDBRANCH   7   8
ENDBRANCH   1   7
TORSDOF 2
ENDMDL
