MODEL 1
REMARK minimizedAffinity -3.30988097
REMARK minimizedRMSD -1
REMARK  2 active torsions:
REMARK  status: ('A' for Active; 'I' for Inactive)
REMARK    1  A    between atoms: C1_2  and  C2_3 
REMARK    2  A    between atoms: C2_3  and  C3_4 
ROOT
ATOM      1  C3  UNL d   1       0.426   0.678  -0.547  0.00  0.00    -0.075 A 
ATOM      2  C4  UNL d   1       1.802   0.589  -0.802  0.00  0.00     0.002 A 
ATOM      3  C5  UNL d   1       2.560  -0.442  -0.247  0.00  0.00     0.002 A 
ATOM      4  C6  UNL d   1       1.956  -1.390   0.577  0.00  0.00    -0.004 A 
ATOM      5  C7  UNL d   1       0.593  -1.302   0.851  0.00  0.00     0.002 A 
ATOM      6  C8  UNL d   1      -0.169  -0.273   0.293  0.00  0.00     0.002 A 
ENDROOT
BRANCH   1   7
ATOM      7  C2  UNL d   1      -0.406   1.774  -1.168  0.00  0.00     0.056 C 
BRANCH   7   8
ATOM      8  C1  UNL d   1      -1.541   1.265  -2.063  0.00  0.00     0.007 C 
ATOM      9  C   UNL d   1      -2.101   2.335  -2.990  0.00  0.00     0.009 C 
ENDBRANCH   7   8
ENDBRANCH   1   7
TORSDOF 2
ENDMDL
