MODEL 1
REMARK minimizedAffinity 1.23846817
REMARK minimizedRMSD -1
REMARK  2 active torsions:
REMARK  status: ('A' for Active; 'I' for Inactive)
REMARK    1  A    between atoms: C1_2  and  C2_3 
REMARK    2  A    between atoms: C2_3  and  C3_4 
ROOT
ATOM      1  C3  UNL d   1      -0.034   0.210  -1.130  0.00  0.00    -0.075 A 
ATOM      2  C4  UNL d   1       0.803   1.335  -1.146  0.00  0.00     0.002 A 
ATOM      3  C5  UNL d   1       1.979   1.353  -0.396  0.00  0.00     0.002 A 
ATOM      4  C6  UNL d   1       2.329   0.254   0.385  0.00  0.00    -0.004 A 
ATOM      5  C7  UNL d   1       1.496  -0.863   0.421  0.00  0.00     0.002 A 
ATOM      6  C8  UNL d   1       0.321  -0.886  -0.332  0.00  0.00     0.002 A 
ENDROOT
BRANCH   1   7
ATOM      7  C2  UNL d   1      -1.294   0.172  -1.962  0.00  0.00     0.056 C 
BRANCH   7   8
ATOM      8  C1  UNL d   1      -1.733   1.542  -2.490  0.00  0.00     0.007 C 
ATOM      9  C   UNL d   1      -2.020   1.544  -3.986  0.00  0.00     0.009 C 
ENDBRANCH   7   8
ENDBRANCH   1   7
TORSDOF 2
ENDMDL
