MODEL 1
REMARK minimizedAffinity -0.160138145
REMARK minimizedRMSD -1
REMARK  2 active torsions:
REMARK  status: ('A' for Active; 'I' for Inactive)
REMARK    1  A    between atoms: C1_2  and  C2_3 
REMARK    2  A    between atoms: C2_3  and  C3_4 
ROOT
ATOM      1  C3  UNL d   1      -1.524   0.247  -0.486  0.00  0.00    -0.075 A 
ATOM      2  C4  UNL d   1      -1.005   1.354  -1.173  0.00  0.00     0.002 A 
ATOM      3  C5  UNL d   1      -1.609   1.805  -2.348  0.00  0.00     0.002 A 
ATOM      4  C6  UNL d   1      -2.729   1.150  -2.854  0.00  0.00    -0.004 A 
ATOM      5  C7  UNL d   1      -3.243   0.039  -2.189  0.00  0.00     0.002 A 
ATOM      6  C8  UNL d   1      -2.644  -0.412  -1.011  0.00  0.00     0.002 A 
ENDROOT
BRANCH   1   7
ATOM      7  C2  UNL d   1      -0.893  -0.228   0.801  0.00  0.00     0.056 C 
BRANCH   7   8
ATOM      8  C1  UNL d   1      -1.895  -0.468   1.935  0.00  0.00     0.007 C 
ATOM      9  C   UNL d   1      -1.286  -1.184   3.133  0.00  0.00     0.009 C 
ENDBRANCH   7   8
ENDBRANCH   1   7
TORSDOF 2
ENDMDL
