MODEL 1
REMARK minimizedAffinity -4.65453672
REMARK minimizedRMSD -1
REMARK  2 active torsions:
REMARK  status: ('A' for Active; 'I' for Inactive)
REMARK    1  A    between atoms: C1_2  and  C2_3 
REMARK    2  A    between atoms: C2_3  and  C3_4 
ROOT
ATOM      1  C3  UNL d   1      -1.579   0.160  -0.164  0.00  0.00    -0.075 A 
ATOM      2  C4  UNL d   1      -0.835   1.039  -0.964  0.00  0.00     0.002 A 
ATOM      3  C5  UNL d   1      -1.315   1.439  -2.212  0.00  0.00     0.002 A 
ATOM      4  C6  UNL d   1      -2.537   0.959  -2.678  0.00  0.00    -0.004 A 
ATOM      5  C7  UNL d   1      -3.276   0.072  -1.899  0.00  0.00     0.002 A 
ATOM      6  C8  UNL d   1      -2.801  -0.326  -0.648  0.00  0.00     0.002 A 
ENDROOT
BRANCH   1   7
ATOM      7  C2  UNL d   1      -1.080  -0.253   1.200  0.00  0.00     0.056 C 
BRANCH   7   8
ATOM      8  C1  UNL d   1      -2.173  -0.318   2.272  0.00  0.00     0.007 C 
ATOM      9  C   UNL d   1      -1.866  -1.312   3.384  0.00  0.00     0.009 C 
ENDBRANCH   7   8
ENDBRANCH   1   7
TORSDOF 2
ENDMDL
