MODEL 1
REMARK minimizedAffinity 10.7589626
REMARK minimizedRMSD -1
REMARK  1 active torsions:
REMARK  status: ('A' for Active; 'I' for Inactive)
REMARK    1  A    between atoms: C1_2  and  C2_3 
ROOT
ATOM      1  C2  UNL d   1       0.042   3.095  -0.399  0.00  0.00    -0.073 A 
ATOM      2  C3  UNL d   1       0.085   3.120  -1.797  0.00  0.00    -0.002 A 
ATOM      3  C4  UNL d   1      -0.652   4.068  -2.509  0.00  0.00     0.004 A 
ATOM      4  C5  UNL d   1      -1.434   5.002  -1.830  0.00  0.00    -0.004 A 
ATOM      5  C6  UNL d   1      -1.481   5.001  -0.432  0.00  0.00    -0.075 A 
ATOM      6  C7  UNL d   1      -2.319   5.998   0.312  0.00  0.00     0.076 C 
ATOM      7  C8  UNL d   1      -0.740   4.045   0.275  0.00  0.00     0.001 A 
ENDROOT
BRANCH   1   8
ATOM      8  C1  UNL d   1       0.842   2.078   0.374  0.00  0.00     0.053 C 
ATOM      9  C   UNL d   1       1.930   2.728   1.213  0.00  0.00     0.018 C 
ENDBRANCH   1   8
TORSDOF 1
ENDMDL
