MODEL 1
REMARK minimizedAffinity 0.713714302
REMARK minimizedRMSD -1
REMARK  1 active torsions:
REMARK  status: ('A' for Active; 'I' for Inactive)
REMARK    1  A    between atoms: C1_2  and  C2_3 
ROOT
ATOM      1  C2  UNL d   1      -5.807  -3.054   4.779  0.00  0.00    -0.073 A 
ATOM      2  C3  UNL d   1      -5.847  -3.322   3.406  0.00  0.00    -0.002 A 
ATOM      3  C4  UNL d   1      -5.943  -2.277   2.486  0.00  0.00     0.004 A 
ATOM      4  C5  UNL d   1      -5.994  -0.955   2.928  0.00  0.00    -0.004 A 
ATOM      5  C6  UNL d   1      -5.944  -0.666   4.296  0.00  0.00    -0.075 A 
ATOM      6  C7  UNL d   1      -6.000   0.750   4.788  0.00  0.00     0.076 C 
ATOM      7  C8  UNL d   1      -5.850  -1.721   5.214  0.00  0.00     0.001 A 
ENDROOT
BRANCH   1   8
ATOM      8  C1  UNL d   1      -5.697  -4.179   5.776  0.00  0.00     0.053 C 
ATOM      9  C   UNL d   1      -4.254  -4.602   6.000  0.00  0.00     0.018 C 
ENDBRANCH   1   8
TORSDOF 1
ENDMDL
