MODEL 1
REMARK minimizedAffinity -2.10572124
REMARK minimizedRMSD -1
REMARK  1 active torsions:
REMARK  status: ('A' for Active; 'I' for Inactive)
REMARK    1  A    between atoms: C1_2  and  C2_3 
ROOT
ATOM      1  C2  UNL d   1      -2.169  -4.210  -5.420  0.00  0.00    -0.073 A 
ATOM      2  C3  UNL d   1      -1.838  -5.067  -4.365  0.00  0.00    -0.002 A 
ATOM      3  C4  UNL d   1      -2.793  -5.936  -3.836  0.00  0.00     0.004 A 
ATOM      4  C5  UNL d   1      -4.085  -5.962  -4.360  0.00  0.00    -0.004 A 
ATOM      5  C6  UNL d   1      -4.432  -5.122  -5.423  0.00  0.00    -0.075 A 
ATOM      6  C7  UNL d   1      -5.819  -5.137  -5.997  0.00  0.00     0.076 C 
ATOM      7  C8  UNL d   1      -3.468  -4.250  -5.947  0.00  0.00     0.001 A 
ENDROOT
BRANCH   1   8
ATOM      8  C1  UNL d   1      -1.140  -3.274  -5.999  0.00  0.00     0.053 C 
ATOM      9  C   UNL d   1       0.252  -3.887  -5.999  0.00  0.00     0.018 C 
ENDBRANCH   1   8
TORSDOF 1
ENDMDL
