MODEL 1
REMARK minimizedAffinity 6.42852736
REMARK minimizedRMSD -1
REMARK  1 active torsions:
REMARK  status: ('A' for Active; 'I' for Inactive)
REMARK    1  A    between atoms: C1_2  and  C2_3 
ROOT
ATOM      1  C2  UNL d   1      -1.907   5.207  -0.624  0.00  0.00    -0.073 A 
ATOM      2  C3  UNL d   1      -1.198   5.793  -1.679  0.00  0.00    -0.002 A 
ATOM      3  C4  UNL d   1      -0.130   5.119  -2.271  0.00  0.00     0.004 A 
ATOM      4  C5  UNL d   1       0.236   3.851  -1.820  0.00  0.00    -0.004 A 
ATOM      5  C6  UNL d   1      -0.467   3.243  -0.776  0.00  0.00    -0.075 A 
ATOM      6  C7  UNL d   1      -0.085   1.880  -0.278  0.00  0.00     0.076 C 
ATOM      7  C8  UNL d   1      -1.537   3.928  -0.184  0.00  0.00     0.001 A 
ENDROOT
BRANCH   1   8
ATOM      8  C1  UNL d   1      -3.066   5.928   0.014  0.00  0.00     0.053 C 
ATOM      9  C   UNL d   1      -2.929   5.999   1.527  0.00  0.00     0.018 C 
ENDBRANCH   1   8
TORSDOF 1
ENDMDL
