MODEL 1
REMARK minimizedAffinity 8.99573326
REMARK minimizedRMSD -1
REMARK  1 active torsions:
REMARK  status: ('A' for Active; 'I' for Inactive)
REMARK    1  A    between atoms: C1_2  and  C2_3 
ROOT
ATOM      1  C2  UNL d   1      -1.145   4.184  -2.837  0.00  0.00    -0.073 A 
ATOM      2  C3  UNL d   1      -1.329   5.496  -2.385  0.00  0.00    -0.002 A 
ATOM      3  C4  UNL d   1      -0.927   5.863  -1.100  0.00  0.00     0.004 A 
ATOM      4  C5  UNL d   1      -0.332   4.925  -0.257  0.00  0.00    -0.004 A 
ATOM      5  C6  UNL d   1      -0.129   3.612  -0.694  0.00  0.00    -0.075 A 
ATOM      6  C7  UNL d   1       0.508   2.590   0.202  0.00  0.00     0.076 C 
ATOM      7  C8  UNL d   1      -0.537   3.251  -1.985  0.00  0.00     0.001 A 
ENDROOT
BRANCH   1   8
ATOM      8  C1  UNL d   1      -1.571   3.786  -4.226  0.00  0.00     0.053 C 
ATOM      9  C   UNL d   1      -3.029   3.357  -4.273  0.00  0.00     0.018 C 
ENDBRANCH   1   8
TORSDOF 1
ENDMDL
