MODEL 1
REMARK minimizedAffinity 5.6998992
REMARK minimizedRMSD -1
REMARK  0 active torsions:
REMARK  status: ('A' for Active; 'I' for Inactive)
ROOT
ATOM      1  N1  IND d   1      -4.290  -3.308   4.406  0.00  0.00    -0.196 N 
ATOM      2  C2  IND d   1      -5.216  -3.420   5.406  0.00  0.00     0.054 A 
ATOM      3  C3  IND d   1      -5.997  -2.317   5.450  0.00  0.00    -0.031 A 
ATOM      4  C4  IND d   1      -5.999  -0.252   3.913  0.00  0.00     0.051 A 
ATOM      5  C5  IND d   1      -5.314   0.322   2.879  0.00  0.00    -0.031 A 
ATOM      6  C6  IND d   1      -4.232  -0.298   2.288  0.00  0.00     0.015 A 
ATOM      7  C7  IND d   1      -3.800  -1.526   2.703  0.00  0.00    -0.016 A 
ATOM      8  C8  IND d   1      -4.490  -2.109   3.757  0.00  0.00    -0.047 A 
ATOM      9  C9  IND d   1      -5.562  -1.466   4.389  0.00  0.00    -0.096 A 
ATOM     10  HN1 IND d   1      -3.685  -3.888   4.215  0.00  0.00     0.298 HD
ENDROOT
TORSDOF 0
ENDMDL
