MODEL 1
REMARK minimizedAffinity 3.76046014
REMARK minimizedRMSD -1
REMARK  0 active torsions:
REMARK  status: ('A' for Active; 'I' for Inactive)
ROOT
ATOM      1  N1  IND d   1      -3.893   4.199  -2.292  0.00  0.00    -0.196 N 
ATOM      2  C2  IND d   1      -4.264   3.572  -3.449  0.00  0.00     0.054 A 
ATOM      3  C3  IND d   1      -3.250   3.597  -4.344  0.00  0.00    -0.031 A 
ATOM      4  C4  IND d   1      -0.862   4.523  -4.084  0.00  0.00     0.051 A 
ATOM      5  C5  IND d   1      -0.065   5.221  -3.220  0.00  0.00    -0.031 A 
ATOM      6  C6  IND d   1      -0.512   5.619  -1.976  0.00  0.00     0.015 A 
ATOM      7  C7  IND d   1      -1.774   5.323  -1.544  0.00  0.00    -0.016 A 
ATOM      8  C8  IND d   1      -2.588   4.621  -2.422  0.00  0.00    -0.047 A 
ATOM      9  C9  IND d   1      -2.155   4.251  -3.701  0.00  0.00    -0.096 A 
ATOM     10  HN1 IND d   1      -4.391   4.310  -1.601  0.00  0.00     0.298 HD
ENDROOT
TORSDOF 0
ENDMDL
