MODEL 1
REMARK minimizedAffinity 13.2607298
REMARK minimizedRMSD -1
REMARK  0 active torsions:
REMARK  status: ('A' for Active; 'I' for Inactive)
ROOT
ATOM      1  N1  IND d   1       0.450   2.038  -0.802  0.00  0.00    -0.196 N 
ATOM      2  C2  IND d   1       0.444   2.030   0.565  0.00  0.00     0.054 A 
ATOM      3  C3  IND d   1      -0.128   3.159   1.040  0.00  0.00    -0.031 A 
ATOM      4  C4  IND d   1      -1.216   5.107  -0.245  0.00  0.00     0.051 A 
ATOM      5  C5  IND d   1      -1.422   5.581  -1.511  0.00  0.00    -0.031 A 
ATOM      6  C6  IND d   1      -1.008   4.883  -2.627  0.00  0.00     0.015 A 
ATOM      7  C7  IND d   1      -0.381   3.674  -2.519  0.00  0.00    -0.016 A 
ATOM      8  C8  IND d   1      -0.164   3.193  -1.236  0.00  0.00    -0.047 A 
ATOM      9  C9  IND d   1      -0.543   3.916  -0.098  0.00  0.00    -0.096 A 
ATOM     10  HN1 IND d   1       0.781   1.425  -1.306  0.00  0.00     0.298 HD
ENDROOT
TORSDOF 0
ENDMDL
