MODEL 1
REMARK minimizedAffinity 3.77548409
REMARK minimizedRMSD -1
REMARK  0 active torsions:
REMARK  status: ('A' for Active; 'I' for Inactive)
ROOT
ATOM      1  N1  IND d   1      -2.338  -5.949  -5.998  0.00  0.00    -0.196 N 
ATOM      2  C2  IND d   1      -3.705  -5.911  -5.987  0.00  0.00     0.054 A 
ATOM      3  C3  IND d   1      -4.140  -4.632  -5.948  0.00  0.00    -0.031 A 
ATOM      4  C4  IND d   1      -2.787  -2.442  -5.999  0.00  0.00     0.051 A 
ATOM      5  C5  IND d   1      -1.506  -1.967  -5.973  0.00  0.00    -0.031 A 
ATOM      6  C6  IND d   1      -0.415  -2.812  -5.956  0.00  0.00     0.015 A 
ATOM      7  C7  IND d   1      -0.565  -4.169  -5.976  0.00  0.00    -0.016 A 
ATOM      8  C8  IND d   1      -1.864  -4.656  -5.996  0.00  0.00    -0.047 A 
ATOM      9  C9  IND d   1      -2.976  -3.804  -5.970  0.00  0.00    -0.096 A 
ATOM     10  HN1 IND d   1      -1.856  -6.661  -6.005  0.00  0.00     0.298 HD
ENDROOT
TORSDOF 0
ENDMDL
