MODEL 1
REMARK minimizedAffinity 11.0255785
REMARK minimizedRMSD -1
REMARK  0 active torsions:
REMARK  status: ('A' for Active; 'I' for Inactive)
ROOT
ATOM      1  N1  IND d   1       0.457   4.323  -1.439  0.00  0.00    -0.196 N 
ATOM      2  C2  IND d   1       0.537   3.117  -0.800  0.00  0.00     0.054 A 
ATOM      3  C3  IND d   1      -0.557   2.369  -1.067  0.00  0.00    -0.031 A 
ATOM      4  C4  IND d   1      -2.555   2.885  -2.606  0.00  0.00     0.051 A 
ATOM      5  C5  IND d   1      -3.092   3.877  -3.378  0.00  0.00    -0.031 A 
ATOM      6  C6  IND d   1      -2.460   5.092  -3.548  0.00  0.00     0.015 A 
ATOM      7  C7  IND d   1      -1.256   5.357  -2.959  0.00  0.00    -0.016 A 
ATOM      8  C8  IND d   1      -0.711   4.355  -2.170  0.00  0.00    -0.047 A 
ATOM      9  C9  IND d   1      -1.368   3.135  -1.959  0.00  0.00    -0.096 A 
ATOM     10  HN1 IND d   1       1.037   4.955  -1.392  0.00  0.00     0.298 HD
ENDROOT
TORSDOF 0
ENDMDL
