MODEL 1
REMARK minimizedAffinity -1.46783853
REMARK minimizedRMSD -1
REMARK  0 active torsions:
REMARK  status: ('A' for Active; 'I' for Inactive)
ROOT
ATOM      1  N1  IND d   1      -5.297  -3.753  -5.994  0.00  0.00    -0.196 N 
ATOM      2  C2  IND d   1      -5.990  -4.932  -5.978  0.00  0.00     0.054 A 
ATOM      3  C3  IND d   1      -5.135  -5.980  -5.973  0.00  0.00    -0.031 A 
ATOM      4  C4  IND d   1      -2.563  -5.992  -5.887  0.00  0.00     0.051 A 
ATOM      5  C5  IND d   1      -1.479  -5.160  -5.924  0.00  0.00    -0.031 A 
ATOM      6  C6  IND d   1      -1.616  -3.788  -5.985  0.00  0.00     0.015 A 
ATOM      7  C7  IND d   1      -2.847  -3.194  -5.999  0.00  0.00    -0.016 A 
ATOM      8  C8  IND d   1      -3.949  -4.037  -5.969  0.00  0.00    -0.047 A 
ATOM      9  C9  IND d   1      -3.816  -5.432  -5.950  0.00  0.00    -0.096 A 
ATOM     10  HN1 IND d   1      -5.644  -2.967  -6.016  0.00  0.00     0.298 HD
ENDROOT
TORSDOF 0
ENDMDL
