MODEL 1
REMARK minimizedAffinity -0.603595376
REMARK minimizedRMSD -1
REMARK  0 active torsions:
REMARK  status: ('A' for Active; 'I' for Inactive)
ROOT
ATOM      1  N1  IND d   1      -4.714  -3.669  -5.999  0.00  0.00    -0.196 N 
ATOM      2  C2  IND d   1      -5.388  -4.859  -5.994  0.00  0.00     0.054 A 
ATOM      3  C3  IND d   1      -4.517  -5.893  -5.998  0.00  0.00    -0.031 A 
ATOM      4  C4  IND d   1      -1.944  -5.865  -5.911  0.00  0.00     0.051 A 
ATOM      5  C5  IND d   1      -0.875  -5.014  -5.941  0.00  0.00    -0.031 A 
ATOM      6  C6  IND d   1      -1.033  -3.644  -5.989  0.00  0.00     0.015 A 
ATOM      7  C7  IND d   1      -2.273  -3.071  -5.999  0.00  0.00    -0.016 A 
ATOM      8  C8  IND d   1      -3.362  -3.932  -5.976  0.00  0.00    -0.047 A 
ATOM      9  C9  IND d   1      -3.207  -5.324  -5.970  0.00  0.00    -0.096 A 
ATOM     10  HN1 IND d   1      -5.074  -2.889  -6.015  0.00  0.00     0.298 HD
ENDROOT
TORSDOF 0
ENDMDL
