MODEL 1
REMARK minimizedAffinity 5.88241196
REMARK minimizedRMSD -1
REMARK  0 active torsions:
REMARK  status: ('A' for Active; 'I' for Inactive)
ROOT
ATOM      1  N1  IND d   1       0.091   2.109  -0.866  0.00  0.00    -0.196 N 
ATOM      2  C2  IND d   1       0.007   2.033   0.496  0.00  0.00     0.054 A 
ATOM      3  C3  IND d   1      -0.342   3.233   1.014  0.00  0.00    -0.031 A 
ATOM      4  C4  IND d   1      -0.922   5.429  -0.197  0.00  0.00     0.051 A 
ATOM      5  C5  IND d   1      -0.951   6.000  -1.439  0.00  0.00    -0.031 A 
ATOM      6  C6  IND d   1      -0.630   5.287  -2.576  0.00  0.00     0.015 A 
ATOM      7  C7  IND d   1      -0.278   3.969  -2.515  0.00  0.00    -0.016 A 
ATOM      8  C8  IND d   1      -0.241   3.388  -1.255  0.00  0.00    -0.047 A 
ATOM      9  C9  IND d   1      -0.524   4.117  -0.093  0.00  0.00    -0.096 A 
ATOM     10  HN1 IND d   1       0.314   1.466  -1.391  0.00  0.00     0.298 HD
ENDROOT
TORSDOF 0
ENDMDL
