MODEL 1
REMARK minimizedAffinity -2.69347119
REMARK minimizedRMSD -1
REMARK  1 active torsions:
REMARK  status: ('A' for Active; 'I' for Inactive)
REMARK    1  A    between atoms: C3_4  and  O_7 
ROOT
ATOM      1  C   UNL d   1       3.045   5.949  -5.980  0.00  0.00    -0.033 A 
ATOM      2  C1  UNL d   1       4.367   5.501  -5.991  0.00  0.00     0.039 A 
ATOM      3  C2  UNL d   1       4.642   4.132  -5.999  0.00  0.00    -0.080 A 
ATOM      4  C3  UNL d   1       3.587   3.223  -5.997  0.00  0.00     0.150 A 
ATOM      5  C4  UNL d   1       2.267   3.663  -5.990  0.00  0.00    -0.007 A 
ATOM      6  C5  UNL d   1       1.995   5.031  -5.981  0.00  0.00     0.039 A 
ENDROOT
BRANCH   4   7
ATOM      7  O   UNL d   1       3.805   1.878  -5.999  0.00  0.00    -0.526 OA
ATOM      8  H5  UNL d   1       4.764   1.722  -5.974  0.00  0.00     0.418 HD
ENDBRANCH   4   7
TORSDOF 1
ENDMDL
