MODEL 1
REMARK minimizedAffinity -2.21011424
REMARK minimizedRMSD -1
REMARK  1 active torsions:
REMARK  status: ('A' for Active; 'I' for Inactive)
REMARK    1  A    between atoms: C3_4  and  O_7 
ROOT
ATOM      1  C   UNL d   1       0.127   5.632   4.374  0.00  0.00    -0.033 A 
ATOM      2  C1  UNL d   1       1.051   5.272   3.391  0.00  0.00     0.039 A 
ATOM      3  C2  UNL d   1       2.417   5.279   3.680  0.00  0.00    -0.080 A 
ATOM      4  C3  UNL d   1       2.845   5.645   4.953  0.00  0.00     0.150 A 
ATOM      5  C4  UNL d   1       1.929   6.000   5.938  0.00  0.00    -0.007 A 
ATOM      6  C5  UNL d   1       0.566   5.994   5.648  0.00  0.00     0.039 A 
ENDROOT
BRANCH   4   7
ATOM      7  O   UNL d   1       4.168   5.670   5.280  0.00  0.00    -0.526 OA
ATOM      8  H5  UNL d   1       4.685   5.429   4.493  0.00  0.00     0.418 HD
ENDBRANCH   4   7
TORSDOF 1
ENDMDL
