MODEL 1
REMARK minimizedAffinity -2.81462574
REMARK minimizedRMSD -1
REMARK  1 active torsions:
REMARK  status: ('A' for Active; 'I' for Inactive)
REMARK    1  A    between atoms: C3_4  and  O_7 
ROOT
ATOM      1  C   UNL d   1       5.887   4.023  -5.975  0.00  0.00    -0.033 A 
ATOM      2  C1  UNL d   1       5.523   5.371  -5.959  0.00  0.00     0.039 A 
ATOM      3  C2  UNL d   1       4.174   5.732  -5.965  0.00  0.00    -0.080 A 
ATOM      4  C3  UNL d   1       3.201   4.736  -5.987  0.00  0.00     0.150 A 
ATOM      5  C4  UNL d   1       3.556   3.392  -6.000  0.00  0.00    -0.007 A 
ATOM      6  C5  UNL d   1       4.904   3.034  -5.994  0.00  0.00     0.039 A 
ENDROOT
BRANCH   4   7
ATOM      7  O   UNL d   1       1.871   5.040  -6.000  0.00  0.00    -0.526 OA
ATOM      8  H5  UNL d   1       1.777   6.007  -6.018  0.00  0.00     0.418 HD
ENDBRANCH   4   7
TORSDOF 1
ENDMDL
