MODEL 1
REMARK minimizedAffinity -1.77099264
REMARK minimizedRMSD -1
REMARK  1 active torsions:
REMARK  status: ('A' for Active; 'I' for Inactive)
REMARK    1  A    between atoms: C3_4  and  O_7 
ROOT
ATOM      1  C   UNL d   1       0.893   4.862   3.400  0.00  0.00    -0.033 A 
ATOM      2  C1  UNL d   1       0.993   5.926   4.299  0.00  0.00     0.039 A 
ATOM      3  C2  UNL d   1       2.075   6.000   5.178  0.00  0.00    -0.080 A 
ATOM      4  C3  UNL d   1       3.050   5.006   5.147  0.00  0.00     0.150 A 
ATOM      5  C4  UNL d   1       2.959   3.946   4.251  0.00  0.00    -0.007 A 
ATOM      6  C5  UNL d   1       1.877   3.874   3.375  0.00  0.00     0.039 A 
ENDROOT
BRANCH   4   7
ATOM      7  O   UNL d   1       4.122   5.033   5.989  0.00  0.00    -0.526 OA
ATOM      8  H5  UNL d   1       4.037   5.807   6.570  0.00  0.00     0.418 HD
ENDBRANCH   4   7
TORSDOF 1
ENDMDL
