MODEL 1
REMARK minimizedAffinity -4.13877153
REMARK minimizedRMSD -1
REMARK  0 active torsions:
REMARK  status: ('A' for Active; 'I' for Inactive)
ROOT
ATOM      1  C2' OXE d   1      -0.511  -0.873  -1.542  0.00  0.00     0.078 C 
ATOM      2  C1' OXE d   1       0.319  -0.880   1.140  0.00  0.00     0.078 C 
ATOM      3  C1  OXE d   1      -0.844   0.005   0.765  0.00  0.00    -0.078 A 
ATOM      4  C2  OXE d   1      -1.213   0.038  -0.558  0.00  0.00    -0.078 A 
ATOM      5  C3  OXE d   1      -2.314   0.795  -0.948  0.00  0.00     0.003 A 
ATOM      6  C4  OXE d   1      -2.952   1.642  -0.033  0.00  0.00    -0.002 A 
ATOM      7  C5  OXE d   1      -2.566   1.654   1.312  0.00  0.00    -0.002 A 
ATOM      8  C6  OXE d   1      -1.543   0.811   1.735  0.00  0.00     0.003 A 
ENDROOT
TORSDOF 0
ENDMDL
