MODEL 1
REMARK minimizedAffinity -2.23820376
REMARK minimizedRMSD -1
REMARK  0 active torsions:
REMARK  status: ('A' for Active; 'I' for Inactive)
ROOT
ATOM      1  C2' OXE d   1      -0.675  -0.562  -0.725  0.00  0.00     0.078 C 
ATOM      2  C1' OXE d   1       0.150   2.002   0.065  0.00  0.00     0.078 C 
ATOM      3  C1  OXE d   1      -1.209   1.529   0.518  0.00  0.00    -0.078 A 
ATOM      4  C2  OXE d   1      -1.624   0.292   0.088  0.00  0.00    -0.078 A 
ATOM      5  C3  OXE d   1      -2.845  -0.215   0.523  0.00  0.00     0.003 A 
ATOM      6  C4  OXE d   1      -3.721   0.585   1.267  0.00  0.00    -0.002 A 
ATOM      7  C5  OXE d   1      -3.334   1.864   1.682  0.00  0.00    -0.002 A 
ATOM      8  C6  OXE d   1      -2.067   2.333   1.353  0.00  0.00     0.003 A 
ENDROOT
TORSDOF 0
ENDMDL
