MODEL 1
REMARK minimizedAffinity -5.94796371
REMARK minimizedRMSD -1
REMARK  0 active torsions:
REMARK  status: ('A' for Active; 'I' for Inactive)
ROOT
ATOM      1  C2' OXE d   1       0.337  -2.083  -1.031  0.00  0.00     0.078 C 
ATOM      2  C1' OXE d   1      -0.277   0.646  -0.799  0.00  0.00     0.078 C 
ATOM      3  C1  OXE d   1       1.066   0.182  -0.293  0.00  0.00    -0.078 A 
ATOM      4  C2  OXE d   1       1.339  -1.163  -0.368  0.00  0.00    -0.078 A 
ATOM      5  C3  OXE d   1       2.585  -1.636   0.035  0.00  0.00     0.003 A 
ATOM      6  C4  OXE d   1       3.502  -0.780   0.656  0.00  0.00    -0.002 A 
ATOM      7  C5  OXE d   1       3.227   0.586   0.779  0.00  0.00    -0.002 A 
ATOM      8  C6  OXE d   1       2.034   1.089   0.272  0.00  0.00     0.003 A 
ENDROOT
TORSDOF 0
ENDMDL
