MODEL 1
REMARK minimizedAffinity -5.91944075
REMARK minimizedRMSD -1
REMARK  0 active torsions:
REMARK  status: ('A' for Active; 'I' for Inactive)
ROOT
ATOM      1  C2' OXE d   1       0.303  -2.009  -0.266  0.00  0.00     0.078 C 
ATOM      2  C1' OXE d   1      -0.964   0.486  -0.487  0.00  0.00     0.078 C 
ATOM      3  C1  OXE d   1       0.516   0.473  -0.197  0.00  0.00    -0.078 A 
ATOM      4  C2  OXE d   1       1.119  -0.753  -0.044  0.00  0.00    -0.078 A 
ATOM      5  C3  OXE d   1       2.492  -0.824   0.170  0.00  0.00     0.003 A 
ATOM      6  C4  OXE d   1       3.237   0.342   0.384  0.00  0.00    -0.002 A 
ATOM      7  C5  OXE d   1       2.635   1.600   0.272  0.00  0.00    -0.002 A 
ATOM      8  C6  OXE d   1       1.287   1.683  -0.059  0.00  0.00     0.003 A 
ENDROOT
TORSDOF 0
ENDMDL
