MODEL 1
REMARK minimizedAffinity -3.58430314
REMARK minimizedRMSD -1
REMARK  0 active torsions:
REMARK  status: ('A' for Active; 'I' for Inactive)
ROOT
ATOM      1  C2' OXE d   1       0.269   1.333  -0.018  0.00  0.00     0.078 C 
ATOM      2  C1' OXE d   1       0.026  -1.056  -1.471  0.00  0.00     0.078 C 
ATOM      3  C1  OXE d   1       1.004  -1.028  -0.323  0.00  0.00    -0.078 A 
ATOM      4  C2  OXE d   1       1.150   0.160   0.353  0.00  0.00    -0.078 A 
ATOM      5  C3  OXE d   1       1.998   0.226   1.455  0.00  0.00     0.003 A 
ATOM      6  C4  OXE d   1       2.817  -0.861   1.786  0.00  0.00    -0.002 A 
ATOM      7  C5  OXE d   1       2.712  -2.067   1.085  0.00  0.00    -0.002 A 
ATOM      8  C6  OXE d   1       1.782  -2.180   0.057  0.00  0.00     0.003 A 
ENDROOT
TORSDOF 0
ENDMDL
