MODEL 1
REMARK minimizedAffinity -4.894135
REMARK minimizedRMSD -1
REMARK  0 active torsions:
REMARK  status: ('A' for Active; 'I' for Inactive)
ROOT
ATOM      1  C2' OXE d   1       2.303  -1.847   1.708  0.00  0.00     0.078 C 
ATOM      2  C1' OXE d   1       1.542  -2.781  -0.827  0.00  0.00     0.078 C 
ATOM      3  C1  OXE d   1       0.958  -1.473  -0.355  0.00  0.00    -0.078 A 
ATOM      4  C2  OXE d   1       1.299  -1.047   0.906  0.00  0.00    -0.078 A 
ATOM      5  C3  OXE d   1       0.832   0.180   1.368  0.00  0.00     0.003 A 
ATOM      6  C4  OXE d   1      -0.104   0.909   0.624  0.00  0.00    -0.002 A 
ATOM      7  C5  OXE d   1      -0.496   0.472  -0.646  0.00  0.00    -0.002 A 
ATOM      8  C6  OXE d   1       0.057  -0.692  -1.167  0.00  0.00     0.003 A 
ENDROOT
TORSDOF 0
ENDMDL
