MODEL 1
REMARK minimizedAffinity -3.62546515
REMARK minimizedRMSD -1
REMARK  0 active torsions:
REMARK  status: ('A' for Active; 'I' for Inactive)
ROOT
ATOM      1  C2' OXE d   1       2.631  -1.512   1.261  0.00  0.00     0.078 C 
ATOM      2  C1' OXE d   1       1.896  -2.481  -1.269  0.00  0.00     0.078 C 
ATOM      3  C1  OXE d   1       1.088  -1.348  -0.688  0.00  0.00    -0.078 A 
ATOM      4  C2  OXE d   1       1.425  -0.911   0.571  0.00  0.00    -0.078 A 
ATOM      5  C3  OXE d   1       0.747   0.168   1.131  0.00  0.00     0.003 A 
ATOM      6  C4  OXE d   1      -0.373   0.711   0.490  0.00  0.00    -0.002 A 
ATOM      7  C5  OXE d   1      -0.758   0.254  -0.775  0.00  0.00    -0.002 A 
ATOM      8  C6  OXE d   1      -0.014  -0.744  -1.395  0.00  0.00     0.003 A 
ENDROOT
TORSDOF 0
ENDMDL
