MODEL 1
REMARK minimizedAffinity -2.38432622
REMARK minimizedRMSD -1
REMARK  0 active torsions:
REMARK  status: ('A' for Active; 'I' for Inactive)
ROOT
ATOM      1  C2' OXE d   1       2.697  -1.536   0.401  0.00  0.00     0.078 C 
ATOM      2  C1' OXE d   1       2.165   1.194   0.780  0.00  0.00     0.078 C 
ATOM      3  C1  OXE d   1       1.039   0.320   0.288  0.00  0.00    -0.078 A 
ATOM      4  C2  OXE d   1       1.321  -1.005   0.060  0.00  0.00    -0.078 A 
ATOM      5  C3  OXE d   1       0.304  -1.867  -0.342  0.00  0.00     0.003 A 
ATOM      6  C4  OXE d   1      -0.963  -1.367  -0.664  0.00  0.00    -0.002 A 
ATOM      7  C5  OXE d   1      -1.260  -0.013  -0.477  0.00  0.00    -0.002 A 
ATOM      8  C6  OXE d   1      -0.285   0.834   0.037  0.00  0.00     0.003 A 
ENDROOT
TORSDOF 0
ENDMDL
