MODEL 1
REMARK minimizedAffinity -2.52004695
REMARK minimizedRMSD -1
REMARK  0 active torsions:
REMARK  status: ('A' for Active; 'I' for Inactive)
ROOT
ATOM      1  C2' OXE d   1       0.064  -2.232  -1.133  0.00  0.00     0.078 C 
ATOM      2  C1' OXE d   1       2.403  -1.218   0.040  0.00  0.00     0.078 C 
ATOM      3  C1  OXE d   1       1.230  -0.283  -0.112  0.00  0.00    -0.078 A 
ATOM      4  C2  OXE d   1       0.105  -0.774  -0.729  0.00  0.00    -0.078 A 
ATOM      5  C3  OXE d   1      -1.025   0.030  -0.846  0.00  0.00     0.003 A 
ATOM      6  C4  OXE d   1      -0.975   1.380  -0.479  0.00  0.00    -0.002 A 
ATOM      7  C5  OXE d   1       0.174   1.912   0.116  0.00  0.00    -0.002 A 
ATOM      8  C6  OXE d   1       1.268   1.085   0.345  0.00  0.00     0.003 A 
ENDROOT
TORSDOF 0
ENDMDL
