MODEL 1
REMARK minimizedAffinity -4.46774149
REMARK minimizedRMSD -1
REMARK  0 active torsions:
REMARK  status: ('A' for Active; 'I' for Inactive)
ROOT
ATOM      1  C2' OXE d   1       3.092  -1.105   0.189  0.00  0.00     0.078 C 
ATOM      2  C1' OXE d   1       2.482   1.630   0.341  0.00  0.00     0.078 C 
ATOM      3  C1  OXE d   1       1.371   0.682  -0.032  0.00  0.00    -0.078 A 
ATOM      4  C2  OXE d   1       1.689  -0.650  -0.149  0.00  0.00    -0.078 A 
ATOM      5  C3  OXE d   1       0.689  -1.575  -0.437  0.00  0.00     0.003 A 
ATOM      6  C4  OXE d   1      -0.604  -1.144  -0.759  0.00  0.00    -0.002 A 
ATOM      7  C5  OXE d   1      -0.939   0.212  -0.684  0.00  0.00    -0.002 A 
ATOM      8  C6  OXE d   1       0.023   1.131  -0.281  0.00  0.00     0.003 A 
ENDROOT
TORSDOF 0
ENDMDL
