MODEL 1
REMARK minimizedAffinity -2.27224302
REMARK minimizedRMSD -1
REMARK  1 active torsions:
REMARK  status: ('A' for Active; 'I' for Inactive)
REMARK    1  A    between atoms: C3_4  and  O_7 
ROOT
ATOM      1  C   UNL d   1      -0.755   2.594  -1.414  0.00  0.00    -0.033 A 
ATOM      2  C1  UNL d   1      -1.440   2.003  -2.478  0.00  0.00     0.039 A 
ATOM      3  C2  UNL d   1      -1.220   2.446  -3.784  0.00  0.00    -0.080 A 
ATOM      4  C3  UNL d   1      -0.313   3.478  -4.012  0.00  0.00     0.150 A 
ATOM      5  C4  UNL d   1       0.375   4.068  -2.957  0.00  0.00    -0.007 A 
ATOM      6  C5  UNL d   1       0.154   3.625  -1.654  0.00  0.00     0.039 A 
ENDROOT
BRANCH   4   7
ATOM      7  O   UNL d   1      -0.069   3.947  -5.269  0.00  0.00    -0.526 OA
ATOM      8  H5  UNL d   1      -0.637   3.464  -5.893  0.00  0.00     0.418 HD
ENDBRANCH   4   7
TORSDOF 1
ENDMDL
