MODEL 1
REMARK minimizedAffinity -2.34619761
REMARK minimizedRMSD -1
REMARK  1 active torsions:
REMARK  status: ('A' for Active; 'I' for Inactive)
REMARK    1  A    between atoms: C3_4  and  O_7 
ROOT
ATOM      1  C   UNL d   1       0.842  -0.563  -0.262  0.00  0.00    -0.033 A 
ATOM      2  C1  UNL d   1       0.964  -1.633   0.627  0.00  0.00     0.039 A 
ATOM      3  C2  UNL d   1       2.124  -1.782   1.388  0.00  0.00    -0.080 A 
ATOM      4  C3  UNL d   1       3.154  -0.855   1.252  0.00  0.00     0.150 A 
ATOM      5  C4  UNL d   1       3.039   0.215   0.371  0.00  0.00    -0.007 A 
ATOM      6  C5  UNL d   1       1.879   0.362  -0.389  0.00  0.00     0.039 A 
ENDROOT
BRANCH   4   7
ATOM      7  O   UNL d   1       4.308  -0.962   1.971  0.00  0.00    -0.526 OA
ATOM      8  H5  UNL d   1       4.258  -1.764   2.516  0.00  0.00     0.418 HD
ENDBRANCH   4   7
TORSDOF 1
ENDMDL
