MODEL 1
REMARK minimizedAffinity -1.80056679
REMARK minimizedRMSD -1
REMARK  1 active torsions:
REMARK  status: ('A' for Active; 'I' for Inactive)
REMARK    1  A    between atoms: C3_4  and  O_7 
ROOT
ATOM      1  C   UNL d   1       2.215   2.196  -0.560  0.00  0.00    -0.033 A 
ATOM      2  C1  UNL d   1       2.966   3.151   0.128  0.00  0.00     0.039 A 
ATOM      3  C2  UNL d   1       2.327   4.207   0.780  0.00  0.00    -0.080 A 
ATOM      4  C3  UNL d   1       0.939   4.297   0.737  0.00  0.00     0.150 A 
ATOM      5  C4  UNL d   1       0.184   3.348   0.057  0.00  0.00    -0.007 A 
ATOM      6  C5  UNL d   1       0.823   2.294  -0.595  0.00  0.00     0.039 A 
ENDROOT
BRANCH   4   7
ATOM      7  O   UNL d   1       0.271   5.313   1.354  0.00  0.00    -0.526 OA
ATOM      8  H5  UNL d   1       0.923   5.908   1.760  0.00  0.00     0.418 HD
ENDBRANCH   4   7
TORSDOF 1
ENDMDL
