MODEL 1
REMARK minimizedAffinity -4.01806307
REMARK minimizedRMSD -1
REMARK  1 active torsions:
REMARK  status: ('A' for Active; 'I' for Inactive)
REMARK    1  A    between atoms: C3_4  and  O_7 
ROOT
ATOM      1  C   UNL d   1       1.473   1.087  -0.184  0.00  0.00    -0.033 A 
ATOM      2  C1  UNL d   1       2.736   0.496  -0.256  0.00  0.00     0.039 A 
ATOM      3  C2  UNL d   1       2.885  -0.869  -0.001  0.00  0.00    -0.080 A 
ATOM      4  C3  UNL d   1       1.766  -1.630   0.324  0.00  0.00     0.150 A 
ATOM      5  C4  UNL d   1       0.504  -1.048   0.394  0.00  0.00    -0.007 A 
ATOM      6  C5  UNL d   1       0.357   0.315   0.140  0.00  0.00     0.039 A 
ENDROOT
BRANCH   4   7
ATOM      7  O   UNL d   1       1.863  -2.964   0.585  0.00  0.00    -0.526 OA
ATOM      8  H5  UNL d   1       2.798  -3.222   0.528  0.00  0.00     0.418 HD
ENDBRANCH   4   7
TORSDOF 1
ENDMDL
