MODEL 1
REMARK minimizedAffinity 1.52108479
REMARK minimizedRMSD -1
REMARK  1 active torsions:
REMARK  status: ('A' for Active; 'I' for Inactive)
REMARK    1  A    between atoms: C3_4  and  O_7 
ROOT
ATOM      1  C   UNL d   1      -2.772   1.478  -4.049  0.00  0.00    -0.033 A 
ATOM      2  C1  UNL d   1      -1.890   2.402  -3.485  0.00  0.00     0.039 A 
ATOM      3  C2  UNL d   1      -1.257   2.117  -2.275  0.00  0.00    -0.080 A 
ATOM      4  C3  UNL d   1      -1.512   0.904  -1.639  0.00  0.00     0.150 A 
ATOM      5  C4  UNL d   1      -2.386  -0.023  -2.197  0.00  0.00    -0.007 A 
ATOM      6  C5  UNL d   1      -3.019   0.265  -3.406  0.00  0.00     0.039 A 
ENDROOT
BRANCH   4   7
ATOM      7  O   UNL d   1      -0.921   0.583  -0.454  0.00  0.00    -0.526 OA
ATOM      8  H5  UNL d   1      -0.365   1.330  -0.174  0.00  0.00     0.418 HD
ENDBRANCH   4   7
TORSDOF 1
ENDMDL
