MODEL 1
REMARK minimizedAffinity -2.12262917
REMARK minimizedRMSD -1
REMARK  1 active torsions:
REMARK  status: ('A' for Active; 'I' for Inactive)
REMARK    1  A    between atoms: C3_4  and  O_7 
ROOT
ATOM      1  C   UNL d   1       0.498   3.013  -0.322  0.00  0.00    -0.033 A 
ATOM      2  C1  UNL d   1      -0.082   1.759  -0.120  0.00  0.00     0.039 A 
ATOM      3  C2  UNL d   1      -1.126   1.330  -0.942  0.00  0.00    -0.080 A 
ATOM      4  C3  UNL d   1      -1.580   2.163  -1.962  0.00  0.00     0.150 A 
ATOM      5  C4  UNL d   1      -1.004   3.412  -2.171  0.00  0.00    -0.007 A 
ATOM      6  C5  UNL d   1       0.038   3.839  -1.348  0.00  0.00     0.039 A 
ENDROOT
BRANCH   4   7
ATOM      7  O   UNL d   1      -2.599   1.790  -2.786  0.00  0.00    -0.526 OA
ATOM      8  H5  UNL d   1      -2.918   0.916  -2.506  0.00  0.00     0.418 HD
ENDBRANCH   4   7
TORSDOF 1
ENDMDL
