MODEL 1
REMARK minimizedAffinity -2.97258234
REMARK minimizedRMSD -1
REMARK  1 active torsions:
REMARK  status: ('A' for Active; 'I' for Inactive)
REMARK    1  A    between atoms: C3_4  and  O_7 
ROOT
ATOM      1  C   UNL d   1       2.204   2.686  -0.254  0.00  0.00    -0.033 A 
ATOM      2  C1  UNL d   1       2.141   1.299  -0.401  0.00  0.00     0.039 A 
ATOM      3  C2  UNL d   1       0.906   0.648  -0.371  0.00  0.00    -0.080 A 
ATOM      4  C3  UNL d   1      -0.256   1.394  -0.194  0.00  0.00     0.150 A 
ATOM      5  C4  UNL d   1      -0.200   2.777  -0.051  0.00  0.00    -0.007 A 
ATOM      6  C5  UNL d   1       1.034   3.425  -0.080  0.00  0.00     0.039 A 
ENDROOT
BRANCH   4   7
ATOM      7  O   UNL d   1      -1.484   0.803  -0.152  0.00  0.00    -0.526 OA
ATOM      8  H5  UNL d   1      -1.365  -0.158  -0.236  0.00  0.00     0.418 HD
ENDBRANCH   4   7
TORSDOF 1
ENDMDL
