MODEL 1
REMARK minimizedAffinity -2.64527965
REMARK minimizedRMSD -1
REMARK  1 active torsions:
REMARK  status: ('A' for Active; 'I' for Inactive)
REMARK    1  A    between atoms: C3_4  and  O_7 
ROOT
ATOM      1  C   UNL d   1      -0.662   0.238   0.592  0.00  0.00    -0.033 A 
ATOM      2  C1  UNL d   1       0.477   0.001  -0.180  0.00  0.00     0.039 A 
ATOM      3  C2  UNL d   1       1.293  -1.098   0.095  0.00  0.00    -0.080 A 
ATOM      4  C3  UNL d   1       0.958  -1.952   1.142  0.00  0.00     0.150 A 
ATOM      5  C4  UNL d   1      -0.178  -1.725   1.912  0.00  0.00    -0.007 A 
ATOM      6  C5  UNL d   1      -0.990  -0.626   1.637  0.00  0.00     0.039 A 
ENDROOT
BRANCH   4   7
ATOM      7  O   UNL d   1       1.726  -3.036   1.451  0.00  0.00    -0.526 OA
ATOM      8  H5  UNL d   1       2.492  -3.050   0.853  0.00  0.00     0.418 HD
ENDBRANCH   4   7
TORSDOF 1
ENDMDL
