MODEL 1
REMARK minimizedAffinity -4.55239344
REMARK minimizedRMSD -1
REMARK  1 active torsions:
REMARK  status: ('A' for Active; 'I' for Inactive)
REMARK    1  A    between atoms: C3_4  and  O_7 
ROOT
ATOM      1  C   UNL d   1      -2.226   1.861  -3.011  0.00  0.00    -0.033 A 
ATOM      2  C1  UNL d   1      -2.460   1.280  -1.763  0.00  0.00     0.039 A 
ATOM      3  C2  UNL d   1      -1.882   1.829  -0.617  0.00  0.00    -0.080 A 
ATOM      4  C3  UNL d   1      -1.075   2.957  -0.731  0.00  0.00     0.150 A 
ATOM      5  C4  UNL d   1      -0.841   3.543  -1.971  0.00  0.00    -0.007 A 
ATOM      6  C5  UNL d   1      -1.418   2.993  -3.115  0.00  0.00     0.039 A 
ENDROOT
BRANCH   4   7
ATOM      7  O   UNL d   1      -0.485   3.525   0.359  0.00  0.00    -0.526 OA
ATOM      8  H5  UNL d   1      -0.712   2.996   1.142  0.00  0.00     0.418 HD
ENDBRANCH   4   7
TORSDOF 1
ENDMDL
