MODEL 1
REMARK minimizedAffinity -1.46952224
REMARK minimizedRMSD -1
REMARK  1 active torsions:
REMARK  status: ('A' for Active; 'I' for Inactive)
REMARK    1  A    between atoms: C1_2  and  C2_3 
ROOT
ATOM      1  C2  UNL d   1       1.400   0.871   0.281  0.00  0.00    -0.073 A 
ATOM      2  C3  UNL d   1       0.448   1.074  -0.724  0.00  0.00    -0.002 A 
ATOM      3  C4  UNL d   1      -0.655   0.226  -0.832  0.00  0.00     0.004 A 
ATOM      4  C5  UNL d   1      -0.820  -0.829   0.067  0.00  0.00    -0.004 A 
ATOM      5  C6  UNL d   1       0.115  -1.041   1.085  0.00  0.00    -0.075 A 
ATOM      6  C7  UNL d   1      -0.047  -2.171   2.058  0.00  0.00     0.076 C 
ATOM      7  C8  UNL d   1       1.221  -0.186   1.185  0.00  0.00     0.001 A 
ENDROOT
BRANCH   1   8
ATOM      8  C1  UNL d   1       2.589   1.788   0.406  0.00  0.00     0.053 C 
ATOM      9  C   UNL d   1       2.255   3.053   1.181  0.00  0.00     0.018 C 
ENDBRANCH   1   8
TORSDOF 1
ENDMDL
