MODEL 1
REMARK minimizedAffinity -1.29820061
REMARK minimizedRMSD -1
REMARK  1 active torsions:
REMARK  status: ('A' for Active; 'I' for Inactive)
REMARK    1  A    between atoms: C1_2  and  C2_3 
ROOT
ATOM      1  C2  UNL d   1       0.902   0.122  -0.018  0.00  0.00    -0.073 A 
ATOM      2  C3  UNL d   1       0.036   0.137  -1.117  0.00  0.00    -0.002 A 
ATOM      3  C4  UNL d   1      -1.008  -0.784  -1.205  0.00  0.00     0.004 A 
ATOM      4  C5  UNL d   1      -1.202  -1.725  -0.194  0.00  0.00    -0.004 A 
ATOM      5  C6  UNL d   1      -0.354  -1.749   0.919  0.00  0.00    -0.075 A 
ATOM      6  C7  UNL d   1      -0.548  -2.756   2.014  0.00  0.00     0.076 C 
ATOM      7  C8  UNL d   1       0.694  -0.822   0.999  0.00  0.00     0.001 A 
ENDROOT
BRANCH   1   8
ATOM      8  C1  UNL d   1       2.027   1.119   0.085  0.00  0.00     0.053 C 
ATOM      9  C   UNL d   1       1.881   2.019   1.302  0.00  0.00     0.018 C 
ENDBRANCH   1   8
TORSDOF 1
ENDMDL
