MODEL 1
REMARK minimizedAffinity 0.285127312
REMARK minimizedRMSD -1
REMARK  1 active torsions:
REMARK  status: ('A' for Active; 'I' for Inactive)
REMARK    1  A    between atoms: C1_2  and  C2_3 
ROOT
ATOM      1  C2  UNL d   1       0.436   0.330  -0.360  0.00  0.00    -0.073 A 
ATOM      2  C3  UNL d   1       0.501  -0.163  -1.668  0.00  0.00    -0.002 A 
ATOM      3  C4  UNL d   1      -0.658  -0.276  -2.437  0.00  0.00     0.004 A 
ATOM      4  C5  UNL d   1      -1.891   0.108  -1.909  0.00  0.00    -0.004 A 
ATOM      5  C6  UNL d   1      -1.974   0.614  -0.608  0.00  0.00    -0.075 A 
ATOM      6  C7  UNL d   1      -3.293   1.030  -0.025  0.00  0.00     0.076 C 
ATOM      7  C8  UNL d   1      -0.806   0.722   0.159  0.00  0.00     0.001 A 
ENDROOT
BRANCH   1   8
ATOM      8  C1  UNL d   1       1.686   0.461   0.472  0.00  0.00     0.053 C 
ATOM      9  C   UNL d   1       2.520   1.664   0.063  0.00  0.00     0.018 C 
ENDBRANCH   1   8
TORSDOF 1
ENDMDL
