MODEL 1
REMARK minimizedAffinity -3.87622762
REMARK minimizedRMSD -1
REMARK  1 active torsions:
REMARK  status: ('A' for Active; 'I' for Inactive)
REMARK    1  A    between atoms: C1_2  and  C2_3 
ROOT
ATOM      1  C2  UNL d   1       0.001   0.335  -0.830  0.00  0.00    -0.073 A 
ATOM      2  C3  UNL d   1       0.367  -0.760  -0.039  0.00  0.00    -0.002 A 
ATOM      3  C4  UNL d   1       1.516  -0.707   0.750  0.00  0.00     0.004 A 
ATOM      4  C5  UNL d   1       2.307   0.442   0.762  0.00  0.00    -0.004 A 
ATOM      5  C6  UNL d   1       1.952   1.551  -0.012  0.00  0.00    -0.075 A 
ATOM      6  C7  UNL d   1       2.793   2.793  -0.012  0.00  0.00     0.076 C 
ATOM      7  C8  UNL d   1       0.797   1.489  -0.804  0.00  0.00     0.001 A 
ENDROOT
BRANCH   1   8
ATOM      8  C1  UNL d   1      -1.243   0.284  -1.678  0.00  0.00     0.053 C 
ATOM      9  C   UNL d   1      -1.974  -1.042  -1.540  0.00  0.00     0.018 C 
ENDBRANCH   1   8
TORSDOF 1
ENDMDL
