MODEL 1
REMARK minimizedAffinity -2.16749454
REMARK minimizedRMSD -1
REMARK  1 active torsions:
REMARK  status: ('A' for Active; 'I' for Inactive)
REMARK    1  A    between atoms: C1_2  and  C2_3 
ROOT
ATOM      1  C2  UNL d   1       0.402  -0.657  -0.221  0.00  0.00    -0.073 A 
ATOM      2  C3  UNL d   1       1.233  -0.007  -1.141  0.00  0.00    -0.002 A 
ATOM      3  C4  UNL d   1       0.734   0.393  -2.381  0.00  0.00     0.004 A 
ATOM      4  C5  UNL d   1      -0.600   0.155  -2.711  0.00  0.00    -0.004 A 
ATOM      5  C6  UNL d   1      -1.449  -0.483  -1.801  0.00  0.00    -0.075 A 
ATOM      6  C7  UNL d   1      -2.886  -0.749  -2.142  0.00  0.00     0.076 C 
ATOM      7  C8  UNL d   1      -0.940  -0.884  -0.558  0.00  0.00     0.001 A 
ENDROOT
BRANCH   1   8
ATOM      8  C1  UNL d   1       0.935  -1.086   1.122  0.00  0.00     0.053 C 
ATOM      9  C   UNL d   1      -0.033  -2.004   1.852  0.00  0.00     0.018 C 
ENDBRANCH   1   8
TORSDOF 1
ENDMDL
