MODEL 1
REMARK minimizedAffinity 2.10728598
REMARK minimizedRMSD -1
REMARK  1 active torsions:
REMARK  status: ('A' for Active; 'I' for Inactive)
REMARK    1  A    between atoms: C1_2  and  C2_3 
ROOT
ATOM      1  C2  UNL d   1       2.888   3.241   1.296  0.00  0.00    -0.073 A 
ATOM      2  C3  UNL d   1       2.405   4.226   2.165  0.00  0.00    -0.002 A 
ATOM      3  C4  UNL d   1       2.512   4.063   3.546  0.00  0.00     0.004 A 
ATOM      4  C5  UNL d   1       3.110   2.918   4.073  0.00  0.00    -0.004 A 
ATOM      5  C6  UNL d   1       3.610   1.927   3.222  0.00  0.00    -0.075 A 
ATOM      6  C7  UNL d   1       4.253   0.689   3.773  0.00  0.00     0.076 C 
ATOM      7  C8  UNL d   1       3.496   2.097   1.836  0.00  0.00     0.001 A 
ENDROOT
BRANCH   1   8
ATOM      8  C1  UNL d   1       2.780   3.415  -0.196  0.00  0.00     0.053 C 
ATOM      9  C   UNL d   1       3.796   4.414  -0.728  0.00  0.00     0.018 C 
ENDBRANCH   1   8
TORSDOF 1
ENDMDL
