MODEL 1
REMARK minimizedAffinity -5.16922998
REMARK minimizedRMSD -1
REMARK  1 active torsions:
REMARK  status: ('A' for Active; 'I' for Inactive)
REMARK    1  A    between atoms: C1_2  and  C2_3 
ROOT
ATOM      1  C2  UNL d   1       0.965  -0.316   0.366  0.00  0.00    -0.073 A 
ATOM      2  C3  UNL d   1       1.065  -1.270   1.385  0.00  0.00    -0.002 A 
ATOM      3  C4  UNL d   1       0.059  -2.221   1.561  0.00  0.00     0.004 A 
ATOM      4  C5  UNL d   1      -1.052  -2.233   0.717  0.00  0.00    -0.004 A 
ATOM      5  C6  UNL d   1      -1.163  -1.295  -0.314  0.00  0.00    -0.075 A 
ATOM      6  C7  UNL d   1      -2.353  -1.292  -1.229  0.00  0.00     0.076 C 
ATOM      7  C8  UNL d   1      -0.150  -0.341  -0.483  0.00  0.00     0.001 A 
ENDROOT
BRANCH   1   8
ATOM      8  C1  UNL d   1       2.052   0.709   0.169  0.00  0.00     0.053 C 
ATOM      9  C   UNL d   1       2.252   1.574   1.403  0.00  0.00     0.018 C 
ENDBRANCH   1   8
TORSDOF 1
ENDMDL
