MODEL 1
REMARK minimizedAffinity -2.0821116
REMARK minimizedRMSD -1
REMARK  1 active torsions:
REMARK  status: ('A' for Active; 'I' for Inactive)
REMARK    1  A    between atoms: C1_2  and  C2_3 
ROOT
ATOM      1  C2  UNL d   1       0.212   0.163  -0.297  0.00  0.00    -0.073 A 
ATOM      2  C3  UNL d   1      -0.013   1.048  -1.358  0.00  0.00    -0.002 A 
ATOM      3  C4  UNL d   1      -1.154   0.922  -2.152  0.00  0.00     0.004 A 
ATOM      4  C5  UNL d   1      -2.084  -0.084  -1.889  0.00  0.00    -0.004 A 
ATOM      5  C6  UNL d   1      -1.883  -0.971  -0.826  0.00  0.00    -0.075 A 
ATOM      6  C7  UNL d   1      -2.873  -2.059  -0.531  0.00  0.00     0.076 C 
ATOM      7  C8  UNL d   1      -0.733  -0.839  -0.035  0.00  0.00     0.001 A 
ENDROOT
BRANCH   1   8
ATOM      8  C1  UNL d   1       1.439   0.300   0.567  0.00  0.00     0.053 C 
ATOM      9  C   UNL d   1       2.061   1.684   0.459  0.00  0.00     0.018 C 
ENDBRANCH   1   8
TORSDOF 1
ENDMDL
