MODEL 1
REMARK minimizedAffinity -3.42468309
REMARK minimizedRMSD -1
REMARK  1 active torsions:
REMARK  status: ('A' for Active; 'I' for Inactive)
REMARK    1  A    between atoms: C1_2  and  C2_3 
ROOT
ATOM      1  C2  UNL d   1      -0.401   0.749  -0.670  0.00  0.00    -0.073 A 
ATOM      2  C3  UNL d   1       0.060  -0.392  -0.003  0.00  0.00    -0.002 A 
ATOM      3  C4  UNL d   1       1.164  -0.313   0.847  0.00  0.00     0.004 A 
ATOM      4  C5  UNL d   1       1.814   0.905   1.043  0.00  0.00    -0.004 A 
ATOM      5  C6  UNL d   1       1.361   2.059   0.395  0.00  0.00    -0.075 A 
ATOM      6  C7  UNL d   1       2.050   3.377   0.594  0.00  0.00     0.076 C 
ATOM      7  C8  UNL d   1       0.253   1.971  -0.459  0.00  0.00     0.001 A 
ENDROOT
BRANCH   1   8
ATOM      8  C1  UNL d   1      -1.597   0.671  -1.583  0.00  0.00     0.053 C 
ATOM      9  C   UNL d   1      -2.550  -0.444  -1.181  0.00  0.00     0.018 C 
ENDBRANCH   1   8
TORSDOF 1
ENDMDL
