MODEL 1
REMARK minimizedAffinity -0.946699917
REMARK minimizedRMSD -1
REMARK  1 active torsions:
REMARK  status: ('A' for Active; 'I' for Inactive)
REMARK    1  A    between atoms: C1_2  and  C2_3 
ROOT
ATOM      1  C2  UNL d   1      -0.308   0.076  -0.665  0.00  0.00    -0.073 A 
ATOM      2  C3  UNL d   1      -0.507  -0.763   0.437  0.00  0.00    -0.002 A 
ATOM      3  C4  UNL d   1       0.484  -0.894   1.411  0.00  0.00     0.004 A 
ATOM      4  C5  UNL d   1       1.679  -0.183   1.297  0.00  0.00    -0.004 A 
ATOM      5  C6  UNL d   1       1.891   0.669   0.209  0.00  0.00    -0.075 A 
ATOM      6  C7  UNL d   1       3.172   1.439   0.070  0.00  0.00     0.076 C 
ATOM      7  C8  UNL d   1       0.893   0.793  -0.767  0.00  0.00     0.001 A 
ENDROOT
BRANCH   1   8
ATOM      8  C1  UNL d   1      -1.378   0.225  -1.716  0.00  0.00     0.053 C 
ATOM      9  C   UNL d   1      -2.476  -0.815  -1.564  0.00  0.00     0.018 C 
ENDBRANCH   1   8
TORSDOF 1
ENDMDL
