MODEL 1
REMARK minimizedAffinity 16.6801376
REMARK minimizedRMSD -1
REMARK  1 active torsions:
REMARK  status: ('A' for Active; 'I' for Inactive)
REMARK    1  A    between atoms: C1_2  and  C2_3 
ROOT
ATOM      1  C2  UNL d   1      -3.115   3.137  -4.532  0.00  0.00    -0.081 A 
ATOM      2  C3  UNL d   1      -4.031   2.769  -5.525  0.00  0.00     0.006 A 
ATOM      3  C4  UNL d   1      -4.974   3.687  -5.993  0.00  0.00     0.002 A 
ATOM      4  C5  UNL d   1      -5.011   4.989  -5.483  0.00  0.00    -0.080 A 
ATOM      5  C6  UNL d   1      -5.998   5.994  -5.999  0.00  0.00     0.076 C 
ATOM      6  C7  UNL d   1      -4.107   5.352  -4.479  0.00  0.00     0.002 A 
ATOM      7  C8  UNL d   1      -3.164   4.434  -4.010  0.00  0.00     0.006 A 
ENDROOT
BRANCH   1   8
ATOM      8  C1  UNL d   1      -2.055   2.169  -4.072  0.00  0.00     0.054 C 
ATOM      9  C   UNL d   1      -0.660   2.667  -4.423  0.00  0.00     0.018 C 
ENDBRANCH   1   8
TORSDOF 1
ENDMDL
