MODEL 1
REMARK minimizedAffinity 14.5826836
REMARK minimizedRMSD -1
REMARK  1 active torsions:
REMARK  status: ('A' for Active; 'I' for Inactive)
REMARK    1  A    between atoms: C1_2  and  C2_3 
ROOT
ATOM      1  C2  UNL d   1      -1.686  -0.438  -2.734  0.00  0.00    -0.081 A 
ATOM      2  C3  UNL d   1      -2.692   0.500  -2.997  0.00  0.00     0.006 A 
ATOM      3  C4  UNL d   1      -2.388   1.705  -3.634  0.00  0.00     0.002 A 
ATOM      4  C5  UNL d   1      -1.075   1.990  -4.025  0.00  0.00    -0.080 A 
ATOM      5  C6  UNL d   1      -0.740   3.267  -4.736  0.00  0.00     0.076 C 
ATOM      6  C7  UNL d   1      -0.067   1.061  -3.747  0.00  0.00     0.002 A 
ATOM      7  C8  UNL d   1      -0.370  -0.144  -3.110  0.00  0.00     0.006 A 
ENDROOT
BRANCH   1   8
ATOM      8  C1  UNL d   1      -2.021  -1.767  -2.106  0.00  0.00     0.054 C 
ATOM      9  C   UNL d   1      -1.704  -1.771  -0.618  0.00  0.00     0.018 C 
ENDBRANCH   1   8
TORSDOF 1
ENDMDL
