MODEL 1
REMARK minimizedAffinity 19.7799873
REMARK minimizedRMSD -1
REMARK  1 active torsions:
REMARK  status: ('A' for Active; 'I' for Inactive)
REMARK    1  A    between atoms: C1_2  and  C2_3 
ROOT
ATOM      1  C2  UNL d   1      -1.242  -3.591   0.747  0.00  0.00    -0.081 A 
ATOM      2  C3  UNL d   1      -2.272  -3.286   1.645  0.00  0.00     0.006 A 
ATOM      3  C4  UNL d   1      -2.994  -2.097   1.517  0.00  0.00     0.002 A 
ATOM      4  C5  UNL d   1      -2.704  -1.198   0.485  0.00  0.00    -0.080 A 
ATOM      5  C6  UNL d   1      -3.491   0.068   0.318  0.00  0.00     0.076 C 
ATOM      6  C7  UNL d   1      -1.663  -1.495  -0.402  0.00  0.00     0.002 A 
ATOM      7  C8  UNL d   1      -0.940  -2.683  -0.274  0.00  0.00     0.006 A 
ENDROOT
BRANCH   1   8
ATOM      8  C1  UNL d   1      -0.504  -4.902   0.843  0.00  0.00     0.054 C 
ATOM      9  C   UNL d   1      -1.223  -5.999   0.071  0.00  0.00     0.018 C 
ENDBRANCH   1   8
TORSDOF 1
ENDMDL
