MODEL 1
REMARK minimizedAffinity 12.6339073
REMARK minimizedRMSD -1
REMARK  1 active torsions:
REMARK  status: ('A' for Active; 'I' for Inactive)
REMARK    1  A    between atoms: C1_2  and  C2_3 
ROOT
ATOM      1  C2  UNL d   1       4.492   3.752   2.451  0.00  0.00    -0.081 A 
ATOM      2  C3  UNL d   1       4.939   5.074   2.335  0.00  0.00     0.006 A 
ATOM      3  C4  UNL d   1       4.995   5.696   1.086  0.00  0.00     0.002 A 
ATOM      4  C5  UNL d   1       4.597   5.010  -0.067  0.00  0.00    -0.080 A 
ATOM      5  C6  UNL d   1       4.623   5.677  -1.410  0.00  0.00     0.076 C 
ATOM      6  C7  UNL d   1       4.166   3.684   0.046  0.00  0.00     0.002 A 
ATOM      7  C8  UNL d   1       4.111   3.061   1.295  0.00  0.00     0.006 A 
ENDROOT
BRANCH   1   8
ATOM      8  C1  UNL d   1       4.369   3.100   3.804  0.00  0.00     0.054 C 
ATOM      9  C   UNL d   1       4.093   4.128   4.891  0.00  0.00     0.018 C 
ENDBRANCH   1   8
TORSDOF 1
ENDMDL
