MODEL 1
REMARK minimizedAffinity 1.95975983
REMARK minimizedRMSD -1
REMARK  1 active torsions:
REMARK  status: ('A' for Active; 'I' for Inactive)
REMARK    1  A    between atoms: C1_2  and  C2_3 
ROOT
ATOM      1  C2  UNL d   1      -4.680   3.590   5.951  0.00  0.00    -0.081 A 
ATOM      2  C3  UNL d   1      -3.344   3.170   5.953  0.00  0.00     0.006 A 
ATOM      3  C4  UNL d   1      -3.030   1.809   5.969  0.00  0.00     0.002 A 
ATOM      4  C5  UNL d   1      -4.044   0.846   5.974  0.00  0.00    -0.080 A 
ATOM      5  C6  UNL d   1      -3.720  -0.618   5.960  0.00  0.00     0.076 C 
ATOM      6  C7  UNL d   1      -5.379   1.266   5.990  0.00  0.00     0.002 A 
ATOM      7  C8  UNL d   1      -5.694   2.626   5.975  0.00  0.00     0.006 A 
ENDROOT
BRANCH   1   8
ATOM      8  C1  UNL d   1      -5.022   5.056   5.869  0.00  0.00     0.054 C 
ATOM      9  C   UNL d   1      -3.774   5.906   5.684  0.00  0.00     0.018 C 
ENDBRANCH   1   8
TORSDOF 1
ENDMDL
