MODEL 1
REMARK minimizedAffinity 11.980442
REMARK minimizedRMSD -1
REMARK  1 active torsions:
REMARK  status: ('A' for Active; 'I' for Inactive)
REMARK    1  A    between atoms: C1_2  and  C2_3 
ROOT
ATOM      1  C2  UNL d   1      -2.548  -1.789  -0.415  0.00  0.00    -0.081 A 
ATOM      2  C3  UNL d   1      -1.604  -1.631  -1.437  0.00  0.00     0.006 A 
ATOM      3  C4  UNL d   1      -1.743  -0.609  -2.378  0.00  0.00     0.002 A 
ATOM      4  C5  UNL d   1      -2.823   0.277  -2.309  0.00  0.00    -0.080 A 
ATOM      5  C6  UNL d   1      -2.968   1.398  -3.295  0.00  0.00     0.076 C 
ATOM      6  C7  UNL d   1      -3.776   0.109  -1.299  0.00  0.00     0.002 A 
ATOM      7  C8  UNL d   1      -3.638  -0.914  -0.358  0.00  0.00     0.006 A 
ENDROOT
BRANCH   1   8
ATOM      8  C1  UNL d   1      -2.367  -2.851   0.639  0.00  0.00     0.054 C 
ATOM      9  C   UNL d   1      -1.120  -3.684   0.377  0.00  0.00     0.018 C 
ENDBRANCH   1   8
TORSDOF 1
ENDMDL
