MODEL 1
REMARK minimizedAffinity 20.927618
REMARK minimizedRMSD -1
REMARK  1 active torsions:
REMARK  status: ('A' for Active; 'I' for Inactive)
REMARK    1  A    between atoms: C1_2  and  C2_3 
ROOT
ATOM      1  C2  UNL d   1      -4.983   5.608  -3.451  0.00  0.00    -0.081 A 
ATOM      2  C3  UNL d   1      -5.827   5.987  -2.400  0.00  0.00     0.006 A 
ATOM      3  C4  UNL d   1      -5.498   5.676  -1.079  0.00  0.00     0.002 A 
ATOM      4  C5  UNL d   1      -4.316   4.987  -0.786  0.00  0.00    -0.080 A 
ATOM      5  C6  UNL d   1      -3.935   4.673   0.631  0.00  0.00     0.076 C 
ATOM      6  C7  UNL d   1      -3.481   4.593  -1.837  0.00  0.00     0.002 A 
ATOM      7  C8  UNL d   1      -3.810   4.904  -3.158  0.00  0.00     0.006 A 
ENDROOT
BRANCH   1   8
ATOM      8  C1  UNL d   1      -5.304   5.999  -4.871  0.00  0.00     0.054 C 
ATOM      9  C   UNL d   1      -5.998   4.866  -5.613  0.00  0.00     0.018 C 
ENDBRANCH   1   8
TORSDOF 1
ENDMDL
