MODEL 1
REMARK minimizedAffinity 10.8897343
REMARK minimizedRMSD -1
REMARK  1 active torsions:
REMARK  status: ('A' for Active; 'I' for Inactive)
REMARK    1  A    between atoms: C1_2  and  C2_3 
ROOT
ATOM      1  C2  UNL d   1       3.913   3.200  -0.217  0.00  0.00    -0.081 A 
ATOM      2  C3  UNL d   1       2.584   2.814  -0.005  0.00  0.00     0.006 A 
ATOM      3  C4  UNL d   1       2.022   1.773  -0.747  0.00  0.00     0.002 A 
ATOM      4  C5  UNL d   1       2.780   1.097  -1.709  0.00  0.00    -0.080 A 
ATOM      5  C6  UNL d   1       2.198  -0.042  -2.491  0.00  0.00     0.076 C 
ATOM      6  C7  UNL d   1       4.103   1.494  -1.933  0.00  0.00     0.002 A 
ATOM      7  C8  UNL d   1       4.665   2.535  -1.192  0.00  0.00     0.006 A 
ENDROOT
BRANCH   1   8
ATOM      8  C1  UNL d   1       4.542   4.279   0.627  0.00  0.00     0.054 C 
ATOM      9  C   UNL d   1       4.869   5.512  -0.204  0.00  0.00     0.018 C 
ENDBRANCH   1   8
TORSDOF 1
ENDMDL
