MODEL 1
REMARK minimizedAffinity 12.1129274
REMARK minimizedRMSD -1
REMARK  1 active torsions:
REMARK  status: ('A' for Active; 'I' for Inactive)
REMARK    1  A    between atoms: C1_2  and  C2_3 
ROOT
ATOM      1  C2  UNL d   1      -1.837   3.019  -5.267  0.00  0.00    -0.081 A 
ATOM      2  C3  UNL d   1      -2.013   2.172  -4.166  0.00  0.00     0.006 A 
ATOM      3  C4  UNL d   1      -0.909   1.695  -3.456  0.00  0.00     0.002 A 
ATOM      4  C5  UNL d   1       0.388   2.061  -3.830  0.00  0.00    -0.080 A 
ATOM      5  C6  UNL d   1       1.580   1.580  -3.058  0.00  0.00     0.076 C 
ATOM      6  C7  UNL d   1       0.565   2.893  -4.941  0.00  0.00     0.002 A 
ATOM      7  C8  UNL d   1      -0.539   3.371  -5.651  0.00  0.00     0.006 A 
ENDROOT
BRANCH   1   8
ATOM      8  C1  UNL d   1      -3.028   3.588  -5.995  0.00  0.00     0.054 C 
ATOM      9  C   UNL d   1      -4.193   2.609  -5.999  0.00  0.00     0.018 C 
ENDBRANCH   1   8
TORSDOF 1
ENDMDL
