MODEL 1
REMARK minimizedAffinity 12.7330084
REMARK minimizedRMSD -1
REMARK  1 active torsions:
REMARK  status: ('A' for Active; 'I' for Inactive)
REMARK    1  A    between atoms: C1_2  and  C2_3 
ROOT
ATOM      1  C2  UNL d   1      -1.408  -3.536   1.159  0.00  0.00    -0.081 A 
ATOM      2  C3  UNL d   1      -2.691  -3.341   1.685  0.00  0.00     0.006 A 
ATOM      3  C4  UNL d   1      -3.397  -2.167   1.414  0.00  0.00     0.002 A 
ATOM      4  C5  UNL d   1      -2.836  -1.172   0.607  0.00  0.00    -0.080 A 
ATOM      5  C6  UNL d   1      -3.596   0.081   0.284  0.00  0.00     0.076 C 
ATOM      6  C7  UNL d   1      -1.547  -1.358   0.096  0.00  0.00     0.002 A 
ATOM      7  C8  UNL d   1      -0.840  -2.531   0.366  0.00  0.00     0.006 A 
ENDROOT
BRANCH   1   8
ATOM      8  C1  UNL d   1      -0.670  -4.828   1.395  0.00  0.00     0.054 C 
ATOM      9  C   UNL d   1      -0.824  -5.778   0.216  0.00  0.00     0.018 C 
ENDBRANCH   1   8
TORSDOF 1
ENDMDL
