MODEL 1
REMARK minimizedAffinity 16.0625706
REMARK minimizedRMSD -1
REMARK  1 active torsions:
REMARK  status: ('A' for Active; 'I' for Inactive)
REMARK    1  A    between atoms: C1_2  and  C2_3 
ROOT
ATOM      1  C2  UNL d   1      -2.313   3.447  -5.353  0.00  0.00    -0.081 A 
ATOM      2  C3  UNL d   1      -2.456   2.688  -4.186  0.00  0.00     0.006 A 
ATOM      3  C4  UNL d   1      -1.335   2.140  -3.556  0.00  0.00     0.002 A 
ATOM      4  C5  UNL d   1      -0.055   2.349  -4.078  0.00  0.00    -0.080 A 
ATOM      5  C6  UNL d   1       1.159   1.792  -3.395  0.00  0.00     0.076 C 
ATOM      6  C7  UNL d   1       0.086   3.093  -5.255  0.00  0.00     0.002 A 
ATOM      7  C8  UNL d   1      -1.033   3.640  -5.885  0.00  0.00     0.006 A 
ENDROOT
BRANCH   1   8
ATOM      8  C1  UNL d   1      -3.512   4.093  -5.999  0.00  0.00     0.054 C 
ATOM      9  C   UNL d   1      -4.712   3.157  -5.999  0.00  0.00     0.018 C 
ENDBRANCH   1   8
TORSDOF 1
ENDMDL
