MODEL 1
REMARK minimizedAffinity 12.3889217
REMARK minimizedRMSD -1
REMARK  0 active torsions:
REMARK  status: ('A' for Active; 'I' for Inactive)
ROOT
ATOM      1  C   UNL d   1       4.586   5.243   6.000  0.00  0.00    -0.002 A 
ATOM      2  C1  UNL d   1       5.282   5.462   4.820  0.00  0.00     0.010 A 
ATOM      3  C2  UNL d   1       4.833   4.911   3.618  0.00  0.00     0.041 A 
ATOM      4  C3  UNL d   1       3.661   4.130   3.622  0.00  0.00    -0.075 A 
ATOM      5  S   UNL d   1       2.923   3.356   2.270  0.00  0.00     0.015 SA
ATOM      6  C4  UNL d   1       1.666   2.717   3.227  0.00  0.00     0.022 A 
ATOM      7  C5  UNL d   1       1.791   3.075   4.548  0.00  0.00     0.026 A 
ATOM      8  C6  UNL d   1       2.942   3.896   4.798  0.00  0.00    -0.082 A 
ATOM      9  C7  UNL d   1       3.423   4.468   6.000  0.00  0.00     0.045 A 
ENDROOT
TORSDOF 0
ENDMDL
