MODEL 1
REMARK minimizedAffinity 10.4407387
REMARK minimizedRMSD -1
REMARK  0 active torsions:
REMARK  status: ('A' for Active; 'I' for Inactive)
ROOT
ATOM      1  C   UNL d   1      -5.168   1.798  -4.712  0.00  0.00    -0.002 A 
ATOM      2  C1  UNL d   1      -5.999   1.151  -3.809  0.00  0.00     0.010 A 
ATOM      3  C2  UNL d   1      -5.465   0.470  -2.713  0.00  0.00     0.041 A 
ATOM      4  C3  UNL d   1      -4.068   0.451  -2.538  0.00  0.00    -0.075 A 
ATOM      5  S   UNL d   1      -3.190  -0.319  -1.270  0.00  0.00     0.015 SA
ATOM      6  C4  UNL d   1      -1.690   0.193  -1.896  0.00  0.00     0.022 A 
ATOM      7  C5  UNL d   1      -1.836   0.935  -3.044  0.00  0.00     0.026 A 
ATOM      8  C6  UNL d   1      -3.209   1.096  -3.433  0.00  0.00    -0.082 A 
ATOM      9  C7  UNL d   1      -3.782   1.777  -4.534  0.00  0.00     0.045 A 
ENDROOT
TORSDOF 0
ENDMDL
