MODEL 1
REMARK minimizedAffinity 7.90930128
REMARK minimizedRMSD -1
REMARK  0 active torsions:
REMARK  status: ('A' for Active; 'I' for Inactive)
ROOT
ATOM      1  C   UNL d   1      -6.000   2.273  -3.780  0.00  0.00    -0.002 A 
ATOM      2  C1  UNL d   1      -5.984   2.230  -2.393  0.00  0.00     0.010 A 
ATOM      3  C2  UNL d   1      -4.903   1.668  -1.712  0.00  0.00     0.041 A 
ATOM      4  C3  UNL d   1      -3.825   1.147  -2.455  0.00  0.00    -0.075 A 
ATOM      5  S   UNL d   1      -2.394   0.413  -1.836  0.00  0.00     0.015 SA
ATOM      6  C4  UNL d   1      -1.768   0.140  -3.398  0.00  0.00     0.022 A 
ATOM      7  C5  UNL d   1      -2.618   0.591  -4.379  0.00  0.00     0.026 A 
ATOM      8  C6  UNL d   1      -3.817   1.180  -3.853  0.00  0.00    -0.082 A 
ATOM      9  C7  UNL d   1      -4.929   1.755  -4.514  0.00  0.00     0.045 A 
ENDROOT
TORSDOF 0
ENDMDL
