MODEL 1
REMARK minimizedAffinity 18.3566227
REMARK minimizedRMSD -1
REMARK  0 active torsions:
REMARK  status: ('A' for Active; 'I' for Inactive)
ROOT
ATOM      1  C   UNL d   1       4.145   3.516   1.532  0.00  0.00    -0.002 A 
ATOM      2  C1  UNL d   1       3.244   2.635   2.113  0.00  0.00     0.010 A 
ATOM      3  C2  UNL d   1       3.038   2.639   3.494  0.00  0.00     0.041 A 
ATOM      4  C3  UNL d   1       3.758   3.553   4.288  0.00  0.00    -0.075 A 
ATOM      5  S   UNL d   1       3.667   3.740   6.000  0.00  0.00     0.015 SA
ATOM      6  C4  UNL d   1       4.822   4.993   5.999  0.00  0.00     0.022 A 
ATOM      7  C5  UNL d   1       5.276   5.276   4.733  0.00  0.00     0.026 A 
ATOM      8  C6  UNL d   1       4.670   4.451   3.726  0.00  0.00    -0.082 A 
ATOM      9  C7  UNL d   1       4.857   4.421   2.323  0.00  0.00     0.045 A 
ENDROOT
TORSDOF 0
ENDMDL
