MODEL 1
REMARK minimizedAffinity 9.26418209
REMARK minimizedRMSD -1
REMARK  0 active torsions:
REMARK  status: ('A' for Active; 'I' for Inactive)
ROOT
ATOM      1  C   UNL d   1       4.934   1.100  -0.795  0.00  0.00    -0.002 A 
ATOM      2  C1  UNL d   1       3.842   0.693  -0.043  0.00  0.00     0.010 A 
ATOM      3  C2  UNL d   1       2.920  -0.218  -0.563  0.00  0.00     0.041 A 
ATOM      4  C3  UNL d   1       3.118  -0.719  -1.865  0.00  0.00    -0.075 A 
ATOM      5  S   UNL d   1       2.121  -1.844  -2.709  0.00  0.00     0.015 SA
ATOM      6  C4  UNL d   1       3.122  -1.811  -4.088  0.00  0.00     0.022 A 
ATOM      7  C5  UNL d   1       4.195  -0.967  -3.926  0.00  0.00     0.026 A 
ATOM      8  C6  UNL d   1       4.211  -0.324  -2.642  0.00  0.00    -0.082 A 
ATOM      9  C7  UNL d   1       5.127   0.601  -2.086  0.00  0.00     0.045 A 
ENDROOT
TORSDOF 0
ENDMDL
