MODEL 1
REMARK minimizedAffinity -1.7727319
REMARK minimizedRMSD -1
REMARK  0 active torsions:
REMARK  status: ('A' for Active; 'I' for Inactive)
ROOT
ATOM      1  C   UNL d   1       6.000   6.000   5.967  0.00  0.00     0.077 C 
ATOM      2  C1  UNL d   1       4.928   5.254   5.229  0.00  0.00    -0.074 A 
ATOM      3  C2  UNL d   1       4.053   5.920   4.366  0.00  0.00    -0.005 A 
ATOM      4  C3  UNL d   1       3.068   5.211   3.679  0.00  0.00     0.006 A 
ATOM      5  C4  UNL d   1       2.948   3.831   3.848  0.00  0.00    -0.005 A 
ATOM      6  C5  UNL d   1       3.815   3.147   4.707  0.00  0.00    -0.074 A 
ATOM      7  C6  UNL d   1       3.706   1.663   4.892  0.00  0.00     0.077 C 
ATOM      8  C7  UNL d   1       4.807   3.866   5.388  0.00  0.00    -0.001 A 
ENDROOT
TORSDOF 0
ENDMDL
