MODEL 1
REMARK minimizedAffinity 12.7985544
REMARK minimizedRMSD -1
REMARK  0 active torsions:
REMARK  status: ('A' for Active; 'I' for Inactive)
ROOT
ATOM      1  C   UNL d   1       0.742   6.000   3.712  0.00  0.00     0.077 C 
ATOM      2  C1  UNL d   1       2.052   5.270   3.688  0.00  0.00    -0.074 A 
ATOM      3  C2  UNL d   1       2.125   3.938   3.270  0.00  0.00    -0.005 A 
ATOM      4  C3  UNL d   1       3.353   3.275   3.244  0.00  0.00     0.006 A 
ATOM      5  C4  UNL d   1       4.517   3.938   3.635  0.00  0.00    -0.005 A 
ATOM      6  C5  UNL d   1       4.463   5.270   4.055  0.00  0.00    -0.074 A 
ATOM      7  C6  UNL d   1       5.707   6.000   4.468  0.00  0.00     0.077 C 
ATOM      8  C7  UNL d   1       3.228   5.931   4.072  0.00  0.00    -0.001 A 
ENDROOT
TORSDOF 0
ENDMDL
