MODEL 1
REMARK minimizedAffinity 1.47799659
REMARK minimizedRMSD -1
REMARK  0 active torsions:
REMARK  status: ('A' for Active; 'I' for Inactive)
ROOT
ATOM      1  C   UNL d   1      -0.656  -5.388  -0.218  0.00  0.00     0.077 C 
ATOM      2  C1  UNL d   1       0.494  -4.425  -0.206  0.00  0.00    -0.074 A 
ATOM      3  C2  UNL d   1       1.792  -4.860   0.077  0.00  0.00    -0.005 A 
ATOM      4  C3  UNL d   1       2.853  -3.955   0.075  0.00  0.00     0.006 A 
ATOM      5  C4  UNL d   1       2.627  -2.608  -0.210  0.00  0.00    -0.005 A 
ATOM      6  C5  UNL d   1       1.335  -2.155  -0.497  0.00  0.00    -0.074 A 
ATOM      7  C6  UNL d   1       1.076  -0.712  -0.815  0.00  0.00     0.077 C 
ATOM      8  C7  UNL d   1       0.275  -3.072  -0.500  0.00  0.00    -0.001 A 
ENDROOT
TORSDOF 0
ENDMDL
