MODEL 1
REMARK minimizedAffinity -1.31570876
REMARK minimizedRMSD -1
REMARK  0 active torsions:
REMARK  status: ('A' for Active; 'I' for Inactive)
ROOT
ATOM      1  C   UNL d   1      -5.990   5.932   5.324  0.00  0.00     0.077 C 
ATOM      2  C1  UNL d   1      -4.817   5.958   4.391  0.00  0.00    -0.074 A 
ATOM      3  C2  UNL d   1      -3.507   5.953   4.882  0.00  0.00    -0.005 A 
ATOM      4  C3  UNL d   1      -2.426   5.967   4.001  0.00  0.00     0.006 A 
ATOM      5  C4  UNL d   1      -2.642   5.986   2.623  0.00  0.00    -0.005 A 
ATOM      6  C5  UNL d   1      -3.945   5.990   2.113  0.00  0.00    -0.074 A 
ATOM      7  C6  UNL d   1      -4.195   6.000   0.634  0.00  0.00     0.077 C 
ATOM      8  C7  UNL d   1      -5.026   5.969   3.004  0.00  0.00    -0.001 A 
ENDROOT
TORSDOF 0
ENDMDL
