MODEL 1
REMARK minimizedAffinity -0.717685819
REMARK minimizedRMSD -1
REMARK  0 active torsions:
REMARK  status: ('A' for Active; 'I' for Inactive)
ROOT
ATOM      1  C   UNL d   1      -5.227  -1.252   0.902  0.00  0.00     0.077 C 
ATOM      2  C1  UNL d   1      -4.522  -0.521  -0.202  0.00  0.00    -0.074 A 
ATOM      3  C2  UNL d   1      -5.127   0.563  -0.846  0.00  0.00    -0.005 A 
ATOM      4  C3  UNL d   1      -4.455   1.238  -1.866  0.00  0.00     0.006 A 
ATOM      5  C4  UNL d   1      -3.175   0.837  -2.250  0.00  0.00    -0.005 A 
ATOM      6  C5  UNL d   1      -2.555  -0.244  -1.616  0.00  0.00    -0.074 A 
ATOM      7  C6  UNL d   1      -1.176  -0.682  -2.011  0.00  0.00     0.077 C 
ATOM      8  C7  UNL d   1      -3.233  -0.914  -0.589  0.00  0.00    -0.001 A 
ENDROOT
TORSDOF 0
ENDMDL
