MODEL 1
REMARK minimizedAffinity -2.74418283
REMARK minimizedRMSD -1
REMARK  0 active torsions:
REMARK  status: ('A' for Active; 'I' for Inactive)
ROOT
ATOM      1  C   UNL d   1       1.385  -3.898  -1.135  0.00  0.00     0.077 C 
ATOM      2  C1  UNL d   1       1.411  -2.401  -1.221  0.00  0.00    -0.074 A 
ATOM      3  C2  UNL d   1       2.623  -1.704  -1.269  0.00  0.00    -0.005 A 
ATOM      4  C3  UNL d   1       2.632  -0.313  -1.358  0.00  0.00     0.006 A 
ATOM      5  C4  UNL d   1       1.430   0.396  -1.401  0.00  0.00    -0.005 A 
ATOM      6  C5  UNL d   1       0.209  -0.283  -1.355  0.00  0.00    -0.074 A 
ATOM      7  C6  UNL d   1      -1.092   0.462  -1.409  0.00  0.00     0.077 C 
ATOM      8  C7  UNL d   1       0.209  -1.682  -1.272  0.00  0.00    -0.001 A 
ENDROOT
TORSDOF 0
ENDMDL
