MODEL 1
REMARK minimizedAffinity -2.35395575
REMARK minimizedRMSD -1
REMARK  1 active torsions:
REMARK  status: ('A' for Active; 'I' for Inactive)
REMARK    1  A    between atoms: C3_4  and  O_7 
ROOT
ATOM      1  C   UNL d   1       0.670  -0.237   0.027  0.00  0.00    -0.033 A 
ATOM      2  C1  UNL d   1       0.134   0.168  -1.197  0.00  0.00     0.039 A 
ATOM      3  C2  UNL d   1      -1.243   0.098  -1.415  0.00  0.00    -0.080 A 
ATOM      4  C3  UNL d   1      -2.072  -0.376  -0.402  0.00  0.00     0.150 A 
ATOM      5  C4  UNL d   1      -1.545  -0.776   0.821  0.00  0.00    -0.007 A 
ATOM      6  C5  UNL d   1      -0.170  -0.707   1.037  0.00  0.00     0.039 A 
ENDROOT
BRANCH   4   7
ATOM      7  O   UNL d   1      -3.422  -0.466  -0.570  0.00  0.00    -0.526 OA
ATOM      8  H5  UNL d   1      -3.640  -0.182  -1.474  0.00  0.00     0.418 HD
ENDBRANCH   4   7
TORSDOF 1
ENDMDL
