MODEL 1
REMARK minimizedAffinity -3.32126236
REMARK minimizedRMSD -1
REMARK  1 active torsions:
REMARK  status: ('A' for Active; 'I' for Inactive)
REMARK    1  A    between atoms: C3_4  and  O_7 
ROOT
ATOM      1  C   UNL d   1      -1.321   0.400   0.683  0.00  0.00    -0.033 A 
ATOM      2  C1  UNL d   1      -1.860  -0.349   1.730  0.00  0.00     0.039 A 
ATOM      3  C2  UNL d   1      -1.146  -1.425   2.261  0.00  0.00    -0.080 A 
ATOM      4  C3  UNL d   1       0.105  -1.740   1.737  0.00  0.00     0.150 A 
ATOM      5  C4  UNL d   1       0.650  -0.995   0.696  0.00  0.00    -0.007 A 
ATOM      6  C5  UNL d   1      -0.065   0.078   0.167  0.00  0.00     0.039 A 
ENDROOT
BRANCH   4   7
ATOM      7  O   UNL d   1       0.837  -2.784   2.219  0.00  0.00    -0.526 OA
ATOM      8  H5  UNL d   1       0.322  -3.225   2.916  0.00  0.00     0.418 HD
ENDBRANCH   4   7
TORSDOF 1
ENDMDL
