MODEL 1
REMARK minimizedAffinity -3.05025244
REMARK minimizedRMSD -1
REMARK  1 active torsions:
REMARK  status: ('A' for Active; 'I' for Inactive)
REMARK    1  A    between atoms: C3_4  and  O_7 
ROOT
ATOM      1  C   UNL d   1       0.404  -0.551   0.917  0.00  0.00    -0.033 A 
ATOM      2  C1  UNL d   1      -0.120   0.343  -0.019  0.00  0.00     0.039 A 
ATOM      3  C2  UNL d   1      -1.477   0.300  -0.344  0.00  0.00    -0.080 A 
ATOM      4  C3  UNL d   1      -2.298  -0.640   0.272  0.00  0.00     0.150 A 
ATOM      5  C4  UNL d   1      -1.783  -1.532   1.208  0.00  0.00    -0.007 A 
ATOM      6  C5  UNL d   1      -0.428  -1.487   1.531  0.00  0.00     0.039 A 
ENDROOT
BRANCH   4   7
ATOM      7  O   UNL d   1      -3.628  -0.724  -0.016  0.00  0.00    -0.526 OA
ATOM      8  H5  UNL d   1      -3.836  -0.066  -0.700  0.00  0.00     0.418 HD
ENDBRANCH   4   7
TORSDOF 1
ENDMDL
