MODEL 1
REMARK minimizedAffinity -3.31238055
REMARK minimizedRMSD -1
REMARK  1 active torsions:
REMARK  status: ('A' for Active; 'I' for Inactive)
REMARK    1  A    between atoms: C3_4  and  O_7 
ROOT
ATOM      1  C   UNL d   1       2.096   3.496   2.592  0.00  0.00    -0.033 A 
ATOM      2  C1  UNL d   1       2.855   2.422   3.059  0.00  0.00     0.039 A 
ATOM      3  C2  UNL d   1       2.750   1.172   2.446  0.00  0.00    -0.080 A 
ATOM      4  C3  UNL d   1       1.884   1.010   1.368  0.00  0.00     0.150 A 
ATOM      5  C4  UNL d   1       1.127   2.077   0.895  0.00  0.00    -0.007 A 
ATOM      6  C5  UNL d   1       1.233   3.325   1.510  0.00  0.00     0.039 A 
ENDROOT
BRANCH   4   7
ATOM      7  O   UNL d   1       1.744  -0.192   0.741  0.00  0.00    -0.526 OA
ATOM      8  H5  UNL d   1       2.306  -0.843   1.193  0.00  0.00     0.418 HD
ENDBRANCH   4   7
TORSDOF 1
ENDMDL
