MODEL 1
REMARK minimizedAffinity -4.36228561
REMARK minimizedRMSD -1
REMARK  1 active torsions:
REMARK  status: ('A' for Active; 'I' for Inactive)
REMARK    1  A    between atoms: C3_4  and  O_7 
ROOT
ATOM      1  C   UNL d   1      -0.018  -0.231  -0.093  0.00  0.00    -0.033 A 
ATOM      2  C1  UNL d   1      -0.379  -0.859   1.101  0.00  0.00     0.039 A 
ATOM      3  C2  UNL d   1      -1.669  -1.368   1.262  0.00  0.00    -0.080 A 
ATOM      4  C3  UNL d   1      -2.587  -1.244   0.223  0.00  0.00     0.150 A 
ATOM      5  C4  UNL d   1      -2.233  -0.624  -0.971  0.00  0.00    -0.007 A 
ATOM      6  C5  UNL d   1      -0.945  -0.115  -1.130  0.00  0.00     0.039 A 
ENDROOT
BRANCH   4   7
ATOM      7  O   UNL d   1      -3.859  -1.721   0.335  0.00  0.00    -0.526 OA
ATOM      8  H5  UNL d   1      -3.969  -2.098   1.224  0.00  0.00     0.418 HD
ENDBRANCH   4   7
TORSDOF 1
ENDMDL
