MODEL 1
REMARK minimizedAffinity -3.29211545
REMARK minimizedRMSD -1
REMARK  1 active torsions:
REMARK  status: ('A' for Active; 'I' for Inactive)
REMARK    1  A    between atoms: C3_4  and  O_7 
ROOT
ATOM      1  C   UNL d   1      -3.088  -1.138  -0.443  0.00  0.00    -0.033 A 
ATOM      2  C1  UNL d   1      -2.626  -1.059   0.872  0.00  0.00     0.039 A 
ATOM      3  C2  UNL d   1      -1.325  -0.623   1.132  0.00  0.00    -0.080 A 
ATOM      4  C3  UNL d   1      -0.498  -0.269   0.069  0.00  0.00     0.150 A 
ATOM      5  C4  UNL d   1      -0.953  -0.342  -1.243  0.00  0.00    -0.007 A 
ATOM      6  C5  UNL d   1      -2.252  -0.778  -1.501  0.00  0.00     0.039 A 
ENDROOT
BRANCH   4   7
ATOM      7  O   UNL d   1       0.781   0.157   0.273  0.00  0.00    -0.526 OA
ATOM      8  H5  UNL d   1       0.966   0.129   1.227  0.00  0.00     0.418 HD
ENDBRANCH   4   7
TORSDOF 1
ENDMDL
