MODEL 1
REMARK minimizedAffinity -5.13392162
REMARK minimizedRMSD -1
REMARK  1 active torsions:
REMARK  status: ('A' for Active; 'I' for Inactive)
REMARK    1  A    between atoms: C3_4  and  O_7 
ROOT
ATOM      1  C   UNL d   1       1.167  -0.680  -3.657  0.00  0.00    -0.033 A 
ATOM      2  C1  UNL d   1       1.563  -0.468  -4.979  0.00  0.00     0.039 A 
ATOM      3  C2  UNL d   1       0.982   0.558  -5.727  0.00  0.00    -0.080 A 
ATOM      4  C3  UNL d   1       0.009   1.364  -5.142  0.00  0.00     0.150 A 
ATOM      5  C4  UNL d   1      -0.387   1.160  -3.824  0.00  0.00    -0.007 A 
ATOM      6  C5  UNL d   1       0.193   0.135  -3.079  0.00  0.00     0.039 A 
ENDROOT
BRANCH   4   7
ATOM      7  O   UNL d   1      -0.590   2.374  -5.834  0.00  0.00    -0.526 OA
ATOM      8  H5  UNL d   1      -0.238   2.378  -6.740  0.00  0.00     0.418 HD
ENDBRANCH   4   7
TORSDOF 1
ENDMDL
