MODEL 1
REMARK minimizedAffinity -4.65562487
REMARK minimizedRMSD -1
REMARK  1 active torsions:
REMARK  status: ('A' for Active; 'I' for Inactive)
REMARK    1  A    between atoms: C3_4  and  O_7 
ROOT
ATOM      1  C   UNL d   1      -0.265  -0.026  -0.805  0.00  0.00    -0.033 A 
ATOM      2  C1  UNL d   1      -1.030  -0.295  -1.942  0.00  0.00     0.039 A 
ATOM      3  C2  UNL d   1      -2.375  -0.646  -1.814  0.00  0.00    -0.080 A 
ATOM      4  C3  UNL d   1      -2.943  -0.723  -0.545  0.00  0.00     0.150 A 
ATOM      5  C4  UNL d   1      -2.189  -0.452   0.592  0.00  0.00    -0.007 A 
ATOM      6  C5  UNL d   1      -0.845  -0.103   0.462  0.00  0.00     0.039 A 
ENDROOT
BRANCH   4   7
ATOM      7  O   UNL d   1      -4.251  -1.066  -0.370  0.00  0.00    -0.526 OA
ATOM      8  H5  UNL d   1      -4.640  -1.253  -1.240  0.00  0.00     0.418 HD
ENDBRANCH   4   7
TORSDOF 1
ENDMDL
