MODEL 1
REMARK minimizedAffinity -4.43720055
REMARK minimizedRMSD -1
REMARK  1 active torsions:
REMARK  status: ('A' for Active; 'I' for Inactive)
REMARK    1  A    between atoms: C3_4  and  O_7 
ROOT
ATOM      1  C   UNL d   1      -2.667  -1.200  -0.792  0.00  0.00    -0.033 A 
ATOM      2  C1  UNL d   1      -1.709  -0.730  -1.692  0.00  0.00     0.039 A 
ATOM      3  C2  UNL d   1      -0.615   0.004  -1.230  0.00  0.00    -0.080 A 
ATOM      4  C3  UNL d   1      -0.489   0.259   0.133  0.00  0.00     0.150 A 
ATOM      5  C4  UNL d   1      -1.438  -0.210   1.036  0.00  0.00    -0.007 A 
ATOM      6  C5  UNL d   1      -2.530  -0.942   0.573  0.00  0.00     0.039 A 
ENDROOT
BRANCH   4   7
ATOM      7  O   UNL d   1       0.559   0.974   0.631  0.00  0.00    -0.526 OA
ATOM      8  H5  UNL d   1       1.118   1.258  -0.112  0.00  0.00     0.418 HD
ENDBRANCH   4   7
TORSDOF 1
ENDMDL
