MODEL 1
REMARK minimizedAffinity -4.38626766
REMARK minimizedRMSD -1
REMARK  1 active torsions:
REMARK  status: ('A' for Active; 'I' for Inactive)
REMARK    1  A    between atoms: C3_4  and  O_7 
ROOT
ATOM      1  C   UNL d   1       0.407  -0.916   1.124  0.00  0.00    -0.033 A 
ATOM      2  C1  UNL d   1      -0.096  -0.051   0.151  0.00  0.00     0.039 A 
ATOM      3  C2  UNL d   1      -1.417  -0.179  -0.285  0.00  0.00    -0.080 A 
ATOM      4  C3  UNL d   1      -2.223  -1.175   0.260  0.00  0.00     0.150 A 
ATOM      5  C4  UNL d   1      -1.729  -2.038   1.233  0.00  0.00    -0.007 A 
ATOM      6  C5  UNL d   1      -0.410  -1.909   1.666  0.00  0.00     0.039 A 
ENDROOT
BRANCH   4   7
ATOM      7  O   UNL d   1      -3.516  -1.341  -0.137  0.00  0.00    -0.526 OA
ATOM      8  H5  UNL d   1      -3.710  -0.693  -0.834  0.00  0.00     0.418 HD
ENDBRANCH   4   7
TORSDOF 1
ENDMDL
