MODEL 1
REMARK minimizedAffinity -4.13827562
REMARK minimizedRMSD -1
REMARK  1 active torsions:
REMARK  status: ('A' for Active; 'I' for Inactive)
REMARK    1  A    between atoms: C3_4  and  O_7 
ROOT
ATOM      1  C   UNL d   1      -2.729  -1.079  -1.028  0.00  0.00    -0.033 A 
ATOM      2  C1  UNL d   1      -2.388  -1.105   0.325  0.00  0.00     0.039 A 
ATOM      3  C2  UNL d   1      -1.141  -0.635   0.742  0.00  0.00    -0.080 A 
ATOM      4  C3  UNL d   1      -0.245  -0.143  -0.203  0.00  0.00     0.150 A 
ATOM      5  C4  UNL d   1      -0.580  -0.111  -1.553  0.00  0.00    -0.007 A 
ATOM      6  C5  UNL d   1      -1.825  -0.581  -1.967  0.00  0.00     0.039 A 
ENDROOT
BRANCH   4   7
ATOM      7  O   UNL d   1       0.985   0.322   0.155  0.00  0.00    -0.526 OA
ATOM      8  H5  UNL d   1       1.088   0.211   1.115  0.00  0.00     0.418 HD
ENDBRANCH   4   7
TORSDOF 1
ENDMDL
