MODEL 1
REMARK minimizedAffinity -4.6400485
REMARK minimizedRMSD -1
REMARK  0 active torsions:
REMARK  status: ('A' for Active; 'I' for Inactive)
ROOT
ATOM      1  C1  DEN d   1       2.074   1.207   0.653  0.00  0.00     0.130 A 
ATOM      2  C2  DEN d   1       0.967   1.473  -0.261  0.00  0.00    -0.031 A 
ATOM      3  C3  DEN d   1      -0.052   0.423  -0.062  0.00  0.00     0.027 A 
ATOM      4  C4  DEN d   1      -0.024  -1.577   1.567  0.00  0.00     0.027 A 
ATOM      5  C5  DEN d   1       0.709  -2.226   2.535  0.00  0.00    -0.003 A 
ATOM      6  C6  DEN d   1       1.953  -1.799   2.917  0.00  0.00     0.001 A 
ATOM      7  C7  DEN d   1       2.483  -0.665   2.359  0.00  0.00     0.017 A 
ATOM      8  C8  DEN d   1       1.753  -0.010   1.376  0.00  0.00    -0.094 A 
ATOM      9  C9  DEN d   1       0.491  -0.450   1.013  0.00  0.00    -0.072 A 
ENDROOT
TORSDOF 0
ENDMDL
