MODEL 1
REMARK minimizedAffinity -3.39429879
REMARK minimizedRMSD -1
REMARK  0 active torsions:
REMARK  status: ('A' for Active; 'I' for Inactive)
ROOT
ATOM      1  C1  DEN d   1      -0.211  -1.182  -0.451  0.00  0.00     0.130 A 
ATOM      2  C2  DEN d   1       0.359  -0.007   0.204  0.00  0.00    -0.031 A 
ATOM      3  C3  DEN d   1      -0.301   1.191  -0.352  0.00  0.00     0.027 A 
ATOM      4  C4  DEN d   1      -2.144   1.341  -2.151  0.00  0.00     0.027 A 
ATOM      5  C5  DEN d   1      -2.938   0.612  -3.008  0.00  0.00    -0.003 A 
ATOM      6  C6  DEN d   1      -2.856  -0.753  -3.096  0.00  0.00     0.001 A 
ATOM      7  C7  DEN d   1      -1.991  -1.435  -2.282  0.00  0.00     0.017 A 
ATOM      8  C8  DEN d   1      -1.182  -0.706  -1.420  0.00  0.00    -0.094 A 
ATOM      9  C9  DEN d   1      -1.288   0.672  -1.337  0.00  0.00    -0.072 A 
ENDROOT
TORSDOF 0
ENDMDL
