MODEL 1
REMARK minimizedAffinity -4.69481754
REMARK minimizedRMSD -1
REMARK  0 active torsions:
REMARK  status: ('A' for Active; 'I' for Inactive)
ROOT
ATOM      1  C1  DEN d   1      -1.614  -0.384   0.612  0.00  0.00     0.130 A 
ATOM      2  C2  DEN d   1      -2.305   0.320  -0.464  0.00  0.00    -0.031 A 
ATOM      3  C3  DEN d   1      -1.303   1.109  -1.210  0.00  0.00     0.027 A 
ATOM      4  C4  DEN d   1       1.237   1.303  -0.807  0.00  0.00     0.027 A 
ATOM      5  C5  DEN d   1       2.280   0.899  -0.004  0.00  0.00    -0.003 A 
ATOM      6  C6  DEN d   1       2.095   0.072   1.073  0.00  0.00     0.001 A 
ATOM      7  C7  DEN d   1       0.844  -0.413   1.349  0.00  0.00     0.017 A 
ATOM      8  C8  DEN d   1      -0.214  -0.004   0.548  0.00  0.00    -0.094 A 
ATOM      9  C9  DEN d   1      -0.005   0.822  -0.543  0.00  0.00    -0.072 A 
ENDROOT
TORSDOF 0
ENDMDL
