MODEL 1
REMARK minimizedAffinity -3.37507319
REMARK minimizedRMSD -1
REMARK  0 active torsions:
REMARK  status: ('A' for Active; 'I' for Inactive)
ROOT
ATOM      1  C1  DEN d   1      -1.536  -0.267  -0.407  0.00  0.00     0.130 A 
ATOM      2  C2  DEN d   1      -2.019   0.856  -1.206  0.00  0.00    -0.031 A 
ATOM      3  C3  DEN d   1      -0.912   1.823  -1.352  0.00  0.00     0.027 A 
ATOM      4  C4  DEN d   1       1.492   1.687  -0.427  0.00  0.00     0.027 A 
ATOM      5  C5  DEN d   1       2.366   0.928   0.321  0.00  0.00    -0.003 A 
ATOM      6  C6  DEN d   1       1.994  -0.255   0.901  0.00  0.00     0.001 A 
ATOM      7  C7  DEN d   1       0.727  -0.737   0.706  0.00  0.00     0.017 A 
ATOM      8  C8  DEN d   1      -0.163   0.025  -0.040  0.00  0.00    -0.094 A 
ATOM      9  C9  DEN d   1       0.237   1.213  -0.629  0.00  0.00    -0.072 A 
ENDROOT
TORSDOF 0
ENDMDL
