MODEL 1
REMARK minimizedAffinity -0.265425473
REMARK minimizedRMSD -1
REMARK  0 active torsions:
REMARK  status: ('A' for Active; 'I' for Inactive)
ROOT
ATOM      1  C   UNL d   1      -2.429  -5.744  -3.453  0.00  0.00     0.124 A 
ATOM      2  C1  UNL d   1      -3.649  -5.805  -2.795  0.00  0.00     0.062 A 
ATOM      3  C2  UNL d   1      -3.706  -5.664  -1.412  0.00  0.00     0.162 A 
ATOM      4  C3  UNL d   1      -2.539  -5.460  -0.676  0.00  0.00    -0.034 A 
ATOM      5  C4  UNL d   1      -1.315  -5.401  -1.345  0.00  0.00     0.162 A 
ATOM      6  C5  UNL d   1      -1.263  -5.543  -2.728  0.00  0.00     0.062 A 
ATOM      7  F   UNL d   1      -0.083  -5.485  -3.362  0.00  0.00    -0.097 F 
ATOM      8  F1  UNL d   1      -0.173  -5.207  -0.669  0.00  0.00    -0.096 F 
ATOM      9  I   UNL d   1      -2.619  -5.249   1.393  0.00  0.00    -0.060 I 
ATOM     10  F2  UNL d   1      -4.899  -5.726  -0.802  0.00  0.00    -0.096 F 
ATOM     11  F3  UNL d   1      -4.777  -6.000  -3.493  0.00  0.00    -0.097 F 
ATOM     12  F4  UNL d   1      -2.377  -5.881  -4.785  0.00  0.00    -0.092 F 
ENDROOT
TORSDOF 0
ENDMDL
