MODEL 1
REMARK minimizedAffinity 12.6861134
REMARK minimizedRMSD -1
REMARK  0 active torsions:
REMARK  status: ('A' for Active; 'I' for Inactive)
ROOT
ATOM      1  C   UNL d   1      -4.844   1.116  -2.208  0.00  0.00     0.124 A 
ATOM      2  C1  UNL d   1      -3.648   1.495  -2.800  0.00  0.00     0.062 A 
ATOM      3  C2  UNL d   1      -2.445   0.950  -2.360  0.00  0.00     0.162 A 
ATOM      4  C3  UNL d   1      -2.433   0.017  -1.322  0.00  0.00    -0.034 A 
ATOM      5  C4  UNL d   1      -3.641  -0.358  -0.731  0.00  0.00     0.162 A 
ATOM      6  C5  UNL d   1      -4.840   0.190  -1.174  0.00  0.00     0.062 A 
ATOM      7  F   UNL d   1      -5.995  -0.178  -0.601  0.00  0.00    -0.097 F 
ATOM      8  F1  UNL d   1      -3.665  -1.252   0.269  0.00  0.00    -0.096 F 
ATOM      9  I   UNL d   1      -0.637  -0.800  -0.661  0.00  0.00    -0.060 I 
ATOM     10  F2  UNL d   1      -1.304   1.334  -2.950  0.00  0.00    -0.096 F 
ATOM     11  F3  UNL d   1      -3.649   2.390  -3.798  0.00  0.00    -0.097 F 
ATOM     12  F4  UNL d   1      -6.000   1.643  -2.633  0.00  0.00    -0.092 F 
ENDROOT
TORSDOF 0
ENDMDL
