MODEL 1
REMARK minimizedAffinity 3.77201152
REMARK minimizedRMSD -1
REMARK  0 active torsions:
REMARK  status: ('A' for Active; 'I' for Inactive)
ROOT
ATOM      1  C   UNL d   1       2.158  -2.924   4.295  0.00  0.00     0.124 A 
ATOM      2  C1  UNL d   1       2.959  -1.894   3.822  0.00  0.00     0.062 A 
ATOM      3  C2  UNL d   1       2.568  -1.158   2.707  0.00  0.00     0.162 A 
ATOM      4  C3  UNL d   1       1.368  -1.449   2.058  0.00  0.00    -0.034 A 
ATOM      5  C4  UNL d   1       0.567  -2.486   2.539  0.00  0.00     0.162 A 
ATOM      6  C5  UNL d   1       0.963  -3.219   3.654  0.00  0.00     0.062 A 
ATOM      7  F   UNL d   1       0.187  -4.213   4.110  0.00  0.00    -0.097 F 
ATOM      8  F1  UNL d   1      -0.592  -2.792   1.939  0.00  0.00    -0.096 F 
ATOM      9  I   UNL d   1       0.780  -0.351   0.391  0.00  0.00    -0.060 I 
ATOM     10  F2  UNL d   1       3.363  -0.169   2.272  0.00  0.00    -0.096 F 
ATOM     11  F3  UNL d   1       4.115  -1.608   4.439  0.00  0.00    -0.097 F 
ATOM     12  F4  UNL d   1       2.537  -3.631   5.368  0.00  0.00    -0.092 F 
ENDROOT
TORSDOF 0
ENDMDL
