MODEL 1
REMARK minimizedAffinity -2.45216966
REMARK minimizedRMSD -1
REMARK  0 active torsions:
REMARK  status: ('A' for Active; 'I' for Inactive)
ROOT
ATOM      1  C   UNL d   1      -3.193  -5.538  -2.258  0.00  0.00     0.124 A 
ATOM      2  C1  UNL d   1      -3.265  -5.745  -3.628  0.00  0.00     0.062 A 
ATOM      3  C2  UNL d   1      -2.112  -5.688  -4.406  0.00  0.00     0.162 A 
ATOM      4  C3  UNL d   1      -0.876  -5.424  -3.815  0.00  0.00    -0.034 A 
ATOM      5  C4  UNL d   1      -0.812  -5.216  -2.436  0.00  0.00     0.162 A 
ATOM      6  C5  UNL d   1      -1.967  -5.274  -1.663  0.00  0.00     0.062 A 
ATOM      7  F   UNL d   1      -1.896  -5.073  -0.339  0.00  0.00    -0.097 F 
ATOM      8  F1  UNL d   1       0.359  -4.959  -1.835  0.00  0.00    -0.096 F 
ATOM      9  I   UNL d   1       0.850  -5.338  -4.974  0.00  0.00    -0.060 I 
ATOM     10  F2  UNL d   1      -2.211  -5.892  -5.728  0.00  0.00    -0.096 F 
ATOM     11  F3  UNL d   1      -4.448  -6.000  -4.205  0.00  0.00    -0.097 F 
ATOM     12  F4  UNL d   1      -4.304  -5.593  -1.512  0.00  0.00    -0.092 F 
ENDROOT
TORSDOF 0
ENDMDL
