MODEL 1
REMARK minimizedAffinity -1.42269337
REMARK minimizedRMSD -1
REMARK  0 active torsions:
REMARK  status: ('A' for Active; 'I' for Inactive)
ROOT
ATOM      1  C   UNL d   1       2.486  -1.145   1.863  0.00  0.00     0.124 A 
ATOM      2  C1  UNL d   1       3.134  -1.469   3.047  0.00  0.00     0.062 A 
ATOM      3  C2  UNL d   1       2.628  -2.469   3.872  0.00  0.00     0.162 A 
ATOM      4  C3  UNL d   1       1.466  -3.153   3.516  0.00  0.00    -0.034 A 
ATOM      5  C4  UNL d   1       0.818  -2.821   2.325  0.00  0.00     0.162 A 
ATOM      6  C5  UNL d   1       1.329  -1.822   1.503  0.00  0.00     0.062 A 
ATOM      7  F   UNL d   1       0.700  -1.510   0.360  0.00  0.00    -0.097 F 
ATOM      8  F1  UNL d   1      -0.301  -3.460   1.952  0.00  0.00    -0.096 F 
ATOM      9  I   UNL d   1       0.705  -4.649   4.748  0.00  0.00    -0.060 I 
ATOM     10  F2  UNL d   1       3.275  -2.760   5.010  0.00  0.00    -0.096 F 
ATOM     11  F3  UNL d   1       4.252  -0.816   3.397  0.00  0.00    -0.097 F 
ATOM     12  F4  UNL d   1       2.975  -0.182   1.072  0.00  0.00    -0.092 F 
ENDROOT
TORSDOF 0
ENDMDL
