MODEL 1
REMARK minimizedAffinity 3.44084549
REMARK minimizedRMSD -1
REMARK  0 active torsions:
REMARK  status: ('A' for Active; 'I' for Inactive)
ROOT
ATOM      1  C   UNL d   1       2.498  -0.886   2.336  0.00  0.00     0.124 A 
ATOM      2  C1  UNL d   1       1.367  -1.560   1.897  0.00  0.00     0.062 A 
ATOM      3  C2  UNL d   1       0.772  -2.527   2.703  0.00  0.00     0.162 A 
ATOM      4  C3  UNL d   1       1.307  -2.825   3.956  0.00  0.00    -0.034 A 
ATOM      5  C4  UNL d   1       2.446  -2.144   4.390  0.00  0.00     0.162 A 
ATOM      6  C5  UNL d   1       3.036  -1.178   3.581  0.00  0.00     0.062 A 
ATOM      7  F   UNL d   1       4.129  -0.528   4.006  0.00  0.00    -0.097 F 
ATOM      8  F1  UNL d   1       2.986  -2.406   5.589  0.00  0.00    -0.096 F 
ATOM      9  I   UNL d   1       0.421  -4.271   5.163  0.00  0.00    -0.060 I 
ATOM     10  F2  UNL d   1      -0.320  -3.163   2.253  0.00  0.00    -0.096 F 
ATOM     11  F3  UNL d   1       0.846  -1.280   0.694  0.00  0.00    -0.097 F 
ATOM     12  F4  UNL d   1       3.069   0.043   1.558  0.00  0.00    -0.092 F 
ENDROOT
TORSDOF 0
ENDMDL
