MODEL 1
REMARK minimizedAffinity 0.0732159019
REMARK minimizedRMSD -1
REMARK  0 active torsions:
REMARK  status: ('A' for Active; 'I' for Inactive)
ROOT
ATOM      1  C   UNL d   1      -3.425  -5.981  -1.749  0.00  0.00     0.124 A 
ATOM      2  C1  UNL d   1      -2.145  -5.972  -1.211  0.00  0.00     0.062 A 
ATOM      3  C2  UNL d   1      -1.034  -5.972  -2.049  0.00  0.00     0.162 A 
ATOM      4  C3  UNL d   1      -1.197  -5.981  -3.434  0.00  0.00    -0.034 A 
ATOM      5  C4  UNL d   1      -2.487  -5.991  -3.968  0.00  0.00     0.162 A 
ATOM      6  C5  UNL d   1      -3.595  -5.991  -3.126  0.00  0.00     0.062 A 
ATOM      7  F   UNL d   1      -4.830  -6.000  -3.647  0.00  0.00    -0.097 F 
ATOM      8  F1  UNL d   1      -2.680  -6.000  -5.295  0.00  0.00    -0.096 F 
ATOM      9  I   UNL d   1       0.462  -5.982  -4.690  0.00  0.00    -0.060 I 
ATOM     10  F2  UNL d   1       0.191  -5.963  -1.501  0.00  0.00    -0.096 F 
ATOM     11  F3  UNL d   1      -1.979  -5.963   0.120  0.00  0.00    -0.097 F 
ATOM     12  F4  UNL d   1      -4.493  -5.982  -0.940  0.00  0.00    -0.092 F 
ENDROOT
TORSDOF 0
ENDMDL
