MODEL 1
REMARK minimizedAffinity 3.80070448
REMARK minimizedRMSD -1
REMARK  0 active torsions:
REMARK  status: ('A' for Active; 'I' for Inactive)
ROOT
ATOM      1  C   UNL d   1       1.390  -2.426   2.505  0.00  0.00     0.124 A 
ATOM      2  C1  UNL d   1       0.860  -2.262   3.778  0.00  0.00     0.062 A 
ATOM      3  C2  UNL d   1       1.132  -3.194   4.775  0.00  0.00     0.162 A 
ATOM      4  C3  UNL d   1       1.938  -4.300   4.503  0.00  0.00    -0.034 A 
ATOM      5  C4  UNL d   1       2.467  -4.459   3.221  0.00  0.00     0.162 A 
ATOM      6  C5  UNL d   1       2.192  -3.524   2.228  0.00  0.00     0.062 A 
ATOM      7  F   UNL d   1       2.704  -3.684   0.999  0.00  0.00    -0.097 F 
ATOM      8  F1  UNL d   1       3.246  -5.510   2.926  0.00  0.00    -0.096 F 
ATOM      9  I   UNL d   1       2.347  -5.696   5.991  0.00  0.00    -0.060 I 
ATOM     10  F2  UNL d   1       0.607  -3.010   5.995  0.00  0.00    -0.096 F 
ATOM     11  F3  UNL d   1       0.084  -1.203   4.048  0.00  0.00    -0.097 F 
ATOM     12  F4  UNL d   1       1.126  -1.528   1.547  0.00  0.00    -0.092 F 
ENDROOT
TORSDOF 0
ENDMDL
