MODEL 1
REMARK minimizedAffinity 0.364750713
REMARK minimizedRMSD -1
REMARK  0 active torsions:
REMARK  status: ('A' for Active; 'I' for Inactive)
ROOT
ATOM      1  C   UNL d   1       0.848  -5.711  -3.523  0.00  0.00     0.124 A 
ATOM      2  C1  UNL d   1       0.361  -5.689  -2.223  0.00  0.00     0.062 A 
ATOM      3  C2  UNL d   1      -1.008  -5.771  -1.986  0.00  0.00     0.162 A 
ATOM      4  C3  UNL d   1      -1.901  -5.877  -3.052  0.00  0.00    -0.034 A 
ATOM      5  C4  UNL d   1      -1.405  -5.897  -4.357  0.00  0.00     0.162 A 
ATOM      6  C5  UNL d   1      -0.035  -5.815  -4.588  0.00  0.00     0.062 A 
ATOM      7  F   UNL d   1       0.432  -5.836  -5.845  0.00  0.00    -0.097 F 
ATOM      8  F1  UNL d   1      -2.236  -5.998  -5.405  0.00  0.00    -0.096 F 
ATOM      9  I   UNL d   1      -3.949  -6.000  -2.703  0.00  0.00    -0.060 I 
ATOM     10  F2  UNL d   1      -1.450  -5.747  -0.720  0.00  0.00    -0.096 F 
ATOM     11  F3  UNL d   1       1.212  -5.587  -1.192  0.00  0.00    -0.097 F 
ATOM     12  F4  UNL d   1       2.165  -5.631  -3.748  0.00  0.00    -0.092 F 
ENDROOT
TORSDOF 0
ENDMDL
