MODEL 1
REMARK minimizedAffinity -1.17339301
REMARK minimizedRMSD -1
REMARK  0 active torsions:
REMARK  status: ('A' for Active; 'I' for Inactive)
ROOT
ATOM      1  C   UNL d   1      -3.201  -5.988  -2.036  0.00  0.00     0.124 A 
ATOM      2  C1  UNL d   1      -3.570  -5.987  -3.374  0.00  0.00     0.062 A 
ATOM      3  C2  UNL d   1      -2.597  -5.990  -4.368  0.00  0.00     0.162 A 
ATOM      4  C3  UNL d   1      -1.244  -5.995  -4.029  0.00  0.00    -0.034 A 
ATOM      5  C4  UNL d   1      -0.880  -5.994  -2.681  0.00  0.00     0.162 A 
ATOM      6  C5  UNL d   1      -1.857  -5.991  -1.691  0.00  0.00     0.062 A 
ATOM      7  F   UNL d   1      -1.498  -5.991  -0.399  0.00  0.00    -0.097 F 
ATOM      8  F1  UNL d   1       0.411  -5.998  -2.320  0.00  0.00    -0.096 F 
ATOM      9  I   UNL d   1       0.215  -6.000  -5.513  0.00  0.00    -0.060 I 
ATOM     10  F2  UNL d   1      -2.982  -5.990  -5.653  0.00  0.00    -0.096 F 
ATOM     11  F3  UNL d   1      -4.868  -5.983  -3.709  0.00  0.00    -0.097 F 
ATOM     12  F4  UNL d   1      -4.140  -5.983  -1.080  0.00  0.00    -0.092 F 
ENDROOT
TORSDOF 0
ENDMDL
