MODEL 1
REMARK minimizedAffinity -5.37733221
REMARK minimizedRMSD -1
REMARK  0 active torsions:
REMARK  status: ('A' for Active; 'I' for Inactive)
ROOT
ATOM      1  C   UNL d   1       0.876  -4.622   4.395  0.00  0.00     0.124 A 
ATOM      2  C1  UNL d   1       1.840  -3.645   4.601  0.00  0.00     0.062 A 
ATOM      3  C2  UNL d   1       1.970  -2.590   3.703  0.00  0.00     0.162 A 
ATOM      4  C3  UNL d   1       1.134  -2.506   2.589  0.00  0.00    -0.034 A 
ATOM      5  C4  UNL d   1       0.167  -3.493   2.388  0.00  0.00     0.162 A 
ATOM      6  C5  UNL d   1       0.041  -4.546   3.289  0.00  0.00     0.062 A 
ATOM      7  F   UNL d   1      -0.891  -5.489   3.088  0.00  0.00    -0.097 F 
ATOM      8  F1  UNL d   1      -0.653  -3.443   1.329  0.00  0.00    -0.096 F 
ATOM      9  I   UNL d   1       1.326  -0.930   1.244  0.00  0.00    -0.060 I 
ATOM     10  F2  UNL d   1       2.910  -1.660   3.927  0.00  0.00    -0.096 F 
ATOM     11  F3  UNL d   1       2.648  -3.717   5.668  0.00  0.00    -0.097 F 
ATOM     12  F4  UNL d   1       0.753  -5.637   5.261  0.00  0.00    -0.092 F 
ENDROOT
TORSDOF 0
ENDMDL
