MODEL 1
REMARK minimizedAffinity -0.175276339
REMARK minimizedRMSD -1
REMARK  0 active torsions:
REMARK  status: ('A' for Active; 'I' for Inactive)
ROOT
ATOM      1  C   UNL d   1      -2.495  -5.904  -3.828  0.00  0.00     0.124 A 
ATOM      2  C1  UNL d   1      -3.801  -5.938  -3.358  0.00  0.00     0.062 A 
ATOM      3  C2  UNL d   1      -4.053  -5.910  -1.989  0.00  0.00     0.162 A 
ATOM      4  C3  UNL d   1      -2.997  -5.847  -1.080  0.00  0.00    -0.034 A 
ATOM      5  C4  UNL d   1      -1.686  -5.814  -1.560  0.00  0.00     0.162 A 
ATOM      6  C5  UNL d   1      -1.440  -5.842  -2.929  0.00  0.00     0.062 A 
ATOM      7  F   UNL d   1      -0.178  -5.809  -3.381  0.00  0.00    -0.097 F 
ATOM      8  F1  UNL d   1      -0.648  -5.752  -0.714  0.00  0.00    -0.096 F 
ATOM      9  I   UNL d   1      -3.370  -5.805   0.967  0.00  0.00    -0.060 I 
ATOM     10  F2  UNL d   1      -5.324  -5.945  -1.563  0.00  0.00    -0.096 F 
ATOM     11  F3  UNL d   1      -4.822  -6.000  -4.224  0.00  0.00    -0.097 F 
ATOM     12  F4  UNL d   1      -2.255  -5.932  -5.145  0.00  0.00    -0.092 F 
ENDROOT
TORSDOF 0
ENDMDL
