MODEL 1
REMARK minimizedAffinity 15.7225847
REMARK minimizedRMSD -1
REMARK  0 active torsions:
REMARK  status: ('A' for Active; 'I' for Inactive)
ROOT
ATOM      1  C   UNL d   1       4.635  -1.150   3.537  0.00  0.00     0.124 A 
ATOM      2  C1  UNL d   1       3.372  -1.463   4.018  0.00  0.00     0.062 A 
ATOM      3  C2  UNL d   1       2.250  -1.273   3.216  0.00  0.00     0.162 A 
ATOM      4  C3  UNL d   1       2.387  -0.769   1.923  0.00  0.00    -0.034 A 
ATOM      5  C4  UNL d   1       3.661  -0.456   1.446  0.00  0.00     0.162 A 
ATOM      6  C5  UNL d   1       4.779  -0.647   2.252  0.00  0.00     0.062 A 
ATOM      7  F   UNL d   1       5.999  -0.344   1.785  0.00  0.00    -0.097 F 
ATOM      8  F1  UNL d   1       3.829   0.031   0.207  0.00  0.00    -0.096 F 
ATOM      9  I   UNL d   1       0.713  -0.484   0.720  0.00  0.00    -0.060 I 
ATOM     10  F2  UNL d   1       1.041  -1.584   3.707  0.00  0.00    -0.096 F 
ATOM     11  F3  UNL d   1       3.230  -1.948   5.260  0.00  0.00    -0.097 F 
ATOM     12  F4  UNL d   1       5.712  -1.333   4.311  0.00  0.00    -0.092 F 
ENDROOT
TORSDOF 0
ENDMDL
