MODEL 1
REMARK minimizedAffinity 14.8840666
REMARK minimizedRMSD -1
REMARK  0 active torsions:
REMARK  status: ('A' for Active; 'I' for Inactive)
ROOT
ATOM      1  C   UNL d   1       0.839  -0.820   1.064  0.00  0.00     0.124 A 
ATOM      2  C1  UNL d   1       1.792  -0.309   0.194  0.00  0.00     0.062 A 
ATOM      3  C2  UNL d   1       3.134  -0.282   0.563  0.00  0.00     0.162 A 
ATOM      4  C3  UNL d   1       3.531  -0.768   1.809  0.00  0.00    -0.034 A 
ATOM      5  C4  UNL d   1       2.567  -1.279   2.679  0.00  0.00     0.162 A 
ATOM      6  C5  UNL d   1       1.227  -1.304   2.305  0.00  0.00     0.062 A 
ATOM      7  F   UNL d   1       0.308  -1.798   3.147  0.00  0.00    -0.097 F 
ATOM      8  F1  UNL d   1       2.914  -1.755   3.884  0.00  0.00    -0.096 F 
ATOM      9  I   UNL d   1       5.537  -0.729   2.364  0.00  0.00    -0.060 I 
ATOM     10  F2  UNL d   1       4.033   0.218  -0.298  0.00  0.00    -0.096 F 
ATOM     11  F3  UNL d   1       1.420   0.161  -1.006  0.00  0.00    -0.097 F 
ATOM     12  F4  UNL d   1      -0.451  -0.844   0.706  0.00  0.00    -0.092 F 
ENDROOT
TORSDOF 0
ENDMDL
