MODEL 1
REMARK minimizedAffinity -4.8912878
REMARK minimizedRMSD -1
REMARK  0 active torsions:
REMARK  status: ('A' for Active; 'I' for Inactive)
ROOT
ATOM      1  C1  BNZ d   1      -1.483  -2.226   0.654  0.00  0.00     0.000 A 
ATOM      2  C2  BNZ d   1      -2.565  -1.852   1.407  0.00  0.00     0.000 A 
ATOM      3  C3  BNZ d   1      -2.739  -0.550   1.783  0.00  0.00     0.000 A 
ATOM      4  C4  BNZ d   1      -1.813   0.369   1.442  0.00  0.00     0.000 A 
ATOM      5  C5  BNZ d   1      -0.712   0.006   0.691  0.00  0.00     0.000 A 
ATOM      6  C6  BNZ d   1      -0.560  -1.298   0.281  0.00  0.00     0.000 A 
ENDROOT
TORSDOF 0
ENDMDL
