MODEL 1
REMARK minimizedAffinity -4.90765142
REMARK minimizedRMSD -1
REMARK  0 active torsions:
REMARK  status: ('A' for Active; 'I' for Inactive)
ROOT
ATOM      1  C1  BNZ d   1      -1.785  -2.079   1.677  0.00  0.00     0.000 A 
ATOM      2  C2  BNZ d   1      -1.936  -0.725   1.541  0.00  0.00     0.000 A 
ATOM      3  C3  BNZ d   1      -1.103  -0.005   0.730  0.00  0.00     0.000 A 
ATOM      4  C4  BNZ d   1      -0.096  -0.633   0.090  0.00  0.00     0.000 A 
ATOM      5  C5  BNZ d   1       0.076  -1.997   0.225  0.00  0.00     0.000 A 
ATOM      6  C6  BNZ d   1      -0.789  -2.724   1.011  0.00  0.00     0.000 A 
ENDROOT
TORSDOF 0
ENDMDL
