MODEL 1
REMARK minimizedAffinity -5.01317978
REMARK minimizedRMSD -1
REMARK  0 active torsions:
REMARK  status: ('A' for Active; 'I' for Inactive)
ROOT
ATOM      1  C1  BNZ d   1      -0.678  -0.795  -0.596  0.00  0.00     0.000 A 
ATOM      2  C2  BNZ d   1       0.088  -1.143   0.485  0.00  0.00     0.000 A 
ATOM      3  C3  BNZ d   1      -0.394  -1.998   1.437  0.00  0.00     0.000 A 
ATOM      4  C4  BNZ d   1      -1.652  -2.470   1.329  0.00  0.00     0.000 A 
ATOM      5  C5  BNZ d   1      -2.440  -2.121   0.250  0.00  0.00     0.000 A 
ATOM      6  C6  BNZ d   1      -1.938  -1.291  -0.727  0.00  0.00     0.000 A 
ENDROOT
TORSDOF 0
ENDMDL
