MODEL 1
REMARK minimizedAffinity -3.90927601
REMARK minimizedRMSD -1
REMARK  0 active torsions:
REMARK  status: ('A' for Active; 'I' for Inactive)
ROOT
ATOM      1  C1  BNZ d   1      -1.424  -0.216   0.047  0.00  0.00     0.000 A 
ATOM      2  C2  BNZ d   1      -0.297   0.557  -0.050  0.00  0.00     0.000 A 
ATOM      3  C3  BNZ d   1       0.946  -0.000   0.067  0.00  0.00     0.000 A 
ATOM      4  C4  BNZ d   1       1.060  -1.320   0.319  0.00  0.00     0.000 A 
ATOM      5  C5  BNZ d   1      -0.067  -2.111   0.429  0.00  0.00     0.000 A 
ATOM      6  C6  BNZ d   1      -1.315  -1.553   0.272  0.00  0.00     0.000 A 
ENDROOT
TORSDOF 0
ENDMDL
