MODEL 1
REMARK minimizedAffinity -4.40390825
REMARK minimizedRMSD -1
REMARK  0 active torsions:
REMARK  status: ('A' for Active; 'I' for Inactive)
ROOT
ATOM      1  C1  BNZ d   1      -1.648  -0.551   0.823  0.00  0.00     0.000 A 
ATOM      2  C2  BNZ d   1      -0.555   0.160   0.403  0.00  0.00     0.000 A 
ATOM      3  C3  BNZ d   1       0.678  -0.426   0.336  0.00  0.00     0.000 A 
ATOM      4  C4  BNZ d   1       0.824  -1.708   0.726  0.00  0.00     0.000 A 
ATOM      5  C5  BNZ d   1      -0.266  -2.436   1.160  0.00  0.00     0.000 A 
ATOM      6  C6  BNZ d   1      -1.512  -1.855   1.189  0.00  0.00     0.000 A 
ENDROOT
TORSDOF 0
ENDMDL
