MODEL 1
REMARK minimizedAffinity -2.39364815
REMARK minimizedRMSD -1
REMARK  0 active torsions:
REMARK  status: ('A' for Active; 'I' for Inactive)
ROOT
ATOM      1  C1  BNZ d   1       2.442   1.846  -2.232  0.00  0.00     0.000 A 
ATOM      2  C2  BNZ d   1       1.295   1.906  -1.485  0.00  0.00     0.000 A 
ATOM      3  C3  BNZ d   1       0.077   2.059  -2.086  0.00  0.00     0.000 A 
ATOM      4  C4  BNZ d   1       0.010   2.192  -3.426  0.00  0.00     0.000 A 
ATOM      5  C5  BNZ d   1       1.158   2.144  -4.191  0.00  0.00     0.000 A 
ATOM      6  C6  BNZ d   1       2.379   1.951  -3.587  0.00  0.00     0.000 A 
ENDROOT
TORSDOF 0
ENDMDL
