MODEL 1
REMARK minimizedAffinity -3.23427463
REMARK minimizedRMSD -1
REMARK  0 active torsions:
REMARK  status: ('A' for Active; 'I' for Inactive)
ROOT
ATOM      1  C1  BNZ d   1      -2.263  -4.872  -3.833  0.00  0.00     0.000 A 
ATOM      2  C2  BNZ d   1      -3.128  -3.824  -3.662  0.00  0.00     0.000 A 
ATOM      3  C3  BNZ d   1      -4.018  -3.484  -4.641  0.00  0.00     0.000 A 
ATOM      4  C4  BNZ d   1      -4.016  -4.166  -5.805  0.00  0.00     0.000 A 
ATOM      5  C5  BNZ d   1      -3.143  -5.219  -5.997  0.00  0.00     0.000 A 
ATOM      6  C6  BNZ d   1      -2.275  -5.583  -4.993  0.00  0.00     0.000 A 
ENDROOT
TORSDOF 0
ENDMDL
