MODEL 1
REMARK minimizedAffinity -4.17868042
REMARK minimizedRMSD -1
REMARK  0 active torsions:
REMARK  status: ('A' for Active; 'I' for Inactive)
ROOT
ATOM      1  C1  BNZ d   1       0.815  -1.384   0.343  0.00  0.00     0.000 A 
ATOM      2  C2  BNZ d   1       0.218  -2.489   0.890  0.00  0.00     0.000 A 
ATOM      3  C3  BNZ d   1      -1.136  -2.531   1.078  0.00  0.00     0.000 A 
ATOM      4  C4  BNZ d   1      -1.884  -1.456   0.756  0.00  0.00     0.000 A 
ATOM      5  C5  BNZ d   1      -1.295  -0.332   0.213  0.00  0.00     0.000 A 
ATOM      6  C6  BNZ d   1       0.063  -0.307  -0.011  0.00  0.00     0.000 A 
ENDROOT
TORSDOF 0
ENDMDL
