MODEL 1
REMARK minimizedAffinity -5.02588558
REMARK minimizedRMSD -1
REMARK  0 active torsions:
REMARK  status: ('A' for Active; 'I' for Inactive)
ROOT
ATOM      1  C1  BNZ d   1      -1.939   0.202   0.979  0.00  0.00     0.000 A 
ATOM      2  C2  BNZ d   1      -0.891   1.018   0.643  0.00  0.00     0.000 A 
ATOM      3  C3  BNZ d   1       0.333   0.493   0.336  0.00  0.00     0.000 A 
ATOM      4  C4  BNZ d   1       0.519  -0.841   0.404  0.00  0.00     0.000 A 
ATOM      5  C5  BNZ d   1      -0.524  -1.675   0.751  0.00  0.00     0.000 A 
ATOM      6  C6  BNZ d   1      -1.766  -1.147   1.021  0.00  0.00     0.000 A 
ENDROOT
TORSDOF 0
ENDMDL
