MODEL 1
REMARK minimizedAffinity -3.12872338
REMARK minimizedRMSD -1
REMARK  0 active torsions:
REMARK  status: ('A' for Active; 'I' for Inactive)
ROOT
ATOM      1  C1  BNZ d   1       3.414   1.863  -3.169  0.00  0.00     0.000 A 
ATOM      2  C2  BNZ d   1       2.413   1.972  -4.097  0.00  0.00     0.000 A 
ATOM      3  C3  BNZ d   1       1.129   2.244  -3.713  0.00  0.00     0.000 A 
ATOM      4  C4  BNZ d   1       0.842   2.368  -2.401  0.00  0.00     0.000 A 
ATOM      5  C5  BNZ d   1       1.839   2.252  -1.453  0.00  0.00     0.000 A 
ATOM      6  C6  BNZ d   1       3.136   2.017  -1.846  0.00  0.00     0.000 A 
ENDROOT
TORSDOF 0
ENDMDL
