MODEL 1
REMARK minimizedAffinity -2.16762877
REMARK minimizedRMSD -1
REMARK  0 active torsions:
REMARK  status: ('A' for Active; 'I' for Inactive)
ROOT
ATOM      1  C1  BNZ d   1       0.702   0.942  -0.041  0.00  0.00     0.000 A 
ATOM      2  C2  BNZ d   1       1.039   1.838  -1.021  0.00  0.00     0.000 A 
ATOM      3  C3  BNZ d   1       0.979   1.487  -2.341  0.00  0.00     0.000 A 
ATOM      4  C4  BNZ d   1       0.621   0.231  -2.677  0.00  0.00     0.000 A 
ATOM      5  C5  BNZ d   1       0.287  -0.686  -1.701  0.00  0.00     0.000 A 
ATOM      6  C6  BNZ d   1       0.311  -0.318  -0.375  0.00  0.00     0.000 A 
ENDROOT
TORSDOF 0
ENDMDL
