MODEL 1
REMARK minimizedAffinity -4.37232065
REMARK minimizedRMSD -1
REMARK  0 active torsions:
REMARK  status: ('A' for Active; 'I' for Inactive)
ROOT
ATOM      1  C1  BNZ d   1       0.709  -1.437   0.434  0.00  0.00     0.000 A 
ATOM      2  C2  BNZ d   1      -0.550  -1.973   0.490  0.00  0.00     0.000 A 
ATOM      3  C3  BNZ d   1      -1.655  -1.173   0.416  0.00  0.00     0.000 A 
ATOM      4  C4  BNZ d   1      -1.502   0.164   0.326  0.00  0.00     0.000 A 
ATOM      5  C5  BNZ d   1      -0.239   0.721   0.278  0.00  0.00     0.000 A 
ATOM      6  C6  BNZ d   1       0.871  -0.091   0.314  0.00  0.00     0.000 A 
ENDROOT
TORSDOF 0
ENDMDL
