MODEL 1
REMARK minimizedAffinity -3.74790382
REMARK minimizedRMSD -1
REMARK  0 active torsions:
REMARK  status: ('A' for Active; 'I' for Inactive)
ROOT
ATOM      1  C1  BNZ d   1       0.379  -0.043   0.098  0.00  0.00     0.000 A 
ATOM      2  C2  BNZ d   1       0.749  -1.360   0.154  0.00  0.00     0.000 A 
ATOM      3  C3  BNZ d   1       0.043  -2.254   0.911  0.00  0.00     0.000 A 
ATOM      4  C4  BNZ d   1      -1.006  -1.822   1.640  0.00  0.00     0.000 A 
ATOM      5  C5  BNZ d   1      -1.386  -0.495   1.601  0.00  0.00     0.000 A 
ATOM      6  C6  BNZ d   1      -0.697   0.394   0.809  0.00  0.00     0.000 A 
ENDROOT
TORSDOF 0
ENDMDL
