MODEL 1
REMARK minimizedAffinity -4.90951729
REMARK minimizedRMSD -1
REMARK  0 active torsions:
REMARK  status: ('A' for Active; 'I' for Inactive)
ROOT
ATOM      1  C1  BNZ d   1      -2.954  -1.157   1.941  0.00  0.00     0.000 A 
ATOM      2  C2  BNZ d   1      -2.389  -0.215   1.124  0.00  0.00     0.000 A 
ATOM      3  C3  BNZ d   1      -1.200  -0.456   0.496  0.00  0.00     0.000 A 
ATOM      4  C4  BNZ d   1      -0.557  -1.622   0.717  0.00  0.00     0.000 A 
ATOM      5  C5  BNZ d   1      -1.109  -2.578   1.546  0.00  0.00     0.000 A 
ATOM      6  C6  BNZ d   1      -2.326  -2.347   2.146  0.00  0.00     0.000 A 
ENDROOT
TORSDOF 0
ENDMDL
