MODEL 1
REMARK minimizedAffinity -4.35378408
REMARK minimizedRMSD -1
REMARK  0 active torsions:
REMARK  status: ('A' for Active; 'I' for Inactive)
ROOT
ATOM      1  C1  BNZ d   1      -2.843  -1.812   2.086  0.00  0.00     0.000 A 
ATOM      2  C2  BNZ d   1      -1.876  -2.285   1.241  0.00  0.00     0.000 A 
ATOM      3  C3  BNZ d   1      -1.198  -1.438   0.409  0.00  0.00     0.000 A 
ATOM      4  C4  BNZ d   1      -1.516  -0.127   0.395  0.00  0.00     0.000 A 
ATOM      5  C5  BNZ d   1      -2.495   0.364   1.235  0.00  0.00     0.000 A 
ATOM      6  C6  BNZ d   1      -3.148  -0.486   2.099  0.00  0.00     0.000 A 
ENDROOT
TORSDOF 0
ENDMDL
