MODEL 1
REMARK minimizedAffinity -2.86361742
REMARK minimizedRMSD -1
REMARK  0 active torsions:
REMARK  status: ('A' for Active; 'I' for Inactive)
ROOT
ATOM      1  C1  BNZ d   1       0.746   1.687  -0.796  0.00  0.00     0.000 A 
ATOM      2  C2  BNZ d   1      -0.200   0.726  -1.036  0.00  0.00     0.000 A 
ATOM      3  C3  BNZ d   1      -0.096  -0.514  -0.471  0.00  0.00     0.000 A 
ATOM      4  C4  BNZ d   1       0.971  -0.805   0.299  0.00  0.00     0.000 A 
ATOM      5  C5  BNZ d   1       1.938   0.150   0.543  0.00  0.00     0.000 A 
ATOM      6  C6  BNZ d   1       1.811   1.410   0.004  0.00  0.00     0.000 A 
ENDROOT
TORSDOF 0
ENDMDL
