MODEL 1
REMARK minimizedAffinity -4.13869143
REMARK minimizedRMSD -1
REMARK  0 active torsions:
REMARK  status: ('A' for Active; 'I' for Inactive)
ROOT
ATOM      1  C1  BNZ d   1       0.451  -1.102   0.031  0.00  0.00     0.000 A 
ATOM      2  C2  BNZ d   1       0.186  -2.260   0.713  0.00  0.00     0.000 A 
ATOM      3  C3  BNZ d   1      -1.095  -2.590   1.058  0.00  0.00     0.000 A 
ATOM      4  C4  BNZ d   1      -2.102  -1.745   0.758  0.00  0.00     0.000 A 
ATOM      5  C5  BNZ d   1      -1.849  -0.570   0.080  0.00  0.00     0.000 A 
ATOM      6  C6  BNZ d   1      -0.564  -0.259  -0.301  0.00  0.00     0.000 A 
ENDROOT
TORSDOF 0
ENDMDL
