MODEL 1
REMARK minimizedAffinity 4.1336937
REMARK minimizedRMSD -1
REMARK  0 active torsions:
REMARK  status: ('A' for Active; 'I' for Inactive)
ROOT
ATOM      1  C   UNL d   1      -2.923   0.003   2.993  0.00  0.00     0.172 C 
ATOM      2  N   UNL d   1      -4.175  -0.699   2.832  0.00  0.00    -0.070 N 
ATOM      3  C1  UNL d   1      -4.859  -1.347   3.825  0.00  0.00    -0.004 A 
ATOM      4  C2  UNL d   1      -6.000  -1.886   3.268  0.00  0.00    -0.047 A 
ATOM      5  C3  UNL d   1      -6.000  -1.550   1.894  0.00  0.00    -0.047 A 
ATOM      6  C4  UNL d   1      -4.859  -0.815   1.651  0.00  0.00    -0.004 A 
ENDROOT
TORSDOF 0
ENDMDL
