MODEL 1
REMARK minimizedAffinity 0.424037725
REMARK minimizedRMSD -1
REMARK  0 active torsions:
REMARK  status: ('A' for Active; 'I' for Inactive)
ROOT
ATOM      1  C   UNL d   1      -5.929  -2.451  -4.747  0.00  0.00     0.172 C 
ATOM      2  N   UNL d   1      -5.829  -3.892  -4.773  0.00  0.00    -0.070 N 
ATOM      3  C1  UNL d   1      -5.554  -4.693  -3.697  0.00  0.00    -0.004 A 
ATOM      4  C2  UNL d   1      -5.546  -5.999  -4.134  0.00  0.00    -0.047 A 
ATOM      5  C3  UNL d   1      -5.824  -5.983  -5.522  0.00  0.00    -0.047 A 
ATOM      6  C4  UNL d   1      -5.995  -4.666  -5.891  0.00  0.00    -0.004 A 
ENDROOT
TORSDOF 0
ENDMDL
