MODEL 1
REMARK minimizedAffinity 2.60182047
REMARK minimizedRMSD -1
REMARK  0 active torsions:
REMARK  status: ('A' for Active; 'I' for Inactive)
ROOT
ATOM      1  C   UNL d   1      -3.745  -5.998  -2.159  0.00  0.00     0.172 C 
ATOM      2  N   UNL d   1      -4.659  -5.384  -3.092  0.00  0.00    -0.070 N 
ATOM      3  C1  UNL d   1      -5.147  -4.107  -3.009  0.00  0.00    -0.004 A 
ATOM      4  C2  UNL d   1      -5.984  -3.904  -4.085  0.00  0.00    -0.047 A 
ATOM      5  C3  UNL d   1      -6.000  -5.101  -4.841  0.00  0.00    -0.047 A 
ATOM      6  C4  UNL d   1      -5.171  -6.000  -4.204  0.00  0.00    -0.004 A 
ENDROOT
TORSDOF 0
ENDMDL
