MODEL 1
REMARK minimizedAffinity -2.08229709
REMARK minimizedRMSD -1
REMARK  0 active torsions:
REMARK  status: ('A' for Active; 'I' for Inactive)
ROOT
ATOM      1  C   UNL d   1      -4.464  -5.987  -2.180  0.00  0.00     0.172 C 
ATOM      2  N   UNL d   1      -5.080  -5.361  -3.326  0.00  0.00    -0.070 N 
ATOM      3  C1  UNL d   1      -5.450  -5.997  -4.481  0.00  0.00    -0.004 A 
ATOM      4  C2  UNL d   1      -6.000  -5.056  -5.324  0.00  0.00    -0.047 A 
ATOM      5  C3  UNL d   1      -5.958  -3.811  -4.654  0.00  0.00    -0.047 A 
ATOM      6  C4  UNL d   1      -5.384  -4.028  -3.419  0.00  0.00    -0.004 A 
ENDROOT
TORSDOF 0
ENDMDL
