MODEL 1
REMARK minimizedAffinity -0.223766774
REMARK minimizedRMSD -1
REMARK  0 active torsions:
REMARK  status: ('A' for Active; 'I' for Inactive)
ROOT
ATOM      1  C   UNL d   1      -6.000  -2.045   1.752  0.00  0.00     0.172 C 
ATOM      2  N   UNL d   1      -5.037  -1.217   2.439  0.00  0.00    -0.070 N 
ATOM      3  C1  UNL d   1      -3.840  -0.793   1.928  0.00  0.00    -0.004 A 
ATOM      4  C2  UNL d   1      -3.217  -0.027   2.890  0.00  0.00    -0.047 A 
ATOM      5  C3  UNL d   1      -4.070   0.009   4.019  0.00  0.00    -0.047 A 
ATOM      6  C4  UNL d   1      -5.189  -0.735   3.713  0.00  0.00    -0.004 A 
ENDROOT
TORSDOF 0
ENDMDL
