MODEL 1
REMARK minimizedAffinity -1.43077278
REMARK minimizedRMSD -1
REMARK  0 active torsions:
REMARK  status: ('A' for Active; 'I' for Inactive)
ROOT
ATOM      1  C   UNL d   1      -5.928  -2.552  -5.998  0.00  0.00     0.172 C 
ATOM      2  N   UNL d   1      -5.730  -3.816  -5.329  0.00  0.00    -0.070 N 
ATOM      3  C1  UNL d   1      -5.957  -5.051  -5.873  0.00  0.00    -0.004 A 
ATOM      4  C2  UNL d   1      -5.648  -5.996  -4.919  0.00  0.00    -0.047 A 
ATOM      5  C3  UNL d   1      -5.221  -5.304  -3.761  0.00  0.00    -0.047 A 
ATOM      6  C4  UNL d   1      -5.281  -3.956  -4.042  0.00  0.00    -0.004 A 
ENDROOT
TORSDOF 0
ENDMDL
