MODEL 1
REMARK minimizedAffinity -0.735009849
REMARK minimizedRMSD -1
REMARK  0 active torsions:
REMARK  status: ('A' for Active; 'I' for Inactive)
ROOT
ATOM      1  C   UNL d   1      -5.999  -3.722  -4.896  0.00  0.00     0.172 C 
ATOM      2  N   UNL d   1      -5.373  -4.507  -3.859  0.00  0.00    -0.070 N 
ATOM      3  C1  UNL d   1      -5.977  -5.497  -3.131  0.00  0.00    -0.004 A 
ATOM      4  C2  UNL d   1      -5.047  -5.999  -2.247  0.00  0.00    -0.047 A 
ATOM      5  C3  UNL d   1      -3.842  -5.286  -2.450  0.00  0.00    -0.047 A 
ATOM      6  C4  UNL d   1      -4.071  -4.369  -3.453  0.00  0.00    -0.004 A 
ENDROOT
TORSDOF 0
ENDMDL
