MODEL 1
REMARK minimizedAffinity -1.27878463
REMARK minimizedRMSD -1
REMARK  0 active torsions:
REMARK  status: ('A' for Active; 'I' for Inactive)
ROOT
ATOM      1  C   UNL d   1      -4.501  -5.927  -2.620  0.00  0.00     0.172 C 
ATOM      2  N   UNL d   1      -5.034  -5.132  -3.702  0.00  0.00    -0.070 N 
ATOM      3  C1  UNL d   1      -5.036  -3.764  -3.761  0.00  0.00    -0.004 A 
ATOM      4  C2  UNL d   1      -5.630  -3.393  -4.948  0.00  0.00    -0.047 A 
ATOM      5  C3  UNL d   1      -6.000  -4.580  -5.625  0.00  0.00    -0.047 A 
ATOM      6  C4  UNL d   1      -5.619  -5.641  -4.831  0.00  0.00    -0.004 A 
ENDROOT
TORSDOF 0
ENDMDL
