MODEL 1
REMARK minimizedAffinity -2.18047476
REMARK minimizedRMSD -1
REMARK  0 active torsions:
REMARK  status: ('A' for Active; 'I' for Inactive)
ROOT
ATOM      1  C   UNL d   1      -5.151  -5.864  -2.600  0.00  0.00     0.172 C 
ATOM      2  N   UNL d   1      -5.493  -5.233  -3.853  0.00  0.00    -0.070 N 
ATOM      3  C1  UNL d   1      -5.675  -3.889  -4.047  0.00  0.00    -0.004 A 
ATOM      4  C2  UNL d   1      -5.988  -3.693  -5.374  0.00  0.00    -0.047 A 
ATOM      5  C3  UNL d   1      -5.996  -4.962  -6.000  0.00  0.00    -0.047 A 
ATOM      6  C4  UNL d   1      -5.686  -5.897  -5.035  0.00  0.00    -0.004 A 
ENDROOT
TORSDOF 0
ENDMDL
