MODEL 1
REMARK minimizedAffinity 0.0296961293
REMARK minimizedRMSD -1
REMARK  0 active torsions:
REMARK  status: ('A' for Active; 'I' for Inactive)
ROOT
ATOM      1  C   UNL d   1      -6.000  -2.439  -4.585  0.00  0.00     0.172 C 
ATOM      2  N   UNL d   1      -5.805  -3.854  -4.803  0.00  0.00    -0.070 N 
ATOM      3  C1  UNL d   1      -5.400  -4.758  -3.858  0.00  0.00    -0.004 A 
ATOM      4  C2  UNL d   1      -5.337  -5.997  -4.459  0.00  0.00    -0.047 A 
ATOM      5  C3  UNL d   1      -5.715  -5.830  -5.813  0.00  0.00    -0.047 A 
ATOM      6  C4  UNL d   1      -5.999  -4.494  -5.998  0.00  0.00    -0.004 A 
ENDROOT
TORSDOF 0
ENDMDL
