MODEL 1
REMARK minimizedAffinity 0.385293752
REMARK minimizedRMSD -1
REMARK  0 active torsions:
REMARK  status: ('A' for Active; 'I' for Inactive)
ROOT
ATOM      1  C   UNL d   1      -4.537  -5.145  -2.680  0.00  0.00     0.172 C 
ATOM      2  N   UNL d   1      -5.128  -4.984  -3.988  0.00  0.00    -0.070 N 
ATOM      3  C1  UNL d   1      -5.469  -6.000  -4.840  0.00  0.00    -0.004 A 
ATOM      4  C2  UNL d   1      -6.000  -5.434  -5.979  0.00  0.00    -0.047 A 
ATOM      5  C3  UNL d   1      -5.976  -4.030  -5.806  0.00  0.00    -0.047 A 
ATOM      6  C4  UNL d   1      -5.431  -3.779  -4.564  0.00  0.00    -0.004 A 
ENDROOT
TORSDOF 0
ENDMDL
