MODEL 1
REMARK minimizedAffinity 3.50484014
REMARK minimizedRMSD -1
REMARK  0 active torsions:
REMARK  status: ('A' for Active; 'I' for Inactive)
ROOT
ATOM      1  C   UNL d   1      -6.000  -2.622   2.741  0.00  0.00     0.172 C 
ATOM      2  N   UNL d   1      -5.363  -1.389   3.140  0.00  0.00    -0.070 N 
ATOM      3  C1  UNL d   1      -6.000  -0.198   3.366  0.00  0.00    -0.004 A 
ATOM      4  C2  UNL d   1      -5.046   0.729   3.727  0.00  0.00    -0.047 A 
ATOM      5  C3  UNL d   1      -3.793   0.072   3.717  0.00  0.00    -0.047 A 
ATOM      6  C4  UNL d   1      -4.018  -1.238   3.350  0.00  0.00    -0.004 A 
ENDROOT
TORSDOF 0
ENDMDL
