MODEL 1
REMARK minimizedAffinity 0.374142021
REMARK minimizedRMSD -1
REMARK  0 active torsions:
REMARK  status: ('A' for Active; 'I' for Inactive)
ROOT
ATOM      1  C   UNL d   1      -5.999  -3.118  -5.891  0.00  0.00     0.172 C 
ATOM      2  N   UNL d   1      -5.725  -4.077  -4.846  0.00  0.00    -0.070 N 
ATOM      3  C1  UNL d   1      -5.154  -3.795  -3.634  0.00  0.00    -0.004 A 
ATOM      4  C2  UNL d   1      -5.064  -4.974  -2.926  0.00  0.00    -0.047 A 
ATOM      5  C3  UNL d   1      -5.598  -6.000  -3.741  0.00  0.00    -0.047 A 
ATOM      6  C4  UNL d   1      -6.000  -5.417  -4.924  0.00  0.00    -0.004 A 
ENDROOT
TORSDOF 0
ENDMDL
