MODEL 1
REMARK minimizedAffinity 1.37680507
REMARK minimizedRMSD -1
REMARK  0 active torsions:
REMARK  status: ('A' for Active; 'I' for Inactive)
ROOT
ATOM      1  C   UNL d   1      -6.000  -2.462  -4.564  0.00  0.00     0.172 C 
ATOM      2  N   UNL d   1      -5.874  -3.900  -4.577  0.00  0.00    -0.070 N 
ATOM      3  C1  UNL d   1      -5.615  -4.689  -3.489  0.00  0.00    -0.004 A 
ATOM      4  C2  UNL d   1      -5.574  -5.999  -3.916  0.00  0.00    -0.047 A 
ATOM      5  C3  UNL d   1      -5.816  -5.997  -5.310  0.00  0.00    -0.047 A 
ATOM      6  C4  UNL d   1      -5.999  -4.685  -5.694  0.00  0.00    -0.004 A 
ENDROOT
TORSDOF 0
ENDMDL
