MODEL 1
REMARK minimizedAffinity -2.16184545
REMARK minimizedRMSD -1
REMARK  0 active torsions:
REMARK  status: ('A' for Active; 'I' for Inactive)
ROOT
ATOM      1  C   UNL d   1      -5.972  -4.258  -5.962  0.00  0.00     0.172 C 
ATOM      2  N   UNL d   1      -5.481  -4.699  -4.678  0.00  0.00    -0.070 N 
ATOM      3  C1  UNL d   1      -5.153  -5.987  -4.348  0.00  0.00    -0.004 A 
ATOM      4  C2  UNL d   1      -4.728  -5.992  -3.037  0.00  0.00    -0.047 A 
ATOM      5  C3  UNL d   1      -4.804  -4.660  -2.562  0.00  0.00    -0.047 A 
ATOM      6  C4  UNL d   1      -5.273  -3.881  -3.599  0.00  0.00    -0.004 A 
ENDROOT
TORSDOF 0
ENDMDL
