MODEL 1
REMARK minimizedAffinity 1.53692091
REMARK minimizedRMSD -1
REMARK  0 active torsions:
REMARK  status: ('A' for Active; 'I' for Inactive)
ROOT
ATOM      1  C   UNL d   1      -3.898  -5.432  -1.870  0.00  0.00     0.172 C 
ATOM      2  N   UNL d   1      -4.748  -5.097  -2.988  0.00  0.00    -0.070 N 
ATOM      3  C1  UNL d   1      -5.196  -3.842  -3.303  0.00  0.00    -0.004 A 
ATOM      4  C2  UNL d   1      -5.977  -3.944  -4.434  0.00  0.00    -0.047 A 
ATOM      5  C3  UNL d   1      -6.000  -5.308  -4.812  0.00  0.00    -0.047 A 
ATOM      6  C4  UNL d   1      -5.231  -5.999  -3.899  0.00  0.00    -0.004 A 
ENDROOT
TORSDOF 0
ENDMDL
