MODEL 1
REMARK minimizedAffinity 14.8893099
REMARK minimizedRMSD -1
REMARK  3 active torsions:
REMARK  status: ('A' for Active; 'I' for Inactive)
REMARK    1  A    between atoms: C3'_2  and  C2'_3 
REMARK    2  A    between atoms: C2'_3  and  C1'_4 
REMARK    3  A    between atoms: C1'_4  and  C1_5 
ROOT
ATOM      1  C1  N4B d   1      -3.566   1.435   3.784  0.00  0.00    -0.075 A 
ATOM      2  C2  N4B d   1      -2.963   1.632   5.046  0.00  0.00     0.002 A 
ATOM      3  C3  N4B d   1      -3.598   2.389   6.000  0.00  0.00     0.002 A 
ATOM      4  C4  N4B d   1      -4.821   2.973   5.709  0.00  0.00    -0.004 A 
ATOM      5  C5  N4B d   1      -5.409   2.758   4.497  0.00  0.00     0.002 A 
ATOM      6  C6  N4B d   1      -4.785   1.995   3.530  0.00  0.00     0.002 A 
ENDROOT
BRANCH   1   7
ATOM      7  C1' N4B d   1      -2.871   0.686   2.680  0.00  0.00     0.057 C 
BRANCH   7   8
ATOM      8  C2' N4B d   1      -1.720   1.534   2.147  0.00  0.00     0.009 C 
BRANCH   8   9
ATOM      9  C3' N4B d   1      -0.368   0.995   2.584  0.00  0.00     0.004 C 
ATOM     10  C4' N4B d   1       0.400   1.968   3.428  0.00  0.00     0.003 C 
ENDBRANCH   8   9
ENDBRANCH   7   8
ENDBRANCH   1   7
TORSDOF 3
ENDMDL
