MODEL 1
REMARK minimizedAffinity 9.50463104
REMARK minimizedRMSD -1
REMARK  3 active torsions:
REMARK  status: ('A' for Active; 'I' for Inactive)
REMARK    1  A    between atoms: C3'_2  and  C2'_3 
REMARK    2  A    between atoms: C2'_3  and  C1'_4 
REMARK    3  A    between atoms: C1'_4  and  C1_5 
ROOT
ATOM      1  C1  N4B d   1       1.353  -2.842  -1.946  0.00  0.00    -0.075 A 
ATOM      2  C2  N4B d   1       2.075  -3.123  -0.765  0.00  0.00     0.002 A 
ATOM      3  C3  N4B d   1       2.718  -2.111  -0.096  0.00  0.00     0.002 A 
ATOM      4  C4  N4B d   1       2.668  -0.818  -0.596  0.00  0.00    -0.004 A 
ATOM      5  C5  N4B d   1       1.947  -0.551  -1.723  0.00  0.00     0.002 A 
ATOM      6  C6  N4B d   1       1.293  -1.558  -2.404  0.00  0.00     0.002 A 
ENDROOT
BRANCH   1   7
ATOM      7  C1' N4B d   1       0.706  -3.930  -2.759  0.00  0.00     0.057 C 
BRANCH   7   8
ATOM      8  C2' N4B d   1      -0.307  -3.306  -3.714  0.00  0.00     0.009 C 
BRANCH   8   9
ATOM      9  C3' N4B d   1      -1.729  -3.730  -3.391  0.00  0.00     0.004 C 
ATOM     10  C4' N4B d   1      -2.751  -3.025  -4.232  0.00  0.00     0.003 C 
ENDBRANCH   8   9
ENDBRANCH   7   8
ENDBRANCH   1   7
TORSDOF 3
ENDMDL
