MODEL 1
REMARK minimizedAffinity 4.98730993
REMARK minimizedRMSD -1
REMARK  3 active torsions:
REMARK  status: ('A' for Active; 'I' for Inactive)
REMARK    1  A    between atoms: C3'_2  and  C2'_3 
REMARK    2  A    between atoms: C2'_3  and  C1'_4 
REMARK    3  A    between atoms: C1'_4  and  C1_5 
ROOT
ATOM      1  C1  N4B d   1       1.759  -3.702  -1.996  0.00  0.00    -0.075 A 
ATOM      2  C2  N4B d   1       1.514  -2.314  -1.911  0.00  0.00     0.002 A 
ATOM      3  C3  N4B d   1       2.137  -1.564  -0.944  0.00  0.00     0.002 A 
ATOM      4  C4  N4B d   1       2.991  -2.181  -0.043  0.00  0.00    -0.004 A 
ATOM      5  C5  N4B d   1       3.243  -3.518  -0.147  0.00  0.00     0.002 A 
ATOM      6  C6  N4B d   1       2.627  -4.283  -1.117  0.00  0.00     0.002 A 
ENDROOT
BRANCH   1   7
ATOM      7  C1' N4B d   1       1.036  -4.577  -2.982  0.00  0.00     0.057 C 
BRANCH   7   8
ATOM      8  C2' N4B d   1      -0.429  -4.154  -3.047  0.00  0.00     0.009 C 
BRANCH   8   9
ATOM      9  C3' N4B d   1      -1.363  -5.270  -2.612  0.00  0.00     0.004 C 
ATOM     10  C4' N4B d   1      -1.885  -5.080  -1.219  0.00  0.00     0.003 C 
ENDBRANCH   8   9
ENDBRANCH   7   8
ENDBRANCH   1   7
TORSDOF 3
ENDMDL
