MODEL 1
REMARK minimizedAffinity 14.7131357
REMARK minimizedRMSD -1
REMARK  3 active torsions:
REMARK  status: ('A' for Active; 'I' for Inactive)
REMARK    1  A    between atoms: C3'_2  and  C2'_3 
REMARK    2  A    between atoms: C2'_3  and  C1'_4 
REMARK    3  A    between atoms: C1'_4  and  C1_5 
ROOT
ATOM      1  C1  N4B d   1      -3.416   1.169   3.674  0.00  0.00    -0.075 A 
ATOM      2  C2  N4B d   1      -2.941   1.116   5.003  0.00  0.00     0.002 A 
ATOM      3  C3  N4B d   1      -3.615   1.778   6.000  0.00  0.00     0.002 A 
ATOM      4  C4  N4B d   1      -4.750   2.512   5.690  0.00  0.00    -0.004 A 
ATOM      5  C5  N4B d   1      -5.216   2.538   4.408  0.00  0.00     0.002 A 
ATOM      6  C6  N4B d   1      -4.551   1.874   3.397  0.00  0.00     0.002 A 
ENDROOT
BRANCH   1   7
ATOM      7  C1' N4B d   1      -2.665   0.532   2.537  0.00  0.00     0.057 C 
BRANCH   7   8
ATOM      8  C2' N4B d   1      -1.521   1.450   2.116  0.00  0.00     0.009 C 
BRANCH   8   9
ATOM      9  C3' N4B d   1      -0.175   0.937   2.597  0.00  0.00     0.004 C 
ATOM     10  C4' N4B d   1       0.398   1.764   3.710  0.00  0.00     0.003 C 
ENDBRANCH   8   9
ENDBRANCH   7   8
ENDBRANCH   1   7
TORSDOF 3
ENDMDL
