MODEL 1
REMARK minimizedAffinity 7.77663851
REMARK minimizedRMSD -1
REMARK  3 active torsions:
REMARK  status: ('A' for Active; 'I' for Inactive)
REMARK    1  A    between atoms: C3'_2  and  C2'_3 
REMARK    2  A    between atoms: C2'_3  and  C1'_4 
REMARK    3  A    between atoms: C1'_4  and  C1_5 
ROOT
ATOM      1  C1  N4B d   1      -1.648  -5.053  -3.928  0.00  0.00    -0.075 A 
ATOM      2  C2  N4B d   1      -3.037  -4.948  -3.693  0.00  0.00     0.002 A 
ATOM      3  C3  N4B d   1      -3.844  -4.330  -4.617  0.00  0.00     0.002 A 
ATOM      4  C4  N4B d   1      -3.285  -3.796  -5.768  0.00  0.00    -0.004 A 
ATOM      5  C5  N4B d   1      -1.947  -3.924  -5.999  0.00  0.00     0.002 A 
ATOM      6  C6  N4B d   1      -1.124  -4.546  -5.081  0.00  0.00     0.002 A 
ENDROOT
BRANCH   1   7
ATOM      7  C1' N4B d   1      -0.713  -5.643  -2.908  0.00  0.00     0.057 C 
BRANCH   7   8
ATOM      8  C2' N4B d   1       0.724  -5.480  -3.393  0.00  0.00     0.009 C 
BRANCH   8   9
ATOM      9  C3' N4B d   1       1.732  -5.856  -2.320  0.00  0.00     0.004 C 
ATOM     10  C4' N4B d   1       2.395  -4.661  -1.701  0.00  0.00     0.003 C 
ENDBRANCH   8   9
ENDBRANCH   7   8
ENDBRANCH   1   7
TORSDOF 3
ENDMDL
