MODEL 1
REMARK minimizedAffinity 10.0665512
REMARK minimizedRMSD -1
REMARK  3 active torsions:
REMARK  status: ('A' for Active; 'I' for Inactive)
REMARK    1  A    between atoms: C3'_2  and  C2'_3 
REMARK    2  A    between atoms: C2'_3  and  C1'_4 
REMARK    3  A    between atoms: C1'_4  and  C1_5 
ROOT
ATOM      1  C1  N4B d   1       1.617  -1.792  -1.290  0.00  0.00    -0.075 A 
ATOM      2  C2  N4B d   1       1.519  -0.394  -1.117  0.00  0.00     0.002 A 
ATOM      3  C3  N4B d   1       1.978   0.189   0.039  0.00  0.00     0.002 A 
ATOM      4  C4  N4B d   1       2.519  -0.605   1.039  0.00  0.00    -0.004 A 
ATOM      5  C5  N4B d   1       2.634  -1.952   0.853  0.00  0.00     0.002 A 
ATOM      6  C6  N4B d   1       2.181  -2.550  -0.306  0.00  0.00     0.002 A 
ENDROOT
BRANCH   1   7
ATOM      7  C1' N4B d   1       1.051  -2.484  -2.500  0.00  0.00     0.057 C 
BRANCH   7   8
ATOM      8  C2' N4B d   1       0.699  -3.923  -2.135  0.00  0.00     0.009 C 
BRANCH   8   9
ATOM      9  C3' N4B d   1      -0.514  -4.423  -2.901  0.00  0.00     0.004 C 
ATOM     10  C4' N4B d   1      -1.538  -5.063  -2.012  0.00  0.00     0.003 C 
ENDBRANCH   8   9
ENDBRANCH   7   8
ENDBRANCH   1   7
TORSDOF 3
ENDMDL
