MODEL 1
REMARK minimizedAffinity 14.8134918
REMARK minimizedRMSD -1
REMARK  3 active torsions:
REMARK  status: ('A' for Active; 'I' for Inactive)
REMARK    1  A    between atoms: C3'_2  and  C2'_3 
REMARK    2  A    between atoms: C2'_3  and  C1'_4 
REMARK    3  A    between atoms: C1'_4  and  C1_5 
ROOT
ATOM      1  C1  N4B d   1       1.832  -4.972  -2.159  0.00  0.00    -0.075 A 
ATOM      2  C2  N4B d   1       2.000  -3.907  -1.246  0.00  0.00     0.002 A 
ATOM      3  C3  N4B d   1       3.053  -3.919  -0.365  0.00  0.00     0.002 A 
ATOM      4  C4  N4B d   1       3.936  -4.988  -0.365  0.00  0.00    -0.004 A 
ATOM      5  C5  N4B d   1       3.781  -6.000  -1.267  0.00  0.00     0.002 A 
ATOM      6  C6  N4B d   1       2.730  -6.000  -2.162  0.00  0.00     0.002 A 
ENDROOT
BRANCH   1   7
ATOM      7  C1' N4B d   1       0.647  -5.045  -3.084  0.00  0.00     0.057 C 
BRANCH   7   8
ATOM      8  C2' N4B d   1       0.568  -3.758  -3.900  0.00  0.00     0.009 C 
BRANCH   8   9
ATOM      9  C3' N4B d   1       1.527  -2.699  -3.385  0.00  0.00     0.004 C 
ATOM     10  C4' N4B d   1       0.823  -1.483  -2.860  0.00  0.00     0.003 C 
ENDBRANCH   8   9
ENDBRANCH   7   8
ENDBRANCH   1   7
TORSDOF 3
ENDMDL
