MODEL 1
REMARK minimizedAffinity 13.0567799
REMARK minimizedRMSD -1
REMARK  3 active torsions:
REMARK  status: ('A' for Active; 'I' for Inactive)
REMARK    1  A    between atoms: C3'_2  and  C2'_3 
REMARK    2  A    between atoms: C2'_3  and  C1'_4 
REMARK    3  A    between atoms: C1'_4  and  C1_5 
ROOT
ATOM      1  C1  N4B d   1      -2.048  -3.969  -3.810  0.00  0.00    -0.075 A 
ATOM      2  C2  N4B d   1      -0.670  -4.229  -3.982  0.00  0.00     0.002 A 
ATOM      3  C3  N4B d   1      -0.069  -5.238  -3.271  0.00  0.00     0.002 A 
ATOM      4  C4  N4B d   1      -0.816  -5.985  -2.374  0.00  0.00    -0.004 A 
ATOM      5  C5  N4B d   1      -2.152  -5.745  -2.233  0.00  0.00     0.002 A 
ATOM      6  C6  N4B d   1      -2.771  -4.736  -2.943  0.00  0.00     0.002 A 
ENDROOT
BRANCH   1   7
ATOM      7  C1' N4B d   1      -2.731  -2.821  -4.501  0.00  0.00     0.057 C 
BRANCH   7   8
ATOM      8  C2' N4B d   1      -3.097  -3.237  -5.923  0.00  0.00     0.009 C 
BRANCH   8   9
ATOM      9  C3' N4B d   1      -4.478  -3.865  -5.994  0.00  0.00     0.004 C 
ATOM     10  C4' N4B d   1      -5.579  -2.847  -5.992  0.00  0.00     0.003 C 
ENDBRANCH   8   9
ENDBRANCH   7   8
ENDBRANCH   1   7
TORSDOF 3
ENDMDL
