MODEL 1
REMARK minimizedAffinity 16.8400707
REMARK minimizedRMSD -1
REMARK  3 active torsions:
REMARK  status: ('A' for Active; 'I' for Inactive)
REMARK    1  A    between atoms: C3'_2  and  C2'_3 
REMARK    2  A    between atoms: C2'_3  and  C1'_4 
REMARK    3  A    between atoms: C1'_4  and  C1_5 
ROOT
ATOM      1  C1  N4B d   1      -3.362   1.145   3.751  0.00  0.00    -0.075 A 
ATOM      2  C2  N4B d   1      -2.902   1.171   5.086  0.00  0.00     0.002 A 
ATOM      3  C3  N4B d   1      -3.494   2.009   6.000  0.00  0.00     0.002 A 
ATOM      4  C4  N4B d   1      -4.530   2.839   5.599  0.00  0.00    -0.004 A 
ATOM      5  C5  N4B d   1      -4.985   2.789   4.314  0.00  0.00     0.002 A 
ATOM      6  C6  N4B d   1      -4.402   1.949   3.386  0.00  0.00     0.002 A 
ENDROOT
BRANCH   1   7
ATOM      7  C1' N4B d   1      -2.690   0.309   2.696  0.00  0.00     0.057 C 
BRANCH   7   8
ATOM      8  C2' N4B d   1      -1.380   0.976   2.288  0.00  0.00     0.009 C 
BRANCH   8   9
ATOM      9  C3' N4B d   1      -0.171   0.162   2.717  0.00  0.00     0.004 C 
ATOM     10  C4' N4B d   1       0.604   0.812   3.824  0.00  0.00     0.003 C 
ENDBRANCH   8   9
ENDBRANCH   7   8
ENDBRANCH   1   7
TORSDOF 3
ENDMDL
