MODEL 1
REMARK minimizedAffinity 3.30113482
REMARK minimizedRMSD -1
REMARK  0 active torsions:
REMARK  status: ('A' for Active; 'I' for Inactive)
ROOT
ATOM      1  O1  BZF d   1      -4.363   5.492  -5.734  0.00  0.00    -0.204 OA
ATOM      2  C2  BZF d   1      -5.302   4.480  -5.686  0.00  0.00     0.174 A 
ATOM      3  C3  BZF d   1      -4.710   3.272  -5.782  0.00  0.00    -0.012 A 
ATOM      4  C3A BZF d   1      -3.305   3.543  -5.803  0.00  0.00    -0.107 A 
ATOM      5  C4  BZF d   1      -2.197   2.748  -5.871  0.00  0.00     0.055 A 
ATOM      6  C5  BZF d   1      -0.971   3.329  -5.948  0.00  0.00    -0.016 A 
ATOM      7  C6  BZF d   1      -0.817   4.700  -5.963  0.00  0.00     0.022 A 
ATOM      8  C7  BZF d   1      -1.886   5.529  -5.893  0.00  0.00     0.029 A 
ATOM      9  C7A BZF d   1      -3.124   4.945  -5.782  0.00  0.00     0.058 A 
ENDROOT
TORSDOF 0
ENDMDL
