MODEL 1
REMARK minimizedAffinity 0.576837778
REMARK minimizedRMSD -1
REMARK  0 active torsions:
REMARK  status: ('A' for Active; 'I' for Inactive)
ROOT
ATOM      1  O1  BZF d   1       1.071   2.959  -5.996  0.00  0.00    -0.204 OA
ATOM      2  C2  BZF d   1       1.975   4.004  -5.977  0.00  0.00     0.174 A 
ATOM      3  C3  BZF d   1       1.335   5.191  -6.000  0.00  0.00    -0.012 A 
ATOM      4  C3A BZF d   1      -0.058   4.868  -5.941  0.00  0.00    -0.107 A 
ATOM      5  C4  BZF d   1      -1.196   5.623  -5.916  0.00  0.00     0.055 A 
ATOM      6  C5  BZF d   1      -2.403   4.998  -5.933  0.00  0.00    -0.016 A 
ATOM      7  C6  BZF d   1      -2.508   3.624  -5.979  0.00  0.00     0.022 A 
ATOM      8  C7  BZF d   1      -1.408   2.833  -6.000  0.00  0.00     0.029 A 
ATOM      9  C7A BZF d   1      -0.187   3.460  -5.950  0.00  0.00     0.058 A 
ENDROOT
TORSDOF 0
ENDMDL
