MODEL 1
REMARK minimizedAffinity -0.817059696
REMARK minimizedRMSD -1
REMARK  0 active torsions:
REMARK  status: ('A' for Active; 'I' for Inactive)
ROOT
ATOM      1  O1  BZF d   1       1.887   3.068  -5.966  0.00  0.00    -0.204 OA
ATOM      2  C2  BZF d   1       1.033   4.153  -5.999  0.00  0.00     0.174 A 
ATOM      3  C3  BZF d   1       1.727   5.309  -5.962  0.00  0.00    -0.012 A 
ATOM      4  C3A BZF d   1       3.104   4.923  -5.996  0.00  0.00    -0.107 A 
ATOM      5  C4  BZF d   1       4.276   5.623  -5.998  0.00  0.00     0.055 A 
ATOM      6  C5  BZF d   1       5.452   4.944  -5.961  0.00  0.00    -0.016 A 
ATOM      7  C6  BZF d   1       5.493   3.566  -5.916  0.00  0.00     0.022 A 
ATOM      8  C7  BZF d   1       4.357   2.827  -5.917  0.00  0.00     0.029 A 
ATOM      9  C7A BZF d   1       3.167   3.510  -5.988  0.00  0.00     0.058 A 
ENDROOT
TORSDOF 0
ENDMDL
