MODEL 1
REMARK minimizedAffinity 5.23338509
REMARK minimizedRMSD -1
REMARK  0 active torsions:
REMARK  status: ('A' for Active; 'I' for Inactive)
ROOT
ATOM      1  O1  BZF d   1      -2.830   2.727  -5.957  0.00  0.00    -0.204 OA
ATOM      2  C2  BZF d   1      -4.023   3.424  -5.951  0.00  0.00     0.174 A 
ATOM      3  C3  BZF d   1      -3.800   4.753  -5.909  0.00  0.00    -0.012 A 
ATOM      4  C3A BZF d   1      -2.379   4.899  -5.981  0.00  0.00    -0.107 A 
ATOM      5  C4  BZF d   1      -1.545   5.981  -5.997  0.00  0.00     0.055 A 
ATOM      6  C5  BZF d   1      -0.201   5.779  -5.999  0.00  0.00    -0.016 A 
ATOM      7  C6  BZF d   1       0.343   4.512  -5.980  0.00  0.00     0.022 A 
ATOM      8  C7  BZF d   1      -0.443   3.408  -5.968  0.00  0.00     0.029 A 
ATOM      9  C7A BZF d   1      -1.802   3.608  -5.999  0.00  0.00     0.058 A 
ENDROOT
TORSDOF 0
ENDMDL
