MODEL 1
REMARK minimizedAffinity 1.46004236
REMARK minimizedRMSD -1
REMARK  0 active torsions:
REMARK  status: ('A' for Active; 'I' for Inactive)
ROOT
ATOM      1  O1  BZF d   1       3.196   5.572  -5.981  0.00  0.00    -0.204 OA
ATOM      2  C2  BZF d   1       4.154   4.577  -6.000  0.00  0.00     0.174 A 
ATOM      3  C3  BZF d   1       3.579   3.358  -5.950  0.00  0.00    -0.012 A 
ATOM      4  C3A BZF d   1       2.170   3.605  -5.991  0.00  0.00    -0.107 A 
ATOM      5  C4  BZF d   1       1.074   2.791  -5.987  0.00  0.00     0.055 A 
ATOM      6  C5  BZF d   1      -0.165   3.350  -5.960  0.00  0.00    -0.016 A 
ATOM      7  C6  BZF d   1      -0.343   4.718  -5.932  0.00  0.00     0.022 A 
ATOM      8  C7  BZF d   1       0.714   5.566  -5.939  0.00  0.00     0.029 A 
ATOM      9  C7A BZF d   1       1.966   5.004  -6.000  0.00  0.00     0.058 A 
ENDROOT
TORSDOF 0
ENDMDL
