MODEL 1
REMARK minimizedAffinity 4.20545959
REMARK minimizedRMSD -1
REMARK  0 active torsions:
REMARK  status: ('A' for Active; 'I' for Inactive)
ROOT
ATOM      1  O1  BZF d   1      -2.239   2.013  -5.725  0.00  0.00    -0.204 OA
ATOM      2  C2  BZF d   1      -0.904   1.781  -5.993  0.00  0.00     0.174 A 
ATOM      3  C3  BZF d   1      -0.210   2.937  -6.000  0.00  0.00    -0.012 A 
ATOM      4  C3A BZF d   1      -1.154   3.945  -5.627  0.00  0.00    -0.107 A 
ATOM      5  C4  BZF d   1      -1.063   5.295  -5.444  0.00  0.00     0.055 A 
ATOM      6  C5  BZF d   1      -2.188   6.000  -5.152  0.00  0.00    -0.016 A 
ATOM      7  C6  BZF d   1      -3.419   5.388  -5.042  0.00  0.00     0.022 A 
ATOM      8  C7  BZF d   1      -3.559   4.051  -5.210  0.00  0.00     0.029 A 
ATOM      9  C7A BZF d   1      -2.418   3.331  -5.472  0.00  0.00     0.058 A 
ENDROOT
TORSDOF 0
ENDMDL
