MODEL 1
REMARK minimizedAffinity -1.42727208
REMARK minimizedRMSD -1
REMARK  0 active torsions:
REMARK  status: ('A' for Active; 'I' for Inactive)
ROOT
ATOM      1  O1  BZF d   1       0.567   5.191  -5.967  0.00  0.00    -0.204 OA
ATOM      2  C2  BZF d   1       1.413   4.099  -5.969  0.00  0.00     0.174 A 
ATOM      3  C3  BZF d   1       0.709   2.949  -5.922  0.00  0.00    -0.012 A 
ATOM      4  C3A BZF d   1      -0.664   3.346  -5.982  0.00  0.00    -0.107 A 
ATOM      5  C4  BZF d   1      -1.842   2.655  -5.989  0.00  0.00     0.055 A 
ATOM      6  C5  BZF d   1      -3.013   3.344  -5.981  0.00  0.00    -0.016 A 
ATOM      7  C6  BZF d   1      -3.043   4.723  -5.960  0.00  0.00     0.022 A 
ATOM      8  C7  BZF d   1      -1.901   5.453  -5.957  0.00  0.00     0.029 A 
ATOM      9  C7A BZF d   1      -0.716   4.759  -5.999  0.00  0.00     0.058 A 
ENDROOT
TORSDOF 0
ENDMDL
