MODEL 1
REMARK minimizedAffinity -2.52473688
REMARK minimizedRMSD -1
REMARK  0 active torsions:
REMARK  status: ('A' for Active; 'I' for Inactive)
ROOT
ATOM      1  O1  BZF d   1      -2.770   1.853  -5.974  0.00  0.00    -0.204 OA
ATOM      2  C2  BZF d   1      -3.588   2.966  -5.999  0.00  0.00     0.174 A 
ATOM      3  C3  BZF d   1      -2.858   4.099  -5.957  0.00  0.00    -0.012 A 
ATOM      4  C3A BZF d   1      -1.494   3.669  -5.997  0.00  0.00    -0.107 A 
ATOM      5  C4  BZF d   1      -0.300   4.331  -5.998  0.00  0.00     0.055 A 
ATOM      6  C5  BZF d   1       0.854   3.614  -5.968  0.00  0.00    -0.016 A 
ATOM      7  C6  BZF d   1       0.851   2.235  -5.931  0.00  0.00     0.022 A 
ATOM      8  C7  BZF d   1      -0.309   1.533  -5.933  0.00  0.00     0.029 A 
ATOM      9  C7A BZF d   1      -1.476   2.255  -5.997  0.00  0.00     0.058 A 
ENDROOT
TORSDOF 0
ENDMDL
