MODEL 1
REMARK minimizedAffinity 0.0819388479
REMARK minimizedRMSD -1
REMARK  0 active torsions:
REMARK  status: ('A' for Active; 'I' for Inactive)
ROOT
ATOM      1  O1  BZF d   1       0.528   2.709  -5.958  0.00  0.00    -0.204 OA
ATOM      2  C2  BZF d   1       1.680   3.471  -5.947  0.00  0.00     0.174 A 
ATOM      3  C3  BZF d   1       1.384   4.786  -5.999  0.00  0.00    -0.012 A 
ATOM      4  C3A BZF d   1      -0.044   4.852  -5.953  0.00  0.00    -0.107 A 
ATOM      5  C4  BZF d   1      -0.937   5.886  -5.956  0.00  0.00     0.055 A 
ATOM      6  C5  BZF d   1      -2.267   5.610  -5.977  0.00  0.00    -0.016 A 
ATOM      7  C6  BZF d   1      -2.740   4.314  -6.000  0.00  0.00     0.022 A 
ATOM      8  C7  BZF d   1      -1.893   3.256  -5.992  0.00  0.00     0.029 A 
ATOM      9  C7A BZF d   1      -0.549   3.531  -5.938  0.00  0.00     0.058 A 
ENDROOT
TORSDOF 0
ENDMDL
