MODEL 1
REMARK minimizedAffinity -1.16197395
REMARK minimizedRMSD -1
REMARK  0 active torsions:
REMARK  status: ('A' for Active; 'I' for Inactive)
ROOT
ATOM      1  O1  BZF d   1       0.578   2.616  -5.915  0.00  0.00    -0.204 OA
ATOM      2  C2  BZF d   1       1.409   3.719  -5.914  0.00  0.00     0.174 A 
ATOM      3  C3  BZF d   1       0.691   4.858  -5.992  0.00  0.00    -0.012 A 
ATOM      4  C3A BZF d   1      -0.678   4.444  -5.953  0.00  0.00    -0.107 A 
ATOM      5  C4  BZF d   1      -1.864   5.120  -5.979  0.00  0.00     0.055 A 
ATOM      6  C5  BZF d   1      -3.026   4.415  -6.000  0.00  0.00    -0.016 A 
ATOM      7  C6  BZF d   1      -3.038   3.035  -5.999  0.00  0.00     0.022 A 
ATOM      8  C7  BZF d   1      -1.886   2.321  -5.968  0.00  0.00     0.029 A 
ATOM      9  C7A BZF d   1      -0.712   3.031  -5.915  0.00  0.00     0.058 A 
ENDROOT
TORSDOF 0
ENDMDL
