MODEL 1
REMARK minimizedAffinity -0.592208624
REMARK minimizedRMSD -1
REMARK  0 active torsions:
REMARK  status: ('A' for Active; 'I' for Inactive)
ROOT
ATOM      1  O1  BZF d   1       1.057   5.725  -5.976  0.00  0.00    -0.204 OA
ATOM      2  C2  BZF d   1       1.946   4.668  -5.996  0.00  0.00     0.174 A 
ATOM      3  C3  BZF d   1       1.290   3.490  -5.951  0.00  0.00    -0.012 A 
ATOM      4  C3A BZF d   1      -0.099   3.831  -5.993  0.00  0.00    -0.107 A 
ATOM      5  C4  BZF d   1      -1.248   3.092  -5.992  0.00  0.00     0.055 A 
ATOM      6  C5  BZF d   1      -2.445   3.733  -5.965  0.00  0.00    -0.016 A 
ATOM      7  C6  BZF d   1      -2.532   5.110  -5.933  0.00  0.00     0.022 A 
ATOM      8  C7  BZF d   1      -1.420   5.885  -5.937  0.00  0.00     0.029 A 
ATOM      9  C7A BZF d   1      -0.209   5.241  -5.998  0.00  0.00     0.058 A 
ENDROOT
TORSDOF 0
ENDMDL
