MODEL 1
REMARK minimizedAffinity -1.821141
REMARK minimizedRMSD -1
REMARK  0 active torsions:
REMARK  status: ('A' for Active; 'I' for Inactive)
ROOT
ATOM      1  O1  BZF d   1      -3.484   4.472  -5.890  0.00  0.00    -0.204 OA
ATOM      2  C2  BZF d   1      -3.171   5.818  -5.889  0.00  0.00     0.174 A 
ATOM      3  C3  BZF d   1      -1.835   5.998  -5.871  0.00  0.00    -0.012 A 
ATOM      4  C3A BZF d   1      -1.276   4.684  -5.954  0.00  0.00    -0.107 A 
ATOM      5  C4  BZF d   1       0.003   4.208  -5.993  0.00  0.00     0.055 A 
ATOM      6  C5  BZF d   1       0.209   2.865  -6.000  0.00  0.00    -0.016 A 
ATOM      7  C6  BZF d   1      -0.840   1.970  -5.962  0.00  0.00     0.022 A 
ATOM      8  C7  BZF d   1      -2.127   2.394  -5.927  0.00  0.00     0.029 A 
ATOM      9  C7A BZF d   1      -2.339   3.751  -5.954  0.00  0.00     0.058 A 
ENDROOT
TORSDOF 0
ENDMDL
