MODEL 1
REMARK minimizedAffinity 9.49578381
REMARK minimizedRMSD -1
REMARK  0 active torsions:
REMARK  status: ('A' for Active; 'I' for Inactive)
ROOT
ATOM      1  O1  BZF d   1      -2.941   2.615  -5.610  0.00  0.00    -0.204 OA
ATOM      2  C2  BZF d   1      -4.212   3.143  -5.731  0.00  0.00     0.174 A 
ATOM      3  C3  BZF d   1      -4.165   4.487  -5.826  0.00  0.00    -0.012 A 
ATOM      4  C3A BZF d   1      -2.773   4.814  -5.853  0.00  0.00    -0.107 A 
ATOM      5  C4  BZF d   1      -2.087   5.991  -5.953  0.00  0.00     0.055 A 
ATOM      6  C5  BZF d   1      -0.730   5.973  -5.876  0.00  0.00    -0.016 A 
ATOM      7  C6  BZF d   1      -0.029   4.799  -5.694  0.00  0.00     0.022 A 
ATOM      8  C7  BZF d   1      -0.665   3.606  -5.595  0.00  0.00     0.029 A 
ATOM      9  C7A BZF d   1      -2.034   3.617  -5.706  0.00  0.00     0.058 A 
ENDROOT
TORSDOF 0
ENDMDL
