MODEL 1
REMARK minimizedAffinity -3.47550678
REMARK minimizedRMSD -1
REMARK  0 active torsions:
REMARK  status: ('A' for Active; 'I' for Inactive)
ROOT
ATOM      1  O1  BZF d   1      -0.390   4.602  -5.886  0.00  0.00    -0.204 OA
ATOM      2  C2  BZF d   1      -0.678   3.251  -5.901  0.00  0.00     0.174 A 
ATOM      3  C3  BZF d   1       0.453   2.522  -5.997  0.00  0.00    -0.012 A 
ATOM      4  C3A BZF d   1       1.519   3.474  -5.952  0.00  0.00    -0.107 A 
ATOM      5  C4  BZF d   1       2.880   3.363  -5.989  0.00  0.00     0.055 A 
ATOM      6  C5  BZF d   1       3.635   4.492  -6.000  0.00  0.00    -0.016 A 
ATOM      7  C6  BZF d   1       3.064   5.748  -5.979  0.00  0.00     0.022 A 
ATOM      8  C7  BZF d   1       1.719   5.909  -5.936  0.00  0.00     0.029 A 
ATOM      9  C7A BZF d   1       0.954   4.769  -5.893  0.00  0.00     0.058 A 
ENDROOT
TORSDOF 0
ENDMDL
