MODEL 1
REMARK minimizedAffinity -2.05999374
REMARK minimizedRMSD -1
REMARK  0 active torsions:
REMARK  status: ('A' for Active; 'I' for Inactive)
ROOT
ATOM      1  O1  BZF d   1      -0.726   3.009  -5.969  0.00  0.00    -0.204 OA
ATOM      2  C2  BZF d   1       0.315   3.916  -5.954  0.00  0.00     0.174 A 
ATOM      3  C3  BZF d   1      -0.151   5.181  -5.999  0.00  0.00    -0.012 A 
ATOM      4  C3A BZF d   1      -1.576   5.058  -5.951  0.00  0.00    -0.107 A 
ATOM      5  C4  BZF d   1      -2.597   5.965  -5.949  0.00  0.00     0.055 A 
ATOM      6  C5  BZF d   1      -3.880   5.515  -5.970  0.00  0.00    -0.016 A 
ATOM      7  C6  BZF d   1      -4.177   4.169  -6.000  0.00  0.00     0.022 A 
ATOM      8  C7  BZF d   1      -3.198   3.231  -5.998  0.00  0.00     0.029 A 
ATOM      9  C7A BZF d   1      -1.901   3.682  -5.943  0.00  0.00     0.058 A 
ENDROOT
TORSDOF 0
ENDMDL
