MODEL 1
REMARK minimizedAffinity -1.55907285
REMARK minimizedRMSD -1
REMARK  0 active torsions:
REMARK  status: ('A' for Active; 'I' for Inactive)
ROOT
ATOM      1  O1  BZF d   1       2.267   5.867  -5.998  0.00  0.00    -0.204 OA
ATOM      2  C2  BZF d   1       1.365   4.820  -5.985  0.00  0.00     0.174 A 
ATOM      3  C3  BZF d   1       2.008   3.635  -5.996  0.00  0.00    -0.012 A 
ATOM      4  C3A BZF d   1       3.400   3.961  -5.924  0.00  0.00    -0.107 A 
ATOM      5  C4  BZF d   1       4.539   3.209  -5.884  0.00  0.00     0.055 A 
ATOM      6  C5  BZF d   1       5.745   3.837  -5.889  0.00  0.00    -0.016 A 
ATOM      7  C6  BZF d   1       5.847   5.212  -5.939  0.00  0.00     0.022 A 
ATOM      8  C7  BZF d   1       4.745   5.999  -5.975  0.00  0.00     0.029 A 
ATOM      9  C7A BZF d   1       3.525   5.369  -5.936  0.00  0.00     0.058 A 
ENDROOT
TORSDOF 0
ENDMDL
