MODEL 1
REMARK minimizedAffinity -3.54225564
REMARK minimizedRMSD -1
REMARK  0 active torsions:
REMARK  status: ('A' for Active; 'I' for Inactive)
ROOT
ATOM      1  O1  BZF d   1      -4.020   3.494  -5.977  0.00  0.00    -0.204 OA
ATOM      2  C2  BZF d   1      -4.730   4.679  -6.000  0.00  0.00     0.174 A 
ATOM      3  C3  BZF d   1      -3.895   5.738  -5.958  0.00  0.00    -0.012 A 
ATOM      4  C3A BZF d   1      -2.578   5.180  -5.998  0.00  0.00    -0.107 A 
ATOM      5  C4  BZF d   1      -1.326   5.727  -6.000  0.00  0.00     0.055 A 
ATOM      6  C5  BZF d   1      -0.246   4.903  -5.971  0.00  0.00    -0.016 A 
ATOM      7  C6  BZF d   1      -0.380   3.531  -5.935  0.00  0.00     0.022 A 
ATOM      8  C7  BZF d   1      -1.600   2.942  -5.937  0.00  0.00     0.029 A 
ATOM      9  C7A BZF d   1      -2.694   3.771  -6.000  0.00  0.00     0.058 A 
ENDROOT
TORSDOF 0
ENDMDL
