MODEL 1
REMARK minimizedAffinity 2.98952746
REMARK minimizedRMSD -1
REMARK  0 active torsions:
REMARK  status: ('A' for Active; 'I' for Inactive)
ROOT
ATOM      1  O1  BZF d   1      -2.262   2.231  -5.967  0.00  0.00    -0.204 OA
ATOM      2  C2  BZF d   1      -1.079   1.517  -5.953  0.00  0.00     0.174 A 
ATOM      3  C3  BZF d   1      -0.018   2.347  -6.000  0.00  0.00    -0.012 A 
ATOM      4  C3A BZF d   1      -0.570   3.666  -5.952  0.00  0.00    -0.107 A 
ATOM      5  C4  BZF d   1      -0.018   4.915  -5.951  0.00  0.00     0.055 A 
ATOM      6  C5  BZF d   1      -0.837   5.999  -5.972  0.00  0.00    -0.016 A 
ATOM      7  C6  BZF d   1      -2.211   5.871  -6.000  0.00  0.00     0.022 A 
ATOM      8  C7  BZF d   1      -2.804   4.653  -5.997  0.00  0.00     0.029 A 
ATOM      9  C7A BZF d   1      -1.980   3.556  -5.943  0.00  0.00     0.058 A 
ENDROOT
TORSDOF 0
ENDMDL
