MODEL 1
REMARK minimizedAffinity 11.2679996
REMARK minimizedRMSD -1
REMARK  0 active torsions:
REMARK  status: ('A' for Active; 'I' for Inactive)
ROOT
ATOM      1  C   UNL d   1       3.715   2.128  -0.255  0.00  0.00    -0.002 A 
ATOM      2  C1  UNL d   1       2.678   2.635   0.515  0.00  0.00     0.010 A 
ATOM      3  C2  UNL d   1       1.426   2.879  -0.053  0.00  0.00     0.041 A 
ATOM      4  C3  UNL d   1       1.232   2.600  -1.420  0.00  0.00    -0.075 A 
ATOM      5  S   UNL d   1      -0.216   2.818  -2.330  0.00  0.00     0.015 SA
ATOM      6  C4  UNL d   1       0.508   2.242  -3.761  0.00  0.00     0.022 A 
ATOM      7  C5  UNL d   1       1.822   1.888  -3.568  0.00  0.00     0.026 A 
ATOM      8  C6  UNL d   1       2.261   2.087  -2.215  0.00  0.00    -0.082 A 
ATOM      9  C7  UNL d   1       3.519   1.852  -1.610  0.00  0.00     0.045 A 
ENDROOT
TORSDOF 0
ENDMDL
