MODEL 1
REMARK minimizedAffinity 6.83000708
REMARK minimizedRMSD -1
REMARK  0 active torsions:
REMARK  status: ('A' for Active; 'I' for Inactive)
ROOT
ATOM      1  C   UNL d   1       3.701   0.390  -1.904  0.00  0.00    -0.002 A 
ATOM      2  C1  UNL d   1       2.568  -0.236  -2.404  0.00  0.00     0.010 A 
ATOM      3  C2  UNL d   1       1.830  -1.112  -1.606  0.00  0.00     0.041 A 
ATOM      4  C3  UNL d   1       2.252  -1.349  -0.283  0.00  0.00    -0.075 A 
ATOM      5  S   UNL d   1       1.504  -2.381   0.878  0.00  0.00     0.015 SA
ATOM      6  C4  UNL d   1       2.670  -2.014   2.066  0.00  0.00     0.022 A 
ATOM      7  C5  UNL d   1       3.614  -1.128   1.605  0.00  0.00     0.026 A 
ATOM      8  C6  UNL d   1       3.389  -0.729   0.244  0.00  0.00    -0.082 A 
ATOM      9  C7  UNL d   1       4.116   0.153  -0.591  0.00  0.00     0.045 A 
ENDROOT
TORSDOF 0
ENDMDL
