MODEL 1
REMARK minimizedAffinity 5.0981369
REMARK minimizedRMSD -1
REMARK  0 active torsions:
REMARK  status: ('A' for Active; 'I' for Inactive)
ROOT
ATOM      1  C   UNL d   1       0.903  -1.720   0.326  0.00  0.00    -0.002 A 
ATOM      2  C1  UNL d   1       2.242  -1.663  -0.036  0.00  0.00     0.010 A 
ATOM      3  C2  UNL d   1       2.745  -0.558  -0.725  0.00  0.00     0.041 A 
ATOM      4  C3  UNL d   1       1.873   0.501  -1.046  0.00  0.00    -0.075 A 
ATOM      5  S   UNL d   1       2.267   1.955  -1.884  0.00  0.00     0.015 SA
ATOM      6  C4  UNL d   1       0.668   2.536  -1.781  0.00  0.00     0.022 A 
ATOM      7  C5  UNL d   1      -0.159   1.655  -1.126  0.00  0.00     0.026 A 
ATOM      8  C6  UNL d   1       0.521   0.467  -0.691  0.00  0.00    -0.082 A 
ATOM      9  C7  UNL d   1       0.041  -0.667   0.006  0.00  0.00     0.045 A 
ENDROOT
TORSDOF 0
ENDMDL
