MODEL 1
REMARK minimizedAffinity -3.07502627
REMARK minimizedRMSD -1
REMARK  1 active torsions:
REMARK  status: ('A' for Active; 'I' for Inactive)
REMARK    1  A    between atoms: C3_4  and  O_7 
ROOT
ATOM      1  C   UNL d   1      -0.369   1.310   0.286  0.00  0.00    -0.033 A 
ATOM      2  C1  UNL d   1       0.628   0.401  -0.077  0.00  0.00     0.039 A 
ATOM      3  C2  UNL d   1       0.499  -0.949   0.255  0.00  0.00    -0.080 A 
ATOM      4  C3  UNL d   1      -0.630  -1.377   0.949  0.00  0.00     0.150 A 
ATOM      5  C4  UNL d   1      -1.628  -0.478   1.310  0.00  0.00    -0.007 A 
ATOM      6  C5  UNL d   1      -1.497   0.870   0.978  0.00  0.00     0.039 A 
ENDROOT
BRANCH   4   7
ATOM      7  O   UNL d   1      -0.797  -2.683   1.300  0.00  0.00    -0.526 OA
ATOM      8  H5  UNL d   1      -0.016  -3.183   1.010  0.00  0.00     0.418 HD
ENDBRANCH   4   7
TORSDOF 1
ENDMDL
