MODEL 1
REMARK minimizedAffinity -4.90068197
REMARK minimizedRMSD -1
REMARK  1 active torsions:
REMARK  status: ('A' for Active; 'I' for Inactive)
REMARK    1  A    between atoms: C3_4  and  O_7 
ROOT
ATOM      1  C   UNL d   1       0.590   1.215   0.075  0.00  0.00    -0.033 A 
ATOM      2  C1  UNL d   1      -0.796   1.076  -0.013  0.00  0.00     0.039 A 
ATOM      3  C2  UNL d   1      -1.421  -0.056   0.514  0.00  0.00    -0.080 A 
ATOM      4  C3  UNL d   1      -0.650  -1.040   1.125  0.00  0.00     0.150 A 
ATOM      5  C4  UNL d   1       0.731  -0.907   1.220  0.00  0.00    -0.007 A 
ATOM      6  C5  UNL d   1       1.354   0.224   0.693  0.00  0.00     0.039 A 
ENDROOT
BRANCH   4   7
ATOM      7  O   UNL d   1      -1.215  -2.165   1.650  0.00  0.00    -0.526 OA
ATOM      8  H5  UNL d   1      -2.172  -2.133   1.486  0.00  0.00     0.418 HD
ENDBRANCH   4   7
TORSDOF 1
ENDMDL
