MODEL 1
REMARK minimizedAffinity -3.17079735
REMARK minimizedRMSD -1
REMARK  1 active torsions:
REMARK  status: ('A' for Active; 'I' for Inactive)
REMARK    1  A    between atoms: C3_4  and  O_7 
ROOT
ATOM      1  C   UNL d   1      -0.174   0.876   0.196  0.00  0.00    -0.033 A 
ATOM      2  C1  UNL d   1      -0.986   0.410   1.231  0.00  0.00     0.039 A 
ATOM      3  C2  UNL d   1      -1.154  -0.962   1.426  0.00  0.00    -0.080 A 
ATOM      4  C3  UNL d   1      -0.505  -1.857   0.580  0.00  0.00     0.150 A 
ATOM      5  C4  UNL d   1       0.309  -1.400  -0.452  0.00  0.00    -0.007 A 
ATOM      6  C5  UNL d   1       0.475  -0.029  -0.645  0.00  0.00     0.039 A 
ENDROOT
BRANCH   4   7
ATOM      7  O   UNL d   1      -0.642  -3.205   0.728  0.00  0.00    -0.526 OA
ATOM      8  H5  UNL d   1      -1.255  -3.373   1.462  0.00  0.00     0.418 HD
ENDBRANCH   4   7
TORSDOF 1
ENDMDL
