MODEL 1
REMARK minimizedAffinity -3.82808757
REMARK minimizedRMSD -1
REMARK  1 active torsions:
REMARK  status: ('A' for Active; 'I' for Inactive)
REMARK    1  A    between atoms: C3_4  and  O_7 
ROOT
ATOM      1  C   UNL d   1       0.394   0.653  -0.229  0.00  0.00    -0.033 A 
ATOM      2  C1  UNL d   1      -0.996   0.552  -0.303  0.00  0.00     0.039 A 
ATOM      3  C2  UNL d   1      -1.647  -0.559   0.238  0.00  0.00    -0.080 A 
ATOM      4  C3  UNL d   1      -0.897  -1.558   0.851  0.00  0.00     0.150 A 
ATOM      5  C4  UNL d   1       0.488  -1.462   0.933  0.00  0.00    -0.007 A 
ATOM      6  C5  UNL d   1       1.136  -0.353   0.390  0.00  0.00     0.039 A 
ENDROOT
BRANCH   4   7
ATOM      7  O   UNL d   1      -1.487  -2.663   1.390  0.00  0.00    -0.526 OA
ATOM      8  H5  UNL d   1      -2.445  -2.607   1.235  0.00  0.00     0.418 HD
ENDBRANCH   4   7
TORSDOF 1
ENDMDL
