MODEL 1
REMARK minimizedAffinity -3.232759
REMARK minimizedRMSD -1
REMARK  1 active torsions:
REMARK  status: ('A' for Active; 'I' for Inactive)
REMARK    1  A    between atoms: C3_4  and  O_7 
ROOT
ATOM      1  C   UNL d   1       0.455   1.189  -0.089  0.00  0.00    -0.033 A 
ATOM      2  C1  UNL d   1       0.314   1.133  -1.476  0.00  0.00     0.039 A 
ATOM      3  C2  UNL d   1       0.409  -0.091  -2.141  0.00  0.00    -0.080 A 
ATOM      4  C3  UNL d   1       0.645  -1.250  -1.407  0.00  0.00     0.150 A 
ATOM      5  C4  UNL d   1       0.783  -1.203  -0.024  0.00  0.00    -0.007 A 
ATOM      6  C5  UNL d   1       0.688   0.021   0.638  0.00  0.00     0.039 A 
ENDROOT
BRANCH   4   7
ATOM      7  O   UNL d   1       0.751  -2.467  -2.012  0.00  0.00    -0.526 OA
ATOM      8  H5  UNL d   1       0.664  -2.343  -2.972  0.00  0.00     0.418 HD
ENDBRANCH   4   7
TORSDOF 1
ENDMDL
