MODEL 1
REMARK minimizedAffinity -3.12129736
REMARK minimizedRMSD -1
REMARK  1 active torsions:
REMARK  status: ('A' for Active; 'I' for Inactive)
REMARK    1  A    between atoms: C3_4  and  O_7 
ROOT
ATOM      1  C   UNL d   1      -0.163   0.706  -0.687  0.00  0.00    -0.033 A 
ATOM      2  C1  UNL d   1      -0.092  -0.189  -1.756  0.00  0.00     0.039 A 
ATOM      3  C2  UNL d   1      -0.492  -1.516  -1.585  0.00  0.00    -0.080 A 
ATOM      4  C3  UNL d   1      -0.962  -1.933  -0.343  0.00  0.00     0.150 A 
ATOM      5  C4  UNL d   1      -1.040  -1.045   0.725  0.00  0.00    -0.007 A 
ATOM      6  C5  UNL d   1      -0.639   0.279   0.553  0.00  0.00     0.039 A 
ENDROOT
BRANCH   4   7
ATOM      7  O   UNL d   1      -1.360  -3.219  -0.127  0.00  0.00    -0.526 OA
ATOM      8  H5  UNL d   1      -1.223  -3.725  -0.945  0.00  0.00     0.418 HD
ENDBRANCH   4   7
TORSDOF 1
ENDMDL
