MODEL 1
REMARK minimizedAffinity -4.59603453
REMARK minimizedRMSD -1
REMARK  1 active torsions:
REMARK  status: ('A' for Active; 'I' for Inactive)
REMARK    1  A    between atoms: C3_4  and  O_7 
ROOT
ATOM      1  C   UNL d   1      -0.034  -3.219   0.116  0.00  0.00    -0.033 A 
ATOM      2  C1  UNL d   1       0.107  -2.536  -1.094  0.00  0.00     0.039 A 
ATOM      3  C2  UNL d   1       0.374  -1.166  -1.096  0.00  0.00    -0.080 A 
ATOM      4  C3  UNL d   1       0.498  -0.491   0.115  0.00  0.00     0.150 A 
ATOM      5  C4  UNL d   1       0.362  -1.166   1.324  0.00  0.00    -0.007 A 
ATOM      6  C5  UNL d   1       0.094  -2.534   1.325  0.00  0.00     0.039 A 
ENDROOT
BRANCH   4   7
ATOM      7  O   UNL d   1       0.753   0.847   0.163  0.00  0.00    -0.526 OA
ATOM      8  H5  UNL d   1       0.793   1.185  -0.747  0.00  0.00     0.418 HD
ENDBRANCH   4   7
TORSDOF 1
ENDMDL
