MODEL 1
REMARK minimizedAffinity -2.38642383
REMARK minimizedRMSD -1
REMARK  1 active torsions:
REMARK  status: ('A' for Active; 'I' for Inactive)
REMARK    1  A    between atoms: C3_4  and  O_7 
ROOT
ATOM      1  C   UNL d   1       0.696   1.533  -0.057  0.00  0.00    -0.033 A 
ATOM      2  C1  UNL d   1       1.059   0.943   1.155  0.00  0.00     0.039 A 
ATOM      3  C2  UNL d   1       0.415  -0.218   1.588  0.00  0.00    -0.080 A 
ATOM      4  C3  UNL d   1      -0.588  -0.778   0.801  0.00  0.00     0.150 A 
ATOM      5  C4  UNL d   1      -0.952  -0.196  -0.409  0.00  0.00    -0.007 A 
ATOM      6  C5  UNL d   1      -0.309   0.963  -0.840  0.00  0.00     0.039 A 
ENDROOT
BRANCH   4   7
ATOM      7  O   UNL d   1      -1.248  -1.907   1.185  0.00  0.00    -0.526 OA
ATOM      8  H5  UNL d   1      -0.911  -2.180   2.054  0.00  0.00     0.418 HD
ENDBRANCH   4   7
TORSDOF 1
ENDMDL
