MODEL 1
REMARK minimizedAffinity -3.54423666
REMARK minimizedRMSD -1
REMARK  1 active torsions:
REMARK  status: ('A' for Active; 'I' for Inactive)
REMARK    1  A    between atoms: C3_4  and  O_7 
ROOT
ATOM      1  C   UNL d   1       0.444   1.271  -0.158  0.00  0.00    -0.033 A 
ATOM      2  C1  UNL d   1       0.319   0.893   1.180  0.00  0.00     0.039 A 
ATOM      3  C2  UNL d   1      -0.109  -0.396   1.507  0.00  0.00    -0.080 A 
ATOM      4  C3  UNL d   1      -0.407  -1.296   0.487  0.00  0.00     0.150 A 
ATOM      5  C4  UNL d   1      -0.280  -0.927  -0.848  0.00  0.00    -0.007 A 
ATOM      6  C5  UNL d   1       0.146   0.360  -1.172  0.00  0.00     0.039 A 
ENDROOT
BRANCH   4   7
ATOM      7  O   UNL d   1      -0.832  -2.562   0.756  0.00  0.00    -0.526 OA
ATOM      8  H5  UNL d   1      -0.899  -2.666   1.720  0.00  0.00     0.418 HD
ENDBRANCH   4   7
TORSDOF 1
ENDMDL
