MODEL 1
REMARK minimizedAffinity -4.15106773
REMARK minimizedRMSD -1
REMARK  1 active torsions:
REMARK  status: ('A' for Active; 'I' for Inactive)
REMARK    1  A    between atoms: C3_4  and  O_7 
ROOT
ATOM      1  C   UNL d   1      -0.688  -2.209   0.988  0.00  0.00    -0.033 A 
ATOM      2  C1  UNL d   1      -0.555  -0.824   0.875  0.00  0.00     0.039 A 
ATOM      3  C2  UNL d   1      -0.210  -0.252  -0.351  0.00  0.00    -0.080 A 
ATOM      4  C3  UNL d   1      -0.003  -1.075  -1.455  0.00  0.00     0.150 A 
ATOM      5  C4  UNL d   1      -0.138  -2.455  -1.350  0.00  0.00    -0.007 A 
ATOM      6  C5  UNL d   1      -0.481  -3.025  -0.124  0.00  0.00     0.039 A 
ENDROOT
BRANCH   4   7
ATOM      7  O   UNL d   1       0.339  -0.563  -2.671  0.00  0.00    -0.526 OA
ATOM      8  H5  UNL d   1       0.424   0.401  -2.587  0.00  0.00     0.418 HD
ENDBRANCH   4   7
TORSDOF 1
ENDMDL
