MODEL 1
REMARK minimizedAffinity -1.80306673
REMARK minimizedRMSD -1
REMARK  1 active torsions:
REMARK  status: ('A' for Active; 'I' for Inactive)
REMARK    1  A    between atoms: C3_4  and  O_7 
ROOT
ATOM      1  C   UNL d   1      -1.215  -3.054   0.390  0.00  0.00    -0.033 A 
ATOM      2  C1  UNL d   1      -0.809  -2.622  -0.874  0.00  0.00     0.039 A 
ATOM      3  C2  UNL d   1      -0.424  -1.294  -1.070  0.00  0.00    -0.080 A 
ATOM      4  C3  UNL d   1      -0.449  -0.410   0.005  0.00  0.00     0.150 A 
ATOM      5  C4  UNL d   1      -0.849  -0.834   1.268  0.00  0.00    -0.007 A 
ATOM      6  C5  UNL d   1      -1.234  -2.160   1.461  0.00  0.00     0.039 A 
ENDROOT
BRANCH   4   7
ATOM      7  O   UNL d   1      -0.087   0.897  -0.139  0.00  0.00    -0.526 OA
ATOM      8  H5  UNL d   1       0.138   1.053  -1.071  0.00  0.00     0.418 HD
ENDBRANCH   4   7
TORSDOF 1
ENDMDL
