MODEL 1
REMARK minimizedAffinity -3.46772623
REMARK minimizedRMSD -1
REMARK  1 active torsions:
REMARK  status: ('A' for Active; 'I' for Inactive)
REMARK    1  A    between atoms: C3_4  and  O_7 
ROOT
ATOM      1  C   UNL d   1      -0.766  -2.466  -0.837  0.00  0.00    -0.033 A 
ATOM      2  C1  UNL d   1      -0.245  -1.739  -1.909  0.00  0.00     0.039 A 
ATOM      3  C2  UNL d   1       0.054  -0.384  -1.756  0.00  0.00    -0.080 A 
ATOM      4  C3  UNL d   1      -0.171   0.231  -0.527  0.00  0.00     0.150 A 
ATOM      5  C4  UNL d   1      -0.686  -0.489   0.546  0.00  0.00    -0.007 A 
ATOM      6  C5  UNL d   1      -0.985  -1.842   0.391  0.00  0.00     0.039 A 
ENDROOT
BRANCH   4   7
ATOM      7  O   UNL d   1       0.101   1.552  -0.331  0.00  0.00    -0.526 OA
ATOM      8  H5  UNL d   1       0.424   1.928  -1.167  0.00  0.00     0.418 HD
ENDBRANCH   4   7
TORSDOF 1
ENDMDL
