MODEL 1
REMARK minimizedAffinity -2.54424977
REMARK minimizedRMSD -1
REMARK  1 active torsions:
REMARK  status: ('A' for Active; 'I' for Inactive)
REMARK    1  A    between atoms: C3_4  and  O_7 
ROOT
ATOM      1  C   UNL d   1       0.308   1.378   0.163  0.00  0.00    -0.033 A 
ATOM      2  C1  UNL d   1      -0.258   0.572  -0.827  0.00  0.00     0.039 A 
ATOM      3  C2  UNL d   1      -0.737  -0.699  -0.505  0.00  0.00    -0.080 A 
ATOM      4  C3  UNL d   1      -0.647  -1.152   0.808  0.00  0.00     0.150 A 
ATOM      5  C4  UNL d   1      -0.088  -0.352   1.800  0.00  0.00    -0.007 A 
ATOM      6  C5  UNL d   1       0.391   0.916   1.477  0.00  0.00     0.039 A 
ENDROOT
BRANCH   4   7
ATOM      7  O   UNL d   1      -1.097  -2.387   1.169  0.00  0.00    -0.526 OA
ATOM      8  H5  UNL d   1      -1.430  -2.837   0.375  0.00  0.00     0.418 HD
ENDBRANCH   4   7
TORSDOF 1
ENDMDL
