MODEL 1
REMARK minimizedAffinity -2.92750597
REMARK minimizedRMSD -1
REMARK  1 active torsions:
REMARK  status: ('A' for Active; 'I' for Inactive)
REMARK    1  A    between atoms: C3_4  and  O_7 
ROOT
ATOM      1  C   UNL d   1       1.778   4.469   1.300  0.00  0.00    -0.033 A 
ATOM      2  C1  UNL d   1       1.628   4.322  -0.080  0.00  0.00     0.039 A 
ATOM      3  C2  UNL d   1       1.100   3.140  -0.605  0.00  0.00    -0.080 A 
ATOM      4  C3  UNL d   1       0.725   2.116   0.260  0.00  0.00     0.150 A 
ATOM      5  C4  UNL d   1       0.868   2.258   1.636  0.00  0.00    -0.007 A 
ATOM      6  C5  UNL d   1       1.396   3.438   2.158  0.00  0.00     0.039 A 
ENDROOT
BRANCH   4   7
ATOM      7  O   UNL d   1       0.210   0.943  -0.205  0.00  0.00    -0.526 OA
ATOM      8  H5  UNL d   1       0.196   0.977  -1.177  0.00  0.00     0.418 HD
ENDBRANCH   4   7
TORSDOF 1
ENDMDL
