MODEL 1
REMARK minimizedAffinity -1.55822957
REMARK minimizedRMSD -1
REMARK  1 active torsions:
REMARK  status: ('A' for Active; 'I' for Inactive)
REMARK    1  A    between atoms: C3_4  and  O_7 
ROOT
ATOM      1  C   UNL d   1       2.545   4.131   1.140  0.00  0.00    -0.033 A 
ATOM      2  C1  UNL d   1       3.027   2.821   1.110  0.00  0.00     0.039 A 
ATOM      3  C2  UNL d   1       2.174   1.769   0.772  0.00  0.00    -0.080 A 
ATOM      4  C3  UNL d   1       0.843   2.039   0.467  0.00  0.00     0.150 A 
ATOM      5  C4  UNL d   1       0.357   3.342   0.491  0.00  0.00    -0.007 A 
ATOM      6  C5  UNL d   1       1.210   4.391   0.829  0.00  0.00     0.039 A 
ENDROOT
BRANCH   4   7
ATOM      7  O   UNL d   1      -0.028   1.044   0.136  0.00  0.00    -0.526 OA
ATOM      8  H5  UNL d   1       0.440   0.194   0.189  0.00  0.00     0.418 HD
ENDBRANCH   4   7
TORSDOF 1
ENDMDL
