MODEL 1
REMARK minimizedAffinity -4.91992903
REMARK minimizedRMSD -1
REMARK  0 active torsions:
REMARK  status: ('A' for Active; 'I' for Inactive)
ROOT
ATOM      1  O1  BZF d   1      -0.124   1.788  -1.274  0.00  0.00    -0.204 OA
ATOM      2  C2  BZF d   1       0.093   0.838  -2.253  0.00  0.00     0.174 A 
ATOM      3  C3  BZF d   1       0.513  -0.322  -1.709  0.00  0.00    -0.012 A 
ATOM      4  C3A BZF d   1       0.472  -0.112  -0.295  0.00  0.00    -0.107 A 
ATOM      5  C4  BZF d   1       0.759  -0.903   0.781  0.00  0.00     0.055 A 
ATOM      6  C5  BZF d   1       0.687  -0.371   2.030  0.00  0.00    -0.016 A 
ATOM      7  C6  BZF d   1       0.336   0.947   2.239  0.00  0.00     0.022 A 
ATOM      8  C7  BZF d   1       0.038   1.769   1.203  0.00  0.00     0.029 A 
ATOM      9  C7A BZF d   1       0.078   1.226  -0.058  0.00  0.00     0.058 A 
ENDROOT
TORSDOF 0
ENDMDL
