MODEL 1
REMARK minimizedAffinity -2.38999796
REMARK minimizedRMSD -1
REMARK  0 active torsions:
REMARK  status: ('A' for Active; 'I' for Inactive)
ROOT
ATOM      1  O1  BZF d   1      -1.279  -3.250  -0.133  0.00  0.00    -0.204 OA
ATOM      2  C2  BZF d   1      -1.007  -4.030  -1.241  0.00  0.00     0.174 A 
ATOM      3  C3  BZF d   1      -0.245  -3.355  -2.125  0.00  0.00    -0.012 A 
ATOM      4  C3A BZF d   1       0.050  -2.106  -1.492  0.00  0.00    -0.107 A 
ATOM      5  C4  BZF d   1       0.780  -1.014  -1.864  0.00  0.00     0.055 A 
ATOM      6  C5  BZF d   1       0.808   0.072  -1.047  0.00  0.00    -0.016 A 
ATOM      7  C6  BZF d   1       0.114   0.101   0.145  0.00  0.00     0.022 A 
ATOM      8  C7  BZF d   1      -0.620  -0.960   0.559  0.00  0.00     0.029 A 
ATOM      9  C7A BZF d   1      -0.623  -2.071  -0.249  0.00  0.00     0.058 A 
ENDROOT
TORSDOF 0
ENDMDL
