MODEL 1
REMARK minimizedAffinity 0.522102475
REMARK minimizedRMSD -1
REMARK  0 active torsions:
REMARK  status: ('A' for Active; 'I' for Inactive)
ROOT
ATOM      1  O1  BZF d   1       0.773  -2.657  -0.293  0.00  0.00    -0.204 OA
ATOM      2  C2  BZF d   1       0.439  -3.061  -1.571  0.00  0.00     0.174 A 
ATOM      3  C3  BZF d   1      -0.070  -2.032  -2.280  0.00  0.00    -0.012 A 
ATOM      4  C3A BZF d   1       0.032  -0.895  -1.418  0.00  0.00    -0.107 A 
ATOM      5  C4  BZF d   1      -0.295   0.423  -1.561  0.00  0.00     0.055 A 
ATOM      6  C5  BZF d   1      -0.137   1.262  -0.503  0.00  0.00    -0.016 A 
ATOM      7  C6  BZF d   1       0.340   0.815   0.712  0.00  0.00     0.022 A 
ATOM      8  C7  BZF d   1       0.683  -0.482   0.900  0.00  0.00     0.029 A 
ATOM      9  C7A BZF d   1       0.555  -1.325  -0.177  0.00  0.00     0.058 A 
ENDROOT
TORSDOF 0
ENDMDL
