MODEL 1
REMARK minimizedAffinity -6.35905743
REMARK minimizedRMSD -1
REMARK  0 active torsions:
REMARK  status: ('A' for Active; 'I' for Inactive)
ROOT
ATOM      1  O1  BZF d   1       0.482   0.329  -1.135  0.00  0.00    -0.204 OA
ATOM      2  C2  BZF d   1       0.902  -0.575  -0.179  0.00  0.00     0.174 A 
ATOM      3  C3  BZF d   1       0.564  -0.155   1.057  0.00  0.00    -0.012 A 
ATOM      4  C3A BZF d   1      -0.190   1.044   0.855  0.00  0.00    -0.107 A 
ATOM      5  C4  BZF d   1      -0.811   1.916   1.702  0.00  0.00     0.055 A 
ATOM      6  C5  BZF d   1      -1.398   3.029   1.189  0.00  0.00    -0.016 A 
ATOM      7  C6  BZF d   1      -1.378   3.304  -0.163  0.00  0.00     0.022 A 
ATOM      8  C7  BZF d   1      -0.778   2.466  -1.042  0.00  0.00     0.029 A 
ATOM      9  C7A BZF d   1      -0.212   1.323  -0.531  0.00  0.00     0.058 A 
ENDROOT
TORSDOF 0
ENDMDL
