MODEL 1
REMARK minimizedAffinity 6.72085476
REMARK minimizedRMSD -1
REMARK  0 active torsions:
REMARK  status: ('A' for Active; 'I' for Inactive)
ROOT
ATOM      1  O1  BZF d   1       0.629   0.103  -1.275  0.00  0.00    -0.204 OA
ATOM      2  C2  BZF d   1      -0.281   1.135  -1.398  0.00  0.00     0.174 A 
ATOM      3  C3  BZF d   1      -0.681   1.568  -0.186  0.00  0.00    -0.012 A 
ATOM      4  C3A BZF d   1       0.093   0.818   0.756  0.00  0.00    -0.107 A 
ATOM      5  C4  BZF d   1       0.160   0.808   2.120  0.00  0.00     0.055 A 
ATOM      6  C5  BZF d   1       0.966  -0.096   2.735  0.00  0.00    -0.016 A 
ATOM      7  C6  BZF d   1       1.714  -1.007   2.019  0.00  0.00     0.022 A 
ATOM      8  C7  BZF d   1       1.684  -1.033   0.664  0.00  0.00     0.029 A 
ATOM      9  C7A BZF d   1       0.896  -0.098   0.038  0.00  0.00     0.058 A 
ENDROOT
TORSDOF 0
ENDMDL
