MODEL 1
REMARK minimizedAffinity 5.38773775
REMARK minimizedRMSD -1
REMARK  0 active torsions:
REMARK  status: ('A' for Active; 'I' for Inactive)
ROOT
ATOM      1  O1  BZF d   1       0.844   2.673   3.477  0.00  0.00    -0.204 OA
ATOM      2  C2  BZF d   1       1.725   3.723   3.302  0.00  0.00     0.174 A 
ATOM      3  C3  BZF d   1       1.862   4.019   1.993  0.00  0.00    -0.012 A 
ATOM      4  C3A BZF d   1       0.944   3.158   1.314  0.00  0.00    -0.107 A 
ATOM      5  C4  BZF d   1       0.609   2.991   0.001  0.00  0.00     0.055 A 
ATOM      6  C5  BZF d   1      -0.273   2.014  -0.337  0.00  0.00    -0.016 A 
ATOM      7  C6  BZF d   1      -0.833   1.182   0.610  0.00  0.00     0.022 A 
ATOM      8  C7  BZF d   1      -0.536   1.312   1.926  0.00  0.00     0.029 A 
ATOM      9  C7A BZF d   1       0.329   2.321   2.274  0.00  0.00     0.058 A 
ENDROOT
TORSDOF 0
ENDMDL
