MODEL 1
REMARK minimizedAffinity -3.04989481
REMARK minimizedRMSD -1
REMARK  1 active torsions:
REMARK  status: ('A' for Active; 'I' for Inactive)
REMARK    1  A    between atoms: C1_2  and  C2_3 
ROOT
ATOM      1  C2  UNL d   1      -1.441   0.213   0.879  0.00  0.00    -0.081 A 
ATOM      2  C3  UNL d   1      -1.093  -1.107   1.190  0.00  0.00     0.006 A 
ATOM      3  C4  UNL d   1      -0.164  -1.798   0.408  0.00  0.00     0.002 A 
ATOM      4  C5  UNL d   1       0.438  -1.178  -0.692  0.00  0.00    -0.080 A 
ATOM      5  C6  UNL d   1       1.459  -1.899  -1.521  0.00  0.00     0.076 C 
ATOM      6  C7  UNL d   1       0.078   0.135  -1.014  0.00  0.00     0.002 A 
ATOM      7  C8  UNL d   1      -0.851   0.826  -0.233  0.00  0.00     0.006 A 
ENDROOT
BRANCH   1   8
ATOM      8  C1  UNL d   1      -2.393   0.983   1.757  0.00  0.00     0.054 C 
ATOM      9  C   UNL d   1      -1.804   1.216   3.141  0.00  0.00     0.018 C 
ENDBRANCH   1   8
TORSDOF 1
ENDMDL
