MODEL 1
REMARK minimizedAffinity -2.75273871
REMARK minimizedRMSD -1
REMARK  1 active torsions:
REMARK  status: ('A' for Active; 'I' for Inactive)
REMARK    1  A    between atoms: C1_2  and  C2_3 
ROOT
ATOM      1  C2  UNL d   1      -3.433  -0.768   3.970  0.00  0.00    -0.081 A 
ATOM      2  C3  UNL d   1      -2.986  -0.806   2.643  0.00  0.00     0.006 A 
ATOM      3  C4  UNL d   1      -2.258   0.261   2.111  0.00  0.00     0.002 A 
ATOM      4  C5  UNL d   1      -1.959   1.379   2.896  0.00  0.00    -0.080 A 
ATOM      5  C6  UNL d   1      -1.153   2.517   2.346  0.00  0.00     0.076 C 
ATOM      6  C7  UNL d   1      -2.421   1.425   4.216  0.00  0.00     0.002 A 
ATOM      7  C8  UNL d   1      -3.150   0.359   4.749  0.00  0.00     0.006 A 
ENDROOT
BRANCH   1   8
ATOM      8  C1  UNL d   1      -4.162  -1.944   4.567  0.00  0.00     0.054 C 
ATOM      9  C   UNL d   1      -5.276  -2.428   3.649  0.00  0.00     0.018 C 
ENDBRANCH   1   8
TORSDOF 1
ENDMDL
