MODEL 1
REMARK minimizedAffinity -3.2925806
REMARK minimizedRMSD -1
REMARK  1 active torsions:
REMARK  status: ('A' for Active; 'I' for Inactive)
REMARK    1  A    between atoms: C1_2  and  C2_3 
ROOT
ATOM      1  C2  UNL d   1      -1.128  -0.008   1.063  0.00  0.00    -0.081 A 
ATOM      2  C3  UNL d   1      -0.509  -1.257   1.195  0.00  0.00     0.006 A 
ATOM      3  C4  UNL d   1       0.533  -1.624   0.340  0.00  0.00     0.002 A 
ATOM      4  C5  UNL d   1       0.979  -0.746  -0.654  0.00  0.00    -0.080 A 
ATOM      5  C6  UNL d   1       2.117  -1.116  -1.558  0.00  0.00     0.076 C 
ATOM      6  C7  UNL d   1       0.348   0.494  -0.797  0.00  0.00     0.002 A 
ATOM      7  C8  UNL d   1      -0.694   0.862   0.057  0.00  0.00     0.006 A 
ENDROOT
BRANCH   1   8
ATOM      8  C1  UNL d   1      -2.209   0.417   2.024  0.00  0.00     0.054 C 
ATOM      9  C   UNL d   1      -1.664   1.358   3.089  0.00  0.00     0.018 C 
ENDBRANCH   1   8
TORSDOF 1
ENDMDL
