MODEL 1
REMARK minimizedAffinity -4.16702604
REMARK minimizedRMSD -1
REMARK  1 active torsions:
REMARK  status: ('A' for Active; 'I' for Inactive)
REMARK    1  A    between atoms: C1_2  and  C2_3 
ROOT
ATOM      1  C2  UNL d   1      -1.335   0.390   1.252  0.00  0.00    -0.081 A 
ATOM      2  C3  UNL d   1      -1.493   0.401  -0.140  0.00  0.00     0.006 A 
ATOM      3  C4  UNL d   1      -0.435   0.036  -0.976  0.00  0.00     0.002 A 
ATOM      4  C5  UNL d   1       0.795  -0.354  -0.435  0.00  0.00    -0.080 A 
ATOM      5  C6  UNL d   1       1.929  -0.778  -1.321  0.00  0.00     0.076 C 
ATOM      6  C7  UNL d   1       0.958  -0.348   0.954  0.00  0.00     0.002 A 
ATOM      7  C8  UNL d   1      -0.098   0.018   1.791  0.00  0.00     0.006 A 
ENDROOT
BRANCH   1   8
ATOM      8  C1  UNL d   1      -2.493   0.721   2.158  0.00  0.00     0.054 C 
ATOM      9  C   UNL d   1      -2.054   0.793   3.613  0.00  0.00     0.018 C 
ENDBRANCH   1   8
TORSDOF 1
ENDMDL
