MODEL 1
REMARK minimizedAffinity -4.6154995
REMARK minimizedRMSD -1
REMARK  1 active torsions:
REMARK  status: ('A' for Active; 'I' for Inactive)
REMARK    1  A    between atoms: C1_2  and  C2_3 
ROOT
ATOM      1  C2  UNL d   1      -1.117   0.095   0.103  0.00  0.00    -0.081 A 
ATOM      2  C3  UNL d   1      -0.574  -1.195   0.093  0.00  0.00     0.006 A 
ATOM      3  C4  UNL d   1       0.712  -1.419  -0.403  0.00  0.00     0.002 A 
ATOM      4  C5  UNL d   1       1.480  -0.356  -0.889  0.00  0.00    -0.080 A 
ATOM      5  C6  UNL d   1       2.874  -0.578  -1.396  0.00  0.00     0.076 C 
ATOM      6  C7  UNL d   1       0.932   0.931  -0.896  0.00  0.00     0.002 A 
ATOM      7  C8  UNL d   1      -0.355   1.155  -0.401  0.00  0.00     0.006 A 
ENDROOT
BRANCH   1   8
ATOM      8  C1  UNL d   1      -2.479   0.350   0.696  0.00  0.00     0.054 C 
ATOM      9  C   UNL d   1      -2.384   0.674   2.180  0.00  0.00     0.018 C 
ENDBRANCH   1   8
TORSDOF 1
ENDMDL
