MODEL 1
REMARK minimizedAffinity -4.50348997
REMARK minimizedRMSD -1
REMARK  1 active torsions:
REMARK  status: ('A' for Active; 'I' for Inactive)
REMARK    1  A    between atoms: C1_2  and  C2_3 
ROOT
ATOM      1  C2  UNL d   1      -3.732  -0.723   3.831  0.00  0.00    -0.081 A 
ATOM      2  C3  UNL d   1      -3.340  -0.748   2.487  0.00  0.00     0.006 A 
ATOM      3  C4  UNL d   1      -2.693   0.351   1.918  0.00  0.00     0.002 A 
ATOM      4  C5  UNL d   1      -2.419   1.489   2.684  0.00  0.00    -0.080 A 
ATOM      5  C6  UNL d   1      -1.698   2.664   2.093  0.00  0.00     0.076 C 
ATOM      6  C7  UNL d   1      -2.826   1.521   4.022  0.00  0.00     0.002 A 
ATOM      7  C8  UNL d   1      -3.474   0.423   4.592  0.00  0.00     0.006 A 
ENDROOT
BRANCH   1   8
ATOM      8  C1  UNL d   1      -4.372  -1.932   4.465  0.00  0.00     0.054 C 
ATOM      9  C   UNL d   1      -5.338  -2.613   3.506  0.00  0.00     0.018 C 
ENDBRANCH   1   8
TORSDOF 1
ENDMDL
