MODEL 1
REMARK minimizedAffinity -4.80062389
REMARK minimizedRMSD -1
REMARK  1 active torsions:
REMARK  status: ('A' for Active; 'I' for Inactive)
REMARK    1  A    between atoms: C1_2  and  C2_3 
ROOT
ATOM      1  C2  UNL d   1      -0.933   0.341   0.684  0.00  0.00    -0.081 A 
ATOM      2  C3  UNL d   1      -0.679  -1.028   0.541  0.00  0.00     0.006 A 
ATOM      3  C4  UNL d   1       0.508  -1.471  -0.047  0.00  0.00     0.002 A 
ATOM      4  C5  UNL d   1       1.464  -0.552  -0.495  0.00  0.00    -0.080 A 
ATOM      5  C6  UNL d   1       2.756  -1.014  -1.101  0.00  0.00     0.076 C 
ATOM      6  C7  UNL d   1       1.203   0.816  -0.368  0.00  0.00     0.002 A 
ATOM      7  C8  UNL d   1       0.016   1.259   0.220  0.00  0.00     0.006 A 
ENDROOT
BRANCH   1   8
ATOM      8  C1  UNL d   1      -2.183   0.821   1.377  0.00  0.00     0.054 C 
ATOM      9  C   UNL d   1      -1.858   1.483   2.708  0.00  0.00     0.018 C 
ENDBRANCH   1   8
TORSDOF 1
ENDMDL
