MODEL 1
REMARK minimizedAffinity -2.53206515
REMARK minimizedRMSD -1
REMARK  1 active torsions:
REMARK  status: ('A' for Active; 'I' for Inactive)
REMARK    1  A    between atoms: C1_2  and  C2_3 
ROOT
ATOM      1  C2  UNL d   1       0.900  -0.777  -0.717  0.00  0.00    -0.081 A 
ATOM      2  C3  UNL d   1       0.655   0.595  -0.586  0.00  0.00     0.006 A 
ATOM      3  C4  UNL d   1      -0.298   1.061   0.323  0.00  0.00     0.002 A 
ATOM      4  C5  UNL d   1      -1.016   0.163   1.120  0.00  0.00    -0.080 A 
ATOM      5  C6  UNL d   1      -2.021   0.651   2.121  0.00  0.00     0.076 C 
ATOM      6  C7  UNL d   1      -0.784  -1.209   0.977  0.00  0.00     0.002 A 
ATOM      7  C8  UNL d   1       0.169  -1.675   0.068  0.00  0.00     0.006 A 
ENDROOT
BRANCH   1   8
ATOM      8  C1  UNL d   1       1.974  -1.278  -1.649  0.00  0.00     0.054 C 
ATOM      9  C   UNL d   1       3.328  -0.672  -1.310  0.00  0.00     0.018 C 
ENDBRANCH   1   8
TORSDOF 1
ENDMDL
