MODEL 1
REMARK minimizedAffinity -5.862957
REMARK minimizedRMSD -1
REMARK  1 active torsions:
REMARK  status: ('A' for Active; 'I' for Inactive)
REMARK    1  A    between atoms: C1_2  and  C2_3 
ROOT
ATOM      1  C2  UNL d   1      -0.884   0.287   0.351  0.00  0.00    -0.081 A 
ATOM      2  C3  UNL d   1      -0.392  -1.017   0.488  0.00  0.00     0.006 A 
ATOM      3  C4  UNL d   1       0.826  -1.379  -0.091  0.00  0.00     0.002 A 
ATOM      4  C5  UNL d   1       1.577  -0.442  -0.809  0.00  0.00    -0.080 A 
ATOM      5  C6  UNL d   1       2.902  -0.810  -1.409  0.00  0.00     0.076 C 
ATOM      6  C7  UNL d   1       1.079   0.856  -0.960  0.00  0.00     0.002 A 
ATOM      7  C8  UNL d   1      -0.140   1.219  -0.382  0.00  0.00     0.006 A 
ENDROOT
BRANCH   1   8
ATOM      8  C1  UNL d   1      -2.166   0.699   1.029  0.00  0.00     0.054 C 
ATOM      9  C   UNL d   1      -1.961   0.902   2.523  0.00  0.00     0.018 C 
ENDBRANCH   1   8
TORSDOF 1
ENDMDL
