MODEL 1
REMARK minimizedAffinity -3.22891498
REMARK minimizedRMSD -1
REMARK  1 active torsions:
REMARK  status: ('A' for Active; 'I' for Inactive)
REMARK    1  A    between atoms: C1_2  and  C2_3 
ROOT
ATOM      1  C2  UNL d   1      -1.176   0.433   1.090  0.00  0.00    -0.081 A 
ATOM      2  C3  UNL d   1      -0.588   1.293   2.025  0.00  0.00     0.006 A 
ATOM      3  C4  UNL d   1      -1.250   1.604   3.215  0.00  0.00     0.002 A 
ATOM      4  C5  UNL d   1      -2.506   1.055   3.493  0.00  0.00    -0.080 A 
ATOM      5  C6  UNL d   1      -3.214   1.357   4.780  0.00  0.00     0.076 C 
ATOM      6  C7  UNL d   1      -3.102   0.210   2.551  0.00  0.00     0.002 A 
ATOM      7  C8  UNL d   1      -2.441  -0.101   1.360  0.00  0.00     0.006 A 
ENDROOT
BRANCH   1   8
ATOM      8  C1  UNL d   1      -0.437   0.044  -0.165  0.00  0.00     0.054 C 
ATOM      9  C   UNL d   1       0.272  -1.292   0.002  0.00  0.00     0.018 C 
ENDBRANCH   1   8
TORSDOF 1
ENDMDL
