MODEL 1
REMARK minimizedAffinity 10.0902014
REMARK minimizedRMSD -1
REMARK  1 active torsions:
REMARK  status: ('A' for Active; 'I' for Inactive)
REMARK    1  A    between atoms: C1_2  and  C2_3 
ROOT
ATOM      1  C2  UNL d   1      -1.901   1.030   1.216  0.00  0.00    -0.081 A 
ATOM      2  C3  UNL d   1      -0.732   1.729   1.544  0.00  0.00     0.006 A 
ATOM      3  C4  UNL d   1       0.388   1.666   0.712  0.00  0.00     0.002 A 
ATOM      4  C5  UNL d   1       0.356   0.910  -0.464  0.00  0.00    -0.080 A 
ATOM      5  C6  UNL d   1       1.542   0.857  -1.382  0.00  0.00     0.076 C 
ATOM      6  C7  UNL d   1      -0.805   0.197  -0.783  0.00  0.00     0.002 A 
ATOM      7  C8  UNL d   1      -1.925   0.260   0.048  0.00  0.00     0.006 A 
ENDROOT
BRANCH   1   8
ATOM      8  C1  UNL d   1      -3.132   1.149   2.078  0.00  0.00     0.054 C 
ATOM      9  C   UNL d   1      -2.869   0.646   3.490  0.00  0.00     0.018 C 
ENDBRANCH   1   8
TORSDOF 1
ENDMDL
