MODEL 1
REMARK minimizedAffinity -5.17918491
REMARK minimizedRMSD -1
REMARK  1 active torsions:
REMARK  status: ('A' for Active; 'I' for Inactive)
REMARK    1  A    between atoms: C1_2  and  C2_3 
ROOT
ATOM      1  C2  UNL d   1      -0.824   0.365  -0.073  0.00  0.00    -0.081 A 
ATOM      2  C3  UNL d   1      -0.514  -0.998  -0.167  0.00  0.00     0.006 A 
ATOM      3  C4  UNL d   1       0.750  -1.409  -0.596  0.00  0.00     0.002 A 
ATOM      4  C5  UNL d   1       1.727  -0.465  -0.931  0.00  0.00    -0.080 A 
ATOM      5  C6  UNL d   1       3.098  -0.893  -1.364  0.00  0.00     0.076 C 
ATOM      6  C7  UNL d   1       1.412   0.896  -0.855  0.00  0.00     0.002 A 
ATOM      7  C8  UNL d   1       0.148   1.307  -0.426  0.00  0.00     0.006 A 
ENDROOT
BRANCH   1   8
ATOM      8  C1  UNL d   1      -2.165   0.812   0.451  0.00  0.00     0.054 C 
ATOM      9  C   UNL d   1      -2.136   0.993   1.962  0.00  0.00     0.018 C 
ENDBRANCH   1   8
TORSDOF 1
ENDMDL
