MODEL 1
REMARK minimizedAffinity -5.40850258
REMARK minimizedRMSD -1
REMARK  1 active torsions:
REMARK  status: ('A' for Active; 'I' for Inactive)
REMARK    1  A    between atoms: C1_2  and  C2_3 
ROOT
ATOM      1  C2  UNL d   1      -0.567  -0.068   0.383  0.00  0.00    -0.081 A 
ATOM      2  C3  UNL d   1      -0.095  -1.384   0.306  0.00  0.00     0.006 A 
ATOM      3  C4  UNL d   1       1.123  -1.665  -0.318  0.00  0.00     0.002 A 
ATOM      4  C5  UNL d   1       1.893  -0.634  -0.868  0.00  0.00    -0.080 A 
ATOM      5  C6  UNL d   1       3.216  -0.917  -1.513  0.00  0.00     0.076 C 
ATOM      6  C7  UNL d   1       1.413   0.679  -0.805  0.00  0.00     0.002 A 
ATOM      7  C8  UNL d   1       0.195   0.960  -0.182  0.00  0.00     0.006 A 
ENDROOT
BRANCH   1   8
ATOM      8  C1  UNL d   1      -1.848   0.245   1.112  0.00  0.00     0.054 C 
ATOM      9  C   UNL d   1      -1.588   1.091   2.351  0.00  0.00     0.018 C 
ENDBRANCH   1   8
TORSDOF 1
ENDMDL
