MODEL 1
REMARK minimizedAffinity -1.75247335
REMARK minimizedRMSD -1
REMARK  1 active torsions:
REMARK  status: ('A' for Active; 'I' for Inactive)
REMARK    1  A    between atoms: C1_2  and  C2_3 
ROOT
ATOM      1  C2  UNL d   1       1.567  -0.323  -0.755  0.00  0.00    -0.081 A 
ATOM      2  C3  UNL d   1       0.926  -1.404  -0.138  0.00  0.00     0.006 A 
ATOM      3  C4  UNL d   1      -0.264  -1.212   0.567  0.00  0.00     0.002 A 
ATOM      4  C5  UNL d   1      -0.837   0.061   0.660  0.00  0.00    -0.080 A 
ATOM      5  C6  UNL d   1      -2.130   0.276   1.389  0.00  0.00     0.076 C 
ATOM      6  C7  UNL d   1      -0.187   1.144   0.059  0.00  0.00     0.002 A 
ATOM      7  C8  UNL d   1       1.003   0.953  -0.646  0.00  0.00     0.006 A 
ENDROOT
BRANCH   1   8
ATOM      8  C1  UNL d   1       2.817  -0.537  -1.571  0.00  0.00     0.054 C 
ATOM      9  C   UNL d   1       2.933   0.492  -2.686  0.00  0.00     0.018 C 
ENDBRANCH   1   8
TORSDOF 1
ENDMDL
