MODEL 1
REMARK minimizedAffinity -4.59123564
REMARK minimizedRMSD -1
REMARK  1 active torsions:
REMARK  status: ('A' for Active; 'I' for Inactive)
REMARK    1  A    between atoms: C1_2  and  C2_3 
ROOT
ATOM      1  C2  UNL d   1      -1.089  -0.044   0.530  0.00  0.00    -0.081 A 
ATOM      2  C3  UNL d   1      -0.780  -1.379   0.243  0.00  0.00     0.006 A 
ATOM      3  C4  UNL d   1       0.382  -1.701  -0.463  0.00  0.00     0.002 A 
ATOM      4  C5  UNL d   1       1.257  -0.695  -0.886  0.00  0.00    -0.080 A 
ATOM      5  C6  UNL d   1       2.523  -1.030  -1.618  0.00  0.00     0.076 C 
ATOM      6  C7  UNL d   1       0.939   0.640  -0.614  0.00  0.00     0.002 A 
ATOM      7  C8  UNL d   1      -0.223   0.962   0.091  0.00  0.00     0.006 A 
ENDROOT
BRANCH   1   8
ATOM      8  C1  UNL d   1      -2.308   0.302   1.347  0.00  0.00     0.054 C 
ATOM      9  C   UNL d   1      -1.985   1.342   2.410  0.00  0.00     0.018 C 
ENDBRANCH   1   8
TORSDOF 1
ENDMDL
