MODEL 1
REMARK minimizedAffinity -3.95983171
REMARK minimizedRMSD -1
REMARK  1 active torsions:
REMARK  status: ('A' for Active; 'I' for Inactive)
REMARK    1  A    between atoms: C1_2  and  C2_3 
ROOT
ATOM      1  C2  UNL d   1      -0.707   0.054   0.308  0.00  0.00    -0.081 A 
ATOM      2  C3  UNL d   1       0.040  -1.097   0.031  0.00  0.00     0.006 A 
ATOM      3  C4  UNL d   1       1.126  -1.043  -0.846  0.00  0.00     0.002 A 
ATOM      4  C5  UNL d   1       1.487   0.163  -1.455  0.00  0.00    -0.080 A 
ATOM      5  C6  UNL d   1       2.669   0.241  -2.375  0.00  0.00     0.076 C 
ATOM      6  C7  UNL d   1       0.730   1.310  -1.192  0.00  0.00     0.002 A 
ATOM      7  C8  UNL d   1      -0.356   1.257  -0.315  0.00  0.00     0.006 A 
ENDROOT
BRANCH   1   8
ATOM      8  C1  UNL d   1      -1.838   0.013   1.304  0.00  0.00     0.054 C 
ATOM      9  C   UNL d   1      -1.868   1.272   2.159  0.00  0.00     0.018 C 
ENDBRANCH   1   8
TORSDOF 1
ENDMDL
