MODEL 1
REMARK minimizedAffinity -6.2508707
REMARK minimizedRMSD -1
REMARK  0 active torsions:
REMARK  status: ('A' for Active; 'I' for Inactive)
ROOT
ATOM      1  C   UNL d   1       0.083  -0.055   3.598  0.00  0.00     0.077 C 
ATOM      2  C1  UNL d   1      -0.657   0.027   2.296  0.00  0.00    -0.074 A 
ATOM      3  C2  UNL d   1      -2.055   0.056   2.264  0.00  0.00    -0.005 A 
ATOM      4  C3  UNL d   1      -2.729   0.142   1.046  0.00  0.00     0.006 A 
ATOM      5  C4  UNL d   1      -2.013   0.200  -0.150  0.00  0.00    -0.005 A 
ATOM      6  C5  UNL d   1      -0.615   0.172  -0.138  0.00  0.00    -0.074 A 
ATOM      7  C6  UNL d   1       0.169   0.243  -1.415  0.00  0.00     0.077 C 
ATOM      8  C7  UNL d   1       0.055   0.093   1.090  0.00  0.00    -0.001 A 
ENDROOT
TORSDOF 0
ENDMDL
