MODEL 1
REMARK minimizedAffinity -6.03854656
REMARK minimizedRMSD -1
REMARK  0 active torsions:
REMARK  status: ('A' for Active; 'I' for Inactive)
ROOT
ATOM      1  C   UNL d   1       1.519   0.099   0.863  0.00  0.00     0.077 C 
ATOM      2  C1  UNL d   1       0.218  -0.015   1.601  0.00  0.00    -0.074 A 
ATOM      3  C2  UNL d   1       0.192  -0.206   2.986  0.00  0.00    -0.005 A 
ATOM      4  C3  UNL d   1      -1.026  -0.301   3.660  0.00  0.00     0.006 A 
ATOM      5  C4  UNL d   1      -2.227  -0.205   2.957  0.00  0.00    -0.005 A 
ATOM      6  C5  UNL d   1      -2.221  -0.013   1.572  0.00  0.00    -0.074 A 
ATOM      7  C6  UNL d   1      -3.503   0.101   0.803  0.00  0.00     0.077 C 
ATOM      8  C7  UNL d   1      -0.993   0.088   0.903  0.00  0.00    -0.001 A 
ENDROOT
TORSDOF 0
ENDMDL
