MODEL 1
REMARK minimizedAffinity -3.56671786
REMARK minimizedRMSD -1
REMARK  0 active torsions:
REMARK  status: ('A' for Active; 'I' for Inactive)
ROOT
ATOM      1  C   UNL d   1      -0.029  -0.066  -1.824  0.00  0.00     0.077 C 
ATOM      2  C1  UNL d   1       0.398   0.022  -0.389  0.00  0.00    -0.074 A 
ATOM      3  C2  UNL d   1       1.633   0.577  -0.039  0.00  0.00    -0.005 A 
ATOM      4  C3  UNL d   1       2.012   0.661   1.301  0.00  0.00     0.006 A 
ATOM      5  C4  UNL d   1       1.162   0.191   2.302  0.00  0.00    -0.005 A 
ATOM      6  C5  UNL d   1      -0.077  -0.367   1.971  0.00  0.00    -0.074 A 
ATOM      7  C6  UNL d   1      -1.007  -0.867   3.036  0.00  0.00     0.077 C 
ATOM      8  C7  UNL d   1      -0.454  -0.441   0.623  0.00  0.00    -0.001 A 
ENDROOT
TORSDOF 0
ENDMDL
