MODEL 1
REMARK minimizedAffinity -5.63143253
REMARK minimizedRMSD -1
REMARK  0 active torsions:
REMARK  status: ('A' for Active; 'I' for Inactive)
ROOT
ATOM      1  C   UNL d   1      -2.959   0.065   2.095  0.00  0.00     0.077 C 
ATOM      2  C1  UNL d   1      -1.505   0.040   1.730  0.00  0.00    -0.074 A 
ATOM      3  C2  UNL d   1      -0.520  -0.111   2.712  0.00  0.00    -0.005 A 
ATOM      4  C3  UNL d   1       0.829  -0.142   2.356  0.00  0.00     0.006 A 
ATOM      5  C4  UNL d   1       1.205  -0.021   1.018  0.00  0.00    -0.005 A 
ATOM      6  C5  UNL d   1       0.234   0.130   0.023  0.00  0.00    -0.074 A 
ATOM      7  C6  UNL d   1       0.622   0.251  -1.421  0.00  0.00     0.077 C 
ATOM      8  C7  UNL d   1      -1.119   0.153   0.387  0.00  0.00    -0.001 A 
ENDROOT
TORSDOF 0
ENDMDL
