MODEL 1
REMARK minimizedAffinity -4.2227459
REMARK minimizedRMSD -1
REMARK  0 active torsions:
REMARK  status: ('A' for Active; 'I' for Inactive)
ROOT
ATOM      1  C   UNL d   1      -3.724  -0.037   1.479  0.00  0.00     0.077 C 
ATOM      2  C1  UNL d   1      -2.233  -0.025   1.639  0.00  0.00    -0.074 A 
ATOM      3  C2  UNL d   1      -1.646  -0.124   2.905  0.00  0.00    -0.005 A 
ATOM      4  C3  UNL d   1      -0.257  -0.121   3.038  0.00  0.00     0.006 A 
ATOM      5  C4  UNL d   1       0.556  -0.019   1.908  0.00  0.00    -0.005 A 
ATOM      6  C5  UNL d   1      -0.013   0.080   0.635  0.00  0.00    -0.074 A 
ATOM      7  C6  UNL d   1       0.847   0.180  -0.590  0.00  0.00     0.077 C 
ATOM      8  C7  UNL d   1      -1.409   0.069   0.509  0.00  0.00    -0.001 A 
ENDROOT
TORSDOF 0
ENDMDL
