MODEL 1
REMARK minimizedAffinity -5.39321852
REMARK minimizedRMSD -1
REMARK  0 active torsions:
REMARK  status: ('A' for Active; 'I' for Inactive)
ROOT
ATOM      1  C   UNL d   1       0.895  -0.164  -1.554  0.00  0.00     0.077 C 
ATOM      2  C1  UNL d   1       0.427  -0.088  -0.131  0.00  0.00    -0.074 A 
ATOM      3  C2  UNL d   1       1.342  -0.013   0.924  0.00  0.00    -0.005 A 
ATOM      4  C3  UNL d   1       0.891   0.067   2.242  0.00  0.00     0.006 A 
ATOM      5  C4  UNL d   1      -0.477   0.072   2.517  0.00  0.00    -0.005 A 
ATOM      6  C5  UNL d   1      -1.407  -0.001   1.476  0.00  0.00    -0.074 A 
ATOM      7  C6  UNL d   1      -2.880   0.014   1.754  0.00  0.00     0.077 C 
ATOM      8  C7  UNL d   1      -0.946  -0.074   0.154  0.00  0.00    -0.001 A 
ENDROOT
TORSDOF 0
ENDMDL
