MODEL 1
REMARK minimizedAffinity -5.94916582
REMARK minimizedRMSD -1
REMARK  0 active torsions:
REMARK  status: ('A' for Active; 'I' for Inactive)
ROOT
ATOM      1  C   UNL d   1      -0.134  -0.775   3.450  0.00  0.00     0.077 C 
ATOM      2  C1  UNL d   1      -0.739  -0.371   2.138  0.00  0.00    -0.074 A 
ATOM      3  C2  UNL d   1      -2.103  -0.079   2.036  0.00  0.00    -0.005 A 
ATOM      4  C3  UNL d   1      -2.650   0.305   0.811  0.00  0.00     0.006 A 
ATOM      5  C4  UNL d   1      -1.839   0.401  -0.321  0.00  0.00    -0.005 A 
ATOM      6  C5  UNL d   1      -0.473   0.114  -0.237  0.00  0.00    -0.074 A 
ATOM      7  C6  UNL d   1       0.414   0.222  -1.442  0.00  0.00     0.077 C 
ATOM      8  C7  UNL d   1       0.070  -0.265   0.998  0.00  0.00    -0.001 A 
ENDROOT
TORSDOF 0
ENDMDL
