MODEL 1
REMARK minimizedAffinity -1.07929432
REMARK minimizedRMSD -1
REMARK  0 active torsions:
REMARK  status: ('A' for Active; 'I' for Inactive)
ROOT
ATOM      1  C   UNL d   1       1.576  -1.139  -3.591  0.00  0.00     0.077 C 
ATOM      2  C1  UNL d   1       0.818  -0.739  -2.360  0.00  0.00    -0.074 A 
ATOM      3  C2  UNL d   1      -0.529  -1.080  -2.203  0.00  0.00    -0.005 A 
ATOM      4  C3  UNL d   1      -1.218  -0.709  -1.048  0.00  0.00     0.006 A 
ATOM      5  C4  UNL d   1      -0.567   0.005  -0.040  0.00  0.00    -0.005 A 
ATOM      6  C5  UNL d   1       0.780   0.354  -0.180  0.00  0.00    -0.074 A 
ATOM      7  C6  UNL d   1       1.496   1.113   0.897  0.00  0.00     0.077 C 
ATOM      8  C7  UNL d   1       1.467  -0.028  -1.340  0.00  0.00    -0.001 A 
ENDROOT
TORSDOF 0
ENDMDL
