MODEL 1
REMARK minimizedAffinity -4.58255577
REMARK minimizedRMSD -1
REMARK  0 active torsions:
REMARK  status: ('A' for Active; 'I' for Inactive)
ROOT
ATOM      1  C   UNL d   1      -0.327   0.065  -1.538  0.00  0.00     0.077 C 
ATOM      2  C1  UNL d   1      -0.017  -0.018  -0.073  0.00  0.00    -0.074 A 
ATOM      3  C2  UNL d   1       1.245   0.336   0.416  0.00  0.00    -0.005 A 
ATOM      4  C3  UNL d   1       1.516   0.262   1.782  0.00  0.00     0.006 A 
ATOM      5  C4  UNL d   1       0.530  -0.165   2.672  0.00  0.00    -0.005 A 
ATOM      6  C5  UNL d   1      -0.738  -0.522   2.202  0.00  0.00    -0.074 A 
ATOM      7  C6  UNL d   1      -1.812  -0.973   3.146  0.00  0.00     0.077 C 
ATOM      8  C7  UNL d   1      -1.005  -0.439   0.829  0.00  0.00    -0.001 A 
ENDROOT
TORSDOF 0
ENDMDL
