MODEL 1
REMARK minimizedAffinity -5.41580486
REMARK minimizedRMSD -1
REMARK  0 active torsions:
REMARK  status: ('A' for Active; 'I' for Inactive)
ROOT
ATOM      1  C   UNL d   1      -3.326  -0.384   2.034  0.00  0.00     0.077 C 
ATOM      2  C1  UNL d   1      -1.857  -0.169   1.823  0.00  0.00    -0.074 A 
ATOM      3  C2  UNL d   1      -0.991  -0.002   2.908  0.00  0.00    -0.005 A 
ATOM      4  C3  UNL d   1       0.374   0.187   2.696  0.00  0.00     0.006 A 
ATOM      5  C4  UNL d   1       0.887   0.212   1.399  0.00  0.00    -0.005 A 
ATOM      6  C5  UNL d   1       0.037   0.046   0.301  0.00  0.00    -0.074 A 
ATOM      7  C6  UNL d   1       0.573   0.061  -1.100  0.00  0.00     0.077 C 
ATOM      8  C7  UNL d   1      -1.333  -0.151   0.522  0.00  0.00    -0.001 A 
ENDROOT
TORSDOF 0
ENDMDL
