MODEL 1
REMARK minimizedAffinity -0.301778346
REMARK minimizedRMSD -1
REMARK  0 active torsions:
REMARK  status: ('A' for Active; 'I' for Inactive)
ROOT
ATOM      1  C   UNL d   1       2.587  -1.088  -3.044  0.00  0.00     0.077 C 
ATOM      2  C1  UNL d   1       1.492  -0.496  -2.207  0.00  0.00    -0.074 A 
ATOM      3  C2  UNL d   1       0.333   0.019  -2.797  0.00  0.00    -0.005 A 
ATOM      4  C3  UNL d   1      -0.680   0.557  -2.005  0.00  0.00     0.006 A 
ATOM      5  C4  UNL d   1      -0.546   0.586  -0.616  0.00  0.00    -0.005 A 
ATOM      6  C5  UNL d   1       0.605   0.075  -0.008  0.00  0.00    -0.074 A 
ATOM      7  C6  UNL d   1       0.760   0.089   1.484  0.00  0.00     0.077 C 
ATOM      8  C7  UNL d   1       1.616  -0.471  -0.811  0.00  0.00    -0.001 A 
ENDROOT
TORSDOF 0
ENDMDL
