MODEL 1
REMARK minimizedAffinity -5.23284817
REMARK minimizedRMSD -1
REMARK  0 active torsions:
REMARK  status: ('A' for Active; 'I' for Inactive)
ROOT
ATOM      1  C   UNL d   1      -0.348  -1.408   2.501  0.00  0.00     0.077 C 
ATOM      2  C1  UNL d   1       0.013  -0.771   1.192  0.00  0.00    -0.074 A 
ATOM      3  C2  UNL d   1       0.620   0.487   1.148  0.00  0.00    -0.005 A 
ATOM      4  C3  UNL d   1       0.959   1.063  -0.076  0.00  0.00     0.006 A 
ATOM      5  C4  UNL d   1       0.694   0.387  -1.268  0.00  0.00    -0.005 A 
ATOM      6  C5  UNL d   1       0.087  -0.873  -1.244  0.00  0.00    -0.074 A 
ATOM      7  C6  UNL d   1      -0.196  -1.618  -2.515  0.00  0.00     0.077 C 
ATOM      8  C7  UNL d   1      -0.244  -1.448  -0.009  0.00  0.00    -0.001 A 
ENDROOT
TORSDOF 0
ENDMDL
