MODEL 1
REMARK minimizedAffinity -4.18819714
REMARK minimizedRMSD -1
REMARK  0 active torsions:
REMARK  status: ('A' for Active; 'I' for Inactive)
ROOT
ATOM      1  C   UNL d   1       1.626  -2.188  -3.392  0.00  0.00     0.077 C 
ATOM      2  C1  UNL d   1       0.856  -1.145  -2.638  0.00  0.00    -0.074 A 
ATOM      3  C2  UNL d   1       0.011  -0.252  -3.305  0.00  0.00    -0.005 A 
ATOM      4  C3  UNL d   1      -0.706   0.706  -2.589  0.00  0.00     0.006 A 
ATOM      5  C4  UNL d   1      -0.586   0.782  -1.201  0.00  0.00    -0.005 A 
ATOM      6  C5  UNL d   1       0.253  -0.102  -0.517  0.00  0.00    -0.074 A 
ATOM      7  C6  UNL d   1       0.386  -0.041   0.976  0.00  0.00     0.077 C 
ATOM      8  C7  UNL d   1       0.965  -1.067  -1.242  0.00  0.00    -0.001 A 
ENDROOT
TORSDOF 0
ENDMDL
