MODEL 1
REMARK minimizedAffinity -5.77259541
REMARK minimizedRMSD -1
REMARK  0 active torsions:
REMARK  status: ('A' for Active; 'I' for Inactive)
ROOT
ATOM      1  C   UNL d   1       1.235   0.332   0.730  0.00  0.00     0.077 C 
ATOM      2  C1  UNL d   1      -0.018   0.097   1.519  0.00  0.00    -0.074 A 
ATOM      3  C2  UNL d   1       0.039  -0.319   2.853  0.00  0.00    -0.005 A 
ATOM      4  C3  UNL d   1      -1.135  -0.524   3.577  0.00  0.00     0.006 A 
ATOM      5  C4  UNL d   1      -2.377  -0.316   2.976  0.00  0.00    -0.005 A 
ATOM      6  C5  UNL d   1      -2.454   0.100   1.643  0.00  0.00    -0.074 A 
ATOM      7  C6  UNL d   1      -3.781   0.337   0.984  0.00  0.00     0.077 C 
ATOM      8  C7  UNL d   1      -1.270   0.311   0.924  0.00  0.00    -0.001 A 
ENDROOT
TORSDOF 0
ENDMDL
