MODEL 1
REMARK minimizedAffinity -4.8917613
REMARK minimizedRMSD -1
REMARK  0 active torsions:
REMARK  status: ('A' for Active; 'I' for Inactive)
ROOT
ATOM      1  C   UNL d   1      -3.394  -0.006   1.928  0.00  0.00     0.077 C 
ATOM      2  C1  UNL d   1      -1.917  -0.056   1.676  0.00  0.00    -0.074 A 
ATOM      3  C2  UNL d   1      -1.004   0.041   2.731  0.00  0.00    -0.005 A 
ATOM      4  C3  UNL d   1       0.367  -0.017   2.483  0.00  0.00     0.006 A 
ATOM      5  C4  UNL d   1       0.839  -0.172   1.179  0.00  0.00    -0.005 A 
ATOM      6  C5  UNL d   1      -0.058  -0.271   0.111  0.00  0.00    -0.074 A 
ATOM      7  C6  UNL d   1       0.432  -0.448  -1.296  0.00  0.00     0.077 C 
ATOM      8  C7  UNL d   1      -1.435  -0.219   0.370  0.00  0.00    -0.001 A 
ENDROOT
TORSDOF 0
ENDMDL
