MODEL 1
REMARK minimizedAffinity -3.29140854
REMARK minimizedRMSD -1
REMARK  0 active torsions:
REMARK  status: ('A' for Active; 'I' for Inactive)
ROOT
ATOM      1  C   UNL d   1      -1.190  -0.443   3.470  0.00  0.00     0.077 C 
ATOM      2  C1  UNL d   1      -1.452  -0.079   2.039  0.00  0.00    -0.074 A 
ATOM      3  C2  UNL d   1      -2.723   0.331   1.623  0.00  0.00    -0.005 A 
ATOM      4  C3  UNL d   1      -2.949   0.676   0.290  0.00  0.00     0.006 A 
ATOM      5  C4  UNL d   1      -1.909   0.614  -0.638  0.00  0.00    -0.005 A 
ATOM      6  C5  UNL d   1      -0.631   0.208  -0.240  0.00  0.00    -0.074 A 
ATOM      7  C6  UNL d   1       0.500   0.146  -1.222  0.00  0.00     0.077 C 
ATOM      8  C7  UNL d   1      -0.410  -0.130   1.102  0.00  0.00    -0.001 A 
ENDROOT
TORSDOF 0
ENDMDL
