MODEL 1
REMARK minimizedAffinity -5.62949038
REMARK minimizedRMSD -1
REMARK  0 active torsions:
REMARK  status: ('A' for Active; 'I' for Inactive)
ROOT
ATOM      1  C   UNL d   1       0.468   0.325  -1.418  0.00  0.00     0.077 C 
ATOM      2  C1  UNL d   1       0.075   0.124   0.015  0.00  0.00    -0.074 A 
ATOM      3  C2  UNL d   1       1.045  -0.049   1.009  0.00  0.00    -0.005 A 
ATOM      4  C3  UNL d   1       0.665  -0.225   2.339  0.00  0.00     0.006 A 
ATOM      5  C4  UNL d   1      -0.686  -0.231   2.689  0.00  0.00    -0.005 A 
ATOM      6  C5  UNL d   1      -1.669  -0.059   1.710  0.00  0.00    -0.074 A 
ATOM      7  C6  UNL d   1      -3.125  -0.052   2.070  0.00  0.00     0.077 C 
ATOM      8  C7  UNL d   1      -1.279   0.125   0.376  0.00  0.00    -0.001 A 
ENDROOT
TORSDOF 0
ENDMDL
