MODEL 1
REMARK minimizedAffinity 1.32093298
REMARK minimizedRMSD -1
REMARK  1 active torsions:
REMARK  status: ('A' for Active; 'I' for Inactive)
REMARK    1  A    between atoms: C1_2  and  C2_3 
ROOT
ATOM      1  C2  UNL d   1       1.246  -4.237   5.982  0.00  0.00    -0.076 A 
ATOM      2  C3  UNL d   1       2.184  -3.191   5.994  0.00  0.00     0.004 A 
ATOM      3  C4  UNL d   1       1.773  -1.859   5.988  0.00  0.00    -0.003 A 
ATOM      4  C5  UNL d   1       0.417  -1.552   5.971  0.00  0.00     0.000 A 
ATOM      5  C6  UNL d   1      -0.528  -2.577   5.978  0.00  0.00     0.000 A 
ATOM      6  C7  UNL d   1      -0.130  -3.925   6.000  0.00  0.00    -0.073 A 
ATOM      7  C8  UNL d   1      -1.192  -4.991   6.000  0.00  0.00     0.078 C 
ENDROOT
BRANCH   1   8
ATOM      8  C1  UNL d   1       1.751  -5.662   5.962  0.00  0.00     0.053 C 
ATOM      9  C   UNL d   1       2.825  -5.885   4.908  0.00  0.00     0.018 C 
ENDBRANCH   1   8
TORSDOF 1
ENDMDL
