MODEL 1
REMARK minimizedAffinity 5.99949932
REMARK minimizedRMSD -1
REMARK  1 active torsions:
REMARK  status: ('A' for Active; 'I' for Inactive)
REMARK    1  A    between atoms: C1_2  and  C2_3 
ROOT
ATOM      1  C2  UNL d   1       1.202   0.142   1.388  0.00  0.00    -0.076 A 
ATOM      2  C3  UNL d   1       0.076   0.492   0.622  0.00  0.00     0.004 A 
ATOM      3  C4  UNL d   1      -0.079   0.023  -0.681  0.00  0.00    -0.003 A 
ATOM      4  C5  UNL d   1       0.888  -0.805  -1.240  0.00  0.00     0.000 A 
ATOM      5  C6  UNL d   1       2.002  -1.177  -0.488  0.00  0.00     0.000 A 
ATOM      6  C7  UNL d   1       2.166  -0.726   0.832  0.00  0.00    -0.073 A 
ATOM      7  C8  UNL d   1       3.391  -1.153   1.595  0.00  0.00     0.078 C 
ENDROOT
BRANCH   1   8
ATOM      8  C1  UNL d   1       1.330   0.703   2.786  0.00  0.00     0.053 C 
ATOM      9  C   UNL d   1       1.149   2.213   2.826  0.00  0.00     0.018 C 
ENDBRANCH   1   8
TORSDOF 1
ENDMDL
