MODEL 1
REMARK minimizedAffinity 7.76448393
REMARK minimizedRMSD -1
REMARK  1 active torsions:
REMARK  status: ('A' for Active; 'I' for Inactive)
REMARK    1  A    between atoms: C1_2  and  C2_3 
ROOT
ATOM      1  C2  UNL d   1       0.401  -2.836   5.978  0.00  0.00    -0.076 A 
ATOM      2  C3  UNL d   1      -0.854  -3.469   5.997  0.00  0.00     0.004 A 
ATOM      3  C4  UNL d   1      -0.957  -4.859   5.991  0.00  0.00    -0.003 A 
ATOM      4  C5  UNL d   1       0.193  -5.639   5.967  0.00  0.00     0.000 A 
ATOM      5  C6  UNL d   1       1.447  -5.028   5.966  0.00  0.00     0.000 A 
ATOM      6  C7  UNL d   1       1.569  -3.628   5.989  0.00  0.00    -0.073 A 
ATOM      7  C8  UNL d   1       2.946  -3.023   5.981  0.00  0.00     0.078 C 
ENDROOT
BRANCH   1   8
ATOM      8  C1  UNL d   1       0.450  -1.325   5.959  0.00  0.00     0.053 C 
ATOM      9  C   UNL d   1       1.871  -0.789   5.878  0.00  0.00     0.018 C 
ENDBRANCH   1   8
TORSDOF 1
ENDMDL
