MODEL 1
REMARK minimizedAffinity -0.153604284
REMARK minimizedRMSD -1
REMARK  1 active torsions:
REMARK  status: ('A' for Active; 'I' for Inactive)
REMARK    1  A    between atoms: C1_2  and  C2_3 
ROOT
ATOM      1  C2  UNL d   1       1.390  -4.738   5.977  0.00  0.00    -0.076 A 
ATOM      2  C3  UNL d   1       0.202  -5.488   5.946  0.00  0.00     0.004 A 
ATOM      3  C4  UNL d   1      -1.043  -4.861   5.950  0.00  0.00    -0.003 A 
ATOM      4  C5  UNL d   1      -1.119  -3.473   5.985  0.00  0.00     0.000 A 
ATOM      5  C6  UNL d   1       0.050  -2.712   5.998  0.00  0.00     0.000 A 
ATOM      6  C7  UNL d   1       1.312  -3.329   5.978  0.00  0.00    -0.073 A 
ATOM      7  C8  UNL d   1       2.540  -2.460   6.000  0.00  0.00     0.078 C 
ENDROOT
BRANCH   1   8
ATOM      8  C1  UNL d   1       2.711  -5.474   5.998  0.00  0.00     0.053 C 
ATOM      9  C   UNL d   1       3.110  -5.995   4.626  0.00  0.00     0.018 C 
ENDBRANCH   1   8
TORSDOF 1
ENDMDL
