MODEL 1
REMARK minimizedAffinity 3.46277642
REMARK minimizedRMSD -1
REMARK  1 active torsions:
REMARK  status: ('A' for Active; 'I' for Inactive)
REMARK    1  A    between atoms: C1_2  and  C2_3 
ROOT
ATOM      1  C2  UNL d   1       0.508  -2.385   5.985  0.00  0.00    -0.076 A 
ATOM      2  C3  UNL d   1      -0.897  -2.424   5.998  0.00  0.00     0.004 A 
ATOM      3  C4  UNL d   1      -1.581  -3.638   5.987  0.00  0.00    -0.003 A 
ATOM      4  C5  UNL d   1      -0.871  -4.834   5.963  0.00  0.00     0.000 A 
ATOM      5  C6  UNL d   1       0.523  -4.814   5.967  0.00  0.00     0.000 A 
ATOM      6  C7  UNL d   1       1.229  -3.599   5.995  0.00  0.00    -0.073 A 
ATOM      7  C8  UNL d   1       2.732  -3.636   5.992  0.00  0.00     0.078 C 
ENDROOT
BRANCH   1   8
ATOM      8  C1  UNL d   1       1.195  -1.038   5.970  0.00  0.00     0.053 C 
ATOM      9  C   UNL d   1       1.233  -0.418   4.582  0.00  0.00     0.018 C 
ENDBRANCH   1   8
TORSDOF 1
ENDMDL
