MODEL 1
REMARK minimizedAffinity 9.1278553
REMARK minimizedRMSD -1
REMARK  1 active torsions:
REMARK  status: ('A' for Active; 'I' for Inactive)
REMARK    1  A    between atoms: C1_2  and  C2_3 
ROOT
ATOM      1  C2  UNL d   1       1.104   0.653   1.014  0.00  0.00    -0.076 A 
ATOM      2  C3  UNL d   1       0.233   1.139   0.024  0.00  0.00     0.004 A 
ATOM      3  C4  UNL d   1      -0.017   0.407  -1.135  0.00  0.00    -0.003 A 
ATOM      4  C5  UNL d   1       0.602  -0.824  -1.324  0.00  0.00     0.000 A 
ATOM      5  C6  UNL d   1       1.456  -1.330  -0.345  0.00  0.00     0.000 A 
ATOM      6  C7  UNL d   1       1.705  -0.612   0.837  0.00  0.00    -0.073 A 
ATOM      7  C8  UNL d   1       2.640  -1.203   1.857  0.00  0.00     0.078 C 
ENDROOT
BRANCH   1   8
ATOM      8  C1  UNL d   1       1.357   1.503   2.238  0.00  0.00     0.053 C 
ATOM      9  C   UNL d   1       0.869   2.933   2.065  0.00  0.00     0.018 C 
ENDBRANCH   1   8
TORSDOF 1
ENDMDL
