MODEL 1
REMARK minimizedAffinity -4.09361553
REMARK minimizedRMSD -1
REMARK  0 active torsions:
REMARK  status: ('A' for Active; 'I' for Inactive)
ROOT
ATOM      1  C2' OXE d   1       0.493   2.310   2.198  0.00  0.00     0.078 C 
ATOM      2  C1' OXE d   1       2.593   2.767   4.005  0.00  0.00     0.078 C 
ATOM      3  C1  OXE d   1       2.411   1.366   3.478  0.00  0.00    -0.078 A 
ATOM      4  C2  OXE d   1       1.352   1.141   2.631  0.00  0.00    -0.078 A 
ATOM      5  C3  OXE d   1       1.171  -0.121   2.073  0.00  0.00     0.003 A 
ATOM      6  C4  OXE d   1       1.964  -1.199   2.485  0.00  0.00    -0.002 A 
ATOM      7  C5  OXE d   1       3.023  -1.000   3.378  0.00  0.00    -0.002 A 
ATOM      8  C6  OXE d   1       3.285   0.281   3.849  0.00  0.00     0.003 A 
ENDROOT
TORSDOF 0
ENDMDL
