MODEL 1
REMARK minimizedAffinity -2.09417319
REMARK minimizedRMSD -1
REMARK  0 active torsions:
REMARK  status: ('A' for Active; 'I' for Inactive)
ROOT
ATOM      1  C2' OXE d   1       1.312  -0.121   1.323  0.00  0.00     0.078 C 
ATOM      2  C1' OXE d   1      -0.886  -1.866   1.273  0.00  0.00     0.078 C 
ATOM      3  C1  OXE d   1      -0.690  -0.948   0.093  0.00  0.00    -0.078 A 
ATOM      4  C2  OXE d   1       0.361  -0.065   0.147  0.00  0.00    -0.078 A 
ATOM      5  C3  OXE d   1       0.619   0.767  -0.939  0.00  0.00     0.003 A 
ATOM      6  C4  OXE d   1      -0.270   0.820  -2.019  0.00  0.00    -0.002 A 
ATOM      7  C5  OXE d   1      -1.370  -0.044  -2.076  0.00  0.00    -0.002 A 
ATOM      8  C6  OXE d   1      -1.569  -0.961  -1.050  0.00  0.00     0.003 A 
ENDROOT
TORSDOF 0
ENDMDL
