MODEL 1
REMARK minimizedAffinity 1.23230362
REMARK minimizedRMSD -1
REMARK  0 active torsions:
REMARK  status: ('A' for Active; 'I' for Inactive)
ROOT
ATOM      1  C2' OXE d   1       0.257   3.976  -0.078  0.00  0.00     0.078 C 
ATOM      2  C1' OXE d   1       0.041   1.694  -1.698  0.00  0.00     0.078 C 
ATOM      3  C1  OXE d   1       0.284   1.489  -0.223  0.00  0.00    -0.078 A 
ATOM      4  C2  OXE d   1       0.435   2.612   0.554  0.00  0.00    -0.078 A 
ATOM      5  C3  OXE d   1       0.606   2.480   1.929  0.00  0.00     0.003 A 
ATOM      6  C4  OXE d   1       0.780   1.216   2.504  0.00  0.00    -0.002 A 
ATOM      7  C5  OXE d   1       0.669   0.060   1.724  0.00  0.00    -0.002 A 
ATOM      8  C6  OXE d   1       0.380   0.178   0.369  0.00  0.00     0.003 A 
ENDROOT
TORSDOF 0
ENDMDL
