MODEL 1
REMARK minimizedAffinity 0.849871874
REMARK minimizedRMSD -1
REMARK  0 active torsions:
REMARK  status: ('A' for Active; 'I' for Inactive)
ROOT
ATOM      1  C2' OXE d   1       0.516   4.111  -0.709  0.00  0.00     0.078 C 
ATOM      2  C1' OXE d   1       0.241   1.573  -1.876  0.00  0.00     0.078 C 
ATOM      3  C1  OXE d   1       0.322   1.651  -0.371  0.00  0.00    -0.078 A 
ATOM      4  C2  OXE d   1       0.504   2.892   0.189  0.00  0.00    -0.078 A 
ATOM      5  C3  OXE d   1       0.530   3.027   1.574  0.00  0.00     0.003 A 
ATOM      6  C4  OXE d   1       0.528   1.893   2.396  0.00  0.00    -0.002 A 
ATOM      7  C5  OXE d   1       0.383   0.616   1.844  0.00  0.00    -0.002 A 
ATOM      8  C6  OXE d   1       0.237   0.481   0.468  0.00  0.00     0.003 A 
ENDROOT
TORSDOF 0
ENDMDL
