MODEL 1
REMARK minimizedAffinity 4.50762367
REMARK minimizedRMSD -1
REMARK  0 active torsions:
REMARK  status: ('A' for Active; 'I' for Inactive)
ROOT
ATOM      1  C2' OXE d   1       1.671  -0.746   2.959  0.00  0.00     0.078 C 
ATOM      2  C1' OXE d   1       0.443   1.774   2.815  0.00  0.00     0.078 C 
ATOM      3  C1  OXE d   1       0.704   1.044   1.521  0.00  0.00    -0.078 A 
ATOM      4  C2  OXE d   1       1.348  -0.168   1.598  0.00  0.00    -0.078 A 
ATOM      5  C3  OXE d   1       1.565  -0.908   0.440  0.00  0.00     0.003 A 
ATOM      6  C4  OXE d   1       1.272  -0.362  -0.816  0.00  0.00    -0.002 A 
ATOM      7  C5  OXE d   1       0.652   0.888  -0.919  0.00  0.00    -0.002 A 
ATOM      8  C6  OXE d   1       0.324   1.584   0.239  0.00  0.00     0.003 A 
ENDROOT
TORSDOF 0
ENDMDL
