MODEL 1
REMARK minimizedAffinity 0.939743161
REMARK minimizedRMSD -1
REMARK  0 active torsions:
REMARK  status: ('A' for Active; 'I' for Inactive)
ROOT
ATOM      1  C2' OXE d   1       0.220   0.762   1.040  0.00  0.00     0.078 C 
ATOM      2  C1' OXE d   1       1.023   3.000   2.532  0.00  0.00     0.078 C 
ATOM      3  C1  OXE d   1       0.745   3.197   1.063  0.00  0.00    -0.078 A 
ATOM      4  C2  OXE d   1       0.397   2.087   0.331  0.00  0.00    -0.078 A 
ATOM      5  C3  OXE d   1       0.076   2.223  -1.017  0.00  0.00     0.003 A 
ATOM      6  C4  OXE d   1       0.252   3.450  -1.668  0.00  0.00    -0.002 A 
ATOM      7  C5  OXE d   1       0.644   4.585  -0.949  0.00  0.00    -0.002 A 
ATOM      8  C6  OXE d   1       0.852   4.485   0.422  0.00  0.00     0.003 A 
ENDROOT
TORSDOF 0
ENDMDL
