MODEL 1
REMARK minimizedAffinity -5.79343033
REMARK minimizedRMSD -1
REMARK  0 active torsions:
REMARK  status: ('A' for Active; 'I' for Inactive)
ROOT
ATOM      1  C2' OXE d   1      -0.454   1.908   0.786  0.00  0.00     0.078 C 
ATOM      2  C1' OXE d   1      -1.580   1.327  -1.719  0.00  0.00     0.078 C 
ATOM      3  C1  OXE d   1      -0.968   2.692  -1.522  0.00  0.00    -0.078 A 
ATOM      4  C2  OXE d   1      -0.462   2.984  -0.279  0.00  0.00    -0.078 A 
ATOM      5  C3  OXE d   1       0.163   4.209  -0.059  0.00  0.00     0.003 A 
ATOM      6  C4  OXE d   1       0.143   5.202  -1.045  0.00  0.00    -0.002 A 
ATOM      7  C5  OXE d   1      -0.404   4.939  -2.306  0.00  0.00    -0.002 A 
ATOM      8  C6  OXE d   1      -0.924   3.678  -2.574  0.00  0.00     0.003 A 
ENDROOT
TORSDOF 0
ENDMDL
