MODEL 1
REMARK minimizedAffinity -0.59009403
REMARK minimizedRMSD -1
REMARK  0 active torsions:
REMARK  status: ('A' for Active; 'I' for Inactive)
ROOT
ATOM      1  C2' OXE d   1      -2.119   3.391  -3.376  0.00  0.00     0.078 C 
ATOM      2  C1' OXE d   1      -0.708   1.823  -1.523  0.00  0.00     0.078 C 
ATOM      3  C1  OXE d   1      -0.367   3.290  -1.608  0.00  0.00    -0.078 A 
ATOM      4  C2  OXE d   1      -1.029   4.040  -2.550  0.00  0.00    -0.078 A 
ATOM      5  C3  OXE d   1      -0.792   5.409  -2.633  0.00  0.00     0.003 A 
ATOM      6  C4  OXE d   1       0.225   5.999  -1.873  0.00  0.00    -0.002 A 
ATOM      7  C5  OXE d   1       0.940   5.245  -0.936  0.00  0.00    -0.002 A 
ATOM      8  C6  OXE d   1       0.628   3.902  -0.762  0.00  0.00     0.003 A 
ENDROOT
TORSDOF 0
ENDMDL
