MODEL 1
REMARK minimizedAffinity -2.33372974
REMARK minimizedRMSD -1
REMARK  0 active torsions:
REMARK  status: ('A' for Active; 'I' for Inactive)
ROOT
ATOM      1  C2' OXE d   1       0.995   2.258   1.684  0.00  0.00     0.078 C 
ATOM      2  C1' OXE d   1      -0.043   1.210  -0.705  0.00  0.00     0.078 C 
ATOM      3  C1  OXE d   1       0.293   2.680  -0.668  0.00  0.00    -0.078 A 
ATOM      4  C2  OXE d   1       0.756   3.194   0.519  0.00  0.00    -0.078 A 
ATOM      5  C3  OXE d   1       1.132   4.532   0.591  0.00  0.00     0.003 A 
ATOM      6  C4  OXE d   1       0.899   5.393  -0.488  0.00  0.00    -0.002 A 
ATOM      7  C5  OXE d   1       0.391   4.899  -1.694  0.00  0.00    -0.002 A 
ATOM      8  C6  OXE d   1       0.123   3.540  -1.814  0.00  0.00     0.003 A 
ENDROOT
TORSDOF 0
ENDMDL
