MODEL 1
REMARK minimizedAffinity 3.71483302
REMARK minimizedRMSD -1
REMARK  0 active torsions:
REMARK  status: ('A' for Active; 'I' for Inactive)
ROOT
ATOM      1  C2' OXE d   1       0.526   0.744  -1.686  0.00  0.00     0.078 C 
ATOM      2  C1' OXE d   1       0.304   3.439  -0.932  0.00  0.00     0.078 C 
ATOM      3  C1  OXE d   1       0.339   2.403   0.163  0.00  0.00    -0.078 A 
ATOM      4  C2  OXE d   1       0.401   1.084  -0.216  0.00  0.00    -0.078 A 
ATOM      5  C3  OXE d   1       0.491   0.091   0.755  0.00  0.00     0.003 A 
ATOM      6  C4  OXE d   1       0.365   0.412   2.112  0.00  0.00    -0.002 A 
ATOM      7  C5  OXE d   1       0.261   1.747   2.518  0.00  0.00    -0.002 A 
ATOM      8  C6  OXE d   1       0.290   2.755   1.561  0.00  0.00     0.003 A 
ENDROOT
TORSDOF 0
ENDMDL
