MODEL 1
REMARK minimizedAffinity 1.77524042
REMARK minimizedRMSD -1
REMARK  0 active torsions:
REMARK  status: ('A' for Active; 'I' for Inactive)
ROOT
ATOM      1  C2' OXE d   1      -0.454   1.411  -1.148  0.00  0.00     0.078 C 
ATOM      2  C1' OXE d   1       0.504   2.512   1.250  0.00  0.00     0.078 C 
ATOM      3  C1  OXE d   1       0.528   3.381   0.018  0.00  0.00    -0.078 A 
ATOM      4  C2  OXE d   1       0.101   2.819  -1.161  0.00  0.00    -0.078 A 
ATOM      5  C3  OXE d   1       0.050   3.594  -2.316  0.00  0.00     0.003 A 
ATOM      6  C4  OXE d   1       0.574   4.892  -2.322  0.00  0.00    -0.002 A 
ATOM      7  C5  OXE d   1       1.051   5.471  -1.141  0.00  0.00    -0.002 A 
ATOM      8  C6  OXE d   1       0.995   4.745   0.044  0.00  0.00     0.003 A 
ENDROOT
TORSDOF 0
ENDMDL
