MODEL 1
REMARK minimizedAffinity 1.21150458
REMARK minimizedRMSD -1
REMARK  0 active torsions:
REMARK  status: ('A' for Active; 'I' for Inactive)
ROOT
ATOM      1  C2' OXE d   1       0.608   2.269   1.939  0.00  0.00     0.078 C 
ATOM      2  C1' OXE d   1      -0.099   1.200  -0.559  0.00  0.00     0.078 C 
ATOM      3  C1  OXE d   1       0.297   2.654  -0.503  0.00  0.00    -0.078 A 
ATOM      4  C2  OXE d   1       0.596   3.181   0.731  0.00  0.00    -0.078 A 
ATOM      5  C3  OXE d   1       1.020   4.503   0.832  0.00  0.00     0.003 A 
ATOM      6  C4  OXE d   1       0.997   5.342  -0.289  0.00  0.00    -0.002 A 
ATOM      7  C5  OXE d   1       0.657   4.836  -1.548  0.00  0.00    -0.002 A 
ATOM      8  C6  OXE d   1       0.347   3.487  -1.679  0.00  0.00     0.003 A 
ENDROOT
TORSDOF 0
ENDMDL
