MODEL 1
REMARK minimizedAffinity 0.736879647
REMARK minimizedRMSD -1
REMARK  1 active torsions:
REMARK  status: ('A' for Active; 'I' for Inactive)
REMARK    1  A    between atoms: C3_4  and  O_7 
ROOT
ATOM      1  C   UNL d   1      -0.509  -0.677   1.939  0.00  0.00    -0.033 A 
ATOM      2  C1  UNL d   1      -0.075  -0.491   0.625  0.00  0.00     0.039 A 
ATOM      3  C2  UNL d   1       0.828  -1.389   0.052  0.00  0.00    -0.080 A 
ATOM      4  C3  UNL d   1       1.288  -2.468   0.803  0.00  0.00     0.150 A 
ATOM      5  C4  UNL d   1       0.857  -2.661   2.111  0.00  0.00    -0.007 A 
ATOM      6  C5  UNL d   1      -0.043  -1.762   2.682  0.00  0.00     0.039 A 
ENDROOT
BRANCH   4   7
ATOM      7  O   UNL d   1       2.173  -3.368   0.288  0.00  0.00    -0.526 OA
ATOM      8  H5  UNL d   1       2.403  -3.091  -0.614  0.00  0.00     0.418 HD
ENDBRANCH   4   7
TORSDOF 1
ENDMDL
