MODEL 1
REMARK minimizedAffinity -4.29907894
REMARK minimizedRMSD -1
REMARK  1 active torsions:
REMARK  status: ('A' for Active; 'I' for Inactive)
REMARK    1  A    between atoms: C3_4  and  O_7 
ROOT
ATOM      1  C   UNL d   1       0.249  -1.229   2.710  0.00  0.00    -0.033 A 
ATOM      2  C1  UNL d   1       0.605  -0.666   1.483  0.00  0.00     0.039 A 
ATOM      3  C2  UNL d   1       1.622  -1.240   0.718  0.00  0.00    -0.080 A 
ATOM      4  C3  UNL d   1       2.274  -2.376   1.191  0.00  0.00     0.150 A 
ATOM      5  C4  UNL d   1       1.922  -2.944   2.411  0.00  0.00    -0.007 A 
ATOM      6  C5  UNL d   1       0.906  -2.369   3.173  0.00  0.00     0.039 A 
ENDROOT
BRANCH   4   7
ATOM      7  O   UNL d   1       3.276  -2.969   0.482  0.00  0.00    -0.526 OA
ATOM      8  H5  UNL d   1       3.430  -2.451  -0.325  0.00  0.00     0.418 HD
ENDBRANCH   4   7
TORSDOF 1
ENDMDL
