MODEL 1
REMARK minimizedAffinity -1.30146837
REMARK minimizedRMSD -1
REMARK  1 active torsions:
REMARK  status: ('A' for Active; 'I' for Inactive)
REMARK    1  A    between atoms: C3_4  and  O_7 
ROOT
ATOM      1  C   UNL d   1       3.092   5.998   4.549  0.00  0.00    -0.033 A 
ATOM      2  C1  UNL d   1       2.543   5.974   5.832  0.00  0.00     0.039 A 
ATOM      3  C2  UNL d   1       1.157   5.956   6.000  0.00  0.00    -0.080 A 
ATOM      4  C3  UNL d   1       0.333   5.961   4.878  0.00  0.00     0.150 A 
ATOM      5  C4  UNL d   1       0.873   5.980   3.596  0.00  0.00    -0.007 A 
ATOM      6  C5  UNL d   1       2.258   6.000   3.431  0.00  0.00     0.039 A 
ENDROOT
BRANCH   4   7
ATOM      7  O   UNL d   1      -1.026   5.948   4.992  0.00  0.00    -0.526 OA
ATOM      8  H5  UNL d   1      -1.256   5.964   5.936  0.00  0.00     0.418 HD
ENDBRANCH   4   7
TORSDOF 1
ENDMDL
