MODEL 1
REMARK minimizedAffinity 8.6501236
REMARK minimizedRMSD -1
REMARK  1 active torsions:
REMARK  status: ('A' for Active; 'I' for Inactive)
REMARK    1  A    between atoms: C3_4  and  O_7 
ROOT
ATOM      1  C   UNL d   1      -0.990   2.504  -4.137  0.00  0.00    -0.033 A 
ATOM      2  C1  UNL d   1      -0.350   2.361  -5.370  0.00  0.00     0.039 A 
ATOM      3  C2  UNL d   1       0.213   3.472  -6.000  0.00  0.00    -0.080 A 
ATOM      4  C3  UNL d   1       0.131   4.719  -5.387  0.00  0.00     0.150 A 
ATOM      5  C4  UNL d   1      -0.502   4.869  -4.157  0.00  0.00    -0.007 A 
ATOM      6  C5  UNL d   1      -1.065   3.758  -3.530  0.00  0.00     0.039 A 
ENDROOT
BRANCH   4   7
ATOM      7  O   UNL d   1       0.661   5.834  -5.965  0.00  0.00    -0.526 OA
ATOM      8  H5  UNL d   1       1.041   5.584  -6.824  0.00  0.00     0.418 HD
ENDBRANCH   4   7
TORSDOF 1
ENDMDL
