MODEL 1
REMARK minimizedAffinity -0.710954607
REMARK minimizedRMSD -1
REMARK  1 active torsions:
REMARK  status: ('A' for Active; 'I' for Inactive)
REMARK    1  A    between atoms: C3_4  and  O_7 
ROOT
ATOM      1  C   UNL d   1       2.351   5.994   5.341  0.00  0.00    -0.033 A 
ATOM      2  C1  UNL d   1       3.746   5.995   5.292  0.00  0.00     0.039 A 
ATOM      3  C2  UNL d   1       4.403   5.996   4.060  0.00  0.00    -0.080 A 
ATOM      4  C3  UNL d   1       3.655   5.997   2.887  0.00  0.00     0.150 A 
ATOM      5  C4  UNL d   1       2.264   6.000   2.928  0.00  0.00    -0.007 A 
ATOM      6  C5  UNL d   1       1.610   5.998   4.159  0.00  0.00     0.039 A 
ENDROOT
BRANCH   4   7
ATOM      7  O   UNL d   1       4.251   5.993   1.661  0.00  0.00    -0.526 OA
ATOM      8  H5  UNL d   1       5.214   5.962   1.788  0.00  0.00     0.418 HD
ENDBRANCH   4   7
TORSDOF 1
ENDMDL
