MODEL 1
REMARK minimizedAffinity 3.48928857
REMARK minimizedRMSD -1
REMARK  1 active torsions:
REMARK  status: ('A' for Active; 'I' for Inactive)
REMARK    1  A    between atoms: C3_4  and  O_7 
ROOT
ATOM      1  C   UNL d   1      -1.693   0.313   1.701  0.00  0.00    -0.033 A 
ATOM      2  C1  UNL d   1      -2.670   0.843   2.544  0.00  0.00     0.039 A 
ATOM      3  C2  UNL d   1      -4.006   0.465   2.393  0.00  0.00    -0.080 A 
ATOM      4  C3  UNL d   1      -4.350  -0.444   1.396  0.00  0.00     0.150 A 
ATOM      5  C4  UNL d   1      -3.380  -0.979   0.555  0.00  0.00    -0.007 A 
ATOM      6  C5  UNL d   1      -2.047  -0.600   0.707  0.00  0.00     0.039 A 
ENDROOT
BRANCH   4   7
ATOM      7  O   UNL d   1      -5.641  -0.839   1.207  0.00  0.00    -0.526 OA
ATOM      8  H5  UNL d   1      -6.204  -0.366   1.841  0.00  0.00     0.418 HD
ENDBRANCH   4   7
TORSDOF 1
ENDMDL
