MODEL 1
REMARK minimizedAffinity -0.796407938
REMARK minimizedRMSD -1
REMARK  1 active torsions:
REMARK  status: ('A' for Active; 'I' for Inactive)
REMARK    1  A    between atoms: C3_4  and  O_7 
ROOT
ATOM      1  C   UNL d   1      -0.832  -1.915   3.194  0.00  0.00    -0.033 A 
ATOM      2  C1  UNL d   1      -0.133  -1.010   2.393  0.00  0.00     0.039 A 
ATOM      3  C2  UNL d   1       0.870  -1.464   1.534  0.00  0.00    -0.080 A 
ATOM      4  C3  UNL d   1       1.163  -2.824   1.485  0.00  0.00     0.150 A 
ATOM      5  C4  UNL d   1       0.469  -3.732   2.278  0.00  0.00    -0.007 A 
ATOM      6  C5  UNL d   1      -0.532  -3.277   3.135  0.00  0.00     0.039 A 
ENDROOT
BRANCH   4   7
ATOM      7  O   UNL d   1       2.137  -3.314   0.666  0.00  0.00    -0.526 OA
ATOM      8  H5  UNL d   1       2.551  -2.568   0.200  0.00  0.00     0.418 HD
ENDBRANCH   4   7
TORSDOF 1
ENDMDL
