MODEL 1
REMARK minimizedAffinity -3.65340424
REMARK minimizedRMSD -1
REMARK  1 active torsions:
REMARK  status: ('A' for Active; 'I' for Inactive)
REMARK    1  A    between atoms: C3_4  and  O_7 
ROOT
ATOM      1  C   UNL d   1       1.120  -2.522   1.777  0.00  0.00    -0.033 A 
ATOM      2  C1  UNL d   1       1.574  -2.093   0.528  0.00  0.00     0.039 A 
ATOM      3  C2  UNL d   1       1.021  -0.957  -0.066  0.00  0.00    -0.080 A 
ATOM      4  C3  UNL d   1       0.015  -0.260   0.598  0.00  0.00     0.150 A 
ATOM      5  C4  UNL d   1      -0.440  -0.680   1.844  0.00  0.00    -0.007 A 
ATOM      6  C5  UNL d   1       0.114  -1.815   2.435  0.00  0.00     0.039 A 
ENDROOT
BRANCH   4   7
ATOM      7  O   UNL d   1      -0.559   0.851   0.056  0.00  0.00    -0.526 OA
ATOM      8  H5  UNL d   1      -0.165   1.005  -0.818  0.00  0.00     0.418 HD
ENDBRANCH   4   7
TORSDOF 1
ENDMDL
