MODEL 1
REMARK minimizedAffinity 4.02942371
REMARK minimizedRMSD -1
REMARK  1 active torsions:
REMARK  status: ('A' for Active; 'I' for Inactive)
REMARK    1  A    between atoms: C1_2  and  C2_3 
ROOT
ATOM      1  C2  UNL d   1      -2.186  -2.144   0.438  0.00  0.00    -0.073 A 
ATOM      2  C3  UNL d   1      -2.029  -1.864  -0.924  0.00  0.00    -0.002 A 
ATOM      3  C4  UNL d   1      -1.731  -2.888  -1.825  0.00  0.00     0.004 A 
ATOM      4  C5  UNL d   1      -1.595  -4.201  -1.375  0.00  0.00    -0.004 A 
ATOM      5  C6  UNL d   1      -1.759  -4.503  -0.020  0.00  0.00    -0.075 A 
ATOM      6  C7  UNL d   1      -1.613  -5.910   0.481  0.00  0.00     0.076 C 
ATOM      7  C8  UNL d   1      -2.055  -3.469   0.879  0.00  0.00     0.001 A 
ENDROOT
BRANCH   1   8
ATOM      8  C1  UNL d   1      -2.513  -1.043   1.413  0.00  0.00     0.053 C 
ATOM      9  C   UNL d   1      -2.166  -1.426   2.843  0.00  0.00     0.018 C 
ENDBRANCH   1   8
TORSDOF 1
ENDMDL
