MODEL 1
REMARK minimizedAffinity 3.56369877
REMARK minimizedRMSD -1
REMARK  1 active torsions:
REMARK  status: ('A' for Active; 'I' for Inactive)
REMARK    1  A    between atoms: C1_2  and  C2_3 
ROOT
ATOM      1  C2  UNL d   1      -0.407  -2.188   5.997  0.00  0.00    -0.073 A 
ATOM      2  C3  UNL d   1       0.976  -1.973   5.994  0.00  0.00    -0.002 A 
ATOM      3  C4  UNL d   1       1.857  -3.054   5.998  0.00  0.00     0.004 A 
ATOM      4  C5  UNL d   1       1.367  -4.360   6.000  0.00  0.00    -0.004 A 
ATOM      5  C6  UNL d   1      -0.011  -4.596   5.992  0.00  0.00    -0.075 A 
ATOM      6  C7  UNL d   1      -0.555  -5.994   5.995  0.00  0.00     0.076 C 
ATOM      7  C8  UNL d   1      -0.891  -3.504   5.990  0.00  0.00     0.001 A 
ENDROOT
BRANCH   1   8
ATOM      8  C1  UNL d   1      -1.363  -1.023   5.986  0.00  0.00     0.053 C 
ATOM      9  C   UNL d   1      -1.167  -0.137   4.766  0.00  0.00     0.018 C 
ENDBRANCH   1   8
TORSDOF 1
ENDMDL
