MODEL 1
REMARK minimizedAffinity 3.11604571
REMARK minimizedRMSD -1
REMARK  1 active torsions:
REMARK  status: ('A' for Active; 'I' for Inactive)
REMARK    1  A    between atoms: C1_2  and  C2_3 
ROOT
ATOM      1  C2  UNL d   1      -3.941  -0.491   0.956  0.00  0.00    -0.073 A 
ATOM      2  C3  UNL d   1      -4.588  -1.717   1.146  0.00  0.00    -0.002 A 
ATOM      3  C4  UNL d   1      -5.613  -2.114   0.285  0.00  0.00     0.004 A 
ATOM      4  C5  UNL d   1      -5.995  -1.294  -0.776  0.00  0.00    -0.004 A 
ATOM      5  C6  UNL d   1      -5.352  -0.070  -0.990  0.00  0.00    -0.075 A 
ATOM      6  C7  UNL d   1      -5.754   0.824  -2.126  0.00  0.00     0.076 C 
ATOM      7  C8  UNL d   1      -4.326   0.323  -0.120  0.00  0.00     0.001 A 
ENDROOT
BRANCH   1   8
ATOM      8  C1  UNL d   1      -2.830  -0.061   1.878  0.00  0.00     0.053 C 
ATOM      9  C   UNL d   1      -2.847  -0.831   3.189  0.00  0.00     0.018 C 
ENDBRANCH   1   8
TORSDOF 1
ENDMDL
