MODEL 1
REMARK minimizedAffinity 17.6898689
REMARK minimizedRMSD -1
REMARK  1 active torsions:
REMARK  status: ('A' for Active; 'I' for Inactive)
REMARK    1  A    between atoms: C1_2  and  C2_3 
ROOT
ATOM      1  C2  UNL d   1      -2.213  -0.751  -1.580  0.00  0.00    -0.073 A 
ATOM      2  C3  UNL d   1      -1.804  -0.309  -0.316  0.00  0.00    -0.002 A 
ATOM      3  C4  UNL d   1      -2.750   0.002   0.661  0.00  0.00     0.004 A 
ATOM      4  C5  UNL d   1      -4.112  -0.131   0.389  0.00  0.00    -0.004 A 
ATOM      5  C6  UNL d   1      -4.539  -0.582  -0.864  0.00  0.00    -0.075 A 
ATOM      6  C7  UNL d   1      -6.000  -0.729  -1.174  0.00  0.00     0.076 C 
ATOM      7  C8  UNL d   1      -3.583  -0.891  -1.841  0.00  0.00     0.001 A 
ENDROOT
BRANCH   1   8
ATOM      8  C1  UNL d   1      -1.195  -1.095  -2.636  0.00  0.00     0.053 C 
ATOM      9  C   UNL d   1      -1.527  -2.399  -3.345  0.00  0.00     0.018 C 
ENDBRANCH   1   8
TORSDOF 1
ENDMDL
