MODEL 1
REMARK minimizedAffinity 12.4026709
REMARK minimizedRMSD -1
REMARK  1 active torsions:
REMARK  status: ('A' for Active; 'I' for Inactive)
REMARK    1  A    between atoms: C1_2  and  C2_3 
ROOT
ATOM      1  C2  UNL d   1       5.095   0.759   1.315  0.00  0.00    -0.073 A 
ATOM      2  C3  UNL d   1       5.951   1.538   0.528  0.00  0.00    -0.002 A 
ATOM      3  C4  UNL d   1       5.591   1.881  -0.776  0.00  0.00     0.004 A 
ATOM      4  C5  UNL d   1       4.372   1.456  -1.303  0.00  0.00    -0.004 A 
ATOM      5  C6  UNL d   1       3.498   0.688  -0.527  0.00  0.00    -0.075 A 
ATOM      6  C7  UNL d   1       2.183   0.221  -1.080  0.00  0.00     0.076 C 
ATOM      7  C8  UNL d   1       3.867   0.345   0.780  0.00  0.00     0.001 A 
ENDROOT
BRANCH   1   8
ATOM      8  C1  UNL d   1       5.476   0.392   2.726  0.00  0.00     0.053 C 
ATOM      9  C   UNL d   1       5.866   1.610   3.548  0.00  0.00     0.018 C 
ENDBRANCH   1   8
TORSDOF 1
ENDMDL
