MODEL 1
REMARK minimizedAffinity 17.8244534
REMARK minimizedRMSD -1
REMARK  1 active torsions:
REMARK  status: ('A' for Active; 'I' for Inactive)
REMARK    1  A    between atoms: C1_2  and  C2_3 
ROOT
ATOM      1  C2  UNL d   1      -5.988   4.449  -1.589  0.00  0.00    -0.073 A 
ATOM      2  C3  UNL d   1      -5.996   5.578  -2.416  0.00  0.00    -0.002 A 
ATOM      3  C4  UNL d   1      -5.996   5.434  -3.804  0.00  0.00     0.004 A 
ATOM      4  C5  UNL d   1      -5.996   4.163  -4.379  0.00  0.00    -0.004 A 
ATOM      5  C6  UNL d   1      -6.000   3.023  -3.569  0.00  0.00    -0.075 A 
ATOM      6  C7  UNL d   1      -5.997   1.649  -4.171  0.00  0.00     0.076 C 
ATOM      7  C8  UNL d   1      -5.997   3.175  -2.175  0.00  0.00     0.001 A 
ENDROOT
BRANCH   1   8
ATOM      8  C1  UNL d   1      -5.995   4.599  -0.089  0.00  0.00     0.053 C 
ATOM      9  C   UNL d   1      -5.444   5.946   0.351  0.00  0.00     0.018 C 
ENDBRANCH   1   8
TORSDOF 1
ENDMDL
