MODEL 1
REMARK minimizedAffinity 18.0381832
REMARK minimizedRMSD -1
REMARK  1 active torsions:
REMARK  status: ('A' for Active; 'I' for Inactive)
REMARK    1  A    between atoms: C1_2  and  C2_3 
ROOT
ATOM      1  C2  UNL d   1      -3.618  -1.147  -1.680  0.00  0.00    -0.073 A 
ATOM      2  C3  UNL d   1      -4.877  -1.434  -2.219  0.00  0.00    -0.002 A 
ATOM      3  C4  UNL d   1      -5.999  -0.708  -1.816  0.00  0.00     0.004 A 
ATOM      4  C5  UNL d   1      -5.872   0.315  -0.877  0.00  0.00    -0.004 A 
ATOM      5  C6  UNL d   1      -4.620   0.624  -0.335  0.00  0.00    -0.075 A 
ATOM      6  C7  UNL d   1      -4.468   1.721   0.678  0.00  0.00     0.076 C 
ATOM      7  C8  UNL d   1      -3.499  -0.111  -0.743  0.00  0.00     0.001 A 
ENDROOT
BRANCH   1   8
ATOM      8  C1  UNL d   1      -2.403  -1.924  -2.117  0.00  0.00     0.053 C 
ATOM      9  C   UNL d   1      -1.123  -1.123  -1.947  0.00  0.00     0.018 C 
ENDBRANCH   1   8
TORSDOF 1
ENDMDL
