MODEL 1
REMARK minimizedAffinity 10.3685665
REMARK minimizedRMSD -1
REMARK  0 active torsions:
REMARK  status: ('A' for Active; 'I' for Inactive)
ROOT
ATOM      1  N1  IND d   1       3.715   0.555  -5.956  0.00  0.00    -0.196 N 
ATOM      2  C2  IND d   1       2.363   0.754  -5.905  0.00  0.00     0.054 A 
ATOM      3  C3  IND d   1       2.085   2.076  -5.852  0.00  0.00    -0.031 A 
ATOM      4  C4  IND d   1       3.686   4.090  -5.939  0.00  0.00     0.051 A 
ATOM      5  C5  IND d   1       5.014   4.410  -5.950  0.00  0.00    -0.031 A 
ATOM      6  C6  IND d   1       5.998   3.442  -5.967  0.00  0.00     0.015 A 
ATOM      7  C7  IND d   1       5.687   2.112  -5.985  0.00  0.00    -0.016 A 
ATOM      8  C8  IND d   1       4.339   1.783  -5.966  0.00  0.00    -0.047 A 
ATOM      9  C9  IND d   1       3.337   2.760  -5.907  0.00  0.00    -0.096 A 
ATOM     10  HN1 IND d   1       4.109  -0.209  -5.979  0.00  0.00     0.298 HD
ENDROOT
TORSDOF 0
ENDMDL
