MODEL 1
REMARK minimizedAffinity 5.94199228
REMARK minimizedRMSD -1
REMARK  0 active torsions:
REMARK  status: ('A' for Active; 'I' for Inactive)
ROOT
ATOM      1  N1  IND d   1       4.576   0.945  -2.393  0.00  0.00    -0.196 N 
ATOM      2  C2  IND d   1       3.336   1.368  -2.002  0.00  0.00     0.054 A 
ATOM      3  C3  IND d   1       2.807   2.197  -2.931  0.00  0.00    -0.031 A 
ATOM      4  C4  IND d   1       3.757   2.914  -5.213  0.00  0.00     0.051 A 
ATOM      5  C5  IND d   1       4.874   2.814  -5.995  0.00  0.00    -0.031 A 
ATOM      6  C6  IND d   1       5.970   2.069  -5.609  0.00  0.00     0.015 A 
ATOM      7  C7  IND d   1       5.985   1.384  -4.427  0.00  0.00    -0.016 A 
ATOM      8  C8  IND d   1       4.855   1.488  -3.628  0.00  0.00    -0.047 A 
ATOM      9  C9  IND d   1       3.757   2.277  -3.995  0.00  0.00    -0.096 A 
ATOM     10  HN1 IND d   1       5.094   0.427  -1.943  0.00  0.00     0.298 HD
ENDROOT
TORSDOF 0
ENDMDL
