MODEL 1
REMARK minimizedAffinity 4.95007849
REMARK minimizedRMSD -1
REMARK  0 active torsions:
REMARK  status: ('A' for Active; 'I' for Inactive)
ROOT
ATOM      1  N1  IND d   1      -5.280   2.347  -5.972  0.00  0.00    -0.196 N 
ATOM      2  C2  IND d   1      -4.188   1.525  -5.974  0.00  0.00     0.054 A 
ATOM      3  C3  IND d   1      -3.050   2.256  -5.998  0.00  0.00    -0.031 A 
ATOM      4  C4  IND d   1      -2.746   4.811  -5.934  0.00  0.00     0.051 A 
ATOM      5  C5  IND d   1      -3.452   5.981  -5.962  0.00  0.00    -0.031 A 
ATOM      6  C6  IND d   1      -4.832   6.000  -5.994  0.00  0.00     0.015 A 
ATOM      7  C7  IND d   1      -5.560   4.844  -5.986  0.00  0.00    -0.016 A 
ATOM      8  C8  IND d   1      -4.846   3.654  -5.964  0.00  0.00    -0.047 A 
ATOM      9  C9  IND d   1      -3.446   3.628  -5.975  0.00  0.00    -0.096 A 
ATOM     10  HN1 IND d   1      -6.101   2.090  -5.974  0.00  0.00     0.298 HD
ENDROOT
TORSDOF 0
ENDMDL
