MODEL 1
REMARK minimizedAffinity 10.5433779
REMARK minimizedRMSD -1
REMARK  0 active torsions:
REMARK  status: ('A' for Active; 'I' for Inactive)
ROOT
ATOM      1  N1  IND d   1       2.973  -0.819  -0.212  0.00  0.00    -0.196 N 
ATOM      2  C2  IND d   1       2.249  -0.355   0.851  0.00  0.00     0.054 A 
ATOM      3  C3  IND d   1       1.281   0.488   0.429  0.00  0.00    -0.031 A 
ATOM      4  C4  IND d   1       0.637   1.171  -1.969  0.00  0.00     0.051 A 
ATOM      5  C5  IND d   1       1.032   1.034  -3.270  0.00  0.00    -0.031 A 
ATOM      6  C6  IND d   1       2.113   0.255  -3.626  0.00  0.00     0.015 A 
ATOM      7  C7  IND d   1       2.837  -0.429  -2.691  0.00  0.00    -0.016 A 
ATOM      8  C8  IND d   1       2.444  -0.287  -1.368  0.00  0.00    -0.047 A 
ATOM      9  C9  IND d   1       1.374   0.536  -0.996  0.00  0.00    -0.096 A 
ATOM     10  HN1 IND d   1       3.645  -1.353  -0.167  0.00  0.00     0.298 HD
ENDROOT
TORSDOF 0
ENDMDL
