MODEL 1
REMARK minimizedAffinity 9.74358273
REMARK minimizedRMSD -1
REMARK  0 active torsions:
REMARK  status: ('A' for Active; 'I' for Inactive)
ROOT
ATOM      1  N1  IND d   1      -5.635   4.642  -5.982  0.00  0.00    -0.196 N 
ATOM      2  C2  IND d   1      -5.146   5.917  -5.914  0.00  0.00     0.054 A 
ATOM      3  C3  IND d   1      -3.797   5.899  -5.830  0.00  0.00    -0.031 A 
ATOM      4  C4  IND d   1      -2.180   3.897  -5.890  0.00  0.00     0.051 A 
ATOM      5  C5  IND d   1      -2.158   2.530  -5.906  0.00  0.00    -0.031 A 
ATOM      6  C6  IND d   1      -3.317   1.783  -5.952  0.00  0.00     0.015 A 
ATOM      7  C7  IND d   1      -4.547   2.377  -5.995  0.00  0.00    -0.016 A 
ATOM      8  C8  IND d   1      -4.573   3.764  -5.972  0.00  0.00    -0.047 A 
ATOM      9  C9  IND d   1      -3.402   4.528  -5.882  0.00  0.00    -0.096 A 
ATOM     10  HN1 IND d   1      -6.466   4.425  -6.024  0.00  0.00     0.298 HD
ENDROOT
TORSDOF 0
ENDMDL
