MODEL 1
REMARK minimizedAffinity 4.85461426
REMARK minimizedRMSD -1
REMARK  0 active torsions:
REMARK  status: ('A' for Active; 'I' for Inactive)
ROOT
ATOM      1  N1  IND d   1       1.651  -5.994  -5.911  0.00  0.00    -0.196 N 
ATOM      2  C2  IND d   1       0.747  -5.991  -4.885  0.00  0.00     0.054 A 
ATOM      3  C3  IND d   1       1.388  -5.999  -3.695  0.00  0.00    -0.031 A 
ATOM      4  C4  IND d   1       3.912  -5.916  -3.195  0.00  0.00     0.051 A 
ATOM      5  C5  IND d   1       5.133  -5.944  -3.808  0.00  0.00    -0.031 A 
ATOM      6  C6  IND d   1       5.258  -5.989  -5.181  0.00  0.00     0.015 A 
ATOM      7  C7  IND d   1       4.162  -5.996  -5.997  0.00  0.00    -0.016 A 
ATOM      8  C8  IND d   1       2.920  -5.974  -5.377  0.00  0.00    -0.047 A 
ATOM      9  C9  IND d   1       2.786  -5.971  -3.983  0.00  0.00    -0.096 A 
ATOM     10  HN1 IND d   1       1.458  -6.007  -6.749  0.00  0.00     0.298 HD
ENDROOT
TORSDOF 0
ENDMDL
