MODEL 1
REMARK minimizedAffinity 9.68360615
REMARK minimizedRMSD -1
REMARK  0 active torsions:
REMARK  status: ('A' for Active; 'I' for Inactive)
ROOT
ATOM      1  N1  IND d   1       0.628   0.745   1.122  0.00  0.00    -0.196 N 
ATOM      2  C2  IND d   1       0.173   0.915  -0.156  0.00  0.00     0.054 A 
ATOM      3  C3  IND d   1       0.961   1.788  -0.823  0.00  0.00    -0.031 A 
ATOM      4  C4  IND d   1       3.108   2.978  -0.046  0.00  0.00     0.051 A 
ATOM      5  C5  IND d   1       3.897   3.165   1.054  0.00  0.00    -0.031 A 
ATOM      6  C6  IND d   1       3.634   2.540   2.256  0.00  0.00     0.015 A 
ATOM      7  C7  IND d   1       2.573   1.692   2.400  0.00  0.00    -0.016 A 
ATOM      8  C8  IND d   1       1.764   1.505   1.288  0.00  0.00    -0.047 A 
ATOM      9  C9  IND d   1       2.002   2.170   0.078  0.00  0.00    -0.096 A 
ATOM     10  HN1 IND d   1       0.265   0.246   1.721  0.00  0.00     0.298 HD
ENDROOT
TORSDOF 0
ENDMDL
