MODEL 1
REMARK minimizedAffinity 12.1898489
REMARK minimizedRMSD -1
REMARK  0 active torsions:
REMARK  status: ('A' for Active; 'I' for Inactive)
ROOT
ATOM      1  N1  IND d   1       3.767   4.481  -0.849  0.00  0.00    -0.196 N 
ATOM      2  C2  IND d   1       2.605   3.998  -0.315  0.00  0.00     0.054 A 
ATOM      3  C3  IND d   1       2.465   2.685  -0.601  0.00  0.00    -0.031 A 
ATOM      4  C4  IND d   1       4.070   1.102  -1.846  0.00  0.00     0.051 A 
ATOM      5  C5  IND d   1       5.241   1.092  -2.550  0.00  0.00    -0.031 A 
ATOM      6  C6  IND d   1       5.998   2.232  -2.725  0.00  0.00     0.015 A 
ATOM      7  C7  IND d   1       5.615   3.430  -2.189  0.00  0.00    -0.016 A 
ATOM      8  C8  IND d   1       4.423   3.446  -1.480  0.00  0.00    -0.047 A 
ATOM      9  C9  IND d   1       3.629   2.300  -1.336  0.00  0.00    -0.096 A 
ATOM     10  HN1 IND d   1       4.042   5.294  -0.800  0.00  0.00     0.298 HD
ENDROOT
TORSDOF 0
ENDMDL
