MODEL 1
REMARK minimizedAffinity 1.72331023
REMARK minimizedRMSD -1
REMARK  0 active torsions:
REMARK  status: ('A' for Active; 'I' for Inactive)
ROOT
ATOM      1  N1  IND d   1       1.629  -5.925  -3.729  0.00  0.00    -0.196 N 
ATOM      2  C2  IND d   1       0.941  -5.889  -4.910  0.00  0.00     0.054 A 
ATOM      3  C3  IND d   1       1.799  -5.868  -5.954  0.00  0.00    -0.031 A 
ATOM      4  C4  IND d   1       4.371  -5.991  -5.960  0.00  0.00     0.051 A 
ATOM      5  C5  IND d   1       5.451  -6.000  -5.122  0.00  0.00    -0.031 A 
ATOM      6  C6  IND d   1       5.309  -5.987  -3.749  0.00  0.00     0.015 A 
ATOM      7  C7  IND d   1       4.076  -5.976  -3.161  0.00  0.00    -0.016 A 
ATOM      8  C8  IND d   1       2.977  -5.960  -4.008  0.00  0.00    -0.047 A 
ATOM      9  C9  IND d   1       3.115  -5.930  -5.402  0.00  0.00    -0.096 A 
ATOM     10  HN1 IND d   1       1.278  -5.927  -2.944  0.00  0.00     0.298 HD
ENDROOT
TORSDOF 0
ENDMDL
