MODEL 1
REMARK minimizedAffinity 15.5683937
REMARK minimizedRMSD -1
REMARK  0 active torsions:
REMARK  status: ('A' for Active; 'I' for Inactive)
ROOT
ATOM      1  N1  IND d   1       5.070   2.370   4.195  0.00  0.00    -0.196 N 
ATOM      2  C2  IND d   1       6.000   2.221   5.186  0.00  0.00     0.054 A 
ATOM      3  C3  IND d   1       6.000   3.302   5.998  0.00  0.00    -0.031 A 
ATOM      4  C4  IND d   1       4.488   5.385   5.947  0.00  0.00     0.051 A 
ATOM      5  C5  IND d   1       3.512   5.990   5.205  0.00  0.00    -0.031 A 
ATOM      6  C6  IND d   1       2.994   5.406   4.068  0.00  0.00     0.015 A 
ATOM      7  C7  IND d   1       3.425   4.185   3.634  0.00  0.00    -0.016 A 
ATOM      8  C8  IND d   1       4.421   3.571   4.380  0.00  0.00    -0.047 A 
ATOM      9  C9  IND d   1       4.981   4.178   5.512  0.00  0.00    -0.096 A 
ATOM     10  HN1 IND d   1       4.917   1.808   3.563  0.00  0.00     0.298 HD
ENDROOT
TORSDOF 0
ENDMDL
