MODEL 1
REMARK minimizedAffinity 5.08191586
REMARK minimizedRMSD -1
REMARK  0 active torsions:
REMARK  status: ('A' for Active; 'I' for Inactive)
ROOT
ATOM      1  N1  IND d   1       3.781  -1.671  -1.351  0.00  0.00    -0.196 N 
ATOM      2  C2  IND d   1       3.219  -2.625  -0.550  0.00  0.00     0.054 A 
ATOM      3  C3  IND d   1       2.546  -2.047   0.470  0.00  0.00    -0.031 A 
ATOM      4  C4  IND d   1       2.148   0.448   0.961  0.00  0.00     0.051 A 
ATOM      5  C5  IND d   1       2.493   1.699   0.531  0.00  0.00    -0.031 A 
ATOM      6  C6  IND d   1       3.299   1.894  -0.572  0.00  0.00     0.015 A 
ATOM      7  C7  IND d   1       3.783   0.842  -1.296  0.00  0.00    -0.016 A 
ATOM      8  C8  IND d   1       3.440  -0.430  -0.858  0.00  0.00    -0.047 A 
ATOM      9  C9  IND d   1       2.658  -0.635   0.285  0.00  0.00    -0.096 A 
ATOM     10  HN1 IND d   1       4.265  -1.820  -2.045  0.00  0.00     0.298 HD
ENDROOT
TORSDOF 0
ENDMDL
