MODEL 1
REMARK minimizedAffinity 8.2158823
REMARK minimizedRMSD -1
REMARK  0 active torsions:
REMARK  status: ('A' for Active; 'I' for Inactive)
ROOT
ATOM      1  N1  IND d   1      -1.767   3.199  -6.000  0.00  0.00    -0.196 N 
ATOM      2  C2  IND d   1      -2.075   1.867  -5.984  0.00  0.00     0.054 A 
ATOM      3  C3  IND d   1      -3.416   1.696  -5.943  0.00  0.00    -0.031 A 
ATOM      4  C4  IND d   1      -5.293   3.457  -6.000  0.00  0.00     0.051 A 
ATOM      5  C5  IND d   1      -5.504   4.807  -5.979  0.00  0.00    -0.031 A 
ATOM      6  C6  IND d   1      -4.459   5.708  -5.966  0.00  0.00     0.015 A 
ATOM      7  C7  IND d   1      -3.158   5.291  -5.986  0.00  0.00    -0.016 A 
ATOM      8  C8  IND d   1      -2.940   3.921  -6.000  0.00  0.00    -0.047 A 
ATOM      9  C9  IND d   1      -3.996   3.001  -5.970  0.00  0.00    -0.096 A 
ATOM     10  HN1 IND d   1      -0.973   3.530  -6.008  0.00  0.00     0.298 HD
ENDROOT
TORSDOF 0
ENDMDL
