MODEL 1
REMARK minimizedAffinity 7.7507205
REMARK minimizedRMSD -1
REMARK  0 active torsions:
REMARK  status: ('A' for Active; 'I' for Inactive)
ROOT
ATOM      1  N1  IND d   1       1.563   2.390   1.036  0.00  0.00    -0.196 N 
ATOM      2  C2  IND d   1       2.143   1.389   1.764  0.00  0.00     0.054 A 
ATOM      3  C3  IND d   1       2.882   0.590   0.962  0.00  0.00    -0.031 A 
ATOM      4  C4  IND d   1       3.362   0.800  -1.559  0.00  0.00     0.051 A 
ATOM      5  C5  IND d   1       3.024   1.531  -2.663  0.00  0.00    -0.031 A 
ATOM      6  C6  IND d   1       2.167   2.610  -2.588  0.00  0.00     0.015 A 
ATOM      7  C7  IND d   1       1.622   3.006  -1.399  0.00  0.00    -0.016 A 
ATOM      8  C8  IND d   1       1.957   2.261  -0.278  0.00  0.00    -0.047 A 
ATOM      9  C9  IND d   1       2.793   1.139  -0.354  0.00  0.00    -0.096 A 
ATOM     10  HN1 IND d   1       1.040   2.997   1.346  0.00  0.00     0.298 HD
ENDROOT
TORSDOF 0
ENDMDL
