MODEL 1
REMARK minimizedAffinity 0.951136589
REMARK minimizedRMSD -1
REMARK  0 active torsions:
REMARK  status: ('A' for Active; 'I' for Inactive)
ROOT
ATOM      1  N1  IND d   1       3.868   5.910   5.607  0.00  0.00    -0.196 N 
ATOM      2  C2  IND d   1       2.551   6.000   5.252  0.00  0.00     0.054 A 
ATOM      3  C3  IND d   1       2.235   5.026   4.369  0.00  0.00    -0.031 A 
ATOM      4  C4  IND d   1       3.695   3.117   3.447  0.00  0.00     0.051 A 
ATOM      5  C5  IND d   1       4.976   2.642   3.452  0.00  0.00    -0.031 A 
ATOM      6  C6  IND d   1       5.974   3.243   4.193  0.00  0.00     0.015 A 
ATOM      7  C7  IND d   1       5.723   4.339   4.969  0.00  0.00    -0.016 A 
ATOM      8  C8  IND d   1       4.424   4.828   4.960  0.00  0.00    -0.047 A 
ATOM      9  C9  IND d   1       3.418   4.248   4.177  0.00  0.00    -0.096 A 
ATOM     10  HN1 IND d   1       4.280   6.440   6.144  0.00  0.00     0.298 HD
ENDROOT
TORSDOF 0
ENDMDL
