MODEL 1
REMARK minimizedAffinity 3.35638833
REMARK minimizedRMSD -1
REMARK  0 active torsions:
REMARK  status: ('A' for Active; 'I' for Inactive)
ROOT
ATOM      1  N1  IND d   1       1.970   5.282   2.460  0.00  0.00    -0.196 N 
ATOM      2  C2  IND d   1       2.774   4.498   1.680  0.00  0.00     0.054 A 
ATOM      3  C3  IND d   1       3.830   4.050   2.395  0.00  0.00    -0.031 A 
ATOM      4  C4  IND d   1       4.384   4.395   4.886  0.00  0.00     0.051 A 
ATOM      5  C5  IND d   1       3.965   5.067   5.999  0.00  0.00    -0.031 A 
ATOM      6  C6  IND d   1       2.835   5.859   5.991  0.00  0.00     0.015 A 
ATOM      7  C7  IND d   1       2.072   6.000   4.866  0.00  0.00    -0.016 A 
ATOM      8  C8  IND d   1       2.499   5.324   3.731  0.00  0.00    -0.047 A 
ATOM      9  C9  IND d   1       3.668   4.553   3.723  0.00  0.00    -0.096 A 
ATOM     10  HN1 IND d   1       1.254   5.681   2.200  0.00  0.00     0.298 HD
ENDROOT
TORSDOF 0
ENDMDL
