MODEL 1
REMARK minimizedAffinity 14.4592171
REMARK minimizedRMSD -1
REMARK  0 active torsions:
REMARK  status: ('A' for Active; 'I' for Inactive)
ROOT
ATOM      1  N1  IND d   1       2.357   3.851   3.008  0.00  0.00    -0.196 N 
ATOM      2  C2  IND d   1       3.041   2.766   2.534  0.00  0.00     0.054 A 
ATOM      3  C3  IND d   1       4.251   2.675   3.130  0.00  0.00    -0.031 A 
ATOM      4  C4  IND d   1       5.274   4.137   4.986  0.00  0.00     0.051 A 
ATOM      5  C5  IND d   1       5.042   5.269   5.716  0.00  0.00    -0.031 A 
ATOM      6  C6  IND d   1       3.879   5.999   5.580  0.00  0.00     0.015 A 
ATOM      7  C7  IND d   1       2.895   5.616   4.713  0.00  0.00    -0.016 A 
ATOM      8  C8  IND d   1       3.130   4.472   3.965  0.00  0.00    -0.047 A 
ATOM      9  C9  IND d   1       4.326   3.750   4.068  0.00  0.00    -0.096 A 
ATOM     10  HN1 IND d   1       1.576   4.103   2.751  0.00  0.00     0.298 HD
ENDROOT
TORSDOF 0
ENDMDL
