MODEL 1
REMARK minimizedAffinity 17.049427
REMARK minimizedRMSD -1
REMARK  0 active torsions:
REMARK  status: ('A' for Active; 'I' for Inactive)
ROOT
ATOM      1  N1  IND d   1      -2.934   5.750  -5.819  0.00  0.00    -0.196 N 
ATOM      2  C2  IND d   1      -4.277   5.995  -5.873  0.00  0.00     0.054 A 
ATOM      3  C3  IND d   1      -4.963   4.836  -5.983  0.00  0.00    -0.031 A 
ATOM      4  C4  IND d   1      -4.091   2.414  -5.991  0.00  0.00     0.051 A 
ATOM      5  C5  IND d   1      -2.935   1.685  -6.000  0.00  0.00    -0.031 A 
ATOM      6  C6  IND d   1      -1.694   2.287  -5.945  0.00  0.00     0.015 A 
ATOM      7  C7  IND d   1      -1.563   3.644  -5.867  0.00  0.00    -0.016 A 
ATOM      8  C8  IND d   1      -2.735   4.387  -5.865  0.00  0.00    -0.047 A 
ATOM      9  C9  IND d   1      -3.996   3.785  -5.964  0.00  0.00    -0.096 A 
ATOM     10  HN1 IND d   1      -2.316   6.346  -5.765  0.00  0.00     0.298 HD
ENDROOT
TORSDOF 0
ENDMDL
