MODEL 1
REMARK minimizedAffinity 23.5754108
REMARK minimizedRMSD -1
REMARK  0 active torsions:
REMARK  status: ('A' for Active; 'I' for Inactive)
ROOT
ATOM      1  N1  IND d   1       2.852   3.745  -5.998  0.00  0.00    -0.196 N 
ATOM      2  C2  IND d   1       4.171   3.384  -5.998  0.00  0.00     0.054 A 
ATOM      3  C3  IND d   1       4.313   2.119  -5.544  0.00  0.00    -0.031 A 
ATOM      4  C4  IND d   1       2.509   0.421  -4.843  0.00  0.00     0.051 A 
ATOM      5  C5  IND d   1       1.163   0.302  -4.639  0.00  0.00    -0.031 A 
ATOM      6  C6  IND d   1       0.293   1.345  -4.886  0.00  0.00     0.015 A 
ATOM      7  C7  IND d   1       0.738   2.547  -5.358  0.00  0.00    -0.016 A 
ATOM      8  C8  IND d   1       2.105   2.674  -5.560  0.00  0.00    -0.047 A 
ATOM      9  C9  IND d   1       2.997   1.633  -5.271  0.00  0.00    -0.096 A 
ATOM     10  HN1 IND d   1       2.542   4.511  -6.233  0.00  0.00     0.298 HD
ENDROOT
TORSDOF 0
ENDMDL
