MODEL 1
REMARK minimizedAffinity 20.4290962
REMARK minimizedRMSD -1
REMARK  0 active torsions:
REMARK  status: ('A' for Active; 'I' for Inactive)
ROOT
ATOM      1  N1  IND d   1      -3.712  -1.550   3.540  0.00  0.00    -0.196 N 
ATOM      2  C2  IND d   1      -4.864  -1.127   2.938  0.00  0.00     0.054 A 
ATOM      3  C3  IND d   1      -5.917  -1.851   3.378  0.00  0.00    -0.031 A 
ATOM      4  C4  IND d   1      -5.996  -3.710   5.158  0.00  0.00     0.051 A 
ATOM      5  C5  IND d   1      -5.189  -4.467   5.960  0.00  0.00    -0.031 A 
ATOM      6  C6  IND d   1      -3.822  -4.285   6.000  0.00  0.00     0.015 A 
ATOM      7  C7  IND d   1      -3.209  -3.327   5.243  0.00  0.00    -0.016 A 
ATOM      8  C8  IND d   1      -4.023  -2.561   4.422  0.00  0.00    -0.047 A 
ATOM      9  C9  IND d   1      -5.406  -2.769   4.346  0.00  0.00    -0.096 A 
ATOM     10  HN1 IND d   1      -2.925  -1.237   3.392  0.00  0.00     0.298 HD
ENDROOT
TORSDOF 0
ENDMDL
