MODEL 1
REMARK minimizedAffinity 16.8273907
REMARK minimizedRMSD -1
REMARK  0 active torsions:
REMARK  status: ('A' for Active; 'I' for Inactive)
ROOT
ATOM      1  C   UNL d   1      -1.428  -1.320  -3.347  0.00  0.00     0.124 A 
ATOM      2  C1  UNL d   1      -0.782  -1.932  -2.282  0.00  0.00     0.062 A 
ATOM      3  C2  UNL d   1       0.607  -1.909  -2.199  0.00  0.00     0.162 A 
ATOM      4  C3  UNL d   1       1.360  -1.270  -3.184  0.00  0.00    -0.034 A 
ATOM      5  C4  UNL d   1       0.703  -0.657  -4.253  0.00  0.00     0.162 A 
ATOM      6  C5  UNL d   1      -0.686  -0.684  -4.331  0.00  0.00     0.062 A 
ATOM      7  F   UNL d   1      -1.308  -0.092  -5.361  0.00  0.00    -0.097 F 
ATOM      8  F1  UNL d   1       1.396  -0.034  -5.217  0.00  0.00    -0.096 F 
ATOM      9  I   UNL d   1       3.437  -1.233  -3.064  0.00  0.00    -0.060 I 
ATOM     10  F2  UNL d   1       1.205  -2.508  -1.159  0.00  0.00    -0.096 F 
ATOM     11  F3  UNL d   1      -1.498  -2.549  -1.330  0.00  0.00    -0.097 F 
ATOM     12  F4  UNL d   1      -2.765  -1.345  -3.425  0.00  0.00    -0.092 F 
ENDROOT
TORSDOF 0
ENDMDL
