MODEL 1
REMARK minimizedAffinity 20.6000538
REMARK minimizedRMSD -1
REMARK  0 active torsions:
REMARK  status: ('A' for Active; 'I' for Inactive)
ROOT
ATOM      1  C   UNL d   1      -1.788  -0.153   1.469  0.00  0.00     0.124 A 
ATOM      2  C1  UNL d   1      -1.624   1.039   2.161  0.00  0.00     0.062 A 
ATOM      3  C2  UNL d   1      -0.439   1.294   2.846  0.00  0.00     0.162 A 
ATOM      4  C3  UNL d   1       0.592   0.355   2.842  0.00  0.00    -0.034 A 
ATOM      5  C4  UNL d   1       0.420  -0.842   2.144  0.00  0.00     0.162 A 
ATOM      6  C5  UNL d   1      -0.766  -1.092   1.461  0.00  0.00     0.062 A 
ATOM      7  F   UNL d   1      -0.923  -2.244   0.793  0.00  0.00    -0.097 F 
ATOM      8  F1  UNL d   1       1.391  -1.767   2.119  0.00  0.00    -0.096 F 
ATOM      9  I   UNL d   1       2.365   0.731   3.865  0.00  0.00    -0.060 I 
ATOM     10  F2  UNL d   1      -0.308   2.454   3.506  0.00  0.00    -0.096 F 
ATOM     11  F3  UNL d   1      -2.609   1.948   2.171  0.00  0.00    -0.097 F 
ATOM     12  F4  UNL d   1      -2.929  -0.395   0.812  0.00  0.00    -0.092 F 
ENDROOT
TORSDOF 0
ENDMDL
