MODEL 1
REMARK minimizedAffinity 21.7727242
REMARK minimizedRMSD -1
REMARK  0 active torsions:
REMARK  status: ('A' for Active; 'I' for Inactive)
ROOT
ATOM      1  C   UNL d   1       1.266  -0.576  -4.831  0.00  0.00     0.124 A 
ATOM      2  C1  UNL d   1       2.482  -1.204  -4.599  0.00  0.00     0.062 A 
ATOM      3  C2  UNL d   1       2.623  -2.568  -4.838  0.00  0.00     0.162 A 
ATOM      4  C3  UNL d   1       1.544  -3.314  -5.313  0.00  0.00    -0.034 A 
ATOM      5  C4  UNL d   1       0.324  -2.676  -5.543  0.00  0.00     0.162 A 
ATOM      6  C5  UNL d   1       0.189  -1.313  -5.303  0.00  0.00     0.062 A 
ATOM      7  F   UNL d   1      -0.987  -0.708  -5.528  0.00  0.00    -0.097 F 
ATOM      8  F1  UNL d   1      -0.733  -3.363  -6.000  0.00  0.00    -0.096 F 
ATOM      9  I   UNL d   1       1.750  -5.354  -5.671  0.00  0.00    -0.060 I 
ATOM     10  F2  UNL d   1       3.809  -3.149  -4.605  0.00  0.00    -0.096 F 
ATOM     11  F3  UNL d   1       3.525  -0.495  -4.142  0.00  0.00    -0.097 F 
ATOM     12  F4  UNL d   1       1.134   0.736  -4.599  0.00  0.00    -0.092 F 
ENDROOT
TORSDOF 0
ENDMDL
