MODEL 1
REMARK minimizedAffinity 18.3211288
REMARK minimizedRMSD -1
REMARK  0 active torsions:
REMARK  status: ('A' for Active; 'I' for Inactive)
ROOT
ATOM      1  C   UNL d   1      -0.760  -2.237  -2.372  0.00  0.00     0.124 A 
ATOM      2  C1  UNL d   1      -1.398  -3.436  -2.088  0.00  0.00     0.062 A 
ATOM      3  C2  UNL d   1      -1.840  -4.256  -3.122  0.00  0.00     0.162 A 
ATOM      4  C3  UNL d   1      -1.645  -3.880  -4.451  0.00  0.00    -0.034 A 
ATOM      5  C4  UNL d   1      -1.003  -2.672  -4.729  0.00  0.00     0.162 A 
ATOM      6  C5  UNL d   1      -0.563  -1.856  -3.692  0.00  0.00     0.062 A 
ATOM      7  F   UNL d   1       0.053  -0.698  -3.969  0.00  0.00    -0.097 F 
ATOM      8  F1  UNL d   1      -0.799  -2.281  -5.996  0.00  0.00    -0.096 F 
ATOM      9  I   UNL d   1      -2.304  -5.104  -6.000  0.00  0.00    -0.060 I 
ATOM     10  F2  UNL d   1      -2.454  -5.409  -2.818  0.00  0.00    -0.096 F 
ATOM     11  F3  UNL d   1      -1.591  -3.805  -0.813  0.00  0.00    -0.097 F 
ATOM     12  F4  UNL d   1      -0.337  -1.449  -1.376  0.00  0.00    -0.092 F 
ENDROOT
TORSDOF 0
ENDMDL
