MODEL 1
REMARK minimizedAffinity 29.2929688
REMARK minimizedRMSD -1
REMARK  0 active torsions:
REMARK  status: ('A' for Active; 'I' for Inactive)
ROOT
ATOM      1  C   UNL d   1       1.779  -1.608  -3.873  0.00  0.00     0.124 A 
ATOM      2  C1  UNL d   1       2.016  -2.760  -4.611  0.00  0.00     0.062 A 
ATOM      3  C2  UNL d   1       0.956  -3.453  -5.187  0.00  0.00     0.162 A 
ATOM      4  C3  UNL d   1      -0.352  -2.996  -5.030  0.00  0.00    -0.034 A 
ATOM      5  C4  UNL d   1      -0.584  -1.837  -4.286  0.00  0.00     0.162 A 
ATOM      6  C5  UNL d   1       0.480  -1.148  -3.712  0.00  0.00     0.062 A 
ATOM      7  F   UNL d   1       0.248  -0.036  -2.999  0.00  0.00    -0.097 F 
ATOM      8  F1  UNL d   1      -1.829  -1.370  -4.114  0.00  0.00    -0.096 F 
ATOM      9  I   UNL d   1      -1.941  -4.030  -5.890  0.00  0.00    -0.060 I 
ATOM     10  F2  UNL d   1       1.215  -4.563  -5.895  0.00  0.00    -0.096 F 
ATOM     11  F3  UNL d   1       3.271  -3.207  -4.768  0.00  0.00    -0.097 F 
ATOM     12  F4  UNL d   1       2.801  -0.944  -3.319  0.00  0.00    -0.092 F 
ENDROOT
TORSDOF 0
ENDMDL
