MODEL 1
REMARK minimizedAffinity 21.1801376
REMARK minimizedRMSD -1
REMARK  0 active torsions:
REMARK  status: ('A' for Active; 'I' for Inactive)
ROOT
ATOM      1  C   UNL d   1       2.118  -1.276  -4.310  0.00  0.00     0.124 A 
ATOM      2  C1  UNL d   1       0.856  -0.775  -4.019  0.00  0.00     0.062 A 
ATOM      3  C2  UNL d   1      -0.282  -1.484  -4.395  0.00  0.00     0.162 A 
ATOM      4  C3  UNL d   1      -0.163  -2.702  -5.065  0.00  0.00    -0.034 A 
ATOM      5  C4  UNL d   1       1.109  -3.198  -5.355  0.00  0.00     0.162 A 
ATOM      6  C5  UNL d   1       2.243  -2.486  -4.977  0.00  0.00     0.062 A 
ATOM      7  F   UNL d   1       3.461  -2.971  -5.259  0.00  0.00    -0.097 F 
ATOM      8  F1  UNL d   1       1.260  -4.365  -5.998  0.00  0.00    -0.096 F 
ATOM      9  I   UNL d   1      -1.861  -3.764  -5.629  0.00  0.00    -0.060 I 
ATOM     10  F2  UNL d   1      -1.488  -0.977  -4.101  0.00  0.00    -0.096 F 
ATOM     11  F3  UNL d   1       0.732   0.394  -3.375  0.00  0.00    -0.097 F 
ATOM     12  F4  UNL d   1       3.210  -0.591  -3.948  0.00  0.00    -0.092 F 
ENDROOT
TORSDOF 0
ENDMDL
