MODEL 1
REMARK minimizedAffinity 7.83164644
REMARK minimizedRMSD -1
REMARK  0 active torsions:
REMARK  status: ('A' for Active; 'I' for Inactive)
ROOT
ATOM      1  C   UNL d   1       1.496  -0.685   3.374  0.00  0.00     0.124 A 
ATOM      2  C1  UNL d   1       2.712  -0.313   3.931  0.00  0.00     0.062 A 
ATOM      3  C2  UNL d   1       3.446  -1.227   4.681  0.00  0.00     0.162 A 
ATOM      4  C3  UNL d   1       2.967  -2.522   4.878  0.00  0.00    -0.034 A 
ATOM      5  C4  UNL d   1       1.743  -2.888   4.316  0.00  0.00     0.162 A 
ATOM      6  C5  UNL d   1       1.013  -1.971   3.567  0.00  0.00     0.062 A 
ATOM      7  F   UNL d   1      -0.162  -2.332   3.030  0.00  0.00    -0.097 F 
ATOM      8  F1  UNL d   1       1.253  -4.125   4.486  0.00  0.00    -0.096 F 
ATOM      9  I   UNL d   1       4.062  -3.891   6.000  0.00  0.00    -0.060 I 
ATOM     10  F2  UNL d   1       4.618  -0.841   5.207  0.00  0.00    -0.096 F 
ATOM     11  F3  UNL d   1       3.181   0.929   3.746  0.00  0.00    -0.097 F 
ATOM     12  F4  UNL d   1       0.791   0.197   2.653  0.00  0.00    -0.092 F 
ENDROOT
TORSDOF 0
ENDMDL
