MODEL 1
REMARK minimizedAffinity 25.0492821
REMARK minimizedRMSD -1
REMARK  0 active torsions:
REMARK  status: ('A' for Active; 'I' for Inactive)
ROOT
ATOM      1  C   UNL d   1       0.160  -1.211  -5.037  0.00  0.00     0.124 A 
ATOM      2  C1  UNL d   1       1.234  -0.455  -4.590  0.00  0.00     0.062 A 
ATOM      3  C2  UNL d   1       2.522  -0.983  -4.615  0.00  0.00     0.162 A 
ATOM      4  C3  UNL d   1       2.742  -2.277  -5.089  0.00  0.00    -0.034 A 
ATOM      5  C4  UNL d   1       1.657  -3.032  -5.536  0.00  0.00     0.162 A 
ATOM      6  C5  UNL d   1       0.372  -2.499  -5.510  0.00  0.00     0.062 A 
ATOM      7  F   UNL d   1      -0.664  -3.232  -5.942  0.00  0.00    -0.097 F 
ATOM      8  F1  UNL d   1       1.833  -4.279  -5.998  0.00  0.00    -0.096 F 
ATOM      9  I   UNL d   1       4.666  -3.071  -5.127  0.00  0.00    -0.060 I 
ATOM     10  F2  UNL d   1       3.541  -0.230  -4.177  0.00  0.00    -0.096 F 
ATOM     11  F3  UNL d   1       1.032   0.789  -4.133  0.00  0.00    -0.097 F 
ATOM     12  F4  UNL d   1      -1.077  -0.700  -5.012  0.00  0.00    -0.092 F 
ENDROOT
TORSDOF 0
ENDMDL
