MODEL 1
REMARK minimizedAffinity 18.8031597
REMARK minimizedRMSD -1
REMARK  0 active torsions:
REMARK  status: ('A' for Active; 'I' for Inactive)
ROOT
ATOM      1  C   UNL d   1       2.870  -0.367   4.245  0.00  0.00     0.124 A 
ATOM      2  C1  UNL d   1       4.113  -0.260   4.853  0.00  0.00     0.062 A 
ATOM      3  C2  UNL d   1       4.798  -1.404   5.252  0.00  0.00     0.162 A 
ATOM      4  C3  UNL d   1       4.242  -2.666   5.043  0.00  0.00    -0.034 A 
ATOM      5  C4  UNL d   1       2.991  -2.766   4.432  0.00  0.00     0.162 A 
ATOM      6  C5  UNL d   1       2.310  -1.620   4.035  0.00  0.00     0.062 A 
ATOM      7  F   UNL d   1       1.109  -1.726   3.448  0.00  0.00    -0.097 F 
ATOM      8  F1  UNL d   1       2.428  -3.964   4.216  0.00  0.00    -0.096 F 
ATOM      9  I   UNL d   1       5.264  -4.379   5.638  0.00  0.00    -0.060 I 
ATOM     10  F2  UNL d   1       5.998  -1.270   5.837  0.00  0.00    -0.096 F 
ATOM     11  F3  UNL d   1       4.655   0.949   5.057  0.00  0.00    -0.097 F 
ATOM     12  F4  UNL d   1       2.212   0.735   3.863  0.00  0.00    -0.092 F 
ENDROOT
TORSDOF 0
ENDMDL
