MODEL 1
REMARK minimizedAffinity -0.938660204
REMARK minimizedRMSD -1
REMARK  0 active torsions:
REMARK  status: ('A' for Active; 'I' for Inactive)
ROOT
ATOM      1  C   UNL d   1      -5.266   0.825   0.539  0.00  0.00     0.077 C 
ATOM      2  C1  UNL d   1      -3.939   0.319   1.020  0.00  0.00    -0.074 A 
ATOM      3  C2  UNL d   1      -3.423   0.719   2.257  0.00  0.00    -0.005 A 
ATOM      4  C3  UNL d   1      -2.191   0.233   2.696  0.00  0.00     0.006 A 
ATOM      5  C4  UNL d   1      -1.465  -0.657   1.904  0.00  0.00    -0.005 A 
ATOM      6  C5  UNL d   1      -1.965  -1.069   0.665  0.00  0.00    -0.074 A 
ATOM      7  C6  UNL d   1      -1.202  -2.033  -0.194  0.00  0.00     0.077 C 
ATOM      8  C7  UNL d   1      -3.207  -0.582   0.234  0.00  0.00    -0.001 A 
ENDROOT
TORSDOF 0
ENDMDL
