MODEL 1
REMARK minimizedAffinity -3.13701558
REMARK minimizedRMSD -1
REMARK  0 active torsions:
REMARK  status: ('A' for Active; 'I' for Inactive)
ROOT
ATOM      1  C   UNL d   1      -1.195  -1.291  -1.060  0.00  0.00     0.077 C 
ATOM      2  C1  UNL d   1      -0.903  -1.472  -2.520  0.00  0.00    -0.074 A 
ATOM      3  C2  UNL d   1      -0.311  -2.647  -2.994  0.00  0.00    -0.005 A 
ATOM      4  C3  UNL d   1      -0.054  -2.805  -4.356  0.00  0.00     0.006 A 
ATOM      5  C4  UNL d   1      -0.384  -1.791  -5.256  0.00  0.00    -0.005 A 
ATOM      6  C5  UNL d   1      -0.977  -0.610  -4.800  0.00  0.00    -0.074 A 
ATOM      7  C6  UNL d   1      -1.348   0.486  -5.755  0.00  0.00     0.077 C 
ATOM      8  C7  UNL d   1      -1.239  -0.461  -3.431  0.00  0.00    -0.001 A 
ENDROOT
TORSDOF 0
ENDMDL
