MODEL 1
REMARK minimizedAffinity -2.22660136
REMARK minimizedRMSD -1
REMARK  0 active torsions:
REMARK  status: ('A' for Active; 'I' for Inactive)
ROOT
ATOM      1  C   UNL d   1       2.326   0.387  -5.774  0.00  0.00     0.077 C 
ATOM      2  C1  UNL d   1       0.934   0.418  -5.217  0.00  0.00    -0.074 A 
ATOM      3  C2  UNL d   1      -0.143   0.854  -5.997  0.00  0.00    -0.005 A 
ATOM      4  C3  UNL d   1      -1.434   0.868  -5.468  0.00  0.00     0.006 A 
ATOM      5  C4  UNL d   1      -1.661   0.449  -4.157  0.00  0.00    -0.005 A 
ATOM      6  C5  UNL d   1      -0.597   0.010  -3.362  0.00  0.00    -0.074 A 
ATOM      7  C6  UNL d   1      -0.825  -0.453  -1.954  0.00  0.00     0.077 C 
ATOM      8  C7  UNL d   1       0.696  -0.009  -3.903  0.00  0.00    -0.001 A 
ENDROOT
TORSDOF 0
ENDMDL
