MODEL 1
REMARK minimizedAffinity 3.0238204
REMARK minimizedRMSD -1
REMARK  0 active torsions:
REMARK  status: ('A' for Active; 'I' for Inactive)
ROOT
ATOM      1  C   UNL d   1       1.704  -5.436  -4.744  0.00  0.00     0.077 C 
ATOM      2  C1  UNL d   1       3.201  -5.520  -4.701  0.00  0.00    -0.074 A 
ATOM      3  C2  UNL d   1       3.930  -5.934  -5.820  0.00  0.00    -0.005 A 
ATOM      4  C3  UNL d   1       5.322  -5.998  -5.768  0.00  0.00     0.006 A 
ATOM      5  C4  UNL d   1       5.998  -5.650  -4.597  0.00  0.00    -0.005 A 
ATOM      6  C5  UNL d   1       5.286  -5.234  -3.468  0.00  0.00    -0.074 A 
ATOM      7  C6  UNL d   1       5.997  -4.847  -2.206  0.00  0.00     0.077 C 
ATOM      8  C7  UNL d   1       3.887  -5.165  -3.531  0.00  0.00    -0.001 A 
ENDROOT
TORSDOF 0
ENDMDL
