MODEL 1
REMARK minimizedAffinity 14.6471272
REMARK minimizedRMSD -1
REMARK  0 active torsions:
REMARK  status: ('A' for Active; 'I' for Inactive)
ROOT
ATOM      1  C   UNL d   1       5.261   4.452   5.834  0.00  0.00     0.077 C 
ATOM      2  C1  UNL d   1       5.097   3.273   4.922  0.00  0.00    -0.074 A 
ATOM      3  C2  UNL d   1       5.990   2.197   4.972  0.00  0.00    -0.005 A 
ATOM      4  C3  UNL d   1       5.820   1.102   4.124  0.00  0.00     0.006 A 
ATOM      5  C4  UNL d   1       4.757   1.072   3.220  0.00  0.00    -0.005 A 
ATOM      6  C5  UNL d   1       3.854   2.138   3.157  0.00  0.00    -0.074 A 
ATOM      7  C6  UNL d   1       2.701   2.118   2.198  0.00  0.00     0.077 C 
ATOM      8  C7  UNL d   1       4.028   3.231   4.017  0.00  0.00    -0.001 A 
ENDROOT
TORSDOF 0
ENDMDL
