MODEL 1
REMARK minimizedAffinity 9.18671227
REMARK minimizedRMSD -1
REMARK  0 active torsions:
REMARK  status: ('A' for Active; 'I' for Inactive)
ROOT
ATOM      1  C   UNL d   1       4.847  -0.936  -1.261  0.00  0.00     0.077 C 
ATOM      2  C1  UNL d   1       4.082   0.306  -0.909  0.00  0.00    -0.074 A 
ATOM      3  C2  UNL d   1       4.382   1.531  -1.515  0.00  0.00    -0.005 A 
ATOM      4  C3  UNL d   1       3.656   2.675  -1.184  0.00  0.00     0.006 A 
ATOM      5  C4  UNL d   1       2.624   2.606  -0.247  0.00  0.00    -0.005 A 
ATOM      6  C5  UNL d   1       2.309   1.390   0.367  0.00  0.00    -0.074 A 
ATOM      7  C6  UNL d   1       1.197   1.297   1.369  0.00  0.00     0.077 C 
ATOM      8  C7  UNL d   1       3.039   0.243   0.025  0.00  0.00    -0.001 A 
ENDROOT
TORSDOF 0
ENDMDL
