MODEL 1
REMARK minimizedAffinity 4.13730049
REMARK minimizedRMSD -1
REMARK  0 active torsions:
REMARK  status: ('A' for Active; 'I' for Inactive)
ROOT
ATOM      1  C   UNL d   1       2.630   1.827  -0.181  0.00  0.00     0.077 C 
ATOM      2  C1  UNL d   1       2.091   1.967   1.211  0.00  0.00    -0.074 A 
ATOM      3  C2  UNL d   1       2.930   1.845   2.323  0.00  0.00    -0.005 A 
ATOM      4  C3  UNL d   1       2.416   1.986   3.612  0.00  0.00     0.006 A 
ATOM      5  C4  UNL d   1       1.059   2.251   3.802  0.00  0.00    -0.005 A 
ATOM      6  C5  UNL d   1       0.205   2.377   2.702  0.00  0.00    -0.074 A 
ATOM      7  C6  UNL d   1      -1.254   2.672   2.888  0.00  0.00     0.077 C 
ATOM      8  C7  UNL d   1       0.730   2.240   1.410  0.00  0.00    -0.001 A 
ENDROOT
TORSDOF 0
ENDMDL
