MODEL 1
REMARK minimizedAffinity 2.15339327
REMARK minimizedRMSD -1
REMARK  0 active torsions:
REMARK  status: ('A' for Active; 'I' for Inactive)
ROOT
ATOM      1  C   UNL d   1      -5.966   6.000  -6.000  0.00  0.00     0.077 C 
ATOM      2  C1  UNL d   1      -5.235   4.723  -5.709  0.00  0.00    -0.074 A 
ATOM      3  C2  UNL d   1      -3.873   4.593  -5.998  0.00  0.00    -0.005 A 
ATOM      4  C3  UNL d   1      -3.204   3.402  -5.713  0.00  0.00     0.006 A 
ATOM      5  C4  UNL d   1      -3.889   2.332  -5.136  0.00  0.00    -0.005 A 
ATOM      6  C5  UNL d   1      -5.251   2.444  -4.839  0.00  0.00    -0.074 A 
ATOM      7  C6  UNL d   1      -6.000   1.307  -4.210  0.00  0.00     0.077 C 
ATOM      8  C7  UNL d   1      -5.914   3.646  -5.122  0.00  0.00    -0.001 A 
ENDROOT
TORSDOF 0
ENDMDL
