MODEL 1
REMARK minimizedAffinity 12.8612289
REMARK minimizedRMSD -1
REMARK  0 active torsions:
REMARK  status: ('A' for Active; 'I' for Inactive)
ROOT
ATOM      1  C   UNL d   1       3.223   1.687   1.858  0.00  0.00     0.077 C 
ATOM      2  C1  UNL d   1       1.844   2.077   1.415  0.00  0.00    -0.074 A 
ATOM      3  C2  UNL d   1       1.653   2.903   0.303  0.00  0.00    -0.005 A 
ATOM      4  C3  UNL d   1       0.364   3.250  -0.103  0.00  0.00     0.006 A 
ATOM      5  C4  UNL d   1      -0.745   2.775   0.599  0.00  0.00    -0.005 A 
ATOM      6  C5  UNL d   1      -0.574   1.947   1.713  0.00  0.00    -0.074 A 
ATOM      7  C6  UNL d   1      -1.755   1.419   2.472  0.00  0.00     0.077 C 
ATOM      8  C7  UNL d   1       0.724   1.597   2.110  0.00  0.00    -0.001 A 
ENDROOT
TORSDOF 0
ENDMDL
