MODEL 1
REMARK minimizedAffinity 3.85110497
REMARK minimizedRMSD -1
REMARK  0 active torsions:
REMARK  status: ('A' for Active; 'I' for Inactive)
ROOT
ATOM      1  C   UNL d   1       1.467  -4.913  -2.511  0.00  0.00     0.077 C 
ATOM      2  C1  UNL d   1       2.303  -5.168  -3.729  0.00  0.00    -0.074 A 
ATOM      3  C2  UNL d   1       1.749  -5.757  -4.871  0.00  0.00    -0.005 A 
ATOM      4  C3  UNL d   1       2.536  -5.980  -6.000  0.00  0.00     0.006 A 
ATOM      5  C4  UNL d   1       3.884  -5.617  -6.000  0.00  0.00    -0.005 A 
ATOM      6  C5  UNL d   1       4.455  -5.027  -4.869  0.00  0.00    -0.074 A 
ATOM      7  C6  UNL d   1       5.899  -4.621  -4.855  0.00  0.00     0.077 C 
ATOM      8  C7  UNL d   1       3.656  -4.799  -3.740  0.00  0.00    -0.001 A 
ENDROOT
TORSDOF 0
ENDMDL
