MODEL 1
REMARK minimizedAffinity 16.5544872
REMARK minimizedRMSD -1
REMARK  0 active torsions:
REMARK  status: ('A' for Active; 'I' for Inactive)
ROOT
ATOM      1  C   UNL d   1      -1.877  -5.123   6.000  0.00  0.00     0.077 C 
ATOM      2  C1  UNL d   1      -2.258  -5.004   4.554  0.00  0.00    -0.074 A 
ATOM      3  C2  UNL d   1      -3.013  -6.000   3.925  0.00  0.00    -0.005 A 
ATOM      4  C3  UNL d   1      -3.368  -5.870   2.583  0.00  0.00     0.006 A 
ATOM      5  C4  UNL d   1      -2.973  -4.747   1.856  0.00  0.00    -0.005 A 
ATOM      6  C5  UNL d   1      -2.218  -3.741   2.468  0.00  0.00    -0.074 A 
ATOM      7  C6  UNL d   1      -1.794  -2.522   1.704  0.00  0.00     0.077 C 
ATOM      8  C7  UNL d   1      -1.871  -3.874   3.820  0.00  0.00    -0.001 A 
ENDROOT
TORSDOF 0
ENDMDL
