MODEL 1
REMARK minimizedAffinity 11.9513636
REMARK minimizedRMSD -1
REMARK  0 active torsions:
REMARK  status: ('A' for Active; 'I' for Inactive)
ROOT
ATOM      1  C   UNL d   1       5.036  -2.365  -3.716  0.00  0.00     0.077 C 
ATOM      2  C1  UNL d   1       4.876  -3.622  -4.517  0.00  0.00    -0.074 A 
ATOM      3  C2  UNL d   1       5.990  -4.378  -4.898  0.00  0.00    -0.005 A 
ATOM      4  C3  UNL d   1       5.825  -5.551  -5.635  0.00  0.00     0.006 A 
ATOM      5  C4  UNL d   1       4.547  -5.979  -5.999  0.00  0.00    -0.005 A 
ATOM      6  C5  UNL d   1       3.422  -5.236  -5.626  0.00  0.00    -0.074 A 
ATOM      7  C6  UNL d   1       2.041  -5.687  -6.000  0.00  0.00     0.077 C 
ATOM      8  C7  UNL d   1       3.596  -4.063  -4.879  0.00  0.00    -0.001 A 
ENDROOT
TORSDOF 0
ENDMDL
