MODEL 1
REMARK minimizedAffinity 4.2037549
REMARK minimizedRMSD -1
REMARK  0 active torsions:
REMARK  status: ('A' for Active; 'I' for Inactive)
ROOT
ATOM      1  C   UNL d   1       5.335  -2.218  -4.150  0.00  0.00     0.077 C 
ATOM      2  C1  UNL d   1       5.007  -3.534  -4.790  0.00  0.00    -0.074 A 
ATOM      3  C2  UNL d   1       6.000  -4.298  -5.412  0.00  0.00    -0.005 A 
ATOM      4  C3  UNL d   1       5.682  -5.525  -5.994  0.00  0.00     0.006 A 
ATOM      5  C4  UNL d   1       4.370  -6.000  -5.960  0.00  0.00    -0.005 A 
ATOM      6  C5  UNL d   1       3.364  -5.250  -5.341  0.00  0.00    -0.074 A 
ATOM      7  C6  UNL d   1       1.952  -5.751  -5.286  0.00  0.00     0.077 C 
ATOM      8  C7  UNL d   1       3.693  -4.022  -4.752  0.00  0.00    -0.001 A 
ENDROOT
TORSDOF 0
ENDMDL
