MODEL 1
REMARK minimizedAffinity 0.098363407
REMARK minimizedRMSD -1
REMARK  0 active torsions:
REMARK  status: ('A' for Active; 'I' for Inactive)
ROOT
ATOM      1  C   UNL d   1       5.989  -5.071  -4.806  0.00  0.00     0.077 C 
ATOM      2  C1  UNL d   1       4.504  -5.278  -4.842  0.00  0.00    -0.074 A 
ATOM      3  C2  UNL d   1       3.877  -5.791  -5.982  0.00  0.00    -0.005 A 
ATOM      4  C3  UNL d   1       2.496  -5.987  -5.998  0.00  0.00     0.006 A 
ATOM      5  C4  UNL d   1       1.729  -5.672  -4.875  0.00  0.00    -0.005 A 
ATOM      6  C5  UNL d   1       2.338  -5.159  -3.726  0.00  0.00    -0.074 A 
ATOM      7  C6  UNL d   1       1.530  -4.825  -2.507  0.00  0.00     0.077 C 
ATOM      8  C7  UNL d   1       3.727  -4.972  -3.716  0.00  0.00    -0.001 A 
ENDROOT
TORSDOF 0
ENDMDL
