MODEL 1
REMARK minimizedAffinity 13.317976
REMARK minimizedRMSD -1
REMARK  0 active torsions:
REMARK  status: ('A' for Active; 'I' for Inactive)
ROOT
ATOM      1  C   UNL d   1       4.220   1.865  -0.901  0.00  0.00     0.077 C 
ATOM      2  C1  UNL d   1       3.343   1.994   0.309  0.00  0.00    -0.074 A 
ATOM      3  C2  UNL d   1       3.891   2.006   1.596  0.00  0.00    -0.005 A 
ATOM      4  C3  UNL d   1       3.063   2.136   2.711  0.00  0.00     0.006 A 
ATOM      5  C4  UNL d   1       1.682   2.255   2.551  0.00  0.00    -0.005 A 
ATOM      6  C5  UNL d   1       1.116   2.246   1.273  0.00  0.00    -0.074 A 
ATOM      7  C6  UNL d   1      -0.365   2.383   1.083  0.00  0.00     0.077 C 
ATOM      8  C7  UNL d   1       1.955   2.122   0.156  0.00  0.00    -0.001 A 
ENDROOT
TORSDOF 0
ENDMDL
