MODEL 1
REMARK minimizedAffinity 16.6953297
REMARK minimizedRMSD -1
REMARK  0 active torsions:
REMARK  status: ('A' for Active; 'I' for Inactive)
ROOT
ATOM      1  C   UNL d   1      -0.569   1.882   1.280  0.00  0.00     0.077 C 
ATOM      2  C1  UNL d   1       0.852   2.124   1.695  0.00  0.00    -0.074 A 
ATOM      3  C2  UNL d   1       1.889   2.101   0.756  0.00  0.00    -0.005 A 
ATOM      4  C3  UNL d   1       3.204   2.338   1.156  0.00  0.00     0.006 A 
ATOM      5  C4  UNL d   1       3.495   2.601   2.495  0.00  0.00    -0.005 A 
ATOM      6  C5  UNL d   1       2.472   2.629   3.447  0.00  0.00    -0.074 A 
ATOM      7  C6  UNL d   1       2.766   2.920   4.889  0.00  0.00     0.077 C 
ATOM      8  C7  UNL d   1       1.152   2.397   3.037  0.00  0.00    -0.001 A 
ENDROOT
TORSDOF 0
ENDMDL
