MODEL 1
REMARK minimizedAffinity 8.46399307
REMARK minimizedRMSD -1
REMARK  0 active torsions:
REMARK  status: ('A' for Active; 'I' for Inactive)
ROOT
ATOM      1  C   UNL d   1      -1.627  -5.306  -1.797  0.00  0.00     0.077 C 
ATOM      2  C1  UNL d   1      -2.021  -4.641  -0.511  0.00  0.00    -0.074 A 
ATOM      3  C2  UNL d   1      -2.005  -3.248  -0.388  0.00  0.00    -0.005 A 
ATOM      4  C3  UNL d   1      -2.383  -2.644   0.812  0.00  0.00     0.006 A 
ATOM      5  C4  UNL d   1      -2.779  -3.426   1.898  0.00  0.00    -0.005 A 
ATOM      6  C5  UNL d   1      -2.802  -4.820   1.792  0.00  0.00    -0.074 A 
ATOM      7  C6  UNL d   1      -3.235  -5.674   2.947  0.00  0.00     0.077 C 
ATOM      8  C7  UNL d   1      -2.428  -5.419   0.582  0.00  0.00    -0.001 A 
ENDROOT
TORSDOF 0
ENDMDL
