MODEL 1
REMARK minimizedAffinity 17.5176182
REMARK minimizedRMSD -1
REMARK  0 active torsions:
REMARK  status: ('A' for Active; 'I' for Inactive)
ROOT
ATOM      1  C   UNL d   1       1.978   5.345  -0.433  0.00  0.00     0.077 C 
ATOM      2  C1  UNL d   1       1.730   4.026   0.236  0.00  0.00    -0.074 A 
ATOM      3  C2  UNL d   1       0.596   3.267  -0.070  0.00  0.00    -0.005 A 
ATOM      4  C3  UNL d   1       0.383   2.037   0.553  0.00  0.00     0.006 A 
ATOM      5  C4  UNL d   1       1.300   1.555   1.487  0.00  0.00    -0.005 A 
ATOM      6  C5  UNL d   1       2.441   2.299   1.805  0.00  0.00    -0.074 A 
ATOM      7  C6  UNL d   1       3.442   1.791   2.800  0.00  0.00     0.077 C 
ATOM      8  C7  UNL d   1       2.651   3.531   1.169  0.00  0.00    -0.001 A 
ENDROOT
TORSDOF 0
ENDMDL
