MODEL 1
REMARK minimizedAffinity 3.67185068
REMARK minimizedRMSD -1
REMARK  0 active torsions:
REMARK  status: ('A' for Active; 'I' for Inactive)
ROOT
ATOM      1  C   UNL d   1       2.706   1.677  -5.889  0.00  0.00     0.077 C 
ATOM      2  C1  UNL d   1       3.860   2.412  -5.274  0.00  0.00    -0.074 A 
ATOM      3  C2  UNL d   1       4.565   3.378  -5.999  0.00  0.00    -0.005 A 
ATOM      4  C3  UNL d   1       5.630   4.061  -5.411  0.00  0.00     0.006 A 
ATOM      5  C4  UNL d   1       5.999   3.785  -4.094  0.00  0.00    -0.005 A 
ATOM      6  C5  UNL d   1       5.305   2.823  -3.353  0.00  0.00    -0.074 A 
ATOM      7  C6  UNL d   1       5.683   2.522  -1.933  0.00  0.00     0.077 C 
ATOM      8  C7  UNL d   1       4.232   2.147  -3.949  0.00  0.00    -0.001 A 
ENDROOT
TORSDOF 0
ENDMDL
