MODEL 1
REMARK minimizedAffinity 0.538122773
REMARK minimizedRMSD -1
REMARK  0 active torsions:
REMARK  status: ('A' for Active; 'I' for Inactive)
ROOT
ATOM      1  C   UNL d   1      -0.873   2.633   3.536  0.00  0.00     0.077 C 
ATOM      2  C1  UNL d   1       0.249   2.276   2.607  0.00  0.00    -0.074 A 
ATOM      3  C2  UNL d   1       1.550   2.731   2.843  0.00  0.00    -0.005 A 
ATOM      4  C3  UNL d   1       2.586   2.383   1.976  0.00  0.00     0.006 A 
ATOM      5  C4  UNL d   1       2.331   1.577   0.866  0.00  0.00    -0.005 A 
ATOM      6  C5  UNL d   1       1.036   1.111   0.614  0.00  0.00    -0.074 A 
ATOM      7  C6  UNL d   1       0.747   0.236  -0.569  0.00  0.00     0.077 C 
ATOM      8  C7  UNL d   1       0.003   1.460   1.494  0.00  0.00    -0.001 A 
ENDROOT
TORSDOF 0
ENDMDL
