MODEL 1
REMARK minimizedAffinity 3.038378
REMARK minimizedRMSD -1
REMARK  1 active torsions:
REMARK  status: ('A' for Active; 'I' for Inactive)
REMARK    1  A    between atoms: C1_2  and  C2_3 
ROOT
ATOM      1  C2  UNL d   1       5.316   5.483  -3.527  0.00  0.00    -0.081 A 
ATOM      2  C3  UNL d   1       5.999   5.958  -2.401  0.00  0.00     0.006 A 
ATOM      3  C4  UNL d   1       5.409   5.893  -1.136  0.00  0.00     0.002 A 
ATOM      4  C5  UNL d   1       4.131   5.346  -0.976  0.00  0.00    -0.080 A 
ATOM      5  C6  UNL d   1       3.499   5.243   0.380  0.00  0.00     0.076 C 
ATOM      6  C7  UNL d   1       3.442   4.887  -2.104  0.00  0.00     0.002 A 
ATOM      7  C8  UNL d   1       4.031   4.952  -3.369  0.00  0.00     0.006 A 
ENDROOT
BRANCH   1   8
ATOM      8  C1  UNL d   1       5.975   5.492  -4.883  0.00  0.00     0.054 C 
ATOM      9  C   UNL d   1       6.000   4.099  -5.496  0.00  0.00     0.018 C 
ENDBRANCH   1   8
TORSDOF 1
ENDMDL
