MODEL 1
REMARK minimizedAffinity 15.5835266
REMARK minimizedRMSD -1
REMARK  1 active torsions:
REMARK  status: ('A' for Active; 'I' for Inactive)
REMARK    1  A    between atoms: C1_2  and  C2_3 
ROOT
ATOM      1  C2  UNL d   1      -4.837   3.516  -3.033  0.00  0.00    -0.081 A 
ATOM      2  C3  UNL d   1      -4.781   2.649  -1.935  0.00  0.00     0.006 A 
ATOM      3  C4  UNL d   1      -3.821   1.636  -1.880  0.00  0.00     0.002 A 
ATOM      4  C5  UNL d   1      -2.896   1.478  -2.918  0.00  0.00    -0.080 A 
ATOM      5  C6  UNL d   1      -1.841   0.414  -2.858  0.00  0.00     0.076 C 
ATOM      6  C7  UNL d   1      -2.963   2.333  -4.023  0.00  0.00     0.002 A 
ATOM      7  C8  UNL d   1      -3.923   3.346  -4.079  0.00  0.00     0.006 A 
ENDROOT
BRANCH   1   8
ATOM      8  C1  UNL d   1      -5.829   4.650  -3.064  0.00  0.00     0.054 C 
ATOM      9  C   UNL d   1      -5.127   5.999  -3.115  0.00  0.00     0.018 C 
ENDBRANCH   1   8
TORSDOF 1
ENDMDL
