MODEL 1
REMARK minimizedAffinity 7.09253216
REMARK minimizedRMSD -1
REMARK  1 active torsions:
REMARK  status: ('A' for Active; 'I' for Inactive)
REMARK    1  A    between atoms: C1_2  and  C2_3 
ROOT
ATOM      1  C2  UNL d   1       4.991  -4.301  -4.822  0.00  0.00    -0.081 A 
ATOM      2  C3  UNL d   1       4.666  -3.440  -3.767  0.00  0.00     0.006 A 
ATOM      3  C4  UNL d   1       5.000  -2.085  -3.829  0.00  0.00     0.002 A 
ATOM      4  C5  UNL d   1       5.658  -1.567  -4.950  0.00  0.00    -0.080 A 
ATOM      5  C6  UNL d   1       5.996  -0.109  -5.043  0.00  0.00     0.076 C 
ATOM      6  C7  UNL d   1       5.999  -2.431  -5.997  0.00  0.00     0.002 A 
ATOM      7  C8  UNL d   1       5.665  -3.786  -5.934  0.00  0.00     0.006 A 
ENDROOT
BRANCH   1   8
ATOM      8  C1  UNL d   1       4.574  -5.749  -4.786  0.00  0.00     0.054 C 
ATOM      9  C   UNL d   1       3.490  -5.987  -3.745  0.00  0.00     0.018 C 
ENDBRANCH   1   8
TORSDOF 1
ENDMDL
