MODEL 1
REMARK minimizedAffinity 2.29833698
REMARK minimizedRMSD -1
REMARK  1 active torsions:
REMARK  status: ('A' for Active; 'I' for Inactive)
REMARK    1  A    between atoms: C1_2  and  C2_3 
ROOT
ATOM      1  C2  UNL d   1       5.288  -3.633  -5.408  0.00  0.00    -0.081 A 
ATOM      2  C3  UNL d   1       5.999  -2.458  -5.136  0.00  0.00     0.006 A 
ATOM      3  C4  UNL d   1       5.349  -1.346  -4.597  0.00  0.00     0.002 A 
ATOM      4  C5  UNL d   1       3.980  -1.392  -4.313  0.00  0.00    -0.080 A 
ATOM      5  C6  UNL d   1       3.276  -0.216  -3.705  0.00  0.00     0.076 C 
ATOM      6  C7  UNL d   1       3.266  -2.561  -4.600  0.00  0.00     0.002 A 
ATOM      7  C8  UNL d   1       3.915  -3.673  -5.140  0.00  0.00     0.006 A 
ENDROOT
BRANCH   1   8
ATOM      8  C1  UNL d   1       5.999  -4.856  -5.929  0.00  0.00     0.054 C 
ATOM      9  C   UNL d   1       5.946  -5.998  -4.924  0.00  0.00     0.018 C 
ENDBRANCH   1   8
TORSDOF 1
ENDMDL
