MODEL 1
REMARK minimizedAffinity 12.5747786
REMARK minimizedRMSD -1
REMARK  1 active torsions:
REMARK  status: ('A' for Active; 'I' for Inactive)
REMARK    1  A    between atoms: C1_2  and  C2_3 
ROOT
ATOM      1  C2  UNL d   1      -3.814   4.049  -3.073  0.00  0.00    -0.081 A 
ATOM      2  C3  UNL d   1      -3.756   3.233  -1.937  0.00  0.00     0.006 A 
ATOM      3  C4  UNL d   1      -3.001   2.058  -1.946  0.00  0.00     0.002 A 
ATOM      4  C5  UNL d   1      -2.286   1.682  -3.089  0.00  0.00    -0.080 A 
ATOM      5  C6  UNL d   1      -1.448   0.439  -3.102  0.00  0.00     0.076 C 
ATOM      6  C7  UNL d   1      -2.359   2.488  -4.230  0.00  0.00     0.002 A 
ATOM      7  C8  UNL d   1      -3.114   3.663  -4.222  0.00  0.00     0.006 A 
ENDROOT
BRANCH   1   8
ATOM      8  C1  UNL d   1      -4.575   5.350  -3.045  0.00  0.00     0.054 C 
ATOM      9  C   UNL d   1      -5.994   5.150  -2.533  0.00  0.00     0.018 C 
ENDBRANCH   1   8
TORSDOF 1
ENDMDL
