MODEL 1
REMARK minimizedAffinity 0.407962054
REMARK minimizedRMSD -1
REMARK  1 active torsions:
REMARK  status: ('A' for Active; 'I' for Inactive)
REMARK    1  A    between atoms: C1_2  and  C2_3 
ROOT
ATOM      1  C2  UNL d   1       5.989   1.684   3.657  0.00  0.00    -0.076 A 
ATOM      2  C3  UNL d   1       5.994   1.924   5.042  0.00  0.00     0.004 A 
ATOM      3  C4  UNL d   1       5.960   0.870   5.953  0.00  0.00    -0.003 A 
ATOM      4  C5  UNL d   1       5.921  -0.442   5.494  0.00  0.00     0.000 A 
ATOM      5  C6  UNL d   1       5.934  -0.700   4.124  0.00  0.00     0.000 A 
ATOM      6  C7  UNL d   1       5.984   0.351   3.192  0.00  0.00    -0.073 A 
ATOM      7  C8  UNL d   1       5.990   0.016   1.726  0.00  0.00     0.078 C 
ENDROOT
BRANCH   1   8
ATOM      8  C1  UNL d   1       6.000   2.867   2.716  0.00  0.00     0.053 C 
ATOM      9  C   UNL d   1       6.000   4.198   3.454  0.00  0.00     0.018 C 
ENDBRANCH   1   8
TORSDOF 1
ENDMDL
