MODEL 1
REMARK minimizedAffinity -0.495467186
REMARK minimizedRMSD -1
REMARK  1 active torsions:
REMARK  status: ('A' for Active; 'I' for Inactive)
REMARK    1  A    between atoms: C1_2  and  C2_3 
ROOT
ATOM      1  C2  UNL d   1       5.633   4.481   2.394  0.00  0.00    -0.076 A 
ATOM      2  C3  UNL d   1       5.622   3.183   1.854  0.00  0.00     0.004 A 
ATOM      3  C4  UNL d   1       5.804   2.066   2.668  0.00  0.00    -0.003 A 
ATOM      4  C5  UNL d   1       5.999   2.228   4.035  0.00  0.00     0.000 A 
ATOM      5  C6  UNL d   1       5.995   3.508   4.590  0.00  0.00     0.000 A 
ATOM      6  C7  UNL d   1       5.797   4.643   3.786  0.00  0.00    -0.073 A 
ATOM      7  C8  UNL d   1       5.808   5.999   4.437  0.00  0.00     0.078 C 
ENDROOT
BRANCH   1   8
ATOM      8  C1  UNL d   1       5.457   5.656   1.459  0.00  0.00     0.053 C 
ATOM      9  C   UNL d   1       4.851   5.252   0.123  0.00  0.00     0.018 C 
ENDBRANCH   1   8
TORSDOF 1
ENDMDL
