MODEL 1
REMARK minimizedAffinity 16.7372131
REMARK minimizedRMSD -1
REMARK  1 active torsions:
REMARK  status: ('A' for Active; 'I' for Inactive)
REMARK    1  A    between atoms: C1_2  and  C2_3 
ROOT
ATOM      1  C2  UNL d   1       4.467   0.607   2.073  0.00  0.00    -0.076 A 
ATOM      2  C3  UNL d   1       4.003  -0.602   2.621  0.00  0.00     0.004 A 
ATOM      3  C4  UNL d   1       4.536  -1.102   3.808  0.00  0.00    -0.003 A 
ATOM      4  C5  UNL d   1       5.540  -0.401   4.467  0.00  0.00     0.000 A 
ATOM      5  C6  UNL d   1       6.000   0.809   3.946  0.00  0.00     0.000 A 
ATOM      6  C7  UNL d   1       5.462   1.335   2.759  0.00  0.00    -0.073 A 
ATOM      7  C8  UNL d   1       6.000   2.640   2.240  0.00  0.00     0.078 C 
ENDROOT
BRANCH   1   8
ATOM      8  C1  UNL d   1       3.871   1.086   0.768  0.00  0.00     0.053 C 
ATOM      9  C   UNL d   1       3.703  -0.037  -0.243  0.00  0.00     0.018 C 
ENDBRANCH   1   8
TORSDOF 1
ENDMDL
