MODEL 1
REMARK minimizedAffinity 3.06620002
REMARK minimizedRMSD -1
REMARK  1 active torsions:
REMARK  status: ('A' for Active; 'I' for Inactive)
REMARK    1  A    between atoms: C1_2  and  C2_3 
ROOT
ATOM      1  C2  UNL d   1       4.999   1.564   4.210  0.00  0.00    -0.076 A 
ATOM      2  C3  UNL d   1       5.752   1.125   5.313  0.00  0.00     0.004 A 
ATOM      3  C4  UNL d   1       5.998  -0.231   5.520  0.00  0.00    -0.003 A 
ATOM      4  C5  UNL d   1       5.496  -1.171   4.626  0.00  0.00     0.000 A 
ATOM      5  C6  UNL d   1       4.762  -0.752   3.517  0.00  0.00     0.000 A 
ATOM      6  C7  UNL d   1       4.519   0.613   3.285  0.00  0.00    -0.073 A 
ATOM      7  C8  UNL d   1       3.717   1.008   2.075  0.00  0.00     0.078 C 
ENDROOT
BRANCH   1   8
ATOM      8  C1  UNL d   1       4.742   3.046   4.053  0.00  0.00     0.053 C 
ATOM      9  C   UNL d   1       5.999   3.820   3.691  0.00  0.00     0.018 C 
ENDBRANCH   1   8
TORSDOF 1
ENDMDL
