MODEL 1
REMARK minimizedAffinity -0.130033448
REMARK minimizedRMSD -1
REMARK  1 active torsions:
REMARK  status: ('A' for Active; 'I' for Inactive)
REMARK    1  A    between atoms: C1_2  and  C2_3 
ROOT
ATOM      1  C2  UNL d   1       5.308   0.521   4.602  0.00  0.00    -0.076 A 
ATOM      2  C3  UNL d   1       5.193   1.459   5.643  0.00  0.00     0.004 A 
ATOM      3  C4  UNL d   1       5.484   2.806   5.430  0.00  0.00    -0.003 A 
ATOM      4  C5  UNL d   1       5.895   3.236   4.173  0.00  0.00     0.000 A 
ATOM      5  C6  UNL d   1       5.998   2.321   3.125  0.00  0.00     0.000 A 
ATOM      6  C7  UNL d   1       5.692   0.963   3.318  0.00  0.00    -0.073 A 
ATOM      7  C8  UNL d   1       5.826   0.020   2.154  0.00  0.00     0.078 C 
ENDROOT
BRANCH   1   8
ATOM      8  C1  UNL d   1       5.005  -0.930   4.899  0.00  0.00     0.053 C 
ATOM      9  C   UNL d   1       5.987  -1.880   4.230  0.00  0.00     0.018 C 
ENDBRANCH   1   8
TORSDOF 1
ENDMDL
