MODEL 1
REMARK minimizedAffinity -0.0293091051
REMARK minimizedRMSD -1
REMARK  1 active torsions:
REMARK  status: ('A' for Active; 'I' for Inactive)
REMARK    1  A    between atoms: C1_2  and  C2_3 
ROOT
ATOM      1  C2  UNL d   1       5.422   2.693   5.115  0.00  0.00    -0.076 A 
ATOM      2  C3  UNL d   1       5.406   3.975   5.690  0.00  0.00     0.004 A 
ATOM      3  C4  UNL d   1       5.691   5.107   4.928  0.00  0.00    -0.003 A 
ATOM      4  C5  UNL d   1       5.997   4.974   3.578  0.00  0.00     0.000 A 
ATOM      5  C6  UNL d   1       6.000   3.712   2.987  0.00  0.00     0.000 A 
ATOM      6  C7  UNL d   1       5.698   2.562   3.737  0.00  0.00    -0.073 A 
ATOM      7  C8  UNL d   1       5.722   1.224   3.050  0.00  0.00     0.078 C 
ENDROOT
BRANCH   1   8
ATOM      8  C1  UNL d   1       5.131   1.500   5.997  0.00  0.00     0.053 C 
ATOM      9  C   UNL d   1       5.882   0.253   5.557  0.00  0.00     0.018 C 
ENDBRANCH   1   8
TORSDOF 1
ENDMDL
