MODEL 1
REMARK minimizedAffinity -2.87630153
REMARK minimizedRMSD -1
REMARK  1 active torsions:
REMARK  status: ('A' for Active; 'I' for Inactive)
REMARK    1  A    between atoms: C1_2  and  C2_3 
ROOT
ATOM      1  C2  UNL d   1       5.805   1.399   3.842  0.00  0.00    -0.076 A 
ATOM      2  C3  UNL d   1       5.628   1.481   5.234  0.00  0.00     0.004 A 
ATOM      3  C4  UNL d   1       5.420   0.335   6.000  0.00  0.00    -0.003 A 
ATOM      4  C5  UNL d   1       5.387  -0.912   5.386  0.00  0.00     0.000 A 
ATOM      5  C6  UNL d   1       5.578  -1.014   4.008  0.00  0.00     0.000 A 
ATOM      6  C7  UNL d   1       5.805   0.130   3.224  0.00  0.00    -0.073 A 
ATOM      7  C8  UNL d   1       6.000  -0.037   1.742  0.00  0.00     0.078 C 
ENDROOT
BRANCH   1   8
ATOM      8  C1  UNL d   1       6.000   2.678   3.060  0.00  0.00     0.053 C 
ATOM      9  C   UNL d   1       5.956   3.914   3.945  0.00  0.00     0.018 C 
ENDBRANCH   1   8
TORSDOF 1
ENDMDL
