MODEL 1
REMARK minimizedAffinity -2.40227437
REMARK minimizedRMSD -1
REMARK  1 active torsions:
REMARK  status: ('A' for Active; 'I' for Inactive)
REMARK    1  A    between atoms: C1_2  and  C2_3 
ROOT
ATOM      1  C2  UNL d   1       5.119   1.426   4.460  0.00  0.00    -0.076 A 
ATOM      2  C3  UNL d   1       5.676   1.076   5.702  0.00  0.00     0.004 A 
ATOM      3  C4  UNL d   1       5.998  -0.247   5.997  0.00  0.00    -0.003 A 
ATOM      4  C5  UNL d   1       5.769  -1.243   5.054  0.00  0.00     0.000 A 
ATOM      5  C6  UNL d   1       5.233  -0.911   3.810  0.00  0.00     0.000 A 
ATOM      6  C7  UNL d   1       4.918   0.420   3.491  0.00  0.00    -0.073 A 
ATOM      7  C8  UNL d   1       4.337   0.720   2.136  0.00  0.00     0.078 C 
ENDROOT
BRANCH   1   8
ATOM      8  C1  UNL d   1       4.765   2.874   4.207  0.00  0.00     0.053 C 
ATOM      9  C   UNL d   1       5.954   3.689   3.724  0.00  0.00     0.018 C 
ENDBRANCH   1   8
TORSDOF 1
ENDMDL
