MODEL 1
REMARK minimizedAffinity -3.55452132
REMARK minimizedRMSD -1
REMARK  1 active torsions:
REMARK  status: ('A' for Active; 'I' for Inactive)
REMARK    1  A    between atoms: C1_2  and  C2_3 
ROOT
ATOM      1  C2  UNL d   1       5.858   1.796   3.610  0.00  0.00    -0.076 A 
ATOM      2  C3  UNL d   1       5.718   0.415   3.391  0.00  0.00     0.004 A 
ATOM      3  C4  UNL d   1       5.615  -0.474   4.459  0.00  0.00    -0.003 A 
ATOM      4  C5  UNL d   1       5.649   0.005   5.765  0.00  0.00     0.000 A 
ATOM      5  C6  UNL d   1       5.770   1.374   6.000  0.00  0.00     0.000 A 
ATOM      6  C7  UNL d   1       5.859   2.285   4.934  0.00  0.00    -0.073 A 
ATOM      7  C8  UNL d   1       5.994   3.750   5.246  0.00  0.00     0.078 C 
ENDROOT
BRANCH   1   8
ATOM      8  C1  UNL d   1       5.993   2.709   2.412  0.00  0.00     0.053 C 
ATOM      9  C   UNL d   1       5.998   4.180   2.798  0.00  0.00     0.018 C 
ENDBRANCH   1   8
TORSDOF 1
ENDMDL
