MODEL 1
REMARK minimizedAffinity -2.64103413
REMARK minimizedRMSD -1
REMARK  1 active torsions:
REMARK  status: ('A' for Active; 'I' for Inactive)
REMARK    1  A    between atoms: C1_2  and  C2_3 
ROOT
ATOM      1  C2  UNL d   1       5.994   0.920   3.703  0.00  0.00    -0.076 A 
ATOM      2  C3  UNL d   1       6.000   2.105   2.947  0.00  0.00     0.004 A 
ATOM      3  C4  UNL d   1       5.972   3.352   3.569  0.00  0.00    -0.003 A 
ATOM      4  C5  UNL d   1       5.939   3.434   4.957  0.00  0.00     0.000 A 
ATOM      5  C6  UNL d   1       5.950   2.269   5.722  0.00  0.00     0.000 A 
ATOM      6  C7  UNL d   1       5.995   1.004   5.111  0.00  0.00    -0.073 A 
ATOM      7  C8  UNL d   1       6.000  -0.221   5.985  0.00  0.00     0.078 C 
ENDROOT
BRANCH   1   8
ATOM      8  C1  UNL d   1       5.998  -0.404   2.972  0.00  0.00     0.053 C 
ATOM      9  C   UNL d   1       4.596  -0.883   2.626  0.00  0.00     0.018 C 
ENDBRANCH   1   8
TORSDOF 1
ENDMDL
