MODEL 1
REMARK minimizedAffinity 13.0791922
REMARK minimizedRMSD -1
REMARK  1 active torsions:
REMARK  status: ('A' for Active; 'I' for Inactive)
REMARK    1  A    between atoms: C1_2  and  C2_3 
ROOT
ATOM      1  C2  UNL d   1       4.124   1.967  -4.262  0.00  0.00    -0.076 A 
ATOM      2  C3  UNL d   1       3.251   1.313  -5.149  0.00  0.00     0.004 A 
ATOM      3  C4  UNL d   1       2.418   2.037  -6.000  0.00  0.00    -0.003 A 
ATOM      4  C5  UNL d   1       2.444   3.427  -5.978  0.00  0.00     0.000 A 
ATOM      5  C6  UNL d   1       3.316   4.092  -5.117  0.00  0.00     0.000 A 
ATOM      6  C7  UNL d   1       4.174   3.377  -4.264  0.00  0.00    -0.073 A 
ATOM      7  C8  UNL d   1       5.090   4.146  -3.351  0.00  0.00     0.078 C 
ENDROOT
BRANCH   1   8
ATOM      8  C1  UNL d   1       4.984   1.129  -3.344  0.00  0.00     0.053 C 
ATOM      9  C   UNL d   1       4.183   0.480  -2.226  0.00  0.00     0.018 C 
ENDBRANCH   1   8
TORSDOF 1
ENDMDL
