MODEL 1
REMARK minimizedAffinity 5.23148441
REMARK minimizedRMSD -1
REMARK  1 active torsions:
REMARK  status: ('A' for Active; 'I' for Inactive)
REMARK    1  A    between atoms: C1_2  and  C2_3 
ROOT
ATOM      1  C2  UNL d   1       4.143   4.490   1.235  0.00  0.00    -0.076 A 
ATOM      2  C3  UNL d   1       4.150   4.138   2.596  0.00  0.00     0.004 A 
ATOM      3  C4  UNL d   1       5.071   4.701   3.478  0.00  0.00    -0.003 A 
ATOM      4  C5  UNL d   1       6.000   5.626   3.013  0.00  0.00     0.000 A 
ATOM      5  C6  UNL d   1       5.996   5.999   1.670  0.00  0.00     0.000 A 
ATOM      6  C7  UNL d   1       5.064   5.453   0.771  0.00  0.00    -0.073 A 
ATOM      7  C8  UNL d   1       5.109   5.888  -0.669  0.00  0.00     0.078 C 
ENDROOT
BRANCH   1   8
ATOM      8  C1  UNL d   1       3.138   3.826   0.321  0.00  0.00     0.053 C 
ATOM      9  C   UNL d   1       3.654   2.518  -0.260  0.00  0.00     0.018 C 
ENDBRANCH   1   8
TORSDOF 1
ENDMDL
