MODEL 1
REMARK minimizedAffinity 2.32198429
REMARK minimizedRMSD -1
REMARK  1 active torsions:
REMARK  status: ('A' for Active; 'I' for Inactive)
REMARK    1  A    between atoms: C1_2  and  C2_3 
ROOT
ATOM      1  C2  UNL d   1       5.939   0.970   3.338  0.00  0.00    -0.076 A 
ATOM      2  C3  UNL d   1       5.945   1.582   2.073  0.00  0.00     0.004 A 
ATOM      3  C4  UNL d   1       5.969   2.970   1.948  0.00  0.00    -0.003 A 
ATOM      4  C5  UNL d   1       5.987   3.768   3.087  0.00  0.00     0.000 A 
ATOM      5  C6  UNL d   1       5.999   3.177   4.350  0.00  0.00     0.000 A 
ATOM      6  C7  UNL d   1       5.992   1.779   4.493  0.00  0.00    -0.073 A 
ATOM      7  C8  UNL d   1       6.000   1.195   5.879  0.00  0.00     0.078 C 
ENDROOT
BRANCH   1   8
ATOM      8  C1  UNL d   1       5.886  -0.540   3.411  0.00  0.00     0.053 C 
ATOM      9  C   UNL d   1       5.757  -1.049   4.839  0.00  0.00     0.018 C 
ENDBRANCH   1   8
TORSDOF 1
ENDMDL
