MODEL 1
REMARK minimizedAffinity 7.30659485
REMARK minimizedRMSD -1
REMARK  1 active torsions:
REMARK  status: ('A' for Active; 'I' for Inactive)
REMARK    1  A    between atoms: C1_2  and  C2_3 
ROOT
ATOM      1  C2  UNL d   1       5.743   1.466   3.442  0.00  0.00    -0.076 A 
ATOM      2  C3  UNL d   1       5.487   0.771   2.247  0.00  0.00     0.004 A 
ATOM      3  C4  UNL d   1       5.269  -0.605   2.250  0.00  0.00    -0.003 A 
ATOM      4  C5  UNL d   1       5.304  -1.310   3.449  0.00  0.00     0.000 A 
ATOM      5  C6  UNL d   1       5.539  -0.634   4.646  0.00  0.00     0.000 A 
ATOM      6  C7  UNL d   1       5.744   0.756   4.662  0.00  0.00    -0.073 A 
ATOM      7  C8  UNL d   1       5.999   1.433   5.980  0.00  0.00     0.078 C 
ENDROOT
BRANCH   1   8
ATOM      8  C1  UNL d   1       5.999   2.955   3.373  0.00  0.00     0.053 C 
ATOM      9  C   UNL d   1       4.754   3.743   2.996  0.00  0.00     0.018 C 
ENDBRANCH   1   8
TORSDOF 1
ENDMDL
