MODEL 1
REMARK minimizedAffinity -0.841335475
REMARK minimizedRMSD -1
REMARK  1 active torsions:
REMARK  status: ('A' for Active; 'I' for Inactive)
REMARK    1  A    between atoms: C1_2  and  C2_3 
ROOT
ATOM      1  C2  UNL d   1       5.195   1.492   4.467  0.00  0.00    -0.076 A 
ATOM      2  C3  UNL d   1       4.983   0.940   5.742  0.00  0.00     0.004 A 
ATOM      3  C4  UNL d   1       5.266  -0.401   5.999  0.00  0.00    -0.003 A 
ATOM      4  C5  UNL d   1       5.766  -1.211   4.986  0.00  0.00     0.000 A 
ATOM      5  C6  UNL d   1       6.000  -0.675   3.719  0.00  0.00     0.000 A 
ATOM      6  C7  UNL d   1       5.735   0.678   3.448  0.00  0.00    -0.073 A 
ATOM      7  C8  UNL d   1       6.000   1.202   2.062  0.00  0.00     0.078 C 
ENDROOT
BRANCH   1   8
ATOM      8  C1  UNL d   1       4.844   2.945   4.239  0.00  0.00     0.053 C 
ATOM      9  C   UNL d   1       6.000   3.880   4.560  0.00  0.00     0.018 C 
ENDBRANCH   1   8
TORSDOF 1
ENDMDL
