MODEL 1
REMARK minimizedAffinity 5.2299037
REMARK minimizedRMSD -1
REMARK  1 active torsions:
REMARK  status: ('A' for Active; 'I' for Inactive)
REMARK    1  A    between atoms: C1_2  and  C2_3 
ROOT
ATOM      1  C2  UNL d   1      -0.897   2.951   2.488  0.00  0.00    -0.076 A 
ATOM      2  C3  UNL d   1      -1.260   2.570   1.184  0.00  0.00     0.004 A 
ATOM      3  C4  UNL d   1      -0.848   3.313   0.079  0.00  0.00    -0.003 A 
ATOM      4  C5  UNL d   1      -0.067   4.449   0.259  0.00  0.00     0.000 A 
ATOM      5  C6  UNL d   1       0.317   4.831   1.544  0.00  0.00     0.000 A 
ATOM      6  C7  UNL d   1      -0.076   4.084   2.668  0.00  0.00    -0.073 A 
ATOM      7  C8  UNL d   1       0.362   4.546   4.030  0.00  0.00     0.078 C 
ENDROOT
BRANCH   1   8
ATOM      8  C1  UNL d   1      -1.395   2.122   3.650  0.00  0.00     0.053 C 
ATOM      9  C   UNL d   1      -1.718   0.691   3.248  0.00  0.00     0.018 C 
ENDBRANCH   1   8
TORSDOF 1
ENDMDL
