MODEL 1
REMARK minimizedAffinity -0.0880294591
REMARK minimizedRMSD -1
REMARK  1 active torsions:
REMARK  status: ('A' for Active; 'I' for Inactive)
REMARK    1  A    between atoms: C1_2  and  C2_3 
ROOT
ATOM      1  C2  UNL d   1       5.982   1.605   3.550  0.00  0.00    -0.076 A 
ATOM      2  C3  UNL d   1       5.999   2.641   2.600  0.00  0.00     0.004 A 
ATOM      3  C4  UNL d   1       5.998   3.977   2.996  0.00  0.00    -0.003 A 
ATOM      4  C5  UNL d   1       5.980   4.299   4.348  0.00  0.00     0.000 A 
ATOM      5  C6  UNL d   1       5.980   3.285   5.305  0.00  0.00     0.000 A 
ATOM      6  C7  UNL d   1       5.998   1.932   4.923  0.00  0.00    -0.073 A 
ATOM      7  C8  UNL d   1       5.991   0.879   5.996  0.00  0.00     0.078 C 
ENDROOT
BRANCH   1   8
ATOM      8  C1  UNL d   1       5.956   0.174   3.061  0.00  0.00     0.053 C 
ATOM      9  C   UNL d   1       5.881  -0.830   4.201  0.00  0.00     0.018 C 
ENDBRANCH   1   8
TORSDOF 1
ENDMDL
