MODEL 1
REMARK minimizedAffinity 1.02379107
REMARK minimizedRMSD -1
REMARK  1 active torsions:
REMARK  status: ('A' for Active; 'I' for Inactive)
REMARK    1  A    between atoms: C1_2  and  C2_3 
ROOT
ATOM      1  C2  UNL d   1       5.146   2.508   4.584  0.00  0.00    -0.076 A 
ATOM      2  C3  UNL d   1       4.929   1.525   5.564  0.00  0.00     0.004 A 
ATOM      3  C4  UNL d   1       5.232   0.187   5.318  0.00  0.00    -0.003 A 
ATOM      4  C5  UNL d   1       5.759  -0.189   4.087  0.00  0.00     0.000 A 
ATOM      5  C6  UNL d   1       5.998   0.776   3.110  0.00  0.00     0.000 A 
ATOM      6  C7  UNL d   1       5.713   2.131   3.348  0.00  0.00    -0.073 A 
ATOM      7  C8  UNL d   1       5.985   3.129   2.255  0.00  0.00     0.078 C 
ENDROOT
BRANCH   1   8
ATOM      8  C1  UNL d   1       4.773   3.939   4.899  0.00  0.00     0.053 C 
ATOM      9  C   UNL d   1       5.988   4.814   5.164  0.00  0.00     0.018 C 
ENDBRANCH   1   8
TORSDOF 1
ENDMDL
