MODEL 1
REMARK minimizedAffinity 0.426181525
REMARK minimizedRMSD -1
REMARK  1 active torsions:
REMARK  status: ('A' for Active; 'I' for Inactive)
REMARK    1  A    between atoms: C1_2  and  C2_3 
ROOT
ATOM      1  C2  UNL d   1       5.977   2.344   4.817  0.00  0.00    -0.076 A 
ATOM      2  C3  UNL d   1       5.966   1.563   5.986  0.00  0.00     0.004 A 
ATOM      3  C4  UNL d   1       5.920   0.171   5.919  0.00  0.00    -0.003 A 
ATOM      4  C5  UNL d   1       5.886  -0.462   4.681  0.00  0.00     0.000 A 
ATOM      5  C6  UNL d   1       5.914   0.296   3.511  0.00  0.00     0.000 A 
ATOM      6  C7  UNL d   1       5.977   1.700   3.562  0.00  0.00    -0.073 A 
ATOM      7  C8  UNL d   1       5.999   2.468   2.269  0.00  0.00     0.078 C 
ENDROOT
BRANCH   1   8
ATOM      8  C1  UNL d   1       5.999   3.849   4.953  0.00  0.00     0.053 C 
ATOM      9  C   UNL d   1       5.834   4.557   3.617  0.00  0.00     0.018 C 
ENDBRANCH   1   8
TORSDOF 1
ENDMDL
