MODEL 1
REMARK minimizedAffinity 7.26531267
REMARK minimizedRMSD -1
REMARK  1 active torsions:
REMARK  status: ('A' for Active; 'I' for Inactive)
REMARK    1  A    between atoms: N_2  and  C1_3 
ROOT
ATOM      1  C1  UNL d   1       4.192   3.748   4.114  0.00  0.00     0.143 A 
ATOM      2  C2  UNL d   1       3.293   3.954   5.166  0.00  0.00    -0.057 A 
ATOM      3  C3  UNL d   1       3.394   5.076   5.998  0.00  0.00     0.033 A 
ATOM      4  C4  UNL d   1       4.418   5.998   5.810  0.00  0.00    -0.042 A 
ATOM      5  C5  UNL d   1       5.338   5.800   4.787  0.00  0.00     0.033 A 
ATOM      6  C6  UNL d   1       5.227   4.682   3.955  0.00  0.00    -0.057 A 
ENDROOT
BRANCH   1   7
ATOM      7  N   UNL d   1       4.203   2.603   3.314  0.00  0.00    -0.732 N 
ATOM      8  C   UNL d   1       3.010   1.797   3.163  0.00  0.00     0.284 C 
ATOM      9  H3  UNL d   1       4.726   2.737   2.451  0.00  0.00     0.395 HD
ENDBRANCH   1   7
TORSDOF 1
ENDMDL
