MODEL 1
REMARK minimizedAffinity 6.53295755
REMARK minimizedRMSD -1
REMARK  1 active torsions:
REMARK  status: ('A' for Active; 'I' for Inactive)
REMARK    1  A    between atoms: N_2  and  C1_3 
ROOT
ATOM      1  C1  UNL d   1       0.609  -1.899   2.055  0.00  0.00     0.143 A 
ATOM      2  C2  UNL d   1       1.181  -3.167   1.902  0.00  0.00    -0.057 A 
ATOM      3  C3  UNL d   1       2.156  -3.411   0.928  0.00  0.00     0.033 A 
ATOM      4  C4  UNL d   1       2.557  -2.395   0.067  0.00  0.00    -0.042 A 
ATOM      5  C5  UNL d   1       1.985  -1.134   0.184  0.00  0.00     0.033 A 
ATOM      6  C6  UNL d   1       1.016  -0.894   1.163  0.00  0.00    -0.057 A 
ENDROOT
BRANCH   1   7
ATOM      7  N   UNL d   1      -0.436  -1.618   2.939  0.00  0.00    -0.732 N 
ATOM      8  C   UNL d   1      -0.612  -0.284   3.471  0.00  0.00     0.284 C 
ATOM      9  H3  UNL d   1      -1.303  -2.078   2.673  0.00  0.00     0.395 HD
ENDBRANCH   1   7
TORSDOF 1
ENDMDL
