MODEL 1
REMARK minimizedAffinity 3.09761143
REMARK minimizedRMSD -1
REMARK  1 active torsions:
REMARK  status: ('A' for Active; 'I' for Inactive)
REMARK    1  A    between atoms: N_2  and  C1_3 
ROOT
ATOM      1  C1  UNL d   1       0.407  -2.731   2.003  0.00  0.00     0.143 A 
ATOM      2  C2  UNL d   1       1.228  -1.895   1.239  0.00  0.00    -0.057 A 
ATOM      3  C3  UNL d   1       2.335  -2.399   0.546  0.00  0.00     0.033 A 
ATOM      4  C4  UNL d   1       2.658  -3.750   0.628  0.00  0.00    -0.042 A 
ATOM      5  C5  UNL d   1       1.871  -4.595   1.401  0.00  0.00     0.033 A 
ATOM      6  C6  UNL d   1       0.763  -4.087   2.085  0.00  0.00    -0.057 A 
ENDROOT
BRANCH   1   7
ATOM      7  N   UNL d   1      -0.649  -2.273   2.793  0.00  0.00    -0.732 N 
ATOM      8  C   UNL d   1      -1.590  -3.205   3.379  0.00  0.00     0.284 C 
ATOM      9  H3  UNL d   1      -0.370  -1.519   3.416  0.00  0.00     0.395 HD
ENDBRANCH   1   7
TORSDOF 1
ENDMDL
