MODEL 1
REMARK minimizedAffinity 2.05382991
REMARK minimizedRMSD -1
REMARK  1 active torsions:
REMARK  status: ('A' for Active; 'I' for Inactive)
REMARK    1  A    between atoms: N_2  and  C1_3 
ROOT
ATOM      1  C1  UNL d   1       1.063  -1.723   1.172  0.00  0.00     0.143 A 
ATOM      2  C2  UNL d   1      -0.255  -1.428   0.806  0.00  0.00    -0.057 A 
ATOM      3  C3  UNL d   1      -1.109  -0.733   1.670  0.00  0.00     0.033 A 
ATOM      4  C4  UNL d   1      -0.668  -0.344   2.931  0.00  0.00    -0.042 A 
ATOM      5  C5  UNL d   1       0.630  -0.648   3.325  0.00  0.00     0.033 A 
ATOM      6  C6  UNL d   1       1.480  -1.337   2.455  0.00  0.00    -0.057 A 
ENDROOT
BRANCH   1   7
ATOM      7  N   UNL d   1       1.930  -2.497   0.397  0.00  0.00    -0.732 N 
ATOM      8  C   UNL d   1       2.350  -3.807   0.847  0.00  0.00     0.284 C 
ATOM      9  H3  UNL d   1       1.713  -2.448  -0.596  0.00  0.00     0.395 HD
ENDBRANCH   1   7
TORSDOF 1
ENDMDL
