MODEL 1
REMARK minimizedAffinity 5.57071829
REMARK minimizedRMSD -1
REMARK  1 active torsions:
REMARK  status: ('A' for Active; 'I' for Inactive)
REMARK    1  A    between atoms: N_2  and  C1_3 
ROOT
ATOM      1  C1  UNL d   1       0.259  -2.849   1.764  0.00  0.00     0.143 A 
ATOM      2  C2  UNL d   1       1.493  -2.192   1.756  0.00  0.00    -0.057 A 
ATOM      3  C3  UNL d   1       2.661  -2.845   1.343  0.00  0.00     0.033 A 
ATOM      4  C4  UNL d   1       2.619  -4.181   0.957  0.00  0.00    -0.042 A 
ATOM      5  C5  UNL d   1       1.407  -4.862   0.981  0.00  0.00     0.033 A 
ATOM      6  C6  UNL d   1       0.243  -4.202   1.388  0.00  0.00    -0.057 A 
ENDROOT
BRANCH   1   7
ATOM      7  N   UNL d   1      -0.920  -2.285   2.257  0.00  0.00    -0.732 N 
ATOM      8  C   UNL d   1      -2.046  -3.121   2.613  0.00  0.00     0.284 C 
ATOM      9  H3  UNL d   1      -0.743  -1.526   2.911  0.00  0.00     0.395 HD
ENDBRANCH   1   7
TORSDOF 1
ENDMDL
