MODEL 1
REMARK minimizedAffinity 8.40997791
REMARK minimizedRMSD -1
REMARK  1 active torsions:
REMARK  status: ('A' for Active; 'I' for Inactive)
REMARK    1  A    between atoms: N_2  and  C1_3 
ROOT
ATOM      1  C1  UNL d   1       4.118  -3.970   3.384  0.00  0.00     0.143 A 
ATOM      2  C2  UNL d   1       4.162  -5.319   3.751  0.00  0.00    -0.057 A 
ATOM      3  C3  UNL d   1       4.525  -5.708   5.046  0.00  0.00     0.033 A 
ATOM      4  C4  UNL d   1       4.878  -4.752   5.993  0.00  0.00    -0.042 A 
ATOM      5  C5  UNL d   1       4.865  -3.406   5.643  0.00  0.00     0.033 A 
ATOM      6  C6  UNL d   1       4.496  -3.024   4.350  0.00  0.00    -0.057 A 
ENDROOT
BRANCH   1   7
ATOM      7  N   UNL d   1       3.860  -3.525   2.085  0.00  0.00    -0.732 N 
ATOM      8  C   UNL d   1       3.017  -4.295   1.196  0.00  0.00     0.284 C 
ATOM      9  H3  UNL d   1       3.702  -2.521   2.042  0.00  0.00     0.395 HD
ENDBRANCH   1   7
TORSDOF 1
ENDMDL
