MODEL 1
REMARK minimizedAffinity 2.06759143
REMARK minimizedRMSD -1
REMARK  1 active torsions:
REMARK  status: ('A' for Active; 'I' for Inactive)
REMARK    1  A    between atoms: N_2  and  C1_3 
ROOT
ATOM      1  C1  UNL d   1       2.800   5.282   4.176  0.00  0.00     0.143 A 
ATOM      2  C2  UNL d   1       3.902   5.337   3.316  0.00  0.00    -0.057 A 
ATOM      3  C3  UNL d   1       5.176   5.673   3.789  0.00  0.00     0.033 A 
ATOM      4  C4  UNL d   1       5.366   5.989   5.130  0.00  0.00    -0.042 A 
ATOM      5  C5  UNL d   1       4.280   5.965   5.998  0.00  0.00     0.033 A 
ATOM      6  C6  UNL d   1       3.012   5.622   5.521  0.00  0.00    -0.057 A 
ENDROOT
BRANCH   1   7
ATOM      7  N   UNL d   1       1.491   5.050   3.748  0.00  0.00    -0.732 N 
ATOM      8  C   UNL d   1       1.092   3.745   3.266  0.00  0.00     0.284 C 
ATOM      9  H3  UNL d   1       0.802   5.500   4.346  0.00  0.00     0.395 HD
ENDBRANCH   1   7
TORSDOF 1
ENDMDL
