MODEL 1
REMARK minimizedAffinity -4.55275679
REMARK minimizedRMSD -1
REMARK  0 active torsions:
REMARK  status: ('A' for Active; 'I' for Inactive)
ROOT
ATOM      1  C   UNL d   1      -0.708  -4.161  -0.856  0.00  0.00     0.020 A 
ATOM      2  C1  UNL d   1       0.555  -3.598  -0.686  0.00  0.00     0.020 A 
ATOM      3  C2  UNL d   1       0.681  -2.231  -0.428  0.00  0.00     0.034 A 
ATOM      4  C3  UNL d   1      -0.458  -1.423  -0.339  0.00  0.00     0.017 A 
ATOM      5  C4  UNL d   1      -1.726  -1.990  -0.510  0.00  0.00     0.017 A 
ATOM      6  C5  UNL d   1      -1.847  -3.359  -0.768  0.00  0.00     0.034 A 
ATOM      7 Cl   UNL d   1      -3.179  -1.058  -0.416  0.00  0.00    -0.070 Cl
ATOM      8 Cl1  UNL d   1      -0.228   0.259  -0.018  0.00  0.00    -0.070 Cl
ENDROOT
TORSDOF 0
ENDMDL
