MODEL 1
REMARK minimizedAffinity -1.98059237
REMARK minimizedRMSD -1
REMARK  0 active torsions:
REMARK  status: ('A' for Active; 'I' for Inactive)
ROOT
ATOM      1  C   UNL d   1       0.598  -0.404   3.947  0.00  0.00     0.020 A 
ATOM      2  C1  UNL d   1       1.444  -0.809   2.914  0.00  0.00     0.020 A 
ATOM      3  C2  UNL d   1       1.340  -0.216   1.654  0.00  0.00     0.034 A 
ATOM      4  C3  UNL d   1       0.389   0.785   1.423  0.00  0.00     0.017 A 
ATOM      5  C4  UNL d   1      -0.459   1.190   2.460  0.00  0.00     0.017 A 
ATOM      6  C5  UNL d   1      -0.351   0.593   3.720  0.00  0.00     0.034 A 
ATOM      7 Cl   UNL d   1      -1.657   2.418   2.251  0.00  0.00    -0.070 Cl
ATOM      8 Cl1  UNL d   1       0.316   1.474  -0.159  0.00  0.00    -0.070 Cl
ENDROOT
TORSDOF 0
ENDMDL
