MODEL 1
REMARK minimizedAffinity -4.24732113
REMARK minimizedRMSD -1
REMARK  0 active torsions:
REMARK  status: ('A' for Active; 'I' for Inactive)
ROOT
ATOM      1  C   UNL d   1      -0.037   0.091  -1.335  0.00  0.00     0.020 A 
ATOM      2  C1  UNL d   1       0.852  -0.842  -0.802  0.00  0.00     0.020 A 
ATOM      3  C2  UNL d   1       1.043  -0.914   0.579  0.00  0.00     0.034 A 
ATOM      4  C3  UNL d   1       0.344  -0.051   1.432  0.00  0.00     0.017 A 
ATOM      5  C4  UNL d   1      -0.548   0.884   0.896  0.00  0.00     0.017 A 
ATOM      6  C5  UNL d   1      -0.735   0.952  -0.488  0.00  0.00     0.034 A 
ATOM      7 Cl   UNL d   1      -1.445   1.981   1.885  0.00  0.00    -0.070 Cl
ATOM      8 Cl1  UNL d   1       0.630  -0.196   3.130  0.00  0.00    -0.070 Cl
ENDROOT
TORSDOF 0
ENDMDL
