MODEL 1
REMARK minimizedAffinity -1.85795677
REMARK minimizedRMSD -1
REMARK  0 active torsions:
REMARK  status: ('A' for Active; 'I' for Inactive)
ROOT
ATOM      1  C   UNL d   1      -0.204   0.513  -1.271  0.00  0.00     0.020 A 
ATOM      2  C1  UNL d   1       0.646  -0.405  -0.656  0.00  0.00     0.020 A 
ATOM      3  C2  UNL d   1       0.821  -0.375   0.729  0.00  0.00     0.034 A 
ATOM      4  C3  UNL d   1       0.145   0.575   1.503  0.00  0.00     0.017 A 
ATOM      5  C4  UNL d   1      -0.707   1.497   0.885  0.00  0.00     0.017 A 
ATOM      6  C5  UNL d   1      -0.879   1.462  -0.503  0.00  0.00     0.034 A 
ATOM      7 Cl   UNL d   1      -1.575   2.699   1.773  0.00  0.00    -0.070 Cl
ATOM      8 Cl1  UNL d   1       0.408   0.555   3.211  0.00  0.00    -0.070 Cl
ENDROOT
TORSDOF 0
ENDMDL
