MODEL 1
REMARK minimizedAffinity -4.46547031
REMARK minimizedRMSD -1
REMARK  0 active torsions:
REMARK  status: ('A' for Active; 'I' for Inactive)
ROOT
ATOM      1  C   UNL d   1      -0.841   2.338   2.080  0.00  0.00     0.020 A 
ATOM      2  C1  UNL d   1      -0.451   1.081   2.540  0.00  0.00     0.020 A 
ATOM      3  C2  UNL d   1      -0.054   0.098   1.632  0.00  0.00     0.034 A 
ATOM      4  C3  UNL d   1      -0.045   0.369   0.259  0.00  0.00     0.017 A 
ATOM      5  C4  UNL d   1      -0.436   1.632  -0.202  0.00  0.00     0.017 A 
ATOM      6  C5  UNL d   1      -0.833   2.613   0.712  0.00  0.00     0.034 A 
ATOM      7 Cl   UNL d   1      -0.452   2.041  -1.881  0.00  0.00    -0.070 Cl
ATOM      8 Cl1  UNL d   1       0.458  -0.894  -0.807  0.00  0.00    -0.070 Cl
ENDROOT
TORSDOF 0
ENDMDL
