MODEL 1
REMARK minimizedAffinity -0.70430696
REMARK minimizedRMSD -1
REMARK  0 active torsions:
REMARK  status: ('A' for Active; 'I' for Inactive)
ROOT
ATOM      1  C   UNL d   1      -0.152   1.574   2.245  0.00  0.00     0.020 A 
ATOM      2  C1  UNL d   1       0.599   0.400   2.286  0.00  0.00     0.020 A 
ATOM      3  C2  UNL d   1       0.779  -0.355   1.125  0.00  0.00     0.034 A 
ATOM      4  C3  UNL d   1       0.206   0.062  -0.082  0.00  0.00     0.017 A 
ATOM      5  C4  UNL d   1      -0.548   1.241  -0.122  0.00  0.00     0.017 A 
ATOM      6  C5  UNL d   1      -0.724   1.993   1.043  0.00  0.00     0.034 A 
ATOM      7 Cl   UNL d   1      -1.285   1.820  -1.574  0.00  0.00    -0.070 Cl
ATOM      8 Cl1  UNL d   1       0.470  -0.921  -1.478  0.00  0.00    -0.070 Cl
ENDROOT
TORSDOF 0
ENDMDL
