MODEL 1
REMARK minimizedAffinity -3.80619645
REMARK minimizedRMSD -1
REMARK  0 active torsions:
REMARK  status: ('A' for Active; 'I' for Inactive)
ROOT
ATOM      1  C   UNL d   1      -1.157   1.900   1.647  0.00  0.00     0.020 A 
ATOM      2  C1  UNL d   1      -0.943   0.631   2.184  0.00  0.00     0.020 A 
ATOM      3  C2  UNL d   1      -0.450  -0.395   1.375  0.00  0.00     0.034 A 
ATOM      4  C3  UNL d   1      -0.170  -0.155   0.025  0.00  0.00     0.017 A 
ATOM      5  C4  UNL d   1      -0.386   1.119  -0.513  0.00  0.00     0.017 A 
ATOM      6  C5  UNL d   1      -0.879   2.143   0.301  0.00  0.00     0.034 A 
ATOM      7 Cl   UNL d   1      -0.064   1.493  -2.170  0.00  0.00    -0.070 Cl
ATOM      8 Cl1  UNL d   1       0.437  -1.470  -0.916  0.00  0.00    -0.070 Cl
ENDROOT
TORSDOF 0
ENDMDL
