MODEL 1
REMARK minimizedAffinity -3.80231905
REMARK minimizedRMSD -1
REMARK  0 active torsions:
REMARK  status: ('A' for Active; 'I' for Inactive)
ROOT
ATOM      1  C2' OXE d   1      -5.640   1.470  -1.509  0.00  0.00     0.078 C 
ATOM      2  C1' OXE d   1      -3.040   2.169  -2.301  0.00  0.00     0.078 C 
ATOM      3  C1  OXE d   1      -3.794   3.140  -1.428  0.00  0.00    -0.078 A 
ATOM      4  C2  OXE d   1      -5.083   2.811  -1.084  0.00  0.00    -0.078 A 
ATOM      5  C3  OXE d   1      -5.805   3.646  -0.235  0.00  0.00     0.003 A 
ATOM      6  C4  OXE d   1      -5.286   4.889   0.146  0.00  0.00    -0.002 A 
ATOM      7  C5  OXE d   1      -3.990   5.262  -0.227  0.00  0.00    -0.002 A 
ATOM      8  C6  OXE d   1      -3.217   4.382  -0.976  0.00  0.00     0.003 A 
ENDROOT
TORSDOF 0
ENDMDL
