MODEL 1
REMARK minimizedAffinity 2.73200512
REMARK minimizedRMSD -1
REMARK  0 active torsions:
REMARK  status: ('A' for Active; 'I' for Inactive)
ROOT
ATOM      1  C2' OXE d   1       0.749  -4.895  -5.999  0.00  0.00     0.078 C 
ATOM      2  C1' OXE d   1       0.157  -2.151  -6.000  0.00  0.00     0.078 C 
ATOM      3  C1  OXE d   1      -0.188  -2.944  -4.765  0.00  0.00    -0.078 A 
ATOM      4  C2  OXE d   1       0.063  -4.295  -4.790  0.00  0.00    -0.078 A 
ATOM      5  C3  OXE d   1      -0.186  -5.064  -3.657  0.00  0.00     0.003 A 
ATOM      6  C4  OXE d   1      -0.830  -4.504  -2.547  0.00  0.00    -0.002 A 
ATOM      7  C5  OXE d   1      -1.130  -3.138  -2.516  0.00  0.00    -0.002 A 
ATOM      8  C6  OXE d   1      -0.778  -2.337  -3.597  0.00  0.00     0.003 A 
ENDROOT
TORSDOF 0
ENDMDL
