MODEL 1
REMARK minimizedAffinity 0.764671683
REMARK minimizedRMSD -1
REMARK  0 active torsions:
REMARK  status: ('A' for Active; 'I' for Inactive)
ROOT
ATOM      1  C2' OXE d   1      -2.224  -1.690   3.631  0.00  0.00     0.078 C 
ATOM      2  C1' OXE d   1      -2.007   1.011   4.366  0.00  0.00     0.078 C 
ATOM      3  C1  OXE d   1      -2.120   0.689   2.897  0.00  0.00    -0.078 A 
ATOM      4  C2  OXE d   1      -2.178  -0.638   2.543  0.00  0.00    -0.078 A 
ATOM      5  C3  OXE d   1      -2.338  -0.988   1.206  0.00  0.00     0.003 A 
ATOM      6  C4  OXE d   1      -2.285  -0.010   0.206  0.00  0.00    -0.002 A 
ATOM      7  C5  OXE d   1      -2.186   1.345   0.542  0.00  0.00    -0.002 A 
ATOM      8  C6  OXE d   1      -2.145   1.713   1.882  0.00  0.00     0.003 A 
ENDROOT
TORSDOF 0
ENDMDL
