MODEL 1
REMARK minimizedAffinity 5.22887897
REMARK minimizedRMSD -1
REMARK  0 active torsions:
REMARK  status: ('A' for Active; 'I' for Inactive)
ROOT
ATOM      1  C2' OXE d   1      -0.053  -0.316   3.651  0.00  0.00     0.078 C 
ATOM      2  C1' OXE d   1      -2.496  -1.683   3.449  0.00  0.00     0.078 C 
ATOM      3  C1  OXE d   1      -2.285  -0.485   2.558  0.00  0.00    -0.078 A 
ATOM      4  C2  OXE d   1      -1.106   0.206   2.697  0.00  0.00    -0.078 A 
ATOM      5  C3  OXE d   1      -0.837   1.287   1.862  0.00  0.00     0.003 A 
ATOM      6  C4  OXE d   1      -1.820   1.769   0.989  0.00  0.00    -0.002 A 
ATOM      7  C5  OXE d   1      -3.044   1.104   0.860  0.00  0.00    -0.002 A 
ATOM      8  C6  OXE d   1      -3.275  -0.047   1.605  0.00  0.00     0.003 A 
ENDROOT
TORSDOF 0
ENDMDL
