MODEL 1
REMARK minimizedAffinity 2.37816095
REMARK minimizedRMSD -1
REMARK  0 active torsions:
REMARK  status: ('A' for Active; 'I' for Inactive)
ROOT
ATOM      1  C2' OXE d   1       0.024  -1.267  -0.016  0.00  0.00     0.078 C 
ATOM      2  C1' OXE d   1       1.767  -0.155   1.883  0.00  0.00     0.078 C 
ATOM      3  C1  OXE d   1       0.312   0.240   1.947  0.00  0.00    -0.078 A 
ATOM      4  C2  OXE d   1      -0.524  -0.272   0.985  0.00  0.00    -0.078 A 
ATOM      5  C3  OXE d   1      -1.885   0.017   1.030  0.00  0.00     0.003 A 
ATOM      6  C4  OXE d   1      -2.382   0.946   1.952  0.00  0.00    -0.002 A 
ATOM      7  C5  OXE d   1      -1.540   1.510   2.916  0.00  0.00    -0.002 A 
ATOM      8  C6  OXE d   1      -0.201   1.136   2.954  0.00  0.00     0.003 A 
ENDROOT
TORSDOF 0
ENDMDL
