MODEL 1
REMARK minimizedAffinity 8.22785664
REMARK minimizedRMSD -1
REMARK  0 active torsions:
REMARK  status: ('A' for Active; 'I' for Inactive)
ROOT
ATOM      1  C2' OXE d   1      -4.433   0.220  -0.750  0.00  0.00     0.078 C 
ATOM      2  C1' OXE d   1      -2.870  -1.838   0.345  0.00  0.00     0.078 C 
ATOM      3  C1  OXE d   1      -2.638  -0.436   0.849  0.00  0.00    -0.078 A 
ATOM      4  C2  OXE d   1      -3.375   0.572   0.274  0.00  0.00    -0.078 A 
ATOM      5  C3  OXE d   1      -3.240   1.877   0.740  0.00  0.00     0.003 A 
ATOM      6  C4  OXE d   1      -2.252   2.195   1.680  0.00  0.00    -0.002 A 
ATOM      7  C5  OXE d   1      -1.464   1.189   2.249  0.00  0.00    -0.002 A 
ATOM      8  C6  OXE d   1      -1.673  -0.134   1.876  0.00  0.00     0.003 A 
ENDROOT
TORSDOF 0
ENDMDL
