MODEL 1
REMARK minimizedAffinity 7.42299175
REMARK minimizedRMSD -1
REMARK  0 active torsions:
REMARK  status: ('A' for Active; 'I' for Inactive)
ROOT
ATOM      1  C2' OXE d   1      -1.353   2.983   1.712  0.00  0.00     0.078 C 
ATOM      2  C1' OXE d   1      -3.562   1.610   0.655  0.00  0.00     0.078 C 
ATOM      3  C1  OXE d   1      -2.603   0.837   1.526  0.00  0.00    -0.078 A 
ATOM      4  C2  OXE d   1      -1.500   1.505   2.000  0.00  0.00    -0.078 A 
ATOM      5  C3  OXE d   1      -0.613   0.853   2.852  0.00  0.00     0.003 A 
ATOM      6  C4  OXE d   1      -0.751  -0.517   3.106  0.00  0.00    -0.002 A 
ATOM      7  C5  OXE d   1      -1.846  -1.226   2.600  0.00  0.00    -0.002 A 
ATOM      8  C6  OXE d   1      -2.802  -0.555   1.845  0.00  0.00     0.003 A 
ENDROOT
TORSDOF 0
ENDMDL
