MODEL 1
REMARK minimizedAffinity 2.54667473
REMARK minimizedRMSD -1
REMARK  0 active torsions:
REMARK  status: ('A' for Active; 'I' for Inactive)
ROOT
ATOM      1  C2' OXE d   1      -3.875   0.497  -0.888  0.00  0.00     0.078 C 
ATOM      2  C1' OXE d   1      -2.925  -2.044  -0.168  0.00  0.00     0.078 C 
ATOM      3  C1  OXE d   1      -2.654  -0.899   0.775  0.00  0.00    -0.078 A 
ATOM      4  C2  OXE d   1      -3.082   0.350   0.393  0.00  0.00    -0.078 A 
ATOM      5  C3  OXE d   1      -2.907   1.432   1.250  0.00  0.00     0.003 A 
ATOM      6  C4  OXE d   1      -2.164   1.289   2.429  0.00  0.00    -0.002 A 
ATOM      7  C5  OXE d   1      -1.684   0.034   2.818  0.00  0.00    -0.002 A 
ATOM      8  C6  OXE d   1      -1.957  -1.076   2.025  0.00  0.00     0.003 A 
ENDROOT
TORSDOF 0
ENDMDL
