MODEL 1
REMARK minimizedAffinity 2.06676269
REMARK minimizedRMSD -1
REMARK  0 active torsions:
REMARK  status: ('A' for Active; 'I' for Inactive)
ROOT
ATOM      1  C2' OXE d   1      -0.276  -5.512  -5.759  0.00  0.00     0.078 C 
ATOM      2  C1' OXE d   1      -2.764  -5.061  -4.542  0.00  0.00     0.078 C 
ATOM      3  C1  OXE d   1      -1.716  -3.983  -4.421  0.00  0.00    -0.078 A 
ATOM      4  C2  OXE d   1      -0.486  -4.232  -4.980  0.00  0.00    -0.078 A 
ATOM      5  C3  OXE d   1       0.499  -3.249  -4.944  0.00  0.00     0.003 A 
ATOM      6  C4  OXE d   1       0.300  -2.072  -4.213  0.00  0.00    -0.002 A 
ATOM      7  C5  OXE d   1      -0.933  -1.815  -3.603  0.00  0.00    -0.002 A 
ATOM      8  C6  OXE d   1      -1.963  -2.740  -3.733  0.00  0.00     0.003 A 
ENDROOT
TORSDOF 0
ENDMDL
