MODEL 1
REMARK minimizedAffinity 3.10218883
REMARK minimizedRMSD -1
REMARK  0 active torsions:
REMARK  status: ('A' for Active; 'I' for Inactive)
ROOT
ATOM      1  C2' OXE d   1      -0.269  -5.412  -5.824  0.00  0.00     0.078 C 
ATOM      2  C1' OXE d   1      -3.021  -4.913  -5.576  0.00  0.00     0.078 C 
ATOM      3  C1  OXE d   1      -2.099  -4.289  -4.559  0.00  0.00    -0.078 A 
ATOM      4  C2  OXE d   1      -0.759  -4.577  -4.660  0.00  0.00    -0.078 A 
ATOM      5  C3  OXE d   1       0.142  -3.984  -3.780  0.00  0.00     0.003 A 
ATOM      6  C4  OXE d   1      -0.320  -3.221  -2.700  0.00  0.00    -0.002 A 
ATOM      7  C5  OXE d   1      -1.684  -2.949  -2.555  0.00  0.00    -0.002 A 
ATOM      8  C6  OXE d   1      -2.581  -3.439  -3.499  0.00  0.00     0.003 A 
ENDROOT
TORSDOF 0
ENDMDL
