MODEL 1
REMARK minimizedAffinity 2.39142013
REMARK minimizedRMSD -1
REMARK  0 active torsions:
REMARK  status: ('A' for Active; 'I' for Inactive)
ROOT
ATOM      1  C2' OXE d   1      -2.432  -1.616  -4.227  0.00  0.00     0.078 C 
ATOM      2  C1' OXE d   1      -0.121  -0.497  -5.363  0.00  0.00     0.078 C 
ATOM      3  C1  OXE d   1      -0.232  -2.001  -5.331  0.00  0.00    -0.078 A 
ATOM      4  C2  OXE d   1      -1.344  -2.540  -4.731  0.00  0.00    -0.078 A 
ATOM      5  C3  OXE d   1      -1.522  -3.920  -4.724  0.00  0.00     0.003 A 
ATOM      6  C4  OXE d   1      -0.508  -4.769  -5.183  0.00  0.00    -0.002 A 
ATOM      7  C5  OXE d   1       0.652  -4.240  -5.761  0.00  0.00    -0.002 A 
ATOM      8  C6  OXE d   1       0.786  -2.862  -5.881  0.00  0.00     0.003 A 
ENDROOT
TORSDOF 0
ENDMDL
