MODEL 1
REMARK minimizedAffinity -5.18129826
REMARK minimizedRMSD -1
REMARK  0 active torsions:
REMARK  status: ('A' for Active; 'I' for Inactive)
ROOT
ATOM      1  C1  BNZ d   1       0.205  -2.974  -1.605  0.00  0.00     0.000 A 
ATOM      2  C2  BNZ d   1       0.599  -1.664  -1.643  0.00  0.00     0.000 A 
ATOM      3  C3  BNZ d   1       0.288  -0.809  -0.622  0.00  0.00     0.000 A 
ATOM      4  C4  BNZ d   1      -0.450  -1.256   0.414  0.00  0.00     0.000 A 
ATOM      5  C5  BNZ d   1      -0.863  -2.572   0.462  0.00  0.00     0.000 A 
ATOM      6  C6  BNZ d   1      -0.515  -3.439  -0.548  0.00  0.00     0.000 A 
ENDROOT
TORSDOF 0
ENDMDL
