MODEL 1
REMARK minimizedAffinity -3.9569304
REMARK minimizedRMSD -1
REMARK  0 active torsions:
REMARK  status: ('A' for Active; 'I' for Inactive)
ROOT
ATOM      1  C1  BNZ d   1       0.030  -0.736   0.392  0.00  0.00     0.000 A 
ATOM      2  C2  BNZ d   1      -0.095   0.625   0.320  0.00  0.00     0.000 A 
ATOM      3  C3  BNZ d   1      -0.128   1.263  -0.888  0.00  0.00     0.000 A 
ATOM      4  C4  BNZ d   1       0.004   0.543  -2.021  0.00  0.00     0.000 A 
ATOM      5  C5  BNZ d   1       0.140  -0.830  -1.966  0.00  0.00     0.000 A 
ATOM      6  C6  BNZ d   1       0.134  -1.472  -0.749  0.00  0.00     0.000 A 
ENDROOT
TORSDOF 0
ENDMDL
