MODEL 1
REMARK minimizedAffinity -3.90294957
REMARK minimizedRMSD -1
REMARK  0 active torsions:
REMARK  status: ('A' for Active; 'I' for Inactive)
ROOT
ATOM      1  C1  BNZ d   1       0.270   5.684   2.223  0.00  0.00     0.000 A 
ATOM      2  C2  BNZ d   1       1.591   6.000   2.051  0.00  0.00     0.000 A 
ATOM      3  C3  BNZ d   1       2.376   5.284   1.191  0.00  0.00     0.000 A 
ATOM      4  C4  BNZ d   1       1.849   4.230   0.535  0.00  0.00     0.000 A 
ATOM      5  C5  BNZ d   1       0.521   3.893   0.704  0.00  0.00     0.000 A 
ATOM      6  C6  BNZ d   1      -0.276   4.640   1.541  0.00  0.00     0.000 A 
ENDROOT
TORSDOF 0
ENDMDL
