MODEL 1
REMARK minimizedAffinity -3.95945072
REMARK minimizedRMSD -1
REMARK  0 active torsions:
REMARK  status: ('A' for Active; 'I' for Inactive)
ROOT
ATOM      1  C1  BNZ d   1      -0.394   0.033   0.072  0.00  0.00     0.000 A 
ATOM      2  C2  BNZ d   1       0.008  -1.276   0.089  0.00  0.00     0.000 A 
ATOM      3  C3  BNZ d   1       0.537  -1.861  -1.027  0.00  0.00     0.000 A 
ATOM      4  C4  BNZ d   1       0.628  -1.149  -2.169  0.00  0.00     0.000 A 
ATOM      5  C5  BNZ d   1       0.219   0.169  -2.205  0.00  0.00     0.000 A 
ATOM      6  C6  BNZ d   1      -0.278   0.766  -1.069  0.00  0.00     0.000 A 
ENDROOT
TORSDOF 0
ENDMDL
