MODEL 1
REMARK minimizedAffinity -4.91859627
REMARK minimizedRMSD -1
REMARK  0 active torsions:
REMARK  status: ('A' for Active; 'I' for Inactive)
ROOT
ATOM      1  C1  BNZ d   1      -0.961  -0.745   1.149  0.00  0.00     0.000 A 
ATOM      2  C2  BNZ d   1      -0.386  -1.985   1.061  0.00  0.00     0.000 A 
ATOM      3  C3  BNZ d   1       0.551  -2.255   0.103  0.00  0.00     0.000 A 
ATOM      4  C4  BNZ d   1       0.882  -1.300  -0.789  0.00  0.00     0.000 A 
ATOM      5  C5  BNZ d   1       0.303  -0.048  -0.720  0.00  0.00     0.000 A 
ATOM      6  C6  BNZ d   1      -0.611   0.233   0.270  0.00  0.00     0.000 A 
ENDROOT
TORSDOF 0
ENDMDL
