MODEL 1
REMARK minimizedAffinity -4.435112
REMARK minimizedRMSD -1
REMARK  0 active torsions:
REMARK  status: ('A' for Active; 'I' for Inactive)
ROOT
ATOM      1  C1  BNZ d   1      -1.057   0.010   1.112  0.00  0.00     0.000 A 
ATOM      2  C2  BNZ d   1      -0.761  -1.327   1.130  0.00  0.00     0.000 A 
ATOM      3  C3  BNZ d   1       0.067  -1.873   0.189  0.00  0.00     0.000 A 
ATOM      4  C4  BNZ d   1       0.565  -1.091  -0.790  0.00  0.00     0.000 A 
ATOM      5  C5  BNZ d   1       0.268   0.257  -0.827  0.00  0.00     0.000 A 
ATOM      6  C6  BNZ d   1      -0.534   0.811   0.144  0.00  0.00     0.000 A 
ENDROOT
TORSDOF 0
ENDMDL
