MODEL 1
REMARK minimizedAffinity -4.61982155
REMARK minimizedRMSD -1
REMARK  0 active torsions:
REMARK  status: ('A' for Active; 'I' for Inactive)
ROOT
ATOM      1  C1  BNZ d   1       0.518  -1.797  -0.940  0.00  0.00     0.000 A 
ATOM      2  C2  BNZ d   1       0.482  -0.437  -0.785  0.00  0.00     0.000 A 
ATOM      3  C3  BNZ d   1      -0.177   0.130   0.270  0.00  0.00     0.000 A 
ATOM      4  C4  BNZ d   1      -0.831  -0.660   1.146  0.00  0.00     0.000 A 
ATOM      5  C5  BNZ d   1      -0.811  -2.033   0.998  0.00  0.00     0.000 A 
ATOM      6  C6  BNZ d   1      -0.115  -2.602  -0.044  0.00  0.00     0.000 A 
ENDROOT
TORSDOF 0
ENDMDL
