MODEL 1
REMARK minimizedAffinity -2.14213967
REMARK minimizedRMSD -1
REMARK  0 active torsions:
REMARK  status: ('A' for Active; 'I' for Inactive)
ROOT
ATOM      1  C1  BNZ d   1       0.142   3.091   0.134  0.00  0.00     0.000 A 
ATOM      2  C2  BNZ d   1       0.925   4.171   0.440  0.00  0.00     0.000 A 
ATOM      3  C3  BNZ d   1       2.246   4.011   0.753  0.00  0.00     0.000 A 
ATOM      4  C4  BNZ d   1       2.772   2.770   0.798  0.00  0.00     0.000 A 
ATOM      5  C5  BNZ d   1       1.992   1.670   0.501  0.00  0.00     0.000 A 
ATOM      6  C6  BNZ d   1       0.673   1.838   0.149  0.00  0.00     0.000 A 
ENDROOT
TORSDOF 0
ENDMDL
