MODEL 1
REMARK minimizedAffinity -3.23648453
REMARK minimizedRMSD -1
REMARK  0 active torsions:
REMARK  status: ('A' for Active; 'I' for Inactive)
ROOT
ATOM      1  C1  BNZ d   1      -0.800  -2.081   1.713  0.00  0.00     0.000 A 
ATOM      2  C2  BNZ d   1      -0.793  -0.732   1.950  0.00  0.00     0.000 A 
ATOM      3  C3  BNZ d   1      -0.630   0.157   0.925  0.00  0.00     0.000 A 
ATOM      4  C4  BNZ d   1      -0.433  -0.303  -0.327  0.00  0.00     0.000 A 
ATOM      5  C5  BNZ d   1      -0.427  -1.660  -0.581  0.00  0.00     0.000 A 
ATOM      6  C6  BNZ d   1      -0.631  -2.552   0.447  0.00  0.00     0.000 A 
ENDROOT
TORSDOF 0
ENDMDL
