MODEL 1
REMARK minimizedAffinity -4.09201908
REMARK minimizedRMSD -1
REMARK  0 active torsions:
REMARK  status: ('A' for Active; 'I' for Inactive)
ROOT
ATOM      1  C1  BNZ d   1      -1.173   0.064   0.996  0.00  0.00     0.000 A 
ATOM      2  C2  BNZ d   1      -1.028  -1.274   0.741  0.00  0.00     0.000 A 
ATOM      3  C3  BNZ d   1      -0.238  -1.709  -0.286  0.00  0.00     0.000 A 
ATOM      4  C4  BNZ d   1       0.375  -0.807  -1.080  0.00  0.00     0.000 A 
ATOM      5  C5  BNZ d   1       0.231   0.545  -0.841  0.00  0.00     0.000 A 
ATOM      6  C6  BNZ d   1      -0.534   0.979   0.217  0.00  0.00     0.000 A 
ENDROOT
TORSDOF 0
ENDMDL
