MODEL 1
REMARK minimizedAffinity -4.9651432
REMARK minimizedRMSD -1
REMARK  0 active torsions:
REMARK  status: ('A' for Active; 'I' for Inactive)
ROOT
ATOM      1  C1  BNZ d   1      -0.100  -1.881   0.870  0.00  0.00     0.000 A 
ATOM      2  C2  BNZ d   1      -0.123  -2.965   0.034  0.00  0.00     0.000 A 
ATOM      3  C3  BNZ d   1       0.012  -2.809  -1.318  0.00  0.00     0.000 A 
ATOM      4  C4  BNZ d   1       0.130  -1.569  -1.833  0.00  0.00     0.000 A 
ATOM      5  C5  BNZ d   1       0.146  -0.465  -1.004  0.00  0.00     0.000 A 
ATOM      6  C6  BNZ d   1       0.049  -0.629   0.359  0.00  0.00     0.000 A 
ENDROOT
TORSDOF 0
ENDMDL
