MODEL 1
REMARK minimizedAffinity -4.21890211
REMARK minimizedRMSD -1
REMARK  0 active torsions:
REMARK  status: ('A' for Active; 'I' for Inactive)
ROOT
ATOM      1  C1  BNZ d   1       0.573  -2.302  -0.252  0.00  0.00     0.000 A 
ATOM      2  C2  BNZ d   1       0.797  -0.951  -0.210  0.00  0.00     0.000 A 
ATOM      3  C3  BNZ d   1      -0.078  -0.116   0.426  0.00  0.00     0.000 A 
ATOM      4  C4  BNZ d   1      -1.195  -0.626   0.984  0.00  0.00     0.000 A 
ATOM      5  C5  BNZ d   1      -1.440  -1.984   0.942  0.00  0.00     0.000 A 
ATOM      6  C6  BNZ d   1      -0.537  -2.827   0.335  0.00  0.00     0.000 A 
ENDROOT
TORSDOF 0
ENDMDL
