MODEL 1
REMARK minimizedAffinity -3.87387824
REMARK minimizedRMSD -1
REMARK  0 active torsions:
REMARK  status: ('A' for Active; 'I' for Inactive)
ROOT
ATOM      1  C1  BNZ d   1      -0.022  -3.121   1.000  0.00  0.00     0.000 A 
ATOM      2  C2  BNZ d   1       0.977  -2.390   1.585  0.00  0.00     0.000 A 
ATOM      3  C3  BNZ d   1       0.825  -1.050   1.808  0.00  0.00     0.000 A 
ATOM      4  C4  BNZ d   1      -0.307  -0.436   1.408  0.00  0.00     0.000 A 
ATOM      5  C5  BNZ d   1      -1.319  -1.158   0.808  0.00  0.00     0.000 A 
ATOM      6  C6  BNZ d   1      -1.179  -2.514   0.622  0.00  0.00     0.000 A 
ENDROOT
TORSDOF 0
ENDMDL
