MODEL 1
REMARK minimizedAffinity -4.46930265
REMARK minimizedRMSD -1
REMARK  0 active torsions:
REMARK  status: ('A' for Active; 'I' for Inactive)
ROOT
ATOM      1  C1  BNZ d   1      -0.814  -0.738   1.133  0.00  0.00     0.000 A 
ATOM      2  C2  BNZ d   1      -0.892  -2.105   1.115  0.00  0.00     0.000 A 
ATOM      3  C3  BNZ d   1      -0.315  -2.826   0.106  0.00  0.00     0.000 A 
ATOM      4  C4  BNZ d   1       0.302  -2.178  -0.902  0.00  0.00     0.000 A 
ATOM      5  C5  BNZ d   1       0.381  -0.799  -0.903  0.00  0.00     0.000 A 
ATOM      6  C6  BNZ d   1      -0.167  -0.079   0.133  0.00  0.00     0.000 A 
ENDROOT
TORSDOF 0
ENDMDL
