MODEL 1
REMARK minimizedAffinity 4.65932322
REMARK minimizedRMSD -1
REMARK  2 active torsions:
REMARK  status: ('A' for Active; 'I' for Inactive)
REMARK    1  A    between atoms: C2'_3  and  C1'_4 
REMARK    2  A    between atoms: C1'_4  and  C1_5 
ROOT
ATOM      1  C1  I4B d   1      -1.388  -1.472   0.422  0.00  0.00    -0.075 A 
ATOM      2  C2  I4B d   1      -0.991  -0.308   1.030  0.00  0.00     0.003 A 
ATOM      3  C3  I4B d   1      -1.663   0.158   2.186  0.00  0.00     0.002 A 
ATOM      4  C4  I4B d   1      -2.752  -0.540   2.667  0.00  0.00    -0.004 A 
ATOM      5  C5  I4B d   1      -3.139  -1.733   2.063  0.00  0.00     0.002 A 
ATOM      6  C6  I4B d   1      -2.446  -2.208   0.940  0.00  0.00     0.003 A 
ENDROOT
BRANCH   1   7
ATOM      7  C1' I4B d   1      -0.677  -1.917  -0.817  0.00  0.00     0.060 C 
BRANCH   7   8
ATOM      8  C2' I4B d   1      -1.723  -2.245  -1.863  0.00  0.00    -0.013 C 
ATOM      9  C4' I4B d   1      -2.066  -1.033  -2.689  0.00  0.00     0.013 C 
ATOM     10  C3' I4B d   1      -1.188  -3.352  -2.721  0.00  0.00     0.013 C 
ENDBRANCH   7   8
ENDBRANCH   1   7
TORSDOF 2
ENDMDL
