MODEL 1
REMARK minimizedAffinity 4.72719574
REMARK minimizedRMSD -1
REMARK  2 active torsions:
REMARK  status: ('A' for Active; 'I' for Inactive)
REMARK    1  A    between atoms: C2'_3  and  C1'_4 
REMARK    2  A    between atoms: C1'_4  and  C1_5 
ROOT
ATOM      1  C1  I4B d   1      -1.312   0.250   1.604  0.00  0.00    -0.075 A 
ATOM      2  C2  I4B d   1      -1.548   1.592   1.774  0.00  0.00     0.003 A 
ATOM      3  C3  I4B d   1      -2.652   2.208   1.136  0.00  0.00     0.002 A 
ATOM      4  C4  I4B d   1      -3.459   1.461   0.303  0.00  0.00    -0.004 A 
ATOM      5  C5  I4B d   1      -3.233   0.096   0.151  0.00  0.00     0.002 A 
ATOM      6  C6  I4B d   1      -2.160  -0.516   0.815  0.00  0.00     0.003 A 
ENDROOT
BRANCH   1   7
ATOM      7  C1' I4B d   1      -0.118  -0.361   2.266  0.00  0.00     0.060 C 
BRANCH   7   8
ATOM      8  C2' I4B d   1       1.107   0.014   1.457  0.00  0.00    -0.013 C 
ATOM      9  C4' I4B d   1       2.239   0.444   2.352  0.00  0.00     0.013 C 
ATOM     10  C3' I4B d   1       1.494  -1.173   0.626  0.00  0.00     0.013 C 
ENDBRANCH   7   8
ENDBRANCH   1   7
TORSDOF 2
ENDMDL
