MODEL 1
REMARK minimizedAffinity 7.46778059
REMARK minimizedRMSD -1
REMARK  2 active torsions:
REMARK  status: ('A' for Active; 'I' for Inactive)
REMARK    1  A    between atoms: C2'_3  and  C1'_4 
REMARK    2  A    between atoms: C1'_4  and  C1_5 
ROOT
ATOM      1  C1  I4B d   1      -0.640  -0.161   2.325  0.00  0.00    -0.075 A 
ATOM      2  C2  I4B d   1      -1.616  -0.527   3.218  0.00  0.00     0.003 A 
ATOM      3  C3  I4B d   1      -2.656  -1.401   2.819  0.00  0.00     0.002 A 
ATOM      4  C4  I4B d   1      -2.709  -1.843   1.513  0.00  0.00    -0.004 A 
ATOM      5  C5  I4B d   1      -1.705  -1.490   0.616  0.00  0.00     0.002 A 
ATOM      6  C6  I4B d   1      -0.657  -0.654   1.027  0.00  0.00     0.003 A 
ENDROOT
BRANCH   1   7
ATOM      7  C1' I4B d   1       0.425   0.790   2.771  0.00  0.00     0.060 C 
BRANCH   7   8
ATOM      8  C2' I4B d   1      -0.240   2.105   3.122  0.00  0.00    -0.013 C 
ATOM      9  C4' I4B d   1      -1.695   2.101   2.731  0.00  0.00     0.013 C 
ATOM     10  C3' I4B d   1      -0.076   2.328   4.596  0.00  0.00     0.013 C 
ENDBRANCH   7   8
ENDBRANCH   1   7
TORSDOF 2
ENDMDL
