MODEL 1
REMARK minimizedAffinity 5.56159973
REMARK minimizedRMSD -1
REMARK  2 active torsions:
REMARK  status: ('A' for Active; 'I' for Inactive)
REMARK    1  A    between atoms: C2'_3  and  C1'_4 
REMARK    2  A    between atoms: C1'_4  and  C1_5 
ROOT
ATOM      1  C1  I4B d   1       0.880  -0.516   1.767  0.00  0.00    -0.075 A 
ATOM      2  C2  I4B d   1      -0.324  -0.007   1.348  0.00  0.00     0.003 A 
ATOM      3  C3  I4B d   1      -1.228   0.549   2.285  0.00  0.00     0.002 A 
ATOM      4  C4  I4B d   1      -0.913   0.529   3.628  0.00  0.00    -0.004 A 
ATOM      5  C5  I4B d   1       0.318   0.033   4.049  0.00  0.00     0.002 A 
ATOM      6  C6  I4B d   1       1.225  -0.482   3.112  0.00  0.00     0.003 A 
ENDROOT
BRANCH   1   7
ATOM      7  C1' I4B d   1       1.797  -1.125   0.755  0.00  0.00     0.060 C 
BRANCH   7   8
ATOM      8  C2' I4B d   1       1.103  -1.078  -0.592  0.00  0.00    -0.013 C 
ATOM      9  C4' I4B d   1       2.027  -0.561  -1.663  0.00  0.00     0.013 C 
ATOM     10  C3' I4B d   1       0.622  -2.461  -0.913  0.00  0.00     0.013 C 
ENDBRANCH   7   8
ENDBRANCH   1   7
TORSDOF 2
ENDMDL
