MODEL 1
REMARK minimizedAffinity 1.84201038
REMARK minimizedRMSD -1
REMARK  2 active torsions:
REMARK  status: ('A' for Active; 'I' for Inactive)
REMARK    1  A    between atoms: C2'_3  and  C1'_4 
REMARK    2  A    between atoms: C1'_4  and  C1_5 
ROOT
ATOM      1  C1  I4B d   1      -0.240   0.412   2.331  0.00  0.00    -0.075 A 
ATOM      2  C2  I4B d   1       0.663   0.312   1.302  0.00  0.00     0.003 A 
ATOM      3  C3  I4B d   1       1.934  -0.271   1.524  0.00  0.00     0.002 A 
ATOM      4  C4  I4B d   1       2.277  -0.692   2.792  0.00  0.00    -0.004 A 
ATOM      5  C5  I4B d   1       1.351  -0.611   3.829  0.00  0.00     0.002 A 
ATOM      6  C6  I4B d   1       0.080  -0.067   3.595  0.00  0.00     0.003 A 
ENDROOT
BRANCH   1   7
ATOM      7  C1' I4B d   1      -1.561   1.064   2.070  0.00  0.00     0.060 C 
BRANCH   7   8
ATOM      8  C2' I4B d   1      -2.126   0.479   0.792  0.00  0.00    -0.013 C 
ATOM      9  C4' I4B d   1      -2.333  -1.008   0.917  0.00  0.00     0.013 C 
ATOM     10  C3' I4B d   1      -3.416   1.182   0.491  0.00  0.00     0.013 C 
ENDBRANCH   7   8
ENDBRANCH   1   7
TORSDOF 2
ENDMDL
