MODEL 1
REMARK minimizedAffinity -3.13559151
REMARK minimizedRMSD -1
REMARK  0 active torsions:
REMARK  status: ('A' for Active; 'I' for Inactive)
ROOT
ATOM      1  C   UNL d   1       1.576  -0.178   3.009  0.00  0.00     0.172 C 
ATOM      2  N   UNL d   1       0.417   0.188   2.229  0.00  0.00    -0.070 N 
ATOM      3  C1  UNL d   1       0.374   0.294   0.865  0.00  0.00    -0.004 A 
ATOM      4  C2  UNL d   1      -0.906   0.662   0.510  0.00  0.00    -0.047 A 
ATOM      5  C3  UNL d   1      -1.658   0.783   1.703  0.00  0.00    -0.047 A 
ATOM      6  C4  UNL d   1      -0.815   0.483   2.752  0.00  0.00    -0.004 A 
ENDROOT
TORSDOF 0
ENDMDL
