MODEL 1
REMARK minimizedAffinity -3.51700687
REMARK minimizedRMSD -1
REMARK  0 active torsions:
REMARK  status: ('A' for Active; 'I' for Inactive)
ROOT
ATOM      1  C   UNL d   1       0.469  -0.384  -0.975  0.00  0.00     0.172 C 
ATOM      2  N   UNL d   1      -0.264   0.054   0.190  0.00  0.00    -0.070 N 
ATOM      3  C1  UNL d   1       0.231   0.843   1.193  0.00  0.00    -0.004 A 
ATOM      4  C2  UNL d   1      -0.776   1.034   2.115  0.00  0.00    -0.047 A 
ATOM      5  C3  UNL d   1      -1.915   0.335   1.649  0.00  0.00    -0.047 A 
ATOM      6  C4  UNL d   1      -1.570  -0.263   0.455  0.00  0.00    -0.004 A 
ENDROOT
TORSDOF 0
ENDMDL
