MODEL 1
REMARK minimizedAffinity -3.22083306
REMARK minimizedRMSD -1
REMARK  0 active torsions:
REMARK  status: ('A' for Active; 'I' for Inactive)
ROOT
ATOM      1  C   UNL d   1       0.429  -0.303  -1.092  0.00  0.00     0.172 C 
ATOM      2  N   UNL d   1       0.002   0.066   0.237  0.00  0.00    -0.070 N 
ATOM      3  C1  UNL d   1       0.777   0.021   1.366  0.00  0.00    -0.004 A 
ATOM      4  C2  UNL d   1       0.006   0.451   2.424  0.00  0.00    -0.047 A 
ATOM      5  C3  UNL d   1      -1.276   0.765   1.914  0.00  0.00    -0.047 A 
ATOM      6  C4  UNL d   1      -1.251   0.517   0.558  0.00  0.00    -0.004 A 
ENDROOT
TORSDOF 0
ENDMDL
