MODEL 1
REMARK minimizedAffinity -1.14164913
REMARK minimizedRMSD -1
REMARK  0 active torsions:
REMARK  status: ('A' for Active; 'I' for Inactive)
ROOT
ATOM      1  C   UNL d   1      -2.942  -1.834  -5.731  0.00  0.00     0.172 C 
ATOM      2  N   UNL d   1      -1.855  -1.008  -5.257  0.00  0.00    -0.070 N 
ATOM      3  C1  UNL d   1      -0.781  -1.444  -4.529  0.00  0.00    -0.004 A 
ATOM      4  C2  UNL d   1       0.027  -0.356  -4.277  0.00  0.00    -0.047 A 
ATOM      5  C3  UNL d   1      -0.584   0.773  -4.873  0.00  0.00    -0.047 A 
ATOM      6  C4  UNL d   1      -1.748   0.340  -5.473  0.00  0.00    -0.004 A 
ENDROOT
TORSDOF 0
ENDMDL
