MODEL 1
REMARK minimizedAffinity -3.74408317
REMARK minimizedRMSD -1
REMARK  0 active torsions:
REMARK  status: ('A' for Active; 'I' for Inactive)
ROOT
ATOM      1  C   UNL d   1       0.696  -0.650  -0.306  0.00  0.00     0.172 C 
ATOM      2  N   UNL d   1       0.054   0.124   0.730  0.00  0.00    -0.070 N 
ATOM      3  C1  UNL d   1      -1.290   0.367   0.829  0.00  0.00    -0.004 A 
ATOM      4  C2  UNL d   1      -1.498   1.140   1.951  0.00  0.00    -0.047 A 
ATOM      5  C3  UNL d   1      -0.235   1.370   2.547  0.00  0.00    -0.047 A 
ATOM      6  C4  UNL d   1       0.708   0.730   1.770  0.00  0.00    -0.004 A 
ENDROOT
TORSDOF 0
ENDMDL
