MODEL 1
REMARK minimizedAffinity -3.86674905
REMARK minimizedRMSD -1
REMARK  0 active torsions:
REMARK  status: ('A' for Active; 'I' for Inactive)
ROOT
ATOM      1  C   UNL d   1       0.259  -0.378  -0.075  0.00  0.00     0.172 C 
ATOM      2  N   UNL d   1       0.308   0.100   1.287  0.00  0.00    -0.070 N 
ATOM      3  C1  UNL d   1       1.214  -0.288   2.237  0.00  0.00    -0.004 A 
ATOM      4  C2  UNL d   1       0.925   0.393   3.399  0.00  0.00    -0.047 A 
ATOM      5  C3  UNL d   1      -0.195   1.218   3.139  0.00  0.00    -0.047 A 
ATOM      6  C4  UNL d   1      -0.557   1.017   1.824  0.00  0.00    -0.004 A 
ENDROOT
TORSDOF 0
ENDMDL
