MODEL 1
REMARK minimizedAffinity -1.08807111
REMARK minimizedRMSD -1
REMARK  0 active torsions:
REMARK  status: ('A' for Active; 'I' for Inactive)
ROOT
ATOM      1  C   UNL d   1       0.281  -0.834  -1.091  0.00  0.00     0.172 C 
ATOM      2  N   UNL d   1      -0.323  -0.405   0.148  0.00  0.00    -0.070 N 
ATOM      3  C1  UNL d   1       0.279  -0.422   1.378  0.00  0.00    -0.004 A 
ATOM      4  C2  UNL d   1      -0.625   0.065   2.297  0.00  0.00    -0.047 A 
ATOM      5  C3  UNL d   1      -1.812   0.384   1.595  0.00  0.00    -0.047 A 
ATOM      6  C4  UNL d   1      -1.597   0.084   0.267  0.00  0.00    -0.004 A 
ENDROOT
TORSDOF 0
ENDMDL
