MODEL 1
REMARK minimizedAffinity -3.393116
REMARK minimizedRMSD -1
REMARK  0 active torsions:
REMARK  status: ('A' for Active; 'I' for Inactive)
ROOT
ATOM      1  C   UNL d   1       0.236  -1.014  -0.549  0.00  0.00     0.172 C 
ATOM      2  N   UNL d   1      -0.314  -0.201   0.510  0.00  0.00    -0.070 N 
ATOM      3  C1  UNL d   1       0.043   1.090   0.792  0.00  0.00    -0.004 A 
ATOM      4  C2  UNL d   1      -0.708   1.510   1.869  0.00  0.00    -0.047 A 
ATOM      5  C3  UNL d   1      -1.545   0.433   2.247  0.00  0.00    -0.047 A 
ATOM      6  C4  UNL d   1      -1.280  -0.614   1.389  0.00  0.00    -0.004 A 
ENDROOT
TORSDOF 0
ENDMDL
