MODEL 1
REMARK minimizedAffinity -3.09322834
REMARK minimizedRMSD -1
REMARK  0 active torsions:
REMARK  status: ('A' for Active; 'I' for Inactive)
ROOT
ATOM      1  C   UNL d   1       2.111  -1.129   1.234  0.00  0.00     0.172 C 
ATOM      2  N   UNL d   1       1.031  -0.197   1.462  0.00  0.00    -0.070 N 
ATOM      3  C1  UNL d   1       1.170   1.147   1.682  0.00  0.00    -0.004 A 
ATOM      4  C2  UNL d   1      -0.090   1.679   1.852  0.00  0.00    -0.047 A 
ATOM      5  C3  UNL d   1      -1.018   0.617   1.731  0.00  0.00    -0.047 A 
ATOM      6  C4  UNL d   1      -0.297  -0.533   1.490  0.00  0.00    -0.004 A 
ENDROOT
TORSDOF 0
ENDMDL
