MODEL 1
REMARK minimizedAffinity -3.73743558
REMARK minimizedRMSD -1
REMARK  0 active torsions:
REMARK  status: ('A' for Active; 'I' for Inactive)
ROOT
ATOM      1  C   UNL d   1       0.563  -0.975  -0.333  0.00  0.00     0.172 C 
ATOM      2  N   UNL d   1      -0.144  -0.260   0.703  0.00  0.00    -0.070 N 
ATOM      3  C1  UNL d   1       0.433   0.496   1.689  0.00  0.00    -0.004 A 
ATOM      4  C2  UNL d   1      -0.577   1.010   2.473  0.00  0.00    -0.047 A 
ATOM      5  C3  UNL d   1      -1.804   0.545   1.942  0.00  0.00    -0.047 A 
ATOM      6  C4  UNL d   1      -1.506  -0.238   0.847  0.00  0.00    -0.004 A 
ENDROOT
TORSDOF 0
ENDMDL
