MODEL 1
REMARK minimizedAffinity -3.41667461
REMARK minimizedRMSD -1
REMARK  0 active torsions:
REMARK  status: ('A' for Active; 'I' for Inactive)
ROOT
ATOM      1  C   UNL d   1      -0.368  -0.779  -0.097  0.00  0.00     0.172 C 
ATOM      2  N   UNL d   1      -0.196   0.109   1.028  0.00  0.00    -0.070 N 
ATOM      3  C1  UNL d   1      -1.184   0.511   1.886  0.00  0.00    -0.004 A 
ATOM      4  C2  UNL d   1      -0.616   1.352   2.819  0.00  0.00    -0.047 A 
ATOM      5  C3  UNL d   1       0.761   1.459   2.510  0.00  0.00    -0.047 A 
ATOM      6  C4  UNL d   1       0.994   0.680   1.397  0.00  0.00    -0.004 A 
ENDROOT
TORSDOF 0
ENDMDL
