MODEL 1
REMARK minimizedAffinity -1.56404984
REMARK minimizedRMSD -1
REMARK  0 active torsions:
REMARK  status: ('A' for Active; 'I' for Inactive)
ROOT
ATOM      1  C1  BNZ d   1       1.100  -3.171  -2.511  0.00  0.00     0.000 A 
ATOM      2  C2  BNZ d   1       1.504  -3.068  -1.207  0.00  0.00     0.000 A 
ATOM      3  C3  BNZ d   1       1.395  -1.885  -0.532  0.00  0.00     0.000 A 
ATOM      4  C4  BNZ d   1       0.921  -0.797  -1.173  0.00  0.00     0.000 A 
ATOM      5  C5  BNZ d   1       0.519  -0.883  -2.491  0.00  0.00     0.000 A 
ATOM      6  C6  BNZ d   1       0.593  -2.085  -3.156  0.00  0.00     0.000 A 
ENDROOT
TORSDOF 0
ENDMDL
