MODEL 1
REMARK minimizedAffinity -3.21537685
REMARK minimizedRMSD -1
REMARK  0 active torsions:
REMARK  status: ('A' for Active; 'I' for Inactive)
ROOT
ATOM      1  C1  BNZ d   1       1.512  -3.470  -0.823  0.00  0.00     0.000 A 
ATOM      2  C2  BNZ d   1       2.144  -2.489  -1.541  0.00  0.00     0.000 A 
ATOM      3  C3  BNZ d   1       1.581  -1.982  -2.679  0.00  0.00     0.000 A 
ATOM      4  C4  BNZ d   1       0.408  -2.483  -3.119  0.00  0.00     0.000 A 
ATOM      5  C5  BNZ d   1      -0.236  -3.478  -2.411  0.00  0.00     0.000 A 
ATOM      6  C6  BNZ d   1       0.315  -3.959  -1.245  0.00  0.00     0.000 A 
ENDROOT
TORSDOF 0
ENDMDL
