MODEL 1
REMARK minimizedAffinity -2.54565096
REMARK minimizedRMSD -1
REMARK  0 active torsions:
REMARK  status: ('A' for Active; 'I' for Inactive)
ROOT
ATOM      1  C1  BNZ d   1       0.476  -3.036  -1.521  0.00  0.00     0.000 A 
ATOM      2  C2  BNZ d   1      -0.285  -2.508  -0.512  0.00  0.00     0.000 A 
ATOM      3  C3  BNZ d   1      -0.169  -1.191  -0.164  0.00  0.00     0.000 A 
ATOM      4  C4  BNZ d   1       0.736  -0.415  -0.796  0.00  0.00     0.000 A 
ATOM      5  C5  BNZ d   1       1.517  -0.936  -1.809  0.00  0.00     0.000 A 
ATOM      6  C6  BNZ d   1       1.370  -2.252  -2.183  0.00  0.00     0.000 A 
ENDROOT
TORSDOF 0
ENDMDL
