MODEL 1
REMARK minimizedAffinity -1.86103809
REMARK minimizedRMSD -1
REMARK  0 active torsions:
REMARK  status: ('A' for Active; 'I' for Inactive)
ROOT
ATOM      1  C1  BNZ d   1       0.131  -0.067   0.226  0.00  0.00     0.000 A 
ATOM      2  C2  BNZ d   1       0.158   0.870   1.225  0.00  0.00     0.000 A 
ATOM      3  C3  BNZ d   1      -0.891   1.000   2.090  0.00  0.00     0.000 A 
ATOM      4  C4  BNZ d   1      -1.982   0.223   1.932  0.00  0.00     0.000 A 
ATOM      5  C5  BNZ d   1      -2.028  -0.719   0.924  0.00  0.00     0.000 A 
ATOM      6  C6  BNZ d   1      -0.954  -0.874   0.078  0.00  0.00     0.000 A 
ENDROOT
TORSDOF 0
ENDMDL
