MODEL 1
REMARK minimizedAffinity -2.20533895
REMARK minimizedRMSD -1
REMARK  0 active torsions:
REMARK  status: ('A' for Active; 'I' for Inactive)
ROOT
ATOM      1  C1  BNZ d   1       1.508  -1.080  -1.477  0.00  0.00     0.000 A 
ATOM      2  C2  BNZ d   1       1.404  -0.048  -0.584  0.00  0.00     0.000 A 
ATOM      3  C3  BNZ d   1       0.329   0.047   0.254  0.00  0.00     0.000 A 
ATOM      4  C4  BNZ d   1      -0.660  -0.866   0.170  0.00  0.00     0.000 A 
ATOM      5  C5  BNZ d   1      -0.575  -1.908  -0.732  0.00  0.00     0.000 A 
ATOM      6  C6  BNZ d   1       0.528  -2.022  -1.547  0.00  0.00     0.000 A 
ENDROOT
TORSDOF 0
ENDMDL
