MODEL 1
REMARK minimizedAffinity -4.3883152
REMARK minimizedRMSD -1
REMARK  0 active torsions:
REMARK  status: ('A' for Active; 'I' for Inactive)
ROOT
ATOM      1  C1  BNZ d   1      -1.299  -0.108   2.175  0.00  0.00     0.000 A 
ATOM      2  C2  BNZ d   1      -0.465  -1.182   2.013  0.00  0.00     0.000 A 
ATOM      3  C3  BNZ d   1       0.537  -1.156   1.083  0.00  0.00     0.000 A 
ATOM      4  C4  BNZ d   1       0.678  -0.074   0.291  0.00  0.00     0.000 A 
ATOM      5  C5  BNZ d   1      -0.161   1.013   0.436  0.00  0.00     0.000 A 
ATOM      6  C6  BNZ d   1      -1.144   0.999   1.399  0.00  0.00     0.000 A 
ENDROOT
TORSDOF 0
ENDMDL
