MODEL 1
REMARK minimizedAffinity -0.761361301
REMARK minimizedRMSD -1
REMARK  0 active torsions:
REMARK  status: ('A' for Active; 'I' for Inactive)
ROOT
ATOM      1  C1  BNZ d   1      -1.216  -0.371   2.269  0.00  0.00     0.000 A 
ATOM      2  C2  BNZ d   1      -0.960  -1.142   1.167  0.00  0.00     0.000 A 
ATOM      3  C3  BNZ d   1      -0.311  -0.620   0.083  0.00  0.00     0.000 A 
ATOM      4  C4  BNZ d   1       0.044   0.681   0.086  0.00  0.00     0.000 A 
ATOM      5  C5  BNZ d   1      -0.216   1.474   1.186  0.00  0.00     0.000 A 
ATOM      6  C6  BNZ d   1      -0.834   0.935   2.291  0.00  0.00     0.000 A 
ENDROOT
TORSDOF 0
ENDMDL
