MODEL 1
REMARK minimizedAffinity -3.49456
REMARK minimizedRMSD -1
REMARK  0 active torsions:
REMARK  status: ('A' for Active; 'I' for Inactive)
ROOT
ATOM      1  C1  BNZ d   1      -0.655  -1.110  -0.301  0.00  0.00     0.000 A 
ATOM      2  C2  BNZ d   1      -0.330  -2.189  -1.080  0.00  0.00     0.000 A 
ATOM      3  C3  BNZ d   1       0.944  -2.358  -1.546  0.00  0.00     0.000 A 
ATOM      4  C4  BNZ d   1       1.880  -1.429  -1.267  0.00  0.00     0.000 A 
ATOM      5  C5  BNZ d   1       1.567  -0.331  -0.492  0.00  0.00     0.000 A 
ATOM      6  C6  BNZ d   1       0.293  -0.184   0.008  0.00  0.00     0.000 A 
ENDROOT
TORSDOF 0
ENDMDL
