MODEL 1
REMARK minimizedAffinity -4.68143177
REMARK minimizedRMSD -1
REMARK  0 active torsions:
REMARK  status: ('A' for Active; 'I' for Inactive)
ROOT
ATOM      1  C1  BNZ d   1       0.266   2.167  -1.031  0.00  0.00     0.000 A 
ATOM      2  C2  BNZ d   1      -0.110   2.900   0.063  0.00  0.00     0.000 A 
ATOM      3  C3  BNZ d   1      -0.767   2.313   1.108  0.00  0.00     0.000 A 
ATOM      4  C4  BNZ d   1      -1.083   1.003   1.040  0.00  0.00     0.000 A 
ATOM      5  C5  BNZ d   1      -0.720   0.252  -0.060  0.00  0.00     0.000 A 
ATOM      6  C6  BNZ d   1      -0.024   0.838  -1.092  0.00  0.00     0.000 A 
ENDROOT
TORSDOF 0
ENDMDL
