MODEL 1
REMARK minimizedAffinity -2.84762073
REMARK minimizedRMSD -1
REMARK  0 active torsions:
REMARK  status: ('A' for Active; 'I' for Inactive)
ROOT
ATOM      1  C1  BNZ d   1       0.517  -0.815  -2.402  0.00  0.00     0.000 A 
ATOM      2  C2  BNZ d   1       0.412  -1.929  -3.191  0.00  0.00     0.000 A 
ATOM      3  C3  BNZ d   1       0.817  -3.152  -2.733  0.00  0.00     0.000 A 
ATOM      4  C4  BNZ d   1       1.363  -3.252  -1.504  0.00  0.00     0.000 A 
ATOM      5  C5  BNZ d   1       1.484  -2.136  -0.700  0.00  0.00     0.000 A 
ATOM      6  C6  BNZ d   1       1.040  -0.914  -1.149  0.00  0.00     0.000 A 
ENDROOT
TORSDOF 0
ENDMDL
