MODEL 1
REMARK minimizedAffinity -1.96118474
REMARK minimizedRMSD -1
REMARK  0 active torsions:
REMARK  status: ('A' for Active; 'I' for Inactive)
ROOT
ATOM      1  C1  BNZ d   1       0.946   0.341  -0.736  0.00  0.00     0.000 A 
ATOM      2  C2  BNZ d   1       0.228   1.057   0.185  0.00  0.00     0.000 A 
ATOM      3  C3  BNZ d   1      -0.370   0.435   1.244  0.00  0.00     0.000 A 
ATOM      4  C4  BNZ d   1      -0.284  -0.906   1.360  0.00  0.00     0.000 A 
ATOM      5  C5  BNZ d   1       0.428  -1.644   0.435  0.00  0.00     0.000 A 
ATOM      6  C6  BNZ d   1       1.061  -1.009  -0.609  0.00  0.00     0.000 A 
ENDROOT
TORSDOF 0
ENDMDL
