MODEL 1
REMARK minimizedAffinity -2.97804856
REMARK minimizedRMSD -1
REMARK  0 active torsions:
REMARK  status: ('A' for Active; 'I' for Inactive)
ROOT
ATOM      1  C1  BNZ d   1      -0.731  -1.725  -0.404  0.00  0.00     0.000 A 
ATOM      2  C2  BNZ d   1      -1.283  -1.185   0.726  0.00  0.00     0.000 A 
ATOM      3  C3  BNZ d   1      -0.722  -0.092   1.326  0.00  0.00     0.000 A 
ATOM      4  C4  BNZ d   1       0.412   0.433   0.819  0.00  0.00     0.000 A 
ATOM      5  C5  BNZ d   1       0.986  -0.106  -0.315  0.00  0.00     0.000 A 
ATOM      6  C6  BNZ d   1       0.396  -1.182  -0.939  0.00  0.00     0.000 A 
ENDROOT
TORSDOF 0
ENDMDL
