MODEL 1
REMARK minimizedAffinity -2.27939057
REMARK minimizedRMSD -1
REMARK  1 active torsions:
REMARK  status: ('A' for Active; 'I' for Inactive)
REMARK    1  A    between atoms: C1_2  and  C2_3 
ROOT
ATOM      1  C2  UNL d   1       2.553  -0.693  -0.504  0.00  0.00    -0.073 A 
ATOM      2  C3  UNL d   1       2.121   0.634  -0.600  0.00  0.00    -0.002 A 
ATOM      3  C4  UNL d   1       2.809   1.543  -1.406  0.00  0.00     0.004 A 
ATOM      4  C5  UNL d   1       3.930   1.132  -2.128  0.00  0.00    -0.004 A 
ATOM      5  C6  UNL d   1       4.369  -0.194  -2.054  0.00  0.00    -0.075 A 
ATOM      6  C7  UNL d   1       5.574  -0.651  -2.823  0.00  0.00     0.076 C 
ATOM      7  C8  UNL d   1       3.675  -1.099  -1.241  0.00  0.00     0.001 A 
ENDROOT
BRANCH   1   8
ATOM      8  C1  UNL d   1       1.809  -1.679   0.360  0.00  0.00     0.053 C 
ATOM      9  C   UNL d   1       0.771  -0.998   1.238  0.00  0.00     0.018 C 
ENDBRANCH   1   8
TORSDOF 1
ENDMDL
