MODEL 1
REMARK minimizedAffinity 0.537797451
REMARK minimizedRMSD -1
REMARK  1 active torsions:
REMARK  status: ('A' for Active; 'I' for Inactive)
REMARK    1  A    between atoms: C1_2  and  C2_3 
ROOT
ATOM      1  C2  UNL d   1       2.422  -0.777  -0.425  0.00  0.00    -0.073 A 
ATOM      2  C3  UNL d   1       2.814   0.492   0.016  0.00  0.00    -0.002 A 
ATOM      3  C4  UNL d   1       1.988   1.229   0.865  0.00  0.00     0.004 A 
ATOM      4  C5  UNL d   1       0.768   0.703   1.288  0.00  0.00    -0.004 A 
ATOM      5  C6  UNL d   1       0.364  -0.568   0.868  0.00  0.00    -0.075 A 
ATOM      6  C7  UNL d   1      -0.948  -1.147   1.312  0.00  0.00     0.076 C 
ATOM      7  C8  UNL d   1       1.197  -1.301   0.012  0.00  0.00     0.001 A 
ENDROOT
BRANCH   1   8
ATOM      8  C1  UNL d   1       3.313  -1.580  -1.338  0.00  0.00     0.053 C 
ATOM      9  C   UNL d   1       4.602  -0.844  -1.668  0.00  0.00     0.018 C 
ENDBRANCH   1   8
TORSDOF 1
ENDMDL
