MODEL 1
REMARK minimizedAffinity -4.14305162
REMARK minimizedRMSD -1
REMARK  1 active torsions:
REMARK  status: ('A' for Active; 'I' for Inactive)
REMARK    1  A    between atoms: C1_2  and  C2_3 
ROOT
ATOM      1  C2  UNL d   1       2.725  -0.635  -1.133  0.00  0.00    -0.073 A 
ATOM      2  C3  UNL d   1       2.622   0.745  -1.341  0.00  0.00    -0.002 A 
ATOM      3  C4  UNL d   1       1.658   1.490  -0.660  0.00  0.00     0.004 A 
ATOM      4  C5  UNL d   1       0.793   0.866   0.238  0.00  0.00    -0.004 A 
ATOM      5  C6  UNL d   1       0.888  -0.510   0.469  0.00  0.00    -0.075 A 
ATOM      6  C7  UNL d   1      -0.036  -1.197   1.430  0.00  0.00     0.076 C 
ATOM      7  C8  UNL d   1       1.857  -1.252  -0.220  0.00  0.00     0.001 A 
ENDROOT
BRANCH   1   8
ATOM      8  C1  UNL d   1       3.769  -1.443  -1.860  0.00  0.00     0.053 C 
ATOM      9  C   UNL d   1       4.840  -0.562  -2.482  0.00  0.00     0.018 C 
ENDBRANCH   1   8
TORSDOF 1
ENDMDL
