MODEL 1
REMARK minimizedAffinity 3.35157418
REMARK minimizedRMSD -1
REMARK  1 active torsions:
REMARK  status: ('A' for Active; 'I' for Inactive)
REMARK    1  A    between atoms: C1_2  and  C2_3 
ROOT
ATOM      1  C2  UNL d   1       1.329  -2.603   1.195  0.00  0.00    -0.073 A 
ATOM      2  C3  UNL d   1       2.437  -3.029   0.455  0.00  0.00    -0.002 A 
ATOM      3  C4  UNL d   1       3.099  -2.143  -0.396  0.00  0.00     0.004 A 
ATOM      4  C5  UNL d   1       2.666  -0.822  -0.509  0.00  0.00    -0.004 A 
ATOM      5  C6  UNL d   1       1.567  -0.374   0.232  0.00  0.00    -0.075 A 
ATOM      6  C7  UNL d   1       1.087   1.043   0.119  0.00  0.00     0.076 C 
ATOM      7  C8  UNL d   1       0.906  -1.271   1.082  0.00  0.00     0.001 A 
ENDROOT
BRANCH   1   8
ATOM      8  C1  UNL d   1       0.614  -3.554   2.120  0.00  0.00     0.053 C 
ATOM      9  C   UNL d   1       1.248  -4.936   2.117  0.00  0.00     0.018 C 
ENDBRANCH   1   8
TORSDOF 1
ENDMDL
