MODEL 1
REMARK minimizedAffinity 5.31935835
REMARK minimizedRMSD -1
REMARK  1 active torsions:
REMARK  status: ('A' for Active; 'I' for Inactive)
REMARK    1  A    between atoms: C1_2  and  C2_3 
ROOT
ATOM      1  C2  UNL d   1       1.329   0.391   1.117  0.00  0.00    -0.073 A 
ATOM      2  C3  UNL d   1       1.499   1.422   0.186  0.00  0.00    -0.002 A 
ATOM      3  C4  UNL d   1       1.979   1.144  -1.094  0.00  0.00     0.004 A 
ATOM      4  C5  UNL d   1       2.287  -0.166  -1.459  0.00  0.00    -0.004 A 
ATOM      5  C6  UNL d   1       2.112  -1.212  -0.547  0.00  0.00    -0.075 A 
ATOM      6  C7  UNL d   1       2.441  -2.627  -0.923  0.00  0.00     0.076 C 
ATOM      7  C8  UNL d   1       1.633  -0.924   0.738  0.00  0.00     0.001 A 
ENDROOT
BRANCH   1   8
ATOM      8  C1  UNL d   1       0.805   0.686   2.499  0.00  0.00     0.053 C 
ATOM      9  C   UNL d   1       1.917   1.080   3.458  0.00  0.00     0.018 C 
ENDBRANCH   1   8
TORSDOF 1
ENDMDL
