MODEL 1
REMARK minimizedAffinity -5.46165037
REMARK minimizedRMSD -1
REMARK  1 active torsions:
REMARK  status: ('A' for Active; 'I' for Inactive)
REMARK    1  A    between atoms: C1_2  and  C2_3 
ROOT
ATOM      1  C2  UNL d   1       2.818  -0.843  -1.097  0.00  0.00    -0.073 A 
ATOM      2  C3  UNL d   1       1.969  -1.852  -0.629  0.00  0.00    -0.002 A 
ATOM      3  C4  UNL d   1       0.908  -1.542   0.223  0.00  0.00     0.004 A 
ATOM      4  C5  UNL d   1       0.681  -0.222   0.609  0.00  0.00    -0.004 A 
ATOM      5  C6  UNL d   1       1.511   0.803   0.142  0.00  0.00    -0.075 A 
ATOM      6  C7  UNL d   1       1.281   2.228   0.550  0.00  0.00     0.076 C 
ATOM      7  C8  UNL d   1       2.575   0.483  -0.711  0.00  0.00     0.001 A 
ENDROOT
BRANCH   1   8
ATOM      8  C1  UNL d   1       3.961  -1.171  -2.022  0.00  0.00     0.053 C 
ATOM      9  C   UNL d   1       4.819   0.047  -2.324  0.00  0.00     0.018 C 
ENDBRANCH   1   8
TORSDOF 1
ENDMDL
