MODEL 1
REMARK minimizedAffinity -6.31855011
REMARK minimizedRMSD -1
REMARK  1 active torsions:
REMARK  status: ('A' for Active; 'I' for Inactive)
REMARK    1  A    between atoms: C1_2  and  C2_3 
ROOT
ATOM      1  C2  UNL d   1       0.570  -0.478   0.863  0.00  0.00    -0.073 A 
ATOM      2  C3  UNL d   1       0.935  -1.810   0.631  0.00  0.00    -0.002 A 
ATOM      3  C4  UNL d   1       2.008  -2.111  -0.208  0.00  0.00     0.004 A 
ATOM      4  C5  UNL d   1       2.732  -1.086  -0.817  0.00  0.00    -0.004 A 
ATOM      5  C6  UNL d   1       2.391   0.251  -0.589  0.00  0.00    -0.075 A 
ATOM      6  C7  UNL d   1       3.158   1.365  -1.239  0.00  0.00     0.076 C 
ATOM      7  C8  UNL d   1       1.309   0.545   0.253  0.00  0.00     0.001 A 
ENDROOT
BRANCH   1   8
ATOM      8  C1  UNL d   1      -0.584  -0.148   1.773  0.00  0.00     0.053 C 
ATOM      9  C   UNL d   1      -1.701  -1.176   1.673  0.00  0.00     0.018 C 
ENDBRANCH   1   8
TORSDOF 1
ENDMDL
