MODEL 1
REMARK minimizedAffinity 1.92609489
REMARK minimizedRMSD -1
REMARK  1 active torsions:
REMARK  status: ('A' for Active; 'I' for Inactive)
REMARK    1  A    between atoms: C1_2  and  C2_3 
ROOT
ATOM      1  C2  UNL d   1       2.871  -0.450  -1.092  0.00  0.00    -0.073 A 
ATOM      2  C3  UNL d   1       3.110   0.905  -0.840  0.00  0.00    -0.002 A 
ATOM      3  C4  UNL d   1       2.253   1.629  -0.008  0.00  0.00     0.004 A 
ATOM      4  C5  UNL d   1       1.156   1.005   0.584  0.00  0.00    -0.004 A 
ATOM      5  C6  UNL d   1       0.907  -0.352   0.353  0.00  0.00    -0.075 A 
ATOM      6  C7  UNL d   1      -0.270  -1.039   0.981  0.00  0.00     0.076 C 
ATOM      7  C8  UNL d   1       1.770  -1.072  -0.485  0.00  0.00     0.001 A 
ENDROOT
BRANCH   1   8
ATOM      8  C1  UNL d   1       3.796  -1.238  -1.983  0.00  0.00     0.053 C 
ATOM      9  C   UNL d   1       4.861  -0.358  -2.618  0.00  0.00     0.018 C 
ENDBRANCH   1   8
TORSDOF 1
ENDMDL
