MODEL 1
REMARK minimizedAffinity -1.4871161
REMARK minimizedRMSD -1
REMARK  1 active torsions:
REMARK  status: ('A' for Active; 'I' for Inactive)
REMARK    1  A    between atoms: C1_2  and  C2_3 
ROOT
ATOM      1  C2  UNL d   1       3.354   0.304  -1.644  0.00  0.00    -0.073 A 
ATOM      2  C3  UNL d   1       2.700  -0.907  -1.390  0.00  0.00    -0.002 A 
ATOM      3  C4  UNL d   1       1.748  -0.995  -0.373  0.00  0.00     0.004 A 
ATOM      4  C5  UNL d   1       1.436   0.127   0.395  0.00  0.00    -0.004 A 
ATOM      5  C6  UNL d   1       2.070   1.349   0.148  0.00  0.00    -0.075 A 
ATOM      6  C7  UNL d   1       1.747   2.565   0.966  0.00  0.00     0.076 C 
ATOM      7  C8  UNL d   1       3.026   1.429  -0.873  0.00  0.00     0.001 A 
ENDROOT
BRANCH   1   8
ATOM      8  C1  UNL d   1       4.377   0.405  -2.745  0.00  0.00     0.053 C 
ATOM      9  C   UNL d   1       5.636  -0.386  -2.427  0.00  0.00     0.018 C 
ENDBRANCH   1   8
TORSDOF 1
ENDMDL
