MODEL 1
REMARK minimizedAffinity -0.115314327
REMARK minimizedRMSD -1
REMARK  1 active torsions:
REMARK  status: ('A' for Active; 'I' for Inactive)
REMARK    1  A    between atoms: C1_2  and  C2_3 
ROOT
ATOM      1  C2  UNL d   1       2.794  -0.915  -0.311  0.00  0.00    -0.073 A 
ATOM      2  C3  UNL d   1       2.873   0.482  -0.331  0.00  0.00    -0.002 A 
ATOM      3  C4  UNL d   1       1.793   1.255   0.098  0.00  0.00     0.004 A 
ATOM      4  C5  UNL d   1       0.628   0.640   0.557  0.00  0.00    -0.004 A 
ATOM      5  C6  UNL d   1       0.535  -0.755   0.596  0.00  0.00    -0.075 A 
ATOM      6  C7  UNL d   1      -0.712  -1.431   1.086  0.00  0.00     0.076 C 
ATOM      7  C8  UNL d   1       1.622  -1.524   0.161  0.00  0.00     0.001 A 
ENDROOT
BRANCH   1   8
ATOM      8  C1  UNL d   1       3.960  -1.754  -0.767  0.00  0.00     0.053 C 
ATOM      9  C   UNL d   1       5.004  -0.928  -1.501  0.00  0.00     0.018 C 
ENDBRANCH   1   8
TORSDOF 1
ENDMDL
