MODEL 1
REMARK minimizedAffinity 0.206000239
REMARK minimizedRMSD -1
REMARK  1 active torsions:
REMARK  status: ('A' for Active; 'I' for Inactive)
REMARK    1  A    between atoms: C1_2  and  C2_3 
ROOT
ATOM      1  C2  UNL d   1       3.251  -0.444  -1.024  0.00  0.00    -0.073 A 
ATOM      2  C3  UNL d   1       3.299   0.954  -1.061  0.00  0.00    -0.002 A 
ATOM      3  C4  UNL d   1       2.301   1.710  -0.447  0.00  0.00     0.004 A 
ATOM      4  C5  UNL d   1       1.249   1.078   0.216  0.00  0.00    -0.004 A 
ATOM      5  C6  UNL d   1       1.189  -0.318   0.275  0.00  0.00    -0.075 A 
ATOM      6  C7  UNL d   1       0.063  -1.013   0.982  0.00  0.00     0.076 C 
ATOM      7  C8  UNL d   1       2.194  -1.071  -0.347  0.00  0.00     0.001 A 
ENDROOT
BRANCH   1   8
ATOM      8  C1  UNL d   1       4.330  -1.266  -1.681  0.00  0.00     0.053 C 
ATOM      9  C   UNL d   1       5.287  -0.406  -2.491  0.00  0.00     0.018 C 
ENDBRANCH   1   8
TORSDOF 1
ENDMDL
