MODEL 1
REMARK minimizedAffinity -2.10524106
REMARK minimizedRMSD -1
REMARK  1 active torsions:
REMARK  status: ('A' for Active; 'I' for Inactive)
REMARK    1  A    between atoms: C1_2  and  C2_3 
ROOT
ATOM      1  C2  UNL d   1       3.279  -0.555  -1.057  0.00  0.00    -0.073 A 
ATOM      2  C3  UNL d   1       3.206   0.841  -1.007  0.00  0.00    -0.002 A 
ATOM      3  C4  UNL d   1       2.145   1.469  -0.353  0.00  0.00     0.004 A 
ATOM      4  C5  UNL d   1       1.151   0.708   0.262  0.00  0.00    -0.004 A 
ATOM      5  C6  UNL d   1       1.213  -0.689   0.233  0.00  0.00    -0.075 A 
ATOM      6  C7  UNL d   1       0.151  -1.522   0.889  0.00  0.00     0.076 C 
ATOM      7  C8  UNL d   1       2.280  -1.312  -0.428  0.00  0.00     0.001 A 
ENDROOT
BRANCH   1   8
ATOM      8  C1  UNL d   1       4.426  -1.237  -1.757  0.00  0.00     0.053 C 
ATOM      9  C   UNL d   1       5.279  -0.255  -2.544  0.00  0.00     0.018 C 
ENDBRANCH   1   8
TORSDOF 1
ENDMDL
