MODEL 1
REMARK minimizedAffinity 22.0151634
REMARK minimizedRMSD -1
REMARK  0 active torsions:
REMARK  status: ('A' for Active; 'I' for Inactive)
ROOT
ATOM      1  C   UNL d   1      -4.511   2.179  -3.044  0.00  0.00     0.124 A 
ATOM      2  C1  UNL d   1      -4.835   2.778  -1.835  0.00  0.00     0.062 A 
ATOM      3  C2  UNL d   1      -3.954   2.706  -0.759  0.00  0.00     0.162 A 
ATOM      4  C3  UNL d   1      -2.740   2.032  -0.888  0.00  0.00    -0.034 A 
ATOM      5  C4  UNL d   1      -2.421   1.430  -2.107  0.00  0.00     0.162 A 
ATOM      6  C5  UNL d   1      -3.305   1.506  -3.179  0.00  0.00     0.062 A 
ATOM      7  F   UNL d   1      -2.990   0.926  -4.346  0.00  0.00    -0.097 F 
ATOM      8  F1  UNL d   1      -1.262   0.774  -2.265  0.00  0.00    -0.096 F 
ATOM      9  I   UNL d   1      -1.421   1.921   0.718  0.00  0.00    -0.060 I 
ATOM     10  F2  UNL d   1      -4.294   3.294   0.398  0.00  0.00    -0.096 F 
ATOM     11  F3  UNL d   1      -6.000   3.428  -1.701  0.00  0.00    -0.097 F 
ATOM     12  F4  UNL d   1      -5.360   2.249  -4.077  0.00  0.00    -0.092 F 
ENDROOT
TORSDOF 0
ENDMDL
