MODEL 1
REMARK minimizedAffinity 23.8532715
REMARK minimizedRMSD -1
REMARK  0 active torsions:
REMARK  status: ('A' for Active; 'I' for Inactive)
ROOT
ATOM      1  C   UNL d   1       5.171   0.199  -4.883  0.00  0.00     0.124 A 
ATOM      2  C1  UNL d   1       5.230  -1.027  -4.235  0.00  0.00     0.062 A 
ATOM      3  C2  UNL d   1       4.493  -1.241  -3.074  0.00  0.00     0.162 A 
ATOM      4  C3  UNL d   1       3.689  -0.226  -2.554  0.00  0.00    -0.034 A 
ATOM      5  C4  UNL d   1       3.636   1.004  -3.211  0.00  0.00     0.162 A 
ATOM      6  C5  UNL d   1       4.375   1.213  -4.371  0.00  0.00     0.062 A 
ATOM      7  F   UNL d   1       4.317   2.398  -4.996  0.00  0.00    -0.097 F 
ATOM      8  F1  UNL d   1       2.873   2.001  -2.738  0.00  0.00    -0.096 F 
ATOM      9  I   UNL d   1       2.585  -0.542  -0.818  0.00  0.00    -0.060 I 
ATOM     10  F2  UNL d   1       4.569  -2.435  -2.468  0.00  0.00    -0.096 F 
ATOM     11  F3  UNL d   1       6.000  -2.008  -4.727  0.00  0.00    -0.097 F 
ATOM     12  F4  UNL d   1       5.882   0.402  -6.000  0.00  0.00    -0.092 F 
ENDROOT
TORSDOF 0
ENDMDL
