MODEL 1
REMARK minimizedAffinity 18.6064014
REMARK minimizedRMSD -1
REMARK  0 active torsions:
REMARK  status: ('A' for Active; 'I' for Inactive)
ROOT
ATOM      1  C   UNL d   1       2.591  -2.132  -3.794  0.00  0.00     0.124 A 
ATOM      2  C1  UNL d   1       2.342  -0.797  -4.083  0.00  0.00     0.062 A 
ATOM      3  C2  UNL d   1       3.314  -0.025  -4.712  0.00  0.00     0.162 A 
ATOM      4  C3  UNL d   1       4.544  -0.585  -5.058  0.00  0.00    -0.034 A 
ATOM      5  C4  UNL d   1       4.787  -1.928  -4.763  0.00  0.00     0.162 A 
ATOM      6  C5  UNL d   1       3.812  -2.696  -4.134  0.00  0.00     0.062 A 
ATOM      7  F   UNL d   1       4.054  -3.985  -3.856  0.00  0.00    -0.097 F 
ATOM      8  F1  UNL d   1       5.958  -2.499  -5.081  0.00  0.00    -0.096 F 
ATOM      9  I   UNL d   1       6.000   0.567  -5.998  0.00  0.00    -0.060 I 
ATOM     10  F2  UNL d   1       3.047   1.262  -4.979  0.00  0.00    -0.096 F 
ATOM     11  F3  UNL d   1       1.163  -0.250  -3.754  0.00  0.00    -0.097 F 
ATOM     12  F4  UNL d   1       1.654  -2.873  -3.188  0.00  0.00    -0.092 F 
ENDROOT
TORSDOF 0
ENDMDL
