MODEL 1
REMARK minimizedAffinity 25.9876499
REMARK minimizedRMSD -1
REMARK  0 active torsions:
REMARK  status: ('A' for Active; 'I' for Inactive)
ROOT
ATOM      1  C   UNL d   1       1.181  -0.813   3.525  0.00  0.00     0.124 A 
ATOM      2  C1  UNL d   1       1.564   0.320   2.822  0.00  0.00     0.062 A 
ATOM      3  C2  UNL d   1       1.835   0.240   1.459  0.00  0.00     0.162 A 
ATOM      4  C3  UNL d   1       1.721  -0.978   0.789  0.00  0.00    -0.034 A 
ATOM      5  C4  UNL d   1       1.336  -2.114   1.504  0.00  0.00     0.162 A 
ATOM      6  C5  UNL d   1       1.067  -2.029   2.866  0.00  0.00     0.062 A 
ATOM      7  F   UNL d   1       0.697  -3.125   3.544  0.00  0.00    -0.097 F 
ATOM      8  F1  UNL d   1       1.217  -3.301   0.891  0.00  0.00    -0.096 F 
ATOM      9  I   UNL d   1       2.125  -1.102  -1.249  0.00  0.00    -0.060 I 
ATOM     10  F2  UNL d   1       2.203   1.352   0.804  0.00  0.00    -0.096 F 
ATOM     11  F3  UNL d   1       1.676   1.496   3.457  0.00  0.00    -0.097 F 
ATOM     12  F4  UNL d   1       0.922  -0.733   4.837  0.00  0.00    -0.092 F 
ENDROOT
TORSDOF 0
ENDMDL
