MODEL 1
REMARK minimizedAffinity 23.6328049
REMARK minimizedRMSD -1
REMARK  0 active torsions:
REMARK  status: ('A' for Active; 'I' for Inactive)
ROOT
ATOM      1  C   UNL d   1      -4.745  -2.601  -2.507  0.00  0.00     0.124 A 
ATOM      2  C1  UNL d   1      -5.227  -2.330  -3.780  0.00  0.00     0.062 A 
ATOM      3  C2  UNL d   1      -5.150  -3.297  -4.779  0.00  0.00     0.162 A 
ATOM      4  C3  UNL d   1      -4.588  -4.545  -4.508  0.00  0.00    -0.034 A 
ATOM      5  C4  UNL d   1      -4.104  -4.810  -3.226  0.00  0.00     0.162 A 
ATOM      6  C5  UNL d   1      -4.184  -3.840  -2.231  0.00  0.00     0.062 A 
ATOM      7  F   UNL d   1      -3.717  -4.103  -1.002  0.00  0.00    -0.097 F 
ATOM      8  F1  UNL d   1      -3.557  -5.999  -2.931  0.00  0.00    -0.096 F 
ATOM      9  I   UNL d   1      -4.470  -5.993  -5.998  0.00  0.00    -0.060 I 
ATOM     10  F2  UNL d   1      -5.624  -3.008  -6.000  0.00  0.00    -0.096 F 
ATOM     11  F3  UNL d   1      -5.769  -1.134  -4.050  0.00  0.00    -0.097 F 
ATOM     12  F4  UNL d   1      -4.820  -1.669  -1.549  0.00  0.00    -0.092 F 
ENDROOT
TORSDOF 0
ENDMDL
