MODEL 1
REMARK minimizedAffinity 4.03567791
REMARK minimizedRMSD -1
REMARK  0 active torsions:
REMARK  status: ('A' for Active; 'I' for Inactive)
ROOT
ATOM      1  C   UNL d   1       1.504  -2.210   2.638  0.00  0.00     0.124 A 
ATOM      2  C1  UNL d   1       1.679  -3.218   3.575  0.00  0.00     0.062 A 
ATOM      3  C2  UNL d   1       2.955  -3.699   3.855  0.00  0.00     0.162 A 
ATOM      4  C3  UNL d   1       4.066  -3.171   3.197  0.00  0.00    -0.034 A 
ATOM      5  C4  UNL d   1       3.881  -2.158   2.255  0.00  0.00     0.162 A 
ATOM      6  C5  UNL d   1       2.604  -1.680   1.979  0.00  0.00     0.062 A 
ATOM      7  F   UNL d   1       2.436  -0.706   1.074  0.00  0.00    -0.097 F 
ATOM      8  F1  UNL d   1       4.928  -1.627   1.605  0.00  0.00    -0.096 F 
ATOM      9  I   UNL d   1       5.976  -3.888   3.613  0.00  0.00    -0.060 I 
ATOM     10  F2  UNL d   1       3.096  -4.674   4.765  0.00  0.00    -0.096 F 
ATOM     11  F3  UNL d   1       0.617  -3.732   4.213  0.00  0.00    -0.097 F 
ATOM     12  F4  UNL d   1       0.275  -1.749   2.370  0.00  0.00    -0.092 F 
ENDROOT
TORSDOF 0
ENDMDL
