MODEL 1
REMARK minimizedAffinity 32.6997032
REMARK minimizedRMSD -1
REMARK  0 active torsions:
REMARK  status: ('A' for Active; 'I' for Inactive)
ROOT
ATOM      1  C   UNL d   1       0.555  -4.192   3.965  0.00  0.00     0.124 A 
ATOM      2  C1  UNL d   1       1.093  -5.108   4.860  0.00  0.00     0.062 A 
ATOM      3  C2  UNL d   1       2.458  -5.103   5.130  0.00  0.00     0.162 A 
ATOM      4  C3  UNL d   1       3.296  -4.179   4.506  0.00  0.00    -0.034 A 
ATOM      5  C4  UNL d   1       2.749  -3.262   3.607  0.00  0.00     0.162 A 
ATOM      6  C5  UNL d   1       1.383  -3.270   3.340  0.00  0.00     0.062 A 
ATOM      7  F   UNL d   1       0.866  -2.385   2.476  0.00  0.00    -0.097 F 
ATOM      8  F1  UNL d   1       3.526  -2.360   2.990  0.00  0.00    -0.096 F 
ATOM      9  I   UNL d   1       5.338  -4.169   4.908  0.00  0.00    -0.060 I 
ATOM     10  F2  UNL d   1       2.950  -5.999   5.998  0.00  0.00    -0.096 F 
ATOM     11  F3  UNL d   1       0.295  -6.000   5.464  0.00  0.00    -0.097 F 
ATOM     12  F4  UNL d   1      -0.759  -4.199   3.706  0.00  0.00    -0.092 F 
ENDROOT
TORSDOF 0
ENDMDL
