MODEL 1
REMARK minimizedAffinity 2.49133563
REMARK minimizedRMSD -1
REMARK  0 active torsions:
REMARK  status: ('A' for Active; 'I' for Inactive)
ROOT
ATOM      1  C2' OXE d   1      -4.305  -3.149  -5.977  0.00  0.00     0.078 C 
ATOM      2  C1' OXE d   1      -4.030  -5.939  -5.829  0.00  0.00     0.078 C 
ATOM      3  C1  OXE d   1      -2.771  -5.109  -5.870  0.00  0.00    -0.078 A 
ATOM      4  C2  OXE d   1      -2.915  -3.748  -5.990  0.00  0.00    -0.078 A 
ATOM      5  C3  OXE d   1      -1.788  -2.932  -5.977  0.00  0.00     0.003 A 
ATOM      6  C4  OXE d   1      -0.505  -3.494  -5.999  0.00  0.00    -0.002 A 
ATOM      7  C5  OXE d   1      -0.337  -4.880  -5.917  0.00  0.00    -0.002 A 
ATOM      8  C6  OXE d   1      -1.456  -5.698  -5.809  0.00  0.00     0.003 A 
ENDROOT
TORSDOF 0
ENDMDL
