MODEL 1
REMARK minimizedAffinity 3.21622419
REMARK minimizedRMSD -1
REMARK  0 active torsions:
REMARK  status: ('A' for Active; 'I' for Inactive)
ROOT
ATOM      1  C2' OXE d   1      -0.937   5.689  -1.504  0.00  0.00     0.078 C 
ATOM      2  C1' OXE d   1       0.005   5.093  -4.080  0.00  0.00     0.078 C 
ATOM      3  C1  OXE d   1      -1.388   4.642  -3.718  0.00  0.00    -0.078 A 
ATOM      4  C2  OXE d   1      -1.824   4.897  -2.440  0.00  0.00    -0.078 A 
ATOM      5  C3  OXE d   1      -3.121   4.551  -2.072  0.00  0.00     0.003 A 
ATOM      6  C4  OXE d   1      -3.931   3.810  -2.941  0.00  0.00    -0.002 A 
ATOM      7  C5  OXE d   1      -3.492   3.504  -4.233  0.00  0.00    -0.002 A 
ATOM      8  C6  OXE d   1      -2.242   3.949  -4.651  0.00  0.00     0.003 A 
ENDROOT
TORSDOF 0
ENDMDL
