MODEL 1
REMARK minimizedAffinity -0.509713471
REMARK minimizedRMSD -1
REMARK  0 active torsions:
REMARK  status: ('A' for Active; 'I' for Inactive)
ROOT
ATOM      1  C2' OXE d   1      -3.927  -1.702  -5.995  0.00  0.00     0.078 C 
ATOM      2  C1' OXE d   1      -1.327  -2.760  -5.975  0.00  0.00     0.078 C 
ATOM      3  C1  OXE d   1      -2.482  -3.731  -5.979  0.00  0.00    -0.078 A 
ATOM      4  C2  OXE d   1      -3.751  -3.204  -5.942  0.00  0.00    -0.078 A 
ATOM      5  C3  OXE d   1      -4.852  -4.053  -5.999  0.00  0.00     0.003 A 
ATOM      6  C4  OXE d   1      -4.680  -5.442  -5.939  0.00  0.00    -0.002 A 
ATOM      7  C5  OXE d   1      -3.396  -5.999  -5.937  0.00  0.00    -0.002 A 
ATOM      8  C6  OXE d   1      -2.289  -5.160  -6.000  0.00  0.00     0.003 A 
ENDROOT
TORSDOF 0
ENDMDL
