MODEL 1
REMARK minimizedAffinity 4.21322012
REMARK minimizedRMSD -1
REMARK  0 active torsions:
REMARK  status: ('A' for Active; 'I' for Inactive)
ROOT
ATOM      1  C2' OXE d   1      -2.268  -5.808  -5.986  0.00  0.00     0.078 C 
ATOM      2  C1' OXE d   1      -5.023  -5.273  -5.932  0.00  0.00     0.078 C 
ATOM      3  C1  OXE d   1      -4.079  -4.097  -5.947  0.00  0.00    -0.078 A 
ATOM      4  C2  OXE d   1      -2.732  -4.368  -5.927  0.00  0.00    -0.078 A 
ATOM      5  C3  OXE d   1      -1.817  -3.322  -5.995  0.00  0.00     0.003 A 
ATOM      6  C4  OXE d   1      -2.254  -1.993  -5.929  0.00  0.00    -0.002 A 
ATOM      7  C5  OXE d   1      -3.620  -1.695  -5.909  0.00  0.00    -0.002 A 
ATOM      8  C6  OXE d   1      -4.545  -2.733  -5.961  0.00  0.00     0.003 A 
ENDROOT
TORSDOF 0
ENDMDL
