MODEL 1
REMARK minimizedAffinity -1.63049138
REMARK minimizedRMSD -1
REMARK  0 active torsions:
REMARK  status: ('A' for Active; 'I' for Inactive)
ROOT
ATOM      1  C2' OXE d   1      -4.741  -5.976  -5.686  0.00  0.00     0.078 C 
ATOM      2  C1' OXE d   1      -4.791  -3.187  -5.997  0.00  0.00     0.078 C 
ATOM      3  C1  OXE d   1      -3.445  -3.859  -5.900  0.00  0.00    -0.078 A 
ATOM      4  C2  OXE d   1      -3.430  -5.219  -5.701  0.00  0.00    -0.078 A 
ATOM      5  C3  OXE d   1      -2.215  -5.896  -5.658  0.00  0.00     0.003 A 
ATOM      6  C4  OXE d   1      -1.008  -5.187  -5.663  0.00  0.00    -0.002 A 
ATOM      7  C5  OXE d   1      -1.001  -3.798  -5.825  0.00  0.00    -0.002 A 
ATOM      8  C6  OXE d   1      -2.207  -3.125  -5.987  0.00  0.00     0.003 A 
ENDROOT
TORSDOF 0
ENDMDL
