MODEL 1
REMARK minimizedAffinity 0.612522304
REMARK minimizedRMSD -1
REMARK  0 active torsions:
REMARK  status: ('A' for Active; 'I' for Inactive)
ROOT
ATOM      1  C2' OXE d   1      -0.359  -2.452  -5.818  0.00  0.00     0.078 C 
ATOM      2  C1' OXE d   1      -3.082  -1.793  -5.998  0.00  0.00     0.078 C 
ATOM      3  C1  OXE d   1      -2.713  -3.255  -5.954  0.00  0.00    -0.078 A 
ATOM      4  C2  OXE d   1      -1.376  -3.569  -5.913  0.00  0.00    -0.078 A 
ATOM      5  C3  OXE d   1      -0.983  -4.900  -5.815  0.00  0.00     0.003 A 
ATOM      6  C4  OXE d   1      -1.929  -5.928  -5.914  0.00  0.00    -0.002 A 
ATOM      7  C5  OXE d   1      -3.294  -5.631  -5.997  0.00  0.00    -0.002 A 
ATOM      8  C6  OXE d   1      -3.704  -4.303  -5.975  0.00  0.00     0.003 A 
ENDROOT
TORSDOF 0
ENDMDL
