MODEL 1
REMARK minimizedAffinity 11.6315899
REMARK minimizedRMSD -1
REMARK  0 active torsions:
REMARK  status: ('A' for Active; 'I' for Inactive)
ROOT
ATOM      1  C2' OXE d   1      -0.830   5.998   0.037  0.00  0.00     0.078 C 
ATOM      2  C1' OXE d   1       0.438   3.502   0.243  0.00  0.00     0.078 C 
ATOM      3  C1  OXE d   1      -0.206   3.858  -1.074  0.00  0.00    -0.078 A 
ATOM      4  C2  OXE d   1      -0.865   5.061  -1.151  0.00  0.00    -0.078 A 
ATOM      5  C3  OXE d   1      -1.429   5.462  -2.359  0.00  0.00     0.003 A 
ATOM      6  C4  OXE d   1      -1.465   4.586  -3.450  0.00  0.00    -0.002 A 
ATOM      7  C5  OXE d   1      -0.834   3.339  -3.380  0.00  0.00    -0.002 A 
ATOM      8  C6  OXE d   1      -0.165   2.978  -2.216  0.00  0.00     0.003 A 
ENDROOT
TORSDOF 0
ENDMDL
