MODEL 1
REMARK minimizedAffinity -2.24247384
REMARK minimizedRMSD -1
REMARK  0 active torsions:
REMARK  status: ('A' for Active; 'I' for Inactive)
ROOT
ATOM      1  C1  BNZ d   1       1.119   0.364  -0.448  0.00  0.00     0.000 A 
ATOM      2  C2  BNZ d   1       2.339  -0.193  -0.171  0.00  0.00     0.000 A 
ATOM      3  C3  BNZ d   1       2.479  -1.103   0.839  0.00  0.00     0.000 A 
ATOM      4  C4  BNZ d   1       1.409  -1.426   1.595  0.00  0.00     0.000 A 
ATOM      5  C5  BNZ d   1       0.175  -0.866   1.333  0.00  0.00     0.000 A 
ATOM      6  C6  BNZ d   1       0.029   0.021   0.291  0.00  0.00     0.000 A 
ENDROOT
TORSDOF 0
ENDMDL
