MODEL 1
REMARK minimizedAffinity -3.61687899
REMARK minimizedRMSD -1
REMARK  0 active torsions:
REMARK  status: ('A' for Active; 'I' for Inactive)
ROOT
ATOM      1  C1  BNZ d   1      -0.512   0.026  -0.653  0.00  0.00     0.000 A 
ATOM      2  C2  BNZ d   1       0.208  -1.084  -1.006  0.00  0.00     0.000 A 
ATOM      3  C3  BNZ d   1       1.539  -1.178  -0.709  0.00  0.00     0.000 A 
ATOM      4  C4  BNZ d   1       2.156  -0.148  -0.096  0.00  0.00     0.000 A 
ATOM      5  C5  BNZ d   1       1.446   0.982   0.258  0.00  0.00     0.000 A 
ATOM      6  C6  BNZ d   1       0.098   1.057  -0.008  0.00  0.00     0.000 A 
ENDROOT
TORSDOF 0
ENDMDL
