MODEL 1
REMARK minimizedAffinity -3.70983601
REMARK minimizedRMSD -1
REMARK  0 active torsions:
REMARK  status: ('A' for Active; 'I' for Inactive)
ROOT
ATOM      1  C1  BNZ d   1       0.552   0.161   0.073  0.00  0.00     0.000 A 
ATOM      2  C2  BNZ d   1       0.640  -1.014   0.771  0.00  0.00     0.000 A 
ATOM      3  C3  BNZ d   1       1.759  -1.795   0.688  0.00  0.00     0.000 A 
ATOM      4  C4  BNZ d   1       2.770  -1.421  -0.122  0.00  0.00     0.000 A 
ATOM      5  C5  BNZ d   1       2.693  -0.244  -0.839  0.00  0.00     0.000 A 
ATOM      6  C6  BNZ d   1       1.581   0.559  -0.723  0.00  0.00     0.000 A 
ENDROOT
TORSDOF 0
ENDMDL
