MODEL 1
REMARK minimizedAffinity -3.35082459
REMARK minimizedRMSD -1
REMARK  0 active torsions:
REMARK  status: ('A' for Active; 'I' for Inactive)
ROOT
ATOM      1  C1  BNZ d   1       1.711  -1.657   1.450  0.00  0.00     0.000 A 
ATOM      2  C2  BNZ d   1       0.441  -1.170   1.611  0.00  0.00     0.000 A 
ATOM      3  C3  BNZ d   1      -0.115  -0.341   0.677  0.00  0.00     0.000 A 
ATOM      4  C4  BNZ d   1       0.614   0.032  -0.395  0.00  0.00     0.000 A 
ATOM      5  C5  BNZ d   1       1.899  -0.443  -0.567  0.00  0.00     0.000 A 
ATOM      6  C6  BNZ d   1       2.440  -1.308   0.356  0.00  0.00     0.000 A 
ENDROOT
TORSDOF 0
ENDMDL
