MODEL 1
REMARK minimizedAffinity -3.0932622
REMARK minimizedRMSD -1
REMARK  0 active torsions:
REMARK  status: ('A' for Active; 'I' for Inactive)
ROOT
ATOM      1  C1  BNZ d   1      -1.664   2.638  -2.352  0.00  0.00     0.000 A 
ATOM      2  C2  BNZ d   1      -2.017   2.248  -3.617  0.00  0.00     0.000 A 
ATOM      3  C3  BNZ d   1      -2.060   0.924  -3.955  0.00  0.00     0.000 A 
ATOM      4  C4  BNZ d   1      -1.712  -0.005  -3.042  0.00  0.00     0.000 A 
ATOM      5  C5  BNZ d   1      -1.345   0.372  -1.765  0.00  0.00     0.000 A 
ATOM      6  C6  BNZ d   1      -1.341   1.704  -1.417  0.00  0.00     0.000 A 
ENDROOT
TORSDOF 0
ENDMDL
