MODEL 1
REMARK minimizedAffinity -4.16666126
REMARK minimizedRMSD -1
REMARK  0 active torsions:
REMARK  status: ('A' for Active; 'I' for Inactive)
ROOT
ATOM      1  C1  BNZ d   1       2.484   0.300   0.149  0.00  0.00     0.000 A 
ATOM      2  C2  BNZ d   1       1.200   0.580  -0.235  0.00  0.00     0.000 A 
ATOM      3  C3  BNZ d   1       0.148  -0.130   0.271  0.00  0.00     0.000 A 
ATOM      4  C4  BNZ d   1       0.383  -1.144   1.129  0.00  0.00     0.000 A 
ATOM      5  C5  BNZ d   1       1.673  -1.445   1.519  0.00  0.00     0.000 A 
ATOM      6  C6  BNZ d   1       2.727  -0.702   1.037  0.00  0.00     0.000 A 
ENDROOT
TORSDOF 0
ENDMDL
