MODEL 1
REMARK minimizedAffinity -4.16138697
REMARK minimizedRMSD -1
REMARK  0 active torsions:
REMARK  status: ('A' for Active; 'I' for Inactive)
ROOT
ATOM      1  C1  BNZ d   1       0.123  -0.628   0.594  0.00  0.00     0.000 A 
ATOM      2  C2  BNZ d   1       0.682  -1.773   1.095  0.00  0.00     0.000 A 
ATOM      3  C3  BNZ d   1       2.028  -1.993   1.005  0.00  0.00     0.000 A 
ATOM      4  C4  BNZ d   1       2.807  -1.087   0.378  0.00  0.00     0.000 A 
ATOM      5  C5  BNZ d   1       2.256   0.068  -0.141  0.00  0.00     0.000 A 
ATOM      6  C6  BNZ d   1       0.907   0.304  -0.013  0.00  0.00     0.000 A 
ENDROOT
TORSDOF 0
ENDMDL
