MODEL 1
REMARK minimizedAffinity -4.55460024
REMARK minimizedRMSD -1
REMARK  0 active torsions:
REMARK  status: ('A' for Active; 'I' for Inactive)
ROOT
ATOM      1  C1  BNZ d   1       2.736   0.139   0.009  0.00  0.00     0.000 A 
ATOM      2  C2  BNZ d   1       1.491   0.701  -0.092  0.00  0.00     0.000 A 
ATOM      3  C3  BNZ d   1       0.374  -0.004   0.257  0.00  0.00     0.000 A 
ATOM      4  C4  BNZ d   1       0.498  -1.283   0.668  0.00  0.00     0.000 A 
ATOM      5  C5  BNZ d   1       1.746  -1.867   0.766  0.00  0.00     0.000 A 
ATOM      6  C6  BNZ d   1       2.871  -1.141   0.450  0.00  0.00     0.000 A 
ENDROOT
TORSDOF 0
ENDMDL
