MODEL 1
REMARK minimizedAffinity -3.56411648
REMARK minimizedRMSD -1
REMARK  0 active torsions:
REMARK  status: ('A' for Active; 'I' for Inactive)
ROOT
ATOM      1  C1  BNZ d   1       1.891  -0.739   0.061  0.00  0.00     0.000 A 
ATOM      2  C2  BNZ d   1       0.582  -0.346   0.131  0.00  0.00     0.000 A 
ATOM      3  C3  BNZ d   1      -0.362  -1.153   0.703  0.00  0.00     0.000 A 
ATOM      4  C4  BNZ d   1      -0.003  -2.367   1.167  0.00  0.00     0.000 A 
ATOM      5  C5  BNZ d   1       1.312  -2.782   1.095  0.00  0.00     0.000 A 
ATOM      6  C6  BNZ d   1       2.266  -1.951   0.554  0.00  0.00     0.000 A 
ENDROOT
TORSDOF 0
ENDMDL
