MODEL 1
REMARK minimizedAffinity -4.9182272
REMARK minimizedRMSD -1
REMARK  0 active torsions:
REMARK  status: ('A' for Active; 'I' for Inactive)
ROOT
ATOM      1  C1  BNZ d   1       0.364  -1.927   0.370  0.00  0.00     0.000 A 
ATOM      2  C2  BNZ d   1       1.719  -2.060   0.512  0.00  0.00     0.000 A 
ATOM      3  C3  BNZ d   1       2.553  -0.996   0.309  0.00  0.00     0.000 A 
ATOM      4  C4  BNZ d   1       2.034   0.188  -0.075  0.00  0.00     0.000 A 
ATOM      5  C5  BNZ d   1       0.670   0.336  -0.231  0.00  0.00     0.000 A 
ATOM      6  C6  BNZ d   1      -0.169  -0.727   0.012  0.00  0.00     0.000 A 
ENDROOT
TORSDOF 0
ENDMDL
