MODEL 1
REMARK minimizedAffinity -3.70956302
REMARK minimizedRMSD -1
REMARK  0 active torsions:
REMARK  status: ('A' for Active; 'I' for Inactive)
ROOT
ATOM      1  C1  BNZ d   1      -1.441   2.193  -3.071  0.00  0.00     0.000 A 
ATOM      2  C2  BNZ d   1      -0.672   2.230  -1.938  0.00  0.00     0.000 A 
ATOM      3  C3  BNZ d   1      -0.619   1.157  -1.093  0.00  0.00     0.000 A 
ATOM      4  C4  BNZ d   1      -1.365   0.066  -1.359  0.00  0.00     0.000 A 
ATOM      5  C5  BNZ d   1      -2.153   0.017  -2.492  0.00  0.00     0.000 A 
ATOM      6  C6  BNZ d   1      -2.174   1.084  -3.361  0.00  0.00     0.000 A 
ENDROOT
TORSDOF 0
ENDMDL
