MODEL 1
REMARK minimizedAffinity -4.03306961
REMARK minimizedRMSD -1
REMARK  0 active torsions:
REMARK  status: ('A' for Active; 'I' for Inactive)
ROOT
ATOM      1  C1  BNZ d   1       0.484  -1.761   1.399  0.00  0.00     0.000 A 
ATOM      2  C2  BNZ d   1      -0.118  -0.738   0.716  0.00  0.00     0.000 A 
ATOM      3  C3  BNZ d   1       0.626   0.160   0.002  0.00  0.00     0.000 A 
ATOM      4  C4  BNZ d   1       1.970   0.058   0.005  0.00  0.00     0.000 A 
ATOM      5  C5  BNZ d   1       2.593  -0.963   0.696  0.00  0.00     0.000 A 
ATOM      6  C6  BNZ d   1       1.839  -1.888   1.381  0.00  0.00     0.000 A 
ENDROOT
TORSDOF 0
ENDMDL
