MODEL 1
REMARK minimizedAffinity -1.68760407
REMARK minimizedRMSD -1
REMARK  0 active torsions:
REMARK  status: ('A' for Active; 'I' for Inactive)
ROOT
ATOM      1  C1  BNZ d   1       2.914  -0.811   0.995  0.00  0.00     0.000 A 
ATOM      2  C2  BNZ d   1       1.708  -0.529   0.410  0.00  0.00     0.000 A 
ATOM      3  C3  BNZ d   1       0.647  -1.379   0.549  0.00  0.00     0.000 A 
ATOM      4  C4  BNZ d   1       0.804  -2.528   1.237  0.00  0.00     0.000 A 
ATOM      5  C5  BNZ d   1       2.016  -2.831   1.825  0.00  0.00     0.000 A 
ATOM      6  C6  BNZ d   1       3.070  -1.954   1.716  0.00  0.00     0.000 A 
ENDROOT
TORSDOF 0
ENDMDL
