MODEL 1
REMARK minimizedAffinity -4.0694561
REMARK minimizedRMSD -1
REMARK  0 active torsions:
REMARK  status: ('A' for Active; 'I' for Inactive)
ROOT
ATOM      1  C1  BNZ d   1       0.224   0.003  -0.145  0.00  0.00     0.000 A 
ATOM      2  C2  BNZ d   1       0.497  -1.338  -0.116  0.00  0.00     0.000 A 
ATOM      3  C3  BNZ d   1      -0.214  -2.181   0.692  0.00  0.00     0.000 A 
ATOM      4  C4  BNZ d   1      -1.169  -1.675   1.499  0.00  0.00     0.000 A 
ATOM      5  C5  BNZ d   1      -1.450  -0.324   1.488  0.00  0.00     0.000 A 
ATOM      6  C6  BNZ d   1      -0.759   0.515   0.645  0.00  0.00     0.000 A 
ENDROOT
TORSDOF 0
ENDMDL
