MODEL 1
REMARK minimizedAffinity -4.12795401
REMARK minimizedRMSD -1
REMARK  0 active torsions:
REMARK  status: ('A' for Active; 'I' for Inactive)
ROOT
ATOM      1  C1  BNZ d   1       0.189  -1.748   1.303  0.00  0.00     0.000 A 
ATOM      2  C2  BNZ d   1      -0.296  -0.816   0.425  0.00  0.00     0.000 A 
ATOM      3  C3  BNZ d   1       0.547   0.047  -0.217  0.00  0.00     0.000 A 
ATOM      4  C4  BNZ d   1       1.868   0.004   0.050  0.00  0.00     0.000 A 
ATOM      5  C5  BNZ d   1       2.372  -0.923   0.940  0.00  0.00     0.000 A 
ATOM      6  C6  BNZ d   1       1.525  -1.816   1.555  0.00  0.00     0.000 A 
ENDROOT
TORSDOF 0
ENDMDL
