MODEL 1
REMARK minimizedAffinity -3.49050617
REMARK minimizedRMSD -1
REMARK  0 active torsions:
REMARK  status: ('A' for Active; 'I' for Inactive)
ROOT
ATOM      1  C1  BNZ d   1       0.020  -1.001   0.722  0.00  0.00     0.000 A 
ATOM      2  C2  BNZ d   1       0.724  -0.208  -0.146  0.00  0.00     0.000 A 
ATOM      3  C3  BNZ d   1       0.369   1.097  -0.346  0.00  0.00     0.000 A 
ATOM      4  C4  BNZ d   1      -0.711   1.595   0.290  0.00  0.00     0.000 A 
ATOM      5  C5  BNZ d   1      -1.436   0.806   1.160  0.00  0.00     0.000 A 
ATOM      6  C6  BNZ d   1      -1.053  -0.496   1.389  0.00  0.00     0.000 A 
ENDROOT
TORSDOF 0
ENDMDL
