MODEL 1
REMARK minimizedAffinity -4.81767797
REMARK minimizedRMSD -1
REMARK  0 active torsions:
REMARK  status: ('A' for Active; 'I' for Inactive)
ROOT
ATOM      1  C1  BNZ d   1       1.703  -0.257   0.250  0.00  0.00     0.000 A 
ATOM      2  C2  BNZ d   1       2.406  -1.178   0.979  0.00  0.00     0.000 A 
ATOM      3  C3  BNZ d   1       1.795  -2.298   1.469  0.00  0.00     0.000 A 
ATOM      4  C4  BNZ d   1       0.474  -2.475   1.264  0.00  0.00     0.000 A 
ATOM      5  C5  BNZ d   1      -0.252  -1.551   0.539  0.00  0.00     0.000 A 
ATOM      6  C6  BNZ d   1       0.375  -0.445   0.014  0.00  0.00     0.000 A 
ENDROOT
TORSDOF 0
ENDMDL
