MODEL 1
REMARK minimizedAffinity -2.4010644
REMARK minimizedRMSD -1
REMARK  0 active torsions:
REMARK  status: ('A' for Active; 'I' for Inactive)
ROOT
ATOM      1  C1  BNZ d   1      -0.363   1.239  -0.350  0.00  0.00     0.000 A 
ATOM      2  C2  BNZ d   1      -1.010   0.273   0.374  0.00  0.00     0.000 A 
ATOM      3  C3  BNZ d   1      -0.361  -0.868   0.754  0.00  0.00     0.000 A 
ATOM      4  C4  BNZ d   1       0.919  -1.060   0.377  0.00  0.00     0.000 A 
ATOM      5  C5  BNZ d   1       1.582  -0.100  -0.362  0.00  0.00     0.000 A 
ATOM      6  C6  BNZ d   1       0.938   1.065  -0.710  0.00  0.00     0.000 A 
ENDROOT
TORSDOF 0
ENDMDL
