MODEL 1
REMARK minimizedAffinity -3.22650051
REMARK minimizedRMSD -1
REMARK  1 active torsions:
REMARK  status: ('A' for Active; 'I' for Inactive)
REMARK    1  A    between atoms: C1_2  and  C2_3 
ROOT
ATOM      1  C2  UNL d   1       0.926   1.113   1.868  0.00  0.00    -0.077 A 
ATOM      2  C3  UNL d   1       0.822   0.734   3.214  0.00  0.00     0.002 A 
ATOM      3  C4  UNL d   1       1.565   1.396   4.193  0.00  0.00     0.002 A 
ATOM      4  C5  UNL d   1       2.414   2.442   3.838  0.00  0.00    -0.004 A 
ATOM      5  C6  UNL d   1       2.526   2.825   2.502  0.00  0.00     0.002 A 
ATOM      6  C7  UNL d   1       1.784   2.164   1.521  0.00  0.00     0.002 A 
ENDROOT
BRANCH   1   7
ATOM      7  C1  UNL d   1       0.088   0.433   0.817  0.00  0.00     0.055 C 
ATOM      8  C   UNL d   1       0.634   0.693  -0.580  0.00  0.00     0.019 C 
ENDBRANCH   1   7
TORSDOF 1
ENDMDL
