MODEL 1
REMARK minimizedAffinity -2.11238694
REMARK minimizedRMSD -1
REMARK  1 active torsions:
REMARK  status: ('A' for Active; 'I' for Inactive)
REMARK    1  A    between atoms: C1_2  and  C2_3 
ROOT
ATOM      1  C2  UNL d   1      -3.207   1.379   2.870  0.00  0.00    -0.077 A 
ATOM      2  C3  UNL d   1      -4.459   0.759   2.989  0.00  0.00     0.002 A 
ATOM      3  C4  UNL d   1      -4.908  -0.121   2.002  0.00  0.00     0.002 A 
ATOM      4  C5  UNL d   1      -4.110  -0.392   0.893  0.00  0.00    -0.004 A 
ATOM      5  C6  UNL d   1      -2.864   0.221   0.764  0.00  0.00     0.002 A 
ATOM      6  C7  UNL d   1      -2.414   1.101   1.749  0.00  0.00     0.002 A 
ENDROOT
BRANCH   1   7
ATOM      7  C1  UNL d   1      -2.700   2.289   3.957  0.00  0.00     0.055 C 
ATOM      8  C   UNL d   1      -3.726   3.357   4.309  0.00  0.00     0.019 C 
ENDBRANCH   1   7
TORSDOF 1
ENDMDL
