MODEL 1
REMARK minimizedAffinity -4.66379976
REMARK minimizedRMSD -1
REMARK  1 active torsions:
REMARK  status: ('A' for Active; 'I' for Inactive)
REMARK    1  A    between atoms: C1_2  and  C2_3 
ROOT
ATOM      1  C2  UNL d   1       1.037   0.186  -1.201  0.00  0.00    -0.077 A 
ATOM      2  C3  UNL d   1       0.913   1.313  -0.376  0.00  0.00     0.002 A 
ATOM      3  C4  UNL d   1       0.056   1.291   0.726  0.00  0.00     0.002 A 
ATOM      4  C5  UNL d   1      -0.681   0.145   1.015  0.00  0.00    -0.004 A 
ATOM      5  C6  UNL d   1      -0.567  -0.981   0.199  0.00  0.00     0.002 A 
ATOM      6  C7  UNL d   1       0.289  -0.961  -0.903  0.00  0.00     0.002 A 
ENDROOT
BRANCH   1   7
ATOM      7  C1  UNL d   1       1.998   0.190  -2.361  0.00  0.00     0.055 C 
ATOM      8  C   UNL d   1       3.433   0.374  -1.889  0.00  0.00     0.019 C 
ENDBRANCH   1   7
TORSDOF 1
ENDMDL
