MODEL 1
REMARK minimizedAffinity -3.85654306
REMARK minimizedRMSD -1
REMARK  1 active torsions:
REMARK  status: ('A' for Active; 'I' for Inactive)
REMARK    1  A    between atoms: C1_2  and  C2_3 
ROOT
ATOM      1  C2  UNL d   1      -0.612  -0.422   0.601  0.00  0.00    -0.077 A 
ATOM      2  C3  UNL d   1      -0.216   0.253  -0.562  0.00  0.00     0.002 A 
ATOM      3  C4  UNL d   1       0.497  -0.417  -1.559  0.00  0.00     0.002 A 
ATOM      4  C5  UNL d   1       0.816  -1.764  -1.404  0.00  0.00    -0.004 A 
ATOM      5  C6  UNL d   1       0.428  -2.443  -0.250  0.00  0.00     0.002 A 
ATOM      6  C7  UNL d   1      -0.283  -1.776   0.748  0.00  0.00     0.002 A 
ENDROOT
BRANCH   1   7
ATOM      7  C1  UNL d   1      -1.423   0.285   1.655  0.00  0.00     0.055 C 
ATOM      8  C   UNL d   1      -2.890  -0.115   1.586  0.00  0.00     0.019 C 
ENDBRANCH   1   7
TORSDOF 1
ENDMDL
