MODEL 1
REMARK minimizedAffinity -1.87835431
REMARK minimizedRMSD -1
REMARK  1 active torsions:
REMARK  status: ('A' for Active; 'I' for Inactive)
REMARK    1  A    between atoms: C1_2  and  C2_3 
ROOT
ATOM      1  C2  UNL d   1       1.974   0.874  -1.018  0.00  0.00    -0.077 A 
ATOM      2  C3  UNL d   1       0.929   0.623  -0.118  0.00  0.00     0.002 A 
ATOM      3  C4  UNL d   1      -0.065  -0.307  -0.432  0.00  0.00     0.002 A 
ATOM      4  C5  UNL d   1      -0.020  -0.995  -1.643  0.00  0.00    -0.004 A 
ATOM      5  C6  UNL d   1       1.014  -0.750  -2.545  0.00  0.00     0.002 A 
ATOM      6  C7  UNL d   1       2.008   0.180  -2.234  0.00  0.00     0.002 A 
ENDROOT
BRANCH   1   7
ATOM      7  C1  UNL d   1       3.073   1.841  -0.660  0.00  0.00     0.055 C 
ATOM      8  C   UNL d   1       4.435   1.161  -0.678  0.00  0.00     0.019 C 
ENDBRANCH   1   7
TORSDOF 1
ENDMDL
