MODEL 1
REMARK minimizedAffinity 4.31263065
REMARK minimizedRMSD -1
REMARK  1 active torsions:
REMARK  status: ('A' for Active; 'I' for Inactive)
REMARK    1  A    between atoms: C1_2  and  C2_3 
ROOT
ATOM      1  C2  UNL d   1       0.408   1.084   1.499  0.00  0.00    -0.077 A 
ATOM      2  C3  UNL d   1       1.440   2.020   1.346  0.00  0.00     0.002 A 
ATOM      3  C4  UNL d   1       2.209   2.409   2.445  0.00  0.00     0.002 A 
ATOM      4  C5  UNL d   1       1.956   1.865   3.702  0.00  0.00    -0.004 A 
ATOM      5  C6  UNL d   1       0.930   0.935   3.865  0.00  0.00     0.002 A 
ATOM      6  C7  UNL d   1       0.160   0.545   2.768  0.00  0.00     0.002 A 
ENDROOT
BRANCH   1   7
ATOM      7  C1  UNL d   1      -0.390   0.626   0.306  0.00  0.00     0.055 C 
ATOM      8  C   UNL d   1       0.076  -0.739  -0.181  0.00  0.00     0.019 C 
ENDBRANCH   1   7
TORSDOF 1
ENDMDL
