MODEL 1
REMARK minimizedAffinity -2.11034131
REMARK minimizedRMSD -1
REMARK  1 active torsions:
REMARK  status: ('A' for Active; 'I' for Inactive)
REMARK    1  A    between atoms: C1_2  and  C2_3 
ROOT
ATOM      1  C2  UNL d   1       0.220   0.520   1.540  0.00  0.00    -0.077 A 
ATOM      2  C3  UNL d   1       0.891   1.459   0.744  0.00  0.00     0.002 A 
ATOM      3  C4  UNL d   1       1.814   2.338   1.314  0.00  0.00     0.002 A 
ATOM      4  C5  UNL d   1       2.077   2.284   2.681  0.00  0.00    -0.004 A 
ATOM      5  C6  UNL d   1       1.414   1.355   3.482  0.00  0.00     0.002 A 
ATOM      6  C7  UNL d   1       0.490   0.476   2.914  0.00  0.00     0.002 A 
ENDROOT
BRANCH   1   7
ATOM      7  C1  UNL d   1      -0.739  -0.462   0.919  0.00  0.00     0.055 C 
ATOM      8  C   UNL d   1      -0.194  -1.016  -0.389  0.00  0.00     0.019 C 
ENDBRANCH   1   7
TORSDOF 1
ENDMDL
