MODEL 1
REMARK minimizedAffinity -1.76037645
REMARK minimizedRMSD -1
REMARK  1 active torsions:
REMARK  status: ('A' for Active; 'I' for Inactive)
REMARK    1  A    between atoms: C1_2  and  C2_3 
ROOT
ATOM      1  C2  UNL d   1      -2.098  -0.117   1.209  0.00  0.00    -0.077 A 
ATOM      2  C3  UNL d   1      -2.882  -1.269   1.355  0.00  0.00     0.002 A 
ATOM      3  C4  UNL d   1      -4.257  -1.165   1.578  0.00  0.00     0.002 A 
ATOM      4  C5  UNL d   1      -4.859   0.089   1.652  0.00  0.00    -0.004 A 
ATOM      5  C6  UNL d   1      -4.087   1.242   1.510  0.00  0.00     0.002 A 
ATOM      6  C7  UNL d   1      -2.713   1.139   1.288  0.00  0.00     0.002 A 
ENDROOT
BRANCH   1   7
ATOM      7  C1  UNL d   1      -0.624  -0.228   0.919  0.00  0.00     0.055 C 
ATOM      8  C   UNL d   1      -0.340  -1.326  -0.095  0.00  0.00     0.019 C 
ENDBRANCH   1   7
TORSDOF 1
ENDMDL
