MODEL 1
REMARK minimizedAffinity -2.65719199
REMARK minimizedRMSD -1
REMARK  1 active torsions:
REMARK  status: ('A' for Active; 'I' for Inactive)
REMARK    1  A    between atoms: C1_2  and  C2_3 
ROOT
ATOM      1  C2  UNL d   1       0.444   0.520   1.121  0.00  0.00    -0.077 A 
ATOM      2  C3  UNL d   1       1.263   1.414   0.417  0.00  0.00     0.002 A 
ATOM      3  C4  UNL d   1       2.222   2.174   1.090  0.00  0.00     0.002 A 
ATOM      4  C5  UNL d   1       2.374   2.043   2.469  0.00  0.00    -0.004 A 
ATOM      5  C6  UNL d   1       1.564   1.158   3.178  0.00  0.00     0.002 A 
ATOM      6  C7  UNL d   1       0.604   0.399   2.507  0.00  0.00     0.002 A 
ENDROOT
BRANCH   1   7
ATOM      7  C1  UNL d   1      -0.557  -0.336   0.390  0.00  0.00     0.055 C 
ATOM      8  C   UNL d   1      -0.014  -0.796  -0.955  0.00  0.00     0.019 C 
ENDBRANCH   1   7
TORSDOF 1
ENDMDL
