MODEL 1
REMARK minimizedAffinity -2.90792918
REMARK minimizedRMSD -1
REMARK  1 active torsions:
REMARK  status: ('A' for Active; 'I' for Inactive)
REMARK    1  A    between atoms: C1_2  and  C2_3 
ROOT
ATOM      1  C2  UNL d   1       2.411   0.828  -1.122  0.00  0.00    -0.077 A 
ATOM      2  C3  UNL d   1       1.431   1.139  -0.169  0.00  0.00     0.002 A 
ATOM      3  C4  UNL d   1       0.153   0.584  -0.262  0.00  0.00     0.002 A 
ATOM      4  C5  UNL d   1      -0.155  -0.289  -1.304  0.00  0.00    -0.004 A 
ATOM      5  C6  UNL d   1       0.812  -0.603  -2.258  0.00  0.00     0.002 A 
ATOM      6  C7  UNL d   1       2.090  -0.048  -2.167  0.00  0.00     0.002 A 
ENDROOT
BRANCH   1   7
ATOM      7  C1  UNL d   1       3.804   1.387  -0.995  0.00  0.00     0.055 C 
ATOM      8  C   UNL d   1       4.844   0.277  -0.948  0.00  0.00     0.019 C 
ENDBRANCH   1   7
TORSDOF 1
ENDMDL
