MODEL 1
REMARK minimizedAffinity -5.14974546
REMARK minimizedRMSD -1
REMARK  1 active torsions:
REMARK  status: ('A' for Active; 'I' for Inactive)
REMARK    1  A    between atoms: C1_2  and  C2_3 
ROOT
ATOM      1  C2  UNL d   1       0.291   0.123  -0.081  0.00  0.00    -0.077 A 
ATOM      2  C3  UNL d   1       0.324  -0.914  -1.024  0.00  0.00     0.002 A 
ATOM      3  C4  UNL d   1       1.130  -0.810  -2.159  0.00  0.00     0.002 A 
ATOM      4  C5  UNL d   1       1.911   0.326  -2.360  0.00  0.00    -0.004 A 
ATOM      5  C6  UNL d   1       1.884   1.363  -1.429  0.00  0.00     0.002 A 
ATOM      6  C7  UNL d   1       1.078   1.262  -0.294  0.00  0.00     0.002 A 
ENDROOT
BRANCH   1   7
ATOM      7  C1  UNL d   1      -0.540  -0.008   1.169  0.00  0.00     0.055 C 
ATOM      8  C   UNL d   1      -1.999  -0.284   0.837  0.00  0.00     0.019 C 
ENDBRANCH   1   7
TORSDOF 1
ENDMDL
