MODEL 1
REMARK minimizedAffinity -5.3945694
REMARK minimizedRMSD -1
REMARK  1 active torsions:
REMARK  status: ('A' for Active; 'I' for Inactive)
REMARK    1  A    between atoms: C1_2  and  C2_3 
ROOT
ATOM      1  C2  UNL d   1      -0.971   0.815   2.633  0.00  0.00    -0.077 A 
ATOM      2  C3  UNL d   1      -1.458   1.717   3.590  0.00  0.00     0.002 A 
ATOM      3  C4  UNL d   1      -2.826   1.977   3.683  0.00  0.00     0.002 A 
ATOM      4  C5  UNL d   1      -3.719   1.337   2.826  0.00  0.00    -0.004 A 
ATOM      5  C6  UNL d   1      -3.244   0.440   1.869  0.00  0.00     0.002 A 
ATOM      6  C7  UNL d   1      -1.877   0.180   1.774  0.00  0.00     0.002 A 
ENDROOT
BRANCH   1   7
ATOM      7  C1  UNL d   1       0.500   0.496   2.564  0.00  0.00     0.055 C 
ATOM      8  C   UNL d   1       1.310   1.424   3.457  0.00  0.00     0.019 C 
ENDBRANCH   1   7
TORSDOF 1
ENDMDL
