MODEL 1
REMARK minimizedAffinity -2.32151103
REMARK minimizedRMSD -1
REMARK  1 active torsions:
REMARK  status: ('A' for Active; 'I' for Inactive)
REMARK    1  A    between atoms: C1_2  and  C2_3 
ROOT
ATOM      1  C2  UNL d   1       0.274   0.308   1.575  0.00  0.00    -0.077 A 
ATOM      2  C3  UNL d   1       1.296   1.132   1.081  0.00  0.00     0.002 A 
ATOM      3  C4  UNL d   1       2.184   1.757   1.958  0.00  0.00     0.002 A 
ATOM      4  C5  UNL d   1       2.062   1.563   3.332  0.00  0.00    -0.004 A 
ATOM      5  C6  UNL d   1       1.049   0.747   3.833  0.00  0.00     0.002 A 
ATOM      6  C7  UNL d   1       0.159   0.122   2.958  0.00  0.00     0.002 A 
ENDROOT
BRANCH   1   7
ATOM      7  C1  UNL d   1      -0.654  -0.407   0.628  0.00  0.00     0.055 C 
ATOM      8  C   UNL d   1       0.052  -0.771  -0.670  0.00  0.00     0.019 C 
ENDBRANCH   1   7
TORSDOF 1
ENDMDL
