MODEL 1
REMARK minimizedAffinity -2.81684422
REMARK minimizedRMSD -1
REMARK  1 active torsions:
REMARK  status: ('A' for Active; 'I' for Inactive)
REMARK    1  A    between atoms: C1_2  and  C2_3 
ROOT
ATOM      1  C2  UNL d   1       1.382   0.947  -0.559  0.00  0.00    -0.077 A 
ATOM      2  C3  UNL d   1       0.212   0.327  -0.098  0.00  0.00     0.002 A 
ATOM      3  C4  UNL d   1      -0.228  -0.867  -0.674  0.00  0.00     0.002 A 
ATOM      4  C5  UNL d   1       0.497  -1.452  -1.709  0.00  0.00    -0.004 A 
ATOM      5  C6  UNL d   1       1.660  -0.842  -2.176  0.00  0.00     0.002 A 
ATOM      6  C7  UNL d   1       2.101   0.352  -1.604  0.00  0.00     0.002 A 
ENDROOT
BRANCH   1   7
ATOM      7  C1  UNL d   1       1.885   2.209   0.093  0.00  0.00     0.055 C 
ATOM      8  C   UNL d   1       2.043   2.030   1.595  0.00  0.00     0.019 C 
ENDBRANCH   1   7
TORSDOF 1
ENDMDL
