MODEL 1
REMARK minimizedAffinity 1.88647425
REMARK minimizedRMSD -1
REMARK  1 active torsions:
REMARK  status: ('A' for Active; 'I' for Inactive)
REMARK    1  A    between atoms: C1_2  and  C2_3 
ROOT
ATOM      1  C2  UNL d   1      -2.662  -3.943  -4.318  0.00  0.00    -0.077 A 
ATOM      2  C3  UNL d   1      -3.346  -2.720  -4.327  0.00  0.00     0.002 A 
ATOM      3  C4  UNL d   1      -4.446  -2.532  -5.166  0.00  0.00     0.002 A 
ATOM      4  C5  UNL d   1      -4.874  -3.564  -5.999  0.00  0.00    -0.004 A 
ATOM      5  C6  UNL d   1      -4.199  -4.783  -5.999  0.00  0.00     0.002 A 
ATOM      6  C7  UNL d   1      -3.098  -4.973  -5.162  0.00  0.00     0.002 A 
ENDROOT
BRANCH   1   7
ATOM      7  C1  UNL d   1      -1.506  -4.165  -3.378  0.00  0.00     0.055 C 
ATOM      8  C   UNL d   1      -1.874  -5.139  -2.268  0.00  0.00     0.019 C 
ENDBRANCH   1   7
TORSDOF 1
ENDMDL
