MODEL 1
REMARK minimizedAffinity 10.3694773
REMARK minimizedRMSD -1
REMARK  1 active torsions:
REMARK  status: ('A' for Active; 'I' for Inactive)
REMARK    1  A    between atoms: C1_2  and  C2_3 
ROOT
ATOM      1  C2  UNL d   1       2.186  -2.911  -1.921  0.00  0.00    -0.077 A 
ATOM      2  C3  UNL d   1       3.085  -2.806  -0.851  0.00  0.00     0.002 A 
ATOM      3  C4  UNL d   1       3.438  -3.936  -0.111  0.00  0.00     0.002 A 
ATOM      4  C5  UNL d   1       2.900  -5.180  -0.436  0.00  0.00    -0.004 A 
ATOM      5  C6  UNL d   1       2.004  -5.294  -1.498  0.00  0.00     0.002 A 
ATOM      6  C7  UNL d   1       1.649  -4.165  -2.238  0.00  0.00     0.002 A 
ENDROOT
BRANCH   1   7
ATOM      7  C1  UNL d   1       1.843  -1.702  -2.751  0.00  0.00     0.055 C 
ATOM      8  C   UNL d   1       1.519  -0.502  -1.874  0.00  0.00     0.019 C 
ENDBRANCH   1   7
TORSDOF 1
ENDMDL
