MODEL 1
REMARK minimizedAffinity 9.44091988
REMARK minimizedRMSD -1
REMARK  1 active torsions:
REMARK  status: ('A' for Active; 'I' for Inactive)
REMARK    1  A    between atoms: C1_2  and  C2_3 
ROOT
ATOM      1  C2  UNL d   1       3.259  -0.379  -0.218  0.00  0.00    -0.077 A 
ATOM      2  C3  UNL d   1       3.710  -1.628   0.231  0.00  0.00     0.002 A 
ATOM      3  C4  UNL d   1       3.397  -2.789  -0.479  0.00  0.00     0.002 A 
ATOM      4  C5  UNL d   1       2.636  -2.712  -1.643  0.00  0.00    -0.004 A 
ATOM      5  C6  UNL d   1       2.182  -1.475  -2.097  0.00  0.00     0.002 A 
ATOM      6  C7  UNL d   1       2.492  -0.313  -1.388  0.00  0.00     0.002 A 
ENDROOT
BRANCH   1   7
ATOM      7  C1  UNL d   1       3.637   0.879   0.519  0.00  0.00     0.055 C 
ATOM      8  C   UNL d   1       5.144   1.090   0.518  0.00  0.00     0.019 C 
ENDBRANCH   1   7
TORSDOF 1
ENDMDL
