MODEL 1
REMARK minimizedAffinity 4.6265645
REMARK minimizedRMSD -1
REMARK  1 active torsions:
REMARK  status: ('A' for Active; 'I' for Inactive)
REMARK    1  A    between atoms: C1_2  and  C2_3 
ROOT
ATOM      1  C2  UNL d   1      -2.870  -4.637  -5.956  0.00  0.00    -0.077 A 
ATOM      2  C3  UNL d   1      -4.038  -5.412  -5.966  0.00  0.00     0.002 A 
ATOM      3  C4  UNL d   1      -5.292  -4.798  -5.982  0.00  0.00     0.002 A 
ATOM      4  C5  UNL d   1      -5.389  -3.408  -5.991  0.00  0.00    -0.004 A 
ATOM      5  C6  UNL d   1      -4.233  -2.629  -5.979  0.00  0.00     0.002 A 
ATOM      6  C7  UNL d   1      -2.979  -3.241  -5.963  0.00  0.00     0.002 A 
ENDROOT
BRANCH   1   7
ATOM      7  C1  UNL d   1      -1.516  -5.297  -5.990  0.00  0.00     0.055 C 
ATOM      8  C   UNL d   1      -0.979  -5.531  -4.585  0.00  0.00     0.019 C 
ENDBRANCH   1   7
TORSDOF 1
ENDMDL
