MODEL 1
REMARK minimizedAffinity 13.4949636
REMARK minimizedRMSD -1
REMARK  1 active torsions:
REMARK  status: ('A' for Active; 'I' for Inactive)
REMARK    1  A    between atoms: C1_2  and  C2_3 
ROOT
ATOM      1  C2  UNL d   1       2.486  -1.877  -0.363  0.00  0.00    -0.077 A 
ATOM      2  C3  UNL d   1       3.750  -2.466  -0.222  0.00  0.00     0.002 A 
ATOM      3  C4  UNL d   1       3.867  -3.829   0.057  0.00  0.00     0.002 A 
ATOM      4  C5  UNL d   1       2.725  -4.615   0.192  0.00  0.00    -0.004 A 
ATOM      5  C6  UNL d   1       1.463  -4.038   0.056  0.00  0.00     0.002 A 
ATOM      6  C7  UNL d   1       1.344  -2.675  -0.221  0.00  0.00     0.002 A 
ENDROOT
BRANCH   1   7
ATOM      7  C1  UNL d   1       2.359  -0.417  -0.712  0.00  0.00     0.055 C 
ATOM      8  C   UNL d   1       1.776  -0.230  -2.106  0.00  0.00     0.019 C 
ENDBRANCH   1   7
TORSDOF 1
ENDMDL
