MODEL 1
REMARK minimizedAffinity 5.12132788
REMARK minimizedRMSD -1
REMARK  1 active torsions:
REMARK  status: ('A' for Active; 'I' for Inactive)
REMARK    1  A    between atoms: C1_2  and  C2_3 
ROOT
ATOM      1  C2  UNL d   1      -1.901  -5.024  -3.914  0.00  0.00    -0.077 A 
ATOM      2  C3  UNL d   1      -2.116  -5.931  -4.962  0.00  0.00     0.002 A 
ATOM      3  C4  UNL d   1      -2.997  -5.617  -5.999  0.00  0.00     0.002 A 
ATOM      4  C5  UNL d   1      -3.667  -4.396  -6.000  0.00  0.00    -0.004 A 
ATOM      5  C6  UNL d   1      -3.462  -3.488  -4.961  0.00  0.00     0.002 A 
ATOM      6  C7  UNL d   1      -2.583  -3.800  -3.924  0.00  0.00     0.002 A 
ENDROOT
BRANCH   1   7
ATOM      7  C1  UNL d   1      -0.914  -5.340  -2.821  0.00  0.00     0.055 C 
ATOM      8  C   UNL d   1       0.338  -5.999  -3.380  0.00  0.00     0.019 C 
ENDBRANCH   1   7
TORSDOF 1
ENDMDL
