MODEL 1
REMARK minimizedAffinity 4.37395668
REMARK minimizedRMSD -1
REMARK  1 active torsions:
REMARK  status: ('A' for Active; 'I' for Inactive)
REMARK    1  A    between atoms: C1_2  and  C2_3 
ROOT
ATOM      1  C2  UNL d   1      -3.609   5.066  -5.252  0.00  0.00    -0.077 A 
ATOM      2  C3  UNL d   1      -3.403   3.704  -4.991  0.00  0.00     0.002 A 
ATOM      3  C4  UNL d   1      -2.290   3.286  -4.259  0.00  0.00     0.002 A 
ATOM      4  C5  UNL d   1      -1.378   4.223  -3.778  0.00  0.00    -0.004 A 
ATOM      5  C6  UNL d   1      -1.573   5.580  -4.034  0.00  0.00     0.002 A 
ATOM      6  C7  UNL d   1      -2.684   5.999  -4.767  0.00  0.00     0.002 A 
ENDROOT
BRANCH   1   7
ATOM      7  C1  UNL d   1      -4.835   5.523  -6.000  0.00  0.00     0.055 C 
ATOM      8  C   UNL d   1      -5.917   4.453  -5.994  0.00  0.00     0.019 C 
ENDBRANCH   1   7
TORSDOF 1
ENDMDL
