MODEL 1
REMARK minimizedAffinity 6.22499752
REMARK minimizedRMSD -1
REMARK  1 active torsions:
REMARK  status: ('A' for Active; 'I' for Inactive)
REMARK    1  A    between atoms: C1_2  and  C2_3 
ROOT
ATOM      1  C2  UNL d   1       3.041  -0.793  -0.715  0.00  0.00    -0.077 A 
ATOM      2  C3  UNL d   1       4.001   0.223  -0.607  0.00  0.00     0.002 A 
ATOM      3  C4  UNL d   1       5.304  -0.075  -0.205  0.00  0.00     0.002 A 
ATOM      4  C5  UNL d   1       5.660  -1.390   0.089  0.00  0.00    -0.004 A 
ATOM      5  C6  UNL d   1       4.713  -2.407  -0.012  0.00  0.00     0.002 A 
ATOM      6  C7  UNL d   1       3.409  -2.111  -0.413  0.00  0.00     0.002 A 
ENDROOT
BRANCH   1   7
ATOM      7  C1  UNL d   1       1.648  -0.480  -1.196  0.00  0.00     0.055 C 
ATOM      8  C   UNL d   1       1.453  -0.909  -2.643  0.00  0.00     0.019 C 
ENDBRANCH   1   7
TORSDOF 1
ENDMDL
