MODEL 1
REMARK minimizedAffinity 10.4599438
REMARK minimizedRMSD -1
REMARK  1 active torsions:
REMARK  status: ('A' for Active; 'I' for Inactive)
REMARK    1  A    between atoms: C1_2  and  C2_3 
ROOT
ATOM      1  C2  UNL d   1       3.708  -0.511   0.435  0.00  0.00    -0.077 A 
ATOM      2  C3  UNL d   1       2.475  -0.757  -0.186  0.00  0.00     0.002 A 
ATOM      3  C4  UNL d   1       2.109  -2.058  -0.538  0.00  0.00     0.002 A 
ATOM      4  C5  UNL d   1       2.967  -3.122  -0.269  0.00  0.00    -0.004 A 
ATOM      5  C6  UNL d   1       4.196  -2.887   0.346  0.00  0.00     0.002 A 
ATOM      6  C7  UNL d   1       4.564  -1.588   0.697  0.00  0.00     0.002 A 
ENDROOT
BRANCH   1   7
ATOM      7  C1  UNL d   1       4.083   0.884   0.860  0.00  0.00     0.055 C 
ATOM      8  C   UNL d   1       4.212   1.812  -0.339  0.00  0.00     0.019 C 
ENDBRANCH   1   7
TORSDOF 1
ENDMDL
