MODEL 1
REMARK minimizedAffinity 18.8405933
REMARK minimizedRMSD -1
REMARK  1 active torsions:
REMARK  status: ('A' for Active; 'I' for Inactive)
REMARK    1  A    between atoms: C1_2  and  C2_3 
ROOT
ATOM      1  C2  UNL d   1       4.015  -1.219   0.194  0.00  0.00    -0.077 A 
ATOM      2  C3  UNL d   1       4.797  -0.169   0.696  0.00  0.00     0.002 A 
ATOM      3  C4  UNL d   1       4.347   1.149   0.612  0.00  0.00     0.002 A 
ATOM      4  C5  UNL d   1       3.112   1.430   0.031  0.00  0.00    -0.004 A 
ATOM      5  C6  UNL d   1       2.328   0.393  -0.473  0.00  0.00     0.002 A 
ATOM      6  C7  UNL d   1       2.777  -0.925  -0.391  0.00  0.00     0.002 A 
ENDROOT
BRANCH   1   7
ATOM      7  C1  UNL d   1       4.478  -2.647   0.327  0.00  0.00     0.055 C 
ATOM      8  C   UNL d   1       5.996  -2.742   0.301  0.00  0.00     0.019 C 
ENDBRANCH   1   7
TORSDOF 1
ENDMDL
