MODEL 1
REMARK minimizedAffinity 17.912674
REMARK minimizedRMSD -1
REMARK  1 active torsions:
REMARK  status: ('A' for Active; 'I' for Inactive)
REMARK    1  A    between atoms: C1_2  and  C2_3 
ROOT
ATOM      1  C2  UNL d   1      -4.521  -3.834  -5.273  0.00  0.00    -0.077 A 
ATOM      2  C3  UNL d   1      -3.762  -2.863  -5.941  0.00  0.00     0.002 A 
ATOM      3  C4  UNL d   1      -2.632  -2.310  -5.335  0.00  0.00     0.002 A 
ATOM      4  C5  UNL d   1      -2.248  -2.725  -4.062  0.00  0.00    -0.004 A 
ATOM      5  C6  UNL d   1      -2.998  -3.689  -3.388  0.00  0.00     0.002 A 
ATOM      6  C7  UNL d   1      -4.128  -4.242  -3.991  0.00  0.00     0.002 A 
ENDROOT
BRANCH   1   7
ATOM      7  C1  UNL d   1      -5.712  -4.467  -5.944  0.00  0.00     0.055 C 
ATOM      8  C   UNL d   1      -5.576  -5.982  -6.000  0.00  0.00     0.019 C 
ENDBRANCH   1   7
TORSDOF 1
ENDMDL
