MODEL 1
REMARK minimizedAffinity 11.2267475
REMARK minimizedRMSD -1
REMARK  1 active torsions:
REMARK  status: ('A' for Active; 'I' for Inactive)
REMARK    1  A    between atoms: C1_2  and  C2_3 
ROOT
ATOM      1  C2  UNL d   1      -3.540  -4.158  -4.464  0.00  0.00    -0.077 A 
ATOM      2  C3  UNL d   1      -4.097  -2.873  -4.507  0.00  0.00     0.002 A 
ATOM      3  C4  UNL d   1      -5.237  -2.622  -5.273  0.00  0.00     0.002 A 
ATOM      4  C5  UNL d   1      -5.833  -3.653  -5.997  0.00  0.00    -0.004 A 
ATOM      5  C6  UNL d   1      -5.285  -4.935  -5.963  0.00  0.00     0.002 A 
ATOM      6  C7  UNL d   1      -4.144  -5.187  -5.199  0.00  0.00     0.002 A 
ENDROOT
BRANCH   1   7
ATOM      7  C1  UNL d   1      -2.339  -4.442  -3.600  0.00  0.00     0.055 C 
ATOM      8  C   UNL d   1      -2.654  -5.486  -2.539  0.00  0.00     0.019 C 
ENDBRANCH   1   7
TORSDOF 1
ENDMDL
