MODEL 1
REMARK minimizedAffinity -2.7158823
REMARK minimizedRMSD -1
REMARK  3 active torsions:
REMARK  status: ('A' for Active; 'I' for Inactive)
REMARK    1  A    between atoms: C3'_2  and  C2'_3 
REMARK    2  A    between atoms: C2'_3  and  C1'_4 
REMARK    3  A    between atoms: C1'_4  and  C1_5 
ROOT
ATOM      1  C1  N4B d   1       0.543   0.652   0.187  0.00  0.00    -0.075 A 
ATOM      2  C2  N4B d   1       0.450  -0.598   0.837  0.00  0.00     0.002 A 
ATOM      3  C3  N4B d   1       1.288  -0.892   1.884  0.00  0.00     0.002 A 
ATOM      4  C4  N4B d   1       2.237   0.037   2.284  0.00  0.00    -0.004 A 
ATOM      5  C5  N4B d   1       2.304   1.252   1.668  0.00  0.00     0.002 A 
ATOM      6  C6  N4B d   1       1.465   1.562   0.617  0.00  0.00     0.002 A 
ENDROOT
BRANCH   1   7
ATOM      7  C1' N4B d   1      -0.294   0.986  -1.017  0.00  0.00     0.057 C 
BRANCH   7   8
ATOM      8  C2' N4B d   1      -1.574   0.156  -0.983  0.00  0.00     0.009 C 
BRANCH   8   9
ATOM      9  C3' N4B d   1      -2.445   0.403  -2.203  0.00  0.00     0.004 C 
ATOM     10  C4' N4B d   1      -2.926  -0.866  -2.839  0.00  0.00     0.003 C 
ENDBRANCH   8   9
ENDBRANCH   7   8
ENDBRANCH   1   7
TORSDOF 3
ENDMDL
