MODEL 1
REMARK minimizedAffinity 0.0221971199
REMARK minimizedRMSD -1
REMARK  3 active torsions:
REMARK  status: ('A' for Active; 'I' for Inactive)
REMARK    1  A    between atoms: C3'_2  and  C2'_3 
REMARK    2  A    between atoms: C2'_3  and  C1'_4 
REMARK    3  A    between atoms: C1'_4  and  C1_5 
ROOT
ATOM      1  C1  N4B d   1       0.965  -0.168   0.493  0.00  0.00    -0.075 A 
ATOM      2  C2  N4B d   1       0.058  -1.250   0.542  0.00  0.00     0.002 A 
ATOM      3  C3  N4B d   1      -1.235  -1.081   0.111  0.00  0.00     0.002 A 
ATOM      4  C4  N4B d   1      -1.647   0.160  -0.353  0.00  0.00    -0.004 A 
ATOM      5  C5  N4B d   1      -0.758   1.192  -0.420  0.00  0.00     0.002 A 
ATOM      6  C6  N4B d   1       0.546   1.036   0.006  0.00  0.00     0.002 A 
ENDROOT
BRANCH   1   7
ATOM      7  C1' N4B d   1       2.364  -0.281   1.033  0.00  0.00     0.057 C 
BRANCH   7   8
ATOM      8  C2' N4B d   1       2.712   0.994   1.795  0.00  0.00     0.009 C 
BRANCH   8   9
ATOM      9  C3' N4B d   1       2.875   0.740   3.284  0.00  0.00     0.004 C 
ATOM     10  C4' N4B d   1       2.947   2.006   4.085  0.00  0.00     0.003 C 
ENDBRANCH   8   9
ENDBRANCH   7   8
ENDBRANCH   1   7
TORSDOF 3
ENDMDL
