MODEL 1
REMARK minimizedAffinity -2.09146571
REMARK minimizedRMSD -1
REMARK  3 active torsions:
REMARK  status: ('A' for Active; 'I' for Inactive)
REMARK    1  A    between atoms: C3'_2  and  C2'_3 
REMARK    2  A    between atoms: C2'_3  and  C1'_4 
REMARK    3  A    between atoms: C1'_4  and  C1_5 
ROOT
ATOM      1  C1  N4B d   1      -0.902   1.052   0.346  0.00  0.00    -0.075 A 
ATOM      2  C2  N4B d   1      -1.696   1.029   1.513  0.00  0.00     0.002 A 
ATOM      3  C3  N4B d   1      -3.061   0.910   1.413  0.00  0.00     0.002 A 
ATOM      4  C4  N4B d   1      -3.652   0.832   0.161  0.00  0.00    -0.004 A 
ATOM      5  C5  N4B d   1      -2.876   0.829  -0.961  0.00  0.00     0.002 A 
ATOM      6  C6  N4B d   1      -1.503   0.944  -0.875  0.00  0.00     0.002 A 
ENDROOT
BRANCH   1   7
ATOM      7  C1' N4B d   1       0.586   1.267   0.402  0.00  0.00     0.057 C 
BRANCH   7   8
ATOM      8  C2' N4B d   1       0.909   2.241   1.531  0.00  0.00     0.009 C 
BRANCH   8   9
ATOM      9  C3' N4B d   1       2.122   1.799   2.332  0.00  0.00     0.004 C 
ATOM     10  C4' N4B d   1       2.964   0.795   1.605  0.00  0.00     0.003 C 
ENDBRANCH   8   9
ENDBRANCH   7   8
ENDBRANCH   1   7
TORSDOF 3
ENDMDL
