MODEL 1
REMARK minimizedAffinity 1.48341131
REMARK minimizedRMSD -1
REMARK  0 active torsions:
REMARK  status: ('A' for Active; 'I' for Inactive)
ROOT
ATOM      1  C   UNL d   1       1.081   4.746  -1.433  0.00  0.00     0.077 C 
ATOM      2  C1  UNL d   1       0.994   3.330  -0.947  0.00  0.00    -0.074 A 
ATOM      3  C2  UNL d   1       0.712   3.046   0.393  0.00  0.00    -0.005 A 
ATOM      4  C3  UNL d   1       0.625   1.724   0.829  0.00  0.00     0.006 A 
ATOM      5  C4  UNL d   1       0.818   0.674  -0.070  0.00  0.00    -0.005 A 
ATOM      6  C5  UNL d   1       1.100   0.938  -1.414  0.00  0.00    -0.074 A 
ATOM      7  C6  UNL d   1       1.301  -0.178  -2.395  0.00  0.00     0.077 C 
ATOM      8  C7  UNL d   1       1.179   2.270  -1.845  0.00  0.00    -0.001 A 
ENDROOT
TORSDOF 0
ENDMDL
