MODEL 1
REMARK minimizedAffinity -5.74614716
REMARK minimizedRMSD -1
REMARK  0 active torsions:
REMARK  status: ('A' for Active; 'I' for Inactive)
ROOT
ATOM      1  C   UNL d   1       1.113   2.532   1.024  0.00  0.00     0.077 C 
ATOM      2  C1  UNL d   1       1.138   1.529  -0.091  0.00  0.00    -0.074 A 
ATOM      3  C2  UNL d   1       1.229   1.939  -1.425  0.00  0.00    -0.005 A 
ATOM      4  C3  UNL d   1       1.261   0.995  -2.450  0.00  0.00     0.006 A 
ATOM      5  C4  UNL d   1       1.201  -0.368  -2.153  0.00  0.00    -0.005 A 
ATOM      6  C5  UNL d   1       1.110  -0.797  -0.825  0.00  0.00    -0.074 A 
ATOM      7  C6  UNL d   1       1.055  -2.257  -0.488  0.00  0.00     0.077 C 
ATOM      8  C7  UNL d   1       1.086   0.158   0.200  0.00  0.00    -0.001 A 
ENDROOT
TORSDOF 0
ENDMDL
