MODEL 1
REMARK minimizedAffinity -4.28313589
REMARK minimizedRMSD -1
REMARK  0 active torsions:
REMARK  status: ('A' for Active; 'I' for Inactive)
ROOT
ATOM      1  C   UNL d   1       1.612  -0.352  -2.534  0.00  0.00     0.077 C 
ATOM      2  C1  UNL d   1       1.346   0.713  -1.512  0.00  0.00    -0.074 A 
ATOM      3  C2  UNL d   1       0.916   0.380  -0.224  0.00  0.00    -0.005 A 
ATOM      4  C3  UNL d   1       0.681   1.381   0.719  0.00  0.00     0.006 A 
ATOM      5  C4  UNL d   1       0.874   2.722   0.384  0.00  0.00    -0.005 A 
ATOM      6  C5  UNL d   1       1.305   3.073  -0.899  0.00  0.00    -0.074 A 
ATOM      7  C6  UNL d   1       1.527   4.508  -1.273  0.00  0.00     0.077 C 
ATOM      8  C7  UNL d   1       1.545   2.061  -1.839  0.00  0.00    -0.001 A 
ENDROOT
TORSDOF 0
ENDMDL
