MODEL 1
REMARK minimizedAffinity -0.554227293
REMARK minimizedRMSD -1
REMARK  0 active torsions:
REMARK  status: ('A' for Active; 'I' for Inactive)
ROOT
ATOM      1  C   UNL d   1       2.267   4.459  -1.243  0.00  0.00     0.077 C 
ATOM      2  C1  UNL d   1       1.852   3.037  -1.007  0.00  0.00    -0.074 A 
ATOM      3  C2  UNL d   1       1.667   2.155  -2.077  0.00  0.00    -0.005 A 
ATOM      4  C3  UNL d   1       1.290   0.833  -1.841  0.00  0.00     0.006 A 
ATOM      5  C4  UNL d   1       1.096   0.379  -0.536  0.00  0.00    -0.005 A 
ATOM      6  C5  UNL d   1       1.278   1.246   0.546  0.00  0.00    -0.074 A 
ATOM      7  C6  UNL d   1       1.083   0.772   1.956  0.00  0.00     0.077 C 
ATOM      8  C7  UNL d   1       1.663   2.571   0.302  0.00  0.00    -0.001 A 
ENDROOT
TORSDOF 0
ENDMDL
