MODEL 1
REMARK minimizedAffinity 0.929064512
REMARK minimizedRMSD -1
REMARK  0 active torsions:
REMARK  status: ('A' for Active; 'I' for Inactive)
ROOT
ATOM      1  C   UNL d   1       2.162   3.551  -2.186  0.00  0.00     0.077 C 
ATOM      2  C1  UNL d   1       1.768   2.196  -1.679  0.00  0.00    -0.074 A 
ATOM      3  C2  UNL d   1       1.260   1.224  -2.547  0.00  0.00    -0.005 A 
ATOM      4  C3  UNL d   1       0.907  -0.036  -2.063  0.00  0.00     0.006 A 
ATOM      5  C4  UNL d   1       1.058  -0.335  -0.708  0.00  0.00    -0.005 A 
ATOM      6  C5  UNL d   1       1.565   0.623   0.174  0.00  0.00    -0.074 A 
ATOM      7  C6  UNL d   1       1.742   0.314   1.631  0.00  0.00     0.077 C 
ATOM      8  C7  UNL d   1       1.924   1.884  -0.321  0.00  0.00    -0.001 A 
ENDROOT
TORSDOF 0
ENDMDL
