MODEL 1
REMARK minimizedAffinity -2.37295604
REMARK minimizedRMSD -1
REMARK  0 active torsions:
REMARK  status: ('A' for Active; 'I' for Inactive)
ROOT
ATOM      1  C   UNL d   1       1.427   1.243   1.953  0.00  0.00     0.077 C 
ATOM      2  C1  UNL d   1       1.340   1.309   0.457  0.00  0.00    -0.074 A 
ATOM      3  C2  UNL d   1       1.043   0.169  -0.297  0.00  0.00    -0.005 A 
ATOM      4  C3  UNL d   1       0.956   0.248  -1.687  0.00  0.00     0.006 A 
ATOM      5  C4  UNL d   1       1.165   1.466  -2.336  0.00  0.00    -0.005 A 
ATOM      6  C5  UNL d   1       1.461   2.617  -1.598  0.00  0.00    -0.074 A 
ATOM      7  C6  UNL d   1       1.678   3.935  -2.279  0.00  0.00     0.077 C 
ATOM      8  C7  UNL d   1       1.540   2.530  -0.201  0.00  0.00    -0.001 A 
ENDROOT
TORSDOF 0
ENDMDL
