MODEL 1
REMARK minimizedAffinity 2.88437176
REMARK minimizedRMSD -1
REMARK  0 active torsions:
REMARK  status: ('A' for Active; 'I' for Inactive)
ROOT
ATOM      1  C   UNL d   1       1.776   3.795   2.317  0.00  0.00     0.077 C 
ATOM      2  C1  UNL d   1       1.710   4.016   0.835  0.00  0.00    -0.074 A 
ATOM      3  C2  UNL d   1       1.863   5.296   0.291  0.00  0.00    -0.005 A 
ATOM      4  C3  UNL d   1       1.809   5.484  -1.090  0.00  0.00     0.006 A 
ATOM      5  C4  UNL d   1       1.600   4.397  -1.939  0.00  0.00    -0.005 A 
ATOM      6  C5  UNL d   1       1.446   3.110  -1.414  0.00  0.00    -0.074 A 
ATOM      7  C6  UNL d   1       1.231   1.930  -2.314  0.00  0.00     0.077 C 
ATOM      8  C7  UNL d   1       1.509   2.928  -0.026  0.00  0.00    -0.001 A 
ENDROOT
TORSDOF 0
ENDMDL
