MODEL 1
REMARK minimizedAffinity -2.32773113
REMARK minimizedRMSD -1
REMARK  0 active torsions:
REMARK  status: ('A' for Active; 'I' for Inactive)
ROOT
ATOM      1  C   UNL d   1       1.547   3.689  -2.203  0.00  0.00     0.077 C 
ATOM      2  C1  UNL d   1       1.393   2.633  -1.149  0.00  0.00    -0.074 A 
ATOM      3  C2  UNL d   1       1.341   2.973   0.206  0.00  0.00    -0.005 A 
ATOM      4  C3  UNL d   1       1.188   1.980   1.174  0.00  0.00     0.006 A 
ATOM      5  C4  UNL d   1       1.085   0.641   0.797  0.00  0.00    -0.005 A 
ATOM      6  C5  UNL d   1       1.134   0.282  -0.553  0.00  0.00    -0.074 A 
ATOM      7  C6  UNL d   1       1.016  -1.152  -0.976  0.00  0.00     0.077 C 
ATOM      8  C7  UNL d   1       1.281   1.286  -1.521  0.00  0.00    -0.001 A 
ENDROOT
TORSDOF 0
ENDMDL
