MODEL 1
REMARK minimizedAffinity -2.91638231
REMARK minimizedRMSD -1
REMARK  0 active torsions:
REMARK  status: ('A' for Active; 'I' for Inactive)
ROOT
ATOM      1  C   UNL d   1       1.056  -1.865  -1.475  0.00  0.00     0.077 C 
ATOM      2  C1  UNL d   1       1.220  -0.495  -0.888  0.00  0.00    -0.074 A 
ATOM      3  C2  UNL d   1       1.420  -0.321   0.485  0.00  0.00    -0.005 A 
ATOM      4  C3  UNL d   1       1.580   0.959   1.016  0.00  0.00     0.006 A 
ATOM      5  C4  UNL d   1       1.543   2.076   0.180  0.00  0.00    -0.005 A 
ATOM      6  C5  UNL d   1       1.345   1.921  -1.195  0.00  0.00    -0.074 A 
ATOM      7  C6  UNL d   1       1.312   3.110  -2.109  0.00  0.00     0.077 C 
ATOM      8  C7  UNL d   1       1.192   0.631  -1.722  0.00  0.00    -0.001 A 
ENDROOT
TORSDOF 0
ENDMDL
