MODEL 1
REMARK minimizedAffinity -2.31826329
REMARK minimizedRMSD -1
REMARK  0 active torsions:
REMARK  status: ('A' for Active; 'I' for Inactive)
ROOT
ATOM      1  C   UNL d   1       1.390  -0.422  -2.254  0.00  0.00     0.077 C 
ATOM      2  C1  UNL d   1       1.174   0.631  -1.208  0.00  0.00    -0.074 A 
ATOM      3  C2  UNL d   1       0.872   0.283   0.112  0.00  0.00    -0.005 A 
ATOM      4  C3  UNL d   1       0.683   1.274   1.075  0.00  0.00     0.006 A 
ATOM      5  C4  UNL d   1       0.795   2.621   0.729  0.00  0.00    -0.005 A 
ATOM      6  C5  UNL d   1       1.097   2.988  -0.586  0.00  0.00    -0.074 A 
ATOM      7  C6  UNL d   1       1.231   4.431  -0.973  0.00  0.00     0.077 C 
ATOM      8  C7  UNL d   1       1.292   1.987  -1.547  0.00  0.00    -0.001 A 
ENDROOT
TORSDOF 0
ENDMDL
