MODEL 1
REMARK minimizedAffinity -0.947992325
REMARK minimizedRMSD -1
REMARK  0 active torsions:
REMARK  status: ('A' for Active; 'I' for Inactive)
ROOT
ATOM      1  C   UNL d   1       0.916  -1.495  -1.887  0.00  0.00     0.077 C 
ATOM      2  C1  UNL d   1       1.115  -0.216  -1.128  0.00  0.00    -0.074 A 
ATOM      3  C2  UNL d   1       1.335  -0.227   0.253  0.00  0.00    -0.005 A 
ATOM      4  C3  UNL d   1       1.528   0.970   0.944  0.00  0.00     0.006 A 
ATOM      5  C4  UNL d   1       1.504   2.186   0.261  0.00  0.00    -0.005 A 
ATOM      6  C5  UNL d   1       1.286   2.217  -1.120  0.00  0.00    -0.074 A 
ATOM      7  C6  UNL d   1       1.267   3.515  -1.870  0.00  0.00     0.077 C 
ATOM      8  C7  UNL d   1       1.100   1.010  -1.808  0.00  0.00    -0.001 A 
ENDROOT
TORSDOF 0
ENDMDL
