MODEL 1
REMARK minimizedAffinity 2.32730746
REMARK minimizedRMSD -1
REMARK  0 active torsions:
REMARK  status: ('A' for Active; 'I' for Inactive)
ROOT
ATOM      1  C   UNL d   1       1.481   1.687   2.487  0.00  0.00     0.077 C 
ATOM      2  C1  UNL d   1       1.399   1.362   1.025  0.00  0.00    -0.074 A 
ATOM      3  C2  UNL d   1       2.220   2.012   0.098  0.00  0.00    -0.005 A 
ATOM      4  C3  UNL d   1       2.140   1.692  -1.258  0.00  0.00     0.006 A 
ATOM      5  C4  UNL d   1       1.239   0.722  -1.698  0.00  0.00    -0.005 A 
ATOM      6  C5  UNL d   1       0.411   0.061  -0.785  0.00  0.00    -0.074 A 
ATOM      7  C6  UNL d   1      -0.555  -0.992  -1.241  0.00  0.00     0.077 C 
ATOM      8  C7  UNL d   1       0.503   0.383   0.576  0.00  0.00    -0.001 A 
ENDROOT
TORSDOF 0
ENDMDL
