MODEL 1
REMARK minimizedAffinity 3.05002952
REMARK minimizedRMSD -1
REMARK  0 active torsions:
REMARK  status: ('A' for Active; 'I' for Inactive)
ROOT
ATOM      1  C   UNL d   1      -4.504   1.713   1.486  0.00  0.00     0.077 C 
ATOM      2  C1  UNL d   1      -3.637   2.475   2.443  0.00  0.00    -0.074 A 
ATOM      3  C2  UNL d   1      -3.080   3.707   2.083  0.00  0.00    -0.005 A 
ATOM      4  C3  UNL d   1      -2.283   4.409   2.987  0.00  0.00     0.006 A 
ATOM      5  C4  UNL d   1      -2.034   3.887   4.258  0.00  0.00    -0.005 A 
ATOM      6  C5  UNL d   1      -2.583   2.657   4.635  0.00  0.00    -0.074 A 
ATOM      7  C6  UNL d   1      -2.334   2.087   6.000  0.00  0.00     0.077 C 
ATOM      8  C7  UNL d   1      -3.389   1.961   3.723  0.00  0.00    -0.001 A 
ENDROOT
TORSDOF 0
ENDMDL
