MODEL 1
REMARK minimizedAffinity -0.0750408322
REMARK minimizedRMSD -1
REMARK  0 active torsions:
REMARK  status: ('A' for Active; 'I' for Inactive)
ROOT
ATOM      1  C   UNL d   1       1.121   1.648  -2.332  0.00  0.00     0.077 C 
ATOM      2  C1  UNL d   1       1.197   0.382  -1.531  0.00  0.00    -0.074 A 
ATOM      3  C2  UNL d   1       1.805   0.363  -0.272  0.00  0.00    -0.005 A 
ATOM      4  C3  UNL d   1       1.858  -0.819   0.465  0.00  0.00     0.006 A 
ATOM      5  C4  UNL d   1       1.306  -1.993  -0.048  0.00  0.00    -0.005 A 
ATOM      6  C5  UNL d   1       0.693  -1.994  -1.305  0.00  0.00    -0.074 A 
ATOM      7  C6  UNL d   1       0.085  -3.244  -1.867  0.00  0.00     0.077 C 
ATOM      8  C7  UNL d   1       0.637  -0.800  -2.037  0.00  0.00    -0.001 A 
ENDROOT
TORSDOF 0
ENDMDL
