MODEL 1
REMARK minimizedAffinity 2.14854527
REMARK minimizedRMSD -1
REMARK  0 active torsions:
REMARK  status: ('A' for Active; 'I' for Inactive)
ROOT
ATOM      1  C   UNL d   1       0.988   4.115   1.696  0.00  0.00     0.077 C 
ATOM      2  C1  UNL d   1       1.200   3.718   0.265  0.00  0.00    -0.074 A 
ATOM      3  C2  UNL d   1       1.341   4.686  -0.735  0.00  0.00    -0.005 A 
ATOM      4  C3  UNL d   1       1.547   4.302  -2.061  0.00  0.00     0.006 A 
ATOM      5  C4  UNL d   1       1.613   2.950  -2.398  0.00  0.00    -0.005 A 
ATOM      6  C5  UNL d   1       1.475   1.968  -1.412  0.00  0.00    -0.074 A 
ATOM      7  C6  UNL d   1       1.553   0.511  -1.756  0.00  0.00     0.077 C 
ATOM      8  C7  UNL d   1       1.275   2.362  -0.081  0.00  0.00    -0.001 A 
ENDROOT
TORSDOF 0
ENDMDL
