MODEL 1
REMARK minimizedAffinity -4.32941151
REMARK minimizedRMSD -1
REMARK  0 active torsions:
REMARK  status: ('A' for Active; 'I' for Inactive)
ROOT
ATOM      1  C   UNL d   1       1.761   4.860  -1.589  0.00  0.00     0.077 C 
ATOM      2  C1  UNL d   1       1.444   3.646  -0.767  0.00  0.00    -0.074 A 
ATOM      3  C2  UNL d   1       1.347   3.726   0.626  0.00  0.00    -0.005 A 
ATOM      4  C3  UNL d   1       1.043   2.591   1.377  0.00  0.00     0.006 A 
ATOM      5  C4  UNL d   1       0.833   1.365   0.743  0.00  0.00    -0.005 A 
ATOM      6  C5  UNL d   1       0.924   1.266  -0.648  0.00  0.00    -0.074 A 
ATOM      7  C6  UNL d   1       0.692  -0.042  -1.346  0.00  0.00     0.077 C 
ATOM      8  C7  UNL d   1       1.224   2.413  -1.396  0.00  0.00    -0.001 A 
ENDROOT
TORSDOF 0
ENDMDL
