MODEL 1
REMARK minimizedAffinity 0.610060811
REMARK minimizedRMSD -1
REMARK  0 active torsions:
REMARK  status: ('A' for Active; 'I' for Inactive)
ROOT
ATOM      1  C   UNL d   1      -1.366  -1.441   1.628  0.00  0.00     0.124 A 
ATOM      2  C1  UNL d   1      -1.633  -0.082   1.536  0.00  0.00     0.062 A 
ATOM      3  C2  UNL d   1      -0.871   0.726   0.697  0.00  0.00     0.162 A 
ATOM      4  C3  UNL d   1       0.165   0.177  -0.058  0.00  0.00    -0.034 A 
ATOM      5  C4  UNL d   1       0.428  -1.191   0.040  0.00  0.00     0.162 A 
ATOM      6  C5  UNL d   1      -0.336  -1.994   0.880  0.00  0.00     0.062 A 
ATOM      7  F   UNL d   1      -0.077  -3.307   0.967  0.00  0.00    -0.097 F 
ATOM      8  F1  UNL d   1       1.417  -1.752  -0.672  0.00  0.00    -0.096 F 
ATOM      9  I   UNL d   1       1.307   1.381  -1.314  0.00  0.00    -0.060 I 
ATOM     10  F2  UNL d   1      -1.151   2.036   0.628  0.00  0.00    -0.096 F 
ATOM     11  F3  UNL d   1      -2.627   0.455   2.258  0.00  0.00    -0.097 F 
ATOM     12  F4  UNL d   1      -2.101  -2.215   2.436  0.00  0.00    -0.092 F 
ENDROOT
TORSDOF 0
ENDMDL
