MODEL 1
REMARK minimizedAffinity -4.76316881
REMARK minimizedRMSD -1
REMARK  0 active torsions:
REMARK  status: ('A' for Active; 'I' for Inactive)
ROOT
ATOM      1  C   UNL d   1      -2.187  -1.568   1.461  0.00  0.00     0.124 A 
ATOM      2  C1  UNL d   1      -2.551  -0.244   1.667  0.00  0.00     0.062 A 
ATOM      3  C2  UNL d   1      -1.686   0.785   1.307  0.00  0.00     0.162 A 
ATOM      4  C3  UNL d   1      -0.447   0.494   0.735  0.00  0.00    -0.034 A 
ATOM      5  C4  UNL d   1      -0.087  -0.839   0.531  0.00  0.00     0.162 A 
ATOM      6  C5  UNL d   1      -0.955  -1.864   0.893  0.00  0.00     0.062 A 
ATOM      7  F   UNL d   1      -0.601  -3.142   0.694  0.00  0.00    -0.097 F 
ATOM      8  F1  UNL d   1       1.096  -1.153  -0.016  0.00  0.00    -0.096 F 
ATOM      9  I   UNL d   1       0.850   2.030   0.194  0.00  0.00    -0.060 I 
ATOM     10  F2  UNL d   1      -2.064   2.054   1.517  0.00  0.00    -0.096 F 
ATOM     11  F3  UNL d   1      -3.740   0.044   2.216  0.00  0.00    -0.097 F 
ATOM     12  F4  UNL d   1      -3.021  -2.556   1.810  0.00  0.00    -0.092 F 
ENDROOT
TORSDOF 0
ENDMDL
