MODEL 1
REMARK minimizedAffinity -2.5114572
REMARK minimizedRMSD -1
REMARK  0 active torsions:
REMARK  status: ('A' for Active; 'I' for Inactive)
ROOT
ATOM      1  C   UNL d   1      -1.974  -1.858   1.552  0.00  0.00     0.124 A 
ATOM      2  C1  UNL d   1      -2.114  -0.477   1.544  0.00  0.00     0.062 A 
ATOM      3  C2  UNL d   1      -1.123   0.324   0.985  0.00  0.00     0.162 A 
ATOM      4  C3  UNL d   1       0.018  -0.254   0.427  0.00  0.00    -0.034 A 
ATOM      5  C4  UNL d   1       0.152  -1.643   0.439  0.00  0.00     0.162 A 
ATOM      6  C5  UNL d   1      -0.841  -2.439   1.000  0.00  0.00     0.062 A 
ATOM      7  F   UNL d   1      -0.704  -3.773   1.006  0.00  0.00    -0.097 F 
ATOM      8  F1  UNL d   1       1.236  -2.231  -0.088  0.00  0.00    -0.096 F 
ATOM      9  I   UNL d   1       1.502   0.941  -0.410  0.00  0.00    -0.060 I 
ATOM     10  F2  UNL d   1      -1.285   1.656   0.991  0.00  0.00    -0.096 F 
ATOM     11  F3  UNL d   1      -3.207   0.087   2.077  0.00  0.00    -0.097 F 
ATOM     12  F4  UNL d   1      -2.928  -2.626   2.092  0.00  0.00    -0.092 F 
ENDROOT
TORSDOF 0
ENDMDL
