MODEL 1
REMARK minimizedAffinity -2.96174383
REMARK minimizedRMSD -1
REMARK  0 active torsions:
REMARK  status: ('A' for Active; 'I' for Inactive)
ROOT
ATOM      1  C   UNL d   1       0.722  -1.845   0.401  0.00  0.00     0.124 A 
ATOM      2  C1  UNL d   1       0.033  -2.005   1.596  0.00  0.00     0.062 A 
ATOM      3  C2  UNL d   1      -1.235  -1.455   1.752  0.00  0.00     0.162 A 
ATOM      4  C3  UNL d   1      -1.825  -0.739   0.710  0.00  0.00    -0.034 A 
ATOM      5  C4  UNL d   1      -1.126  -0.581  -0.488  0.00  0.00     0.162 A 
ATOM      6  C5  UNL d   1       0.142  -1.133  -0.639  0.00  0.00     0.062 A 
ATOM      7  F   UNL d   1       0.805  -0.976  -1.794  0.00  0.00    -0.097 F 
ATOM      8  F1  UNL d   1      -1.664   0.102  -1.510  0.00  0.00    -0.096 F 
ATOM      9  I   UNL d   1      -3.722   0.085   0.940  0.00  0.00    -0.060 I 
ATOM     10  F2  UNL d   1      -1.878  -1.626   2.917  0.00  0.00    -0.096 F 
ATOM     11  F3  UNL d   1       0.592  -2.692   2.603  0.00  0.00    -0.097 F 
ATOM     12  F4  UNL d   1       1.943  -2.374   0.254  0.00  0.00    -0.092 F 
ENDROOT
TORSDOF 0
ENDMDL
