MODEL 1
REMARK minimizedAffinity -2.04181862
REMARK minimizedRMSD -1
REMARK  0 active torsions:
REMARK  status: ('A' for Active; 'I' for Inactive)
ROOT
ATOM      1  C   UNL d   1       0.953   1.614   0.209  0.00  0.00     0.124 A 
ATOM      2  C1  UNL d   1      -0.426   1.614   0.369  0.00  0.00     0.062 A 
ATOM      3  C2  UNL d   1      -1.122   0.411   0.445  0.00  0.00     0.162 A 
ATOM      4  C3  UNL d   1      -0.441  -0.803   0.362  0.00  0.00    -0.034 A 
ATOM      5  C4  UNL d   1       0.946  -0.795   0.200  0.00  0.00     0.162 A 
ATOM      6  C5  UNL d   1       1.637   0.410   0.125  0.00  0.00     0.062 A 
ATOM      7  F   UNL d   1       2.969   0.407  -0.030  0.00  0.00    -0.097 F 
ATOM      8  F1  UNL d   1       1.633  -1.944   0.117  0.00  0.00    -0.096 F 
ATOM      9  I   UNL d   1      -1.478  -2.604   0.475  0.00  0.00    -0.060 I 
ATOM     10  F2  UNL d   1      -2.454   0.441   0.599  0.00  0.00    -0.096 F 
ATOM     11  F3  UNL d   1      -1.090   2.776   0.450  0.00  0.00    -0.097 F 
ATOM     12  F4  UNL d   1       1.620   2.773   0.135  0.00  0.00    -0.092 F 
ENDROOT
TORSDOF 0
ENDMDL
