MODEL 1
REMARK minimizedAffinity 1.4493854
REMARK minimizedRMSD -1
REMARK  0 active torsions:
REMARK  status: ('A' for Active; 'I' for Inactive)
ROOT
ATOM      1  C   UNL d   1       2.543   2.168  -3.496  0.00  0.00     0.124 A 
ATOM      2  C1  UNL d   1       2.744   1.870  -2.156  0.00  0.00     0.062 A 
ATOM      3  C2  UNL d   1       1.655   1.675  -1.311  0.00  0.00     0.162 A 
ATOM      4  C3  UNL d   1       0.355   1.775  -1.805  0.00  0.00    -0.034 A 
ATOM      5  C4  UNL d   1       0.160   2.076  -3.154  0.00  0.00     0.162 A 
ATOM      6  C5  UNL d   1       1.252   2.271  -3.994  0.00  0.00     0.062 A 
ATOM      7  F   UNL d   1       1.055   2.559  -5.289  0.00  0.00    -0.097 F 
ATOM      8  F1  UNL d   1      -1.077   2.181  -3.662  0.00  0.00    -0.096 F 
ATOM      9  I   UNL d   1      -1.276   1.483  -0.545  0.00  0.00    -0.060 I 
ATOM     10  F2  UNL d   1       1.879   1.388  -0.020  0.00  0.00    -0.096 F 
ATOM     11  F3  UNL d   1       3.991   1.771  -1.672  0.00  0.00    -0.097 F 
ATOM     12  F4  UNL d   1       3.593   2.357  -4.307  0.00  0.00    -0.092 F 
ENDROOT
TORSDOF 0
ENDMDL
