MODEL 1
REMARK minimizedAffinity -0.449548066
REMARK minimizedRMSD -1
REMARK  0 active torsions:
REMARK  status: ('A' for Active; 'I' for Inactive)
ROOT
ATOM      1  C   UNL d   1       0.969   2.531  -3.894  0.00  0.00     0.124 A 
ATOM      2  C1  UNL d   1       1.865   3.164  -4.744  0.00  0.00     0.062 A 
ATOM      3  C2  UNL d   1       3.195   3.326  -4.364  0.00  0.00     0.162 A 
ATOM      4  C3  UNL d   1       3.636   2.853  -3.129  0.00  0.00    -0.034 A 
ATOM      5  C4  UNL d   1       2.728   2.219  -2.279  0.00  0.00     0.162 A 
ATOM      6  C5  UNL d   1       1.401   2.060  -2.663  0.00  0.00     0.062 A 
ATOM      7  F   UNL d   1       0.536   1.448  -1.840  0.00  0.00    -0.097 F 
ATOM      8  F1  UNL d   1       3.119   1.753  -1.083  0.00  0.00    -0.096 F 
ATOM      9  I   UNL d   1       5.623   3.094  -2.557  0.00  0.00    -0.060 I 
ATOM     10  F2  UNL d   1       4.039   3.941  -5.206  0.00  0.00    -0.096 F 
ATOM     11  F3  UNL d   1       1.450   3.621  -5.934  0.00  0.00    -0.097 F 
ATOM     12  F4  UNL d   1      -0.310   2.377  -4.261  0.00  0.00    -0.092 F 
ENDROOT
TORSDOF 0
ENDMDL
