MODEL 1
REMARK minimizedAffinity -0.766067803
REMARK minimizedRMSD -1
REMARK  0 active torsions:
REMARK  status: ('A' for Active; 'I' for Inactive)
ROOT
ATOM      1  C   UNL d   1      -1.430  -2.265   1.343  0.00  0.00     0.124 A 
ATOM      2  C1  UNL d   1      -0.143  -2.391   0.837  0.00  0.00     0.062 A 
ATOM      3  C2  UNL d   1       0.474  -1.308   0.218  0.00  0.00     0.162 A 
ATOM      4  C3  UNL d   1      -0.194  -0.089   0.102  0.00  0.00    -0.034 A 
ATOM      5  C4  UNL d   1      -1.488   0.030   0.613  0.00  0.00     0.162 A 
ATOM      6  C5  UNL d   1      -2.101  -1.056   1.230  0.00  0.00     0.062 A 
ATOM      7  F   UNL d   1      -3.344  -0.933   1.718  0.00  0.00    -0.097 F 
ATOM      8  F1  UNL d   1      -2.159   1.187   0.518  0.00  0.00    -0.096 F 
ATOM      9  I   UNL d   1       0.726   1.533  -0.822  0.00  0.00    -0.060 I 
ATOM     10  F2  UNL d   1       1.718  -1.457  -0.261  0.00  0.00    -0.096 F 
ATOM     11  F3  UNL d   1       0.507  -3.559   0.944  0.00  0.00    -0.097 F 
ATOM     12  F4  UNL d   1      -2.022  -3.309   1.937  0.00  0.00    -0.092 F 
ENDROOT
TORSDOF 0
ENDMDL
