MODEL 1
REMARK minimizedAffinity -2.30495644
REMARK minimizedRMSD -1
REMARK  0 active torsions:
REMARK  status: ('A' for Active; 'I' for Inactive)
ROOT
ATOM      1  C   UNL d   1       0.417   0.573   0.116  0.00  0.00     0.124 A 
ATOM      2  C1  UNL d   1      -0.882   0.956   0.418  0.00  0.00     0.062 A 
ATOM      3  C2  UNL d   1      -1.775   0.038   0.962  0.00  0.00     0.162 A 
ATOM      4  C3  UNL d   1      -1.371  -1.274   1.209  0.00  0.00    -0.034 A 
ATOM      5  C4  UNL d   1      -0.063  -1.653   0.902  0.00  0.00     0.162 A 
ATOM      6  C5  UNL d   1       0.825  -0.731   0.358  0.00  0.00     0.062 A 
ATOM      7  F   UNL d   1       2.080  -1.104   0.067  0.00  0.00    -0.097 F 
ATOM      8  F1  UNL d   1       0.358  -2.907   1.127  0.00  0.00    -0.096 F 
ATOM      9  I   UNL d   1      -2.703  -2.651   2.023  0.00  0.00    -0.060 I 
ATOM     10  F2  UNL d   1      -3.024   0.436   1.244  0.00  0.00    -0.096 F 
ATOM     11  F3  UNL d   1      -1.280   2.216   0.184  0.00  0.00    -0.097 F 
ATOM     12  F4  UNL d   1       1.273   1.458  -0.408  0.00  0.00    -0.092 F 
ENDROOT
TORSDOF 0
ENDMDL
