MODEL 1
REMARK minimizedAffinity 0.942714095
REMARK minimizedRMSD -1
REMARK  0 active torsions:
REMARK  status: ('A' for Active; 'I' for Inactive)
ROOT
ATOM      1  C   UNL d   1       1.155   2.055  -3.045  0.00  0.00     0.124 A 
ATOM      2  C1  UNL d   1       1.661   1.697  -1.803  0.00  0.00     0.062 A 
ATOM      3  C2  UNL d   1       3.036   1.673  -1.588  0.00  0.00     0.162 A 
ATOM      4  C3  UNL d   1       3.915   2.010  -2.617  0.00  0.00    -0.034 A 
ATOM      5  C4  UNL d   1       3.398   2.368  -3.863  0.00  0.00     0.162 A 
ATOM      6  C5  UNL d   1       2.023   2.390  -4.073  0.00  0.00     0.062 A 
ATOM      7  F   UNL d   1       1.536   2.736  -5.274  0.00  0.00    -0.097 F 
ATOM      8  F1  UNL d   1       4.215   2.697  -4.875  0.00  0.00    -0.096 F 
ATOM      9  I   UNL d   1       5.971   1.976  -2.299  0.00  0.00    -0.060 I 
ATOM     10  F2  UNL d   1       3.497   1.324  -0.378  0.00  0.00    -0.096 F 
ATOM     11  F3  UNL d   1       0.823   1.372  -0.807  0.00  0.00    -0.097 F 
ATOM     12  F4  UNL d   1      -0.169   2.076  -3.249  0.00  0.00    -0.092 F 
ENDROOT
TORSDOF 0
ENDMDL
