MODEL 1
REMARK minimizedAffinity 2.57084918
REMARK minimizedRMSD -1
REMARK  0 active torsions:
REMARK  status: ('A' for Active; 'I' for Inactive)
ROOT
ATOM      1  C   UNL d   1      -1.102  -0.987   1.352  0.00  0.00     0.124 A 
ATOM      2  C1  UNL d   1      -0.027  -1.556   0.682  0.00  0.00     0.062 A 
ATOM      3  C2  UNL d   1       0.734  -0.792  -0.198  0.00  0.00     0.162 A 
ATOM      4  C3  UNL d   1       0.424   0.551  -0.413  0.00  0.00    -0.034 A 
ATOM      5  C4  UNL d   1      -0.659   1.116   0.263  0.00  0.00     0.162 A 
ATOM      6  C5  UNL d   1      -1.417   0.348   1.141  0.00  0.00     0.062 A 
ATOM      7  F   UNL d   1      -2.454   0.900   1.787  0.00  0.00    -0.097 F 
ATOM      8  F1  UNL d   1      -0.985   2.404   0.079  0.00  0.00    -0.096 F 
ATOM      9  I   UNL d   1       1.559   1.696  -1.728  0.00  0.00    -0.060 I 
ATOM     10  F2  UNL d   1       1.766  -1.368  -0.830  0.00  0.00    -0.096 F 
ATOM     11  F3  UNL d   1       0.278  -2.846   0.883  0.00  0.00    -0.097 F 
ATOM     12  F4  UNL d   1      -1.833  -1.724   2.197  0.00  0.00    -0.092 F 
ENDROOT
TORSDOF 0
ENDMDL
