MODEL 1
REMARK minimizedAffinity 0.70282954
REMARK minimizedRMSD -1
REMARK  0 active torsions:
REMARK  status: ('A' for Active; 'I' for Inactive)
ROOT
ATOM      1  C   UNL d   1      -1.324  -1.356   1.725  0.00  0.00     0.124 A 
ATOM      2  C1  UNL d   1      -0.334  -1.975   0.975  0.00  0.00     0.062 A 
ATOM      3  C2  UNL d   1       0.465  -1.227   0.116  0.00  0.00     0.162 A 
ATOM      4  C3  UNL d   1       0.278   0.151   0.003  0.00  0.00    -0.034 A 
ATOM      5  C4  UNL d   1      -0.721   0.767   0.759  0.00  0.00     0.162 A 
ATOM      6  C5  UNL d   1      -1.517   0.014   1.616  0.00  0.00     0.062 A 
ATOM      7  F   UNL d   1      -2.473   0.614   2.340  0.00  0.00    -0.097 F 
ATOM      8  F1  UNL d   1      -0.928   2.089   0.675  0.00  0.00    -0.096 F 
ATOM      9  I   UNL d   1       1.471   1.274  -1.281  0.00  0.00    -0.060 I 
ATOM     10  F2  UNL d   1       1.414  -1.851  -0.596  0.00  0.00    -0.096 F 
ATOM     11  F3  UNL d   1      -0.147  -3.299   1.077  0.00  0.00    -0.097 F 
ATOM     12  F4  UNL d   1      -2.093  -2.079   2.550  0.00  0.00    -0.092 F 
ENDROOT
TORSDOF 0
ENDMDL
