MODEL 1
REMARK minimizedAffinity -5.15928125
REMARK minimizedRMSD -1
REMARK  0 active torsions:
REMARK  status: ('A' for Active; 'I' for Inactive)
ROOT
ATOM      1  C   UNL d   1      -1.751  -2.103   1.849  0.00  0.00     0.124 A 
ATOM      2  C1  UNL d   1      -0.492  -2.303   1.300  0.00  0.00     0.062 A 
ATOM      3  C2  UNL d   1       0.176  -1.251   0.679  0.00  0.00     0.162 A 
ATOM      4  C3  UNL d   1      -0.413   0.011   0.605  0.00  0.00    -0.034 A 
ATOM      5  C4  UNL d   1      -1.680   0.205   1.159  0.00  0.00     0.162 A 
ATOM      6  C5  UNL d   1      -2.344  -0.850   1.779  0.00  0.00     0.062 A 
ATOM      7  F   UNL d   1      -3.560  -0.654   2.309  0.00  0.00    -0.097 F 
ATOM      8  F1  UNL d   1      -2.275   1.405   1.106  0.00  0.00    -0.096 F 
ATOM      9  I   UNL d   1       0.583   1.586  -0.321  0.00  0.00    -0.060 I 
ATOM     10  F2  UNL d   1       1.391  -1.474   0.157  0.00  0.00    -0.096 F 
ATOM     11  F3  UNL d   1       0.082  -3.513   1.366  0.00  0.00    -0.097 F 
ATOM     12  F4  UNL d   1      -2.392  -3.116   2.445  0.00  0.00    -0.092 F 
ENDROOT
TORSDOF 0
ENDMDL
