MODEL 1
REMARK minimizedAffinity -4.0287652
REMARK minimizedRMSD -1
REMARK  0 active torsions:
REMARK  status: ('A' for Active; 'I' for Inactive)
ROOT
ATOM      1  C   UNL d   1      -2.158  -1.506   1.651  0.00  0.00     0.124 A 
ATOM      2  C1  UNL d   1      -0.920  -1.903   1.164  0.00  0.00     0.062 A 
ATOM      3  C2  UNL d   1      -0.042  -0.961   0.634  0.00  0.00     0.162 A 
ATOM      4  C3  UNL d   1      -0.399   0.386   0.589  0.00  0.00    -0.034 A 
ATOM      5  C4  UNL d   1      -1.646   0.777   1.080  0.00  0.00     0.162 A 
ATOM      6  C5  UNL d   1      -2.520  -0.167   1.609  0.00  0.00     0.062 A 
ATOM      7  F   UNL d   1      -3.715   0.217   2.079  0.00  0.00    -0.097 F 
ATOM      8  F1  UNL d   1      -2.021   2.065   1.052  0.00  0.00    -0.096 F 
ATOM      9  I   UNL d   1       0.910   1.797  -0.203  0.00  0.00    -0.060 I 
ATOM     10  F2  UNL d   1       1.147  -1.373   0.170  0.00  0.00    -0.096 F 
ATOM     11  F3  UNL d   1      -0.568  -3.196   1.203  0.00  0.00    -0.097 F 
ATOM     12  F4  UNL d   1      -3.001  -2.415   2.160  0.00  0.00    -0.092 F 
ENDROOT
TORSDOF 0
ENDMDL
