MODEL 1
REMARK minimizedAffinity -1.17137527
REMARK minimizedRMSD -1
REMARK  0 active torsions:
REMARK  status: ('A' for Active; 'I' for Inactive)
ROOT
ATOM      1  C   UNL d   1      -1.959  -0.963   0.561  0.00  0.00     0.124 A 
ATOM      2  C1  UNL d   1      -1.905   0.407   0.774  0.00  0.00     0.062 A 
ATOM      3  C2  UNL d   1      -0.915   1.172   0.164  0.00  0.00     0.162 A 
ATOM      4  C3  UNL d   1       0.030   0.567  -0.666  0.00  0.00    -0.034 A 
ATOM      5  C4  UNL d   1      -0.031  -0.812  -0.874  0.00  0.00     0.162 A 
ATOM      6  C5  UNL d   1      -1.022  -1.571  -0.262  0.00  0.00     0.062 A 
ATOM      7  F   UNL d   1      -1.073  -2.895  -0.469  0.00  0.00    -0.097 F 
ATOM      8  F1  UNL d   1       0.861  -1.425  -1.667  0.00  0.00    -0.096 F 
ATOM      9  I   UNL d   1       1.512   1.707  -1.580  0.00  0.00    -0.060 I 
ATOM     10  F2  UNL d   1      -0.886   2.494   0.387  0.00  0.00    -0.096 F 
ATOM     11  F3  UNL d   1      -2.808   0.997   1.570  0.00  0.00    -0.097 F 
ATOM     12  F4  UNL d   1      -2.912  -1.696   1.151  0.00  0.00    -0.092 F 
ENDROOT
TORSDOF 0
ENDMDL
