MODEL 1
REMARK minimizedAffinity -0.609767497
REMARK minimizedRMSD -1
REMARK  0 active torsions:
REMARK  status: ('A' for Active; 'I' for Inactive)
ROOT
ATOM      1  C   UNL d   1       1.167   2.120  -1.691  0.00  0.00     0.124 A 
ATOM      2  C1  UNL d   1       1.943   1.572  -0.680  0.00  0.00     0.062 A 
ATOM      3  C2  UNL d   1       1.480   0.474   0.041  0.00  0.00     0.162 A 
ATOM      4  C3  UNL d   1       0.235  -0.083  -0.249  0.00  0.00    -0.034 A 
ATOM      5  C4  UNL d   1      -0.541   0.474  -1.267  0.00  0.00     0.162 A 
ATOM      6  C5  UNL d   1      -0.074   1.571  -1.984  0.00  0.00     0.062 A 
ATOM      7  F   UNL d   1      -0.825   2.099  -2.961  0.00  0.00    -0.097 F 
ATOM      8  F1  UNL d   1      -1.743  -0.037  -1.571  0.00  0.00    -0.096 F 
ATOM      9  I   UNL d   1      -0.460  -1.724   0.827  0.00  0.00    -0.060 I 
ATOM     10  F2  UNL d   1       2.252  -0.035   1.013  0.00  0.00    -0.096 F 
ATOM     11  F3  UNL d   1       3.141   2.101  -0.395  0.00  0.00    -0.097 F 
ATOM     12  F4  UNL d   1       1.614   3.177  -2.382  0.00  0.00    -0.092 F 
ENDROOT
TORSDOF 0
ENDMDL
