MODEL 1
REMARK minimizedAffinity -3.78966761
REMARK minimizedRMSD -1
REMARK  0 active torsions:
REMARK  status: ('A' for Active; 'I' for Inactive)
ROOT
ATOM      1  C   UNL d   1       0.778   0.604   0.299  0.00  0.00     0.078 C 
ATOM      2  C1  UNL d   1      -0.513   0.064  -0.239  0.00  0.00    -0.077 A 
ATOM      3  C2  UNL d   1      -1.146   0.665  -1.334  0.00  0.00    -0.001 A 
ATOM      4  C3  UNL d   1      -2.353   0.158  -1.818  0.00  0.00     0.003 A 
ATOM      5  C4  UNL d   1      -2.938  -0.952  -1.213  0.00  0.00    -0.005 A 
ATOM      6  C5  UNL d   1      -2.317  -1.556  -0.122  0.00  0.00     0.003 A 
ATOM      7  C6  UNL d   1      -1.110  -1.051   0.364  0.00  0.00    -0.001 A 
ENDROOT
TORSDOF 0
ENDMDL
