MODEL 1
REMARK minimizedAffinity -2.16731524
REMARK minimizedRMSD -1
REMARK  0 active torsions:
REMARK  status: ('A' for Active; 'I' for Inactive)
ROOT
ATOM      1  C   UNL d   1      -0.465  -0.767   1.271  0.00  0.00     0.078 C 
ATOM      2  C1  UNL d   1      -1.157  -0.492  -0.031  0.00  0.00    -0.077 A 
ATOM      3  C2  UNL d   1      -2.449  -0.972  -0.277  0.00  0.00    -0.001 A 
ATOM      4  C3  UNL d   1      -3.077  -0.716  -1.497  0.00  0.00     0.003 A 
ATOM      5  C4  UNL d   1      -2.420   0.020  -2.481  0.00  0.00    -0.005 A 
ATOM      6  C5  UNL d   1      -1.134   0.500  -2.246  0.00  0.00     0.003 A 
ATOM      7  C6  UNL d   1      -0.504   0.246  -1.027  0.00  0.00    -0.001 A 
ENDROOT
TORSDOF 0
ENDMDL
