MODEL 1
REMARK minimizedAffinity -5.02156305
REMARK minimizedRMSD -1
REMARK  0 active torsions:
REMARK  status: ('A' for Active; 'I' for Inactive)
ROOT
ATOM      1  C   UNL d   1      -2.361  -1.937  -3.265  0.00  0.00     0.078 C 
ATOM      2  C1  UNL d   1      -2.235  -1.456  -1.850  0.00  0.00    -0.077 A 
ATOM      3  C2  UNL d   1      -3.038  -1.986  -0.834  0.00  0.00    -0.001 A 
ATOM      4  C3  UNL d   1      -2.917  -1.521   0.477  0.00  0.00     0.003 A 
ATOM      5  C4  UNL d   1      -1.994  -0.523   0.783  0.00  0.00    -0.005 A 
ATOM      6  C5  UNL d   1      -1.191   0.012  -0.223  0.00  0.00     0.003 A 
ATOM      7  C6  UNL d   1      -1.311  -0.451  -1.534  0.00  0.00    -0.001 A 
ENDROOT
TORSDOF 0
ENDMDL
