MODEL 1
REMARK minimizedAffinity -4.42665195
REMARK minimizedRMSD -1
REMARK  0 active torsions:
REMARK  status: ('A' for Active; 'I' for Inactive)
ROOT
ATOM      1  C   UNL d   1      -2.887  -1.400  -1.315  0.00  0.00     0.078 C 
ATOM      2  C1  UNL d   1      -1.519  -0.949  -0.897  0.00  0.00    -0.077 A 
ATOM      3  C2  UNL d   1      -0.776  -0.069  -1.693  0.00  0.00    -0.001 A 
ATOM      4  C3  UNL d   1       0.500   0.335  -1.296  0.00  0.00     0.003 A 
ATOM      5  C4  UNL d   1       1.044  -0.138  -0.104  0.00  0.00    -0.005 A 
ATOM      6  C5  UNL d   1       0.313  -1.017   0.693  0.00  0.00     0.003 A 
ATOM      7  C6  UNL d   1      -0.963  -1.421   0.298  0.00  0.00    -0.001 A 
ENDROOT
TORSDOF 0
ENDMDL
