MODEL 1
REMARK minimizedAffinity -4.49893713
REMARK minimizedRMSD -1
REMARK  0 active torsions:
REMARK  status: ('A' for Active; 'I' for Inactive)
ROOT
ATOM      1  C   UNL d   1      -0.923   1.247   0.162  0.00  0.00     0.078 C 
ATOM      2  C1  UNL d   1      -1.512  -0.107   0.425  0.00  0.00    -0.077 A 
ATOM      3  C2  UNL d   1      -2.862  -0.369   0.161  0.00  0.00    -0.001 A 
ATOM      4  C3  UNL d   1      -3.399  -1.632   0.420  0.00  0.00     0.003 A 
ATOM      5  C4  UNL d   1      -2.594  -2.641   0.943  0.00  0.00    -0.005 A 
ATOM      6  C5  UNL d   1      -1.250  -2.389   1.210  0.00  0.00     0.003 A 
ATOM      7  C6  UNL d   1      -0.711  -1.127   0.953  0.00  0.00    -0.001 A 
ENDROOT
TORSDOF 0
ENDMDL
