MODEL 1
REMARK minimizedAffinity -4.7629509
REMARK minimizedRMSD -1
REMARK  0 active torsions:
REMARK  status: ('A' for Active; 'I' for Inactive)
ROOT
ATOM      1  C   UNL d   1      -1.169  -2.807   1.871  0.00  0.00     0.078 C 
ATOM      2  C1  UNL d   1      -1.590  -1.961   0.707  0.00  0.00    -0.077 A 
ATOM      3  C2  UNL d   1      -2.609  -2.380  -0.158  0.00  0.00    -0.001 A 
ATOM      4  C3  UNL d   1      -2.984  -1.586  -1.243  0.00  0.00     0.003 A 
ATOM      5  C4  UNL d   1      -2.346  -0.369  -1.474  0.00  0.00    -0.005 A 
ATOM      6  C5  UNL d   1      -1.330   0.055  -0.620  0.00  0.00     0.003 A 
ATOM      7  C6  UNL d   1      -0.953  -0.737   0.466  0.00  0.00    -0.001 A 
ENDROOT
TORSDOF 0
ENDMDL
