MODEL 1
REMARK minimizedAffinity -4.83538818
REMARK minimizedRMSD -1
REMARK  0 active torsions:
REMARK  status: ('A' for Active; 'I' for Inactive)
ROOT
ATOM      1  C   UNL d   1      -2.591  -2.575   0.662  0.00  0.00     0.078 C 
ATOM      2  C1  UNL d   1      -2.031  -1.442  -0.145  0.00  0.00    -0.077 A 
ATOM      3  C2  UNL d   1      -2.686  -0.981  -1.293  0.00  0.00    -0.001 A 
ATOM      4  C3  UNL d   1      -2.148   0.068  -2.040  0.00  0.00     0.003 A 
ATOM      5  C4  UNL d   1      -0.952   0.665  -1.647  0.00  0.00    -0.005 A 
ATOM      6  C5  UNL d   1      -0.291   0.212  -0.507  0.00  0.00     0.003 A 
ATOM      7  C6  UNL d   1      -0.828  -0.837   0.241  0.00  0.00    -0.001 A 
ENDROOT
TORSDOF 0
ENDMDL
