MODEL 1
REMARK minimizedAffinity -2.84591603
REMARK minimizedRMSD -1
REMARK  0 active torsions:
REMARK  status: ('A' for Active; 'I' for Inactive)
ROOT
ATOM      1  C   UNL d   1      -2.822   1.552   1.446  0.00  0.00     0.078 C 
ATOM      2  C1  UNL d   1      -1.730   0.541   1.262  0.00  0.00    -0.077 A 
ATOM      3  C2  UNL d   1      -0.589   0.841   0.508  0.00  0.00    -0.001 A 
ATOM      4  C3  UNL d   1       0.415  -0.113   0.337  0.00  0.00     0.003 A 
ATOM      5  C4  UNL d   1       0.288  -1.374   0.916  0.00  0.00    -0.005 A 
ATOM      6  C5  UNL d   1      -0.845  -1.682   1.667  0.00  0.00     0.003 A 
ATOM      7  C6  UNL d   1      -1.850  -0.729   1.838  0.00  0.00    -0.001 A 
ENDROOT
TORSDOF 0
ENDMDL
