MODEL 1
REMARK minimizedAffinity -3.00044203
REMARK minimizedRMSD -1
REMARK  0 active torsions:
REMARK  status: ('A' for Active; 'I' for Inactive)
ROOT
ATOM      1  C   UNL d   1      -0.086   0.099  -3.057  0.00  0.00     0.078 C 
ATOM      2  C1  UNL d   1      -0.513  -0.160  -1.643  0.00  0.00    -0.077 A 
ATOM      3  C2  UNL d   1      -1.761  -0.728  -1.359  0.00  0.00    -0.001 A 
ATOM      4  C3  UNL d   1      -2.150  -0.954  -0.038  0.00  0.00     0.003 A 
ATOM      5  C4  UNL d   1      -1.297  -0.614   1.010  0.00  0.00    -0.005 A 
ATOM      6  C5  UNL d   1      -0.054  -0.047   0.738  0.00  0.00     0.003 A 
ATOM      7  C6  UNL d   1       0.336   0.180  -0.583  0.00  0.00    -0.001 A 
ENDROOT
TORSDOF 0
ENDMDL
