MODEL 1
REMARK minimizedAffinity -4.65852165
REMARK minimizedRMSD -1
REMARK  0 active torsions:
REMARK  status: ('A' for Active; 'I' for Inactive)
ROOT
ATOM      1  C   UNL d   1       1.621   0.072   0.099  0.00  0.00     0.078 C 
ATOM      2  C1  UNL d   1       2.504   1.283   0.160  0.00  0.00    -0.077 A 
ATOM      3  C2  UNL d   1       2.827   1.879   1.385  0.00  0.00    -0.001 A 
ATOM      4  C3  UNL d   1       3.641   3.012   1.425  0.00  0.00     0.003 A 
ATOM      5  C4  UNL d   1       4.139   3.559   0.244  0.00  0.00    -0.005 A 
ATOM      6  C5  UNL d   1       3.821   2.974  -0.980  0.00  0.00     0.003 A 
ATOM      7  C6  UNL d   1       3.007   1.841  -1.022  0.00  0.00    -0.001 A 
ENDROOT
TORSDOF 0
ENDMDL
