MODEL 1
REMARK minimizedAffinity -4.9121933
REMARK minimizedRMSD -1
REMARK  0 active torsions:
REMARK  status: ('A' for Active; 'I' for Inactive)
ROOT
ATOM      1  C   UNL d   1       1.265   0.229   0.040  0.00  0.00     0.078 C 
ATOM      2  C1  UNL d   1      -0.108  -0.005  -0.516  0.00  0.00    -0.077 A 
ATOM      3  C2  UNL d   1      -0.351   0.074  -1.893  0.00  0.00    -0.001 A 
ATOM      4  C3  UNL d   1      -1.636  -0.137  -2.396  0.00  0.00     0.003 A 
ATOM      5  C4  UNL d   1      -2.688  -0.427  -1.529  0.00  0.00    -0.005 A 
ATOM      6  C5  UNL d   1      -2.456  -0.506  -0.158  0.00  0.00     0.003 A 
ATOM      7  C6  UNL d   1      -1.172  -0.295   0.347  0.00  0.00    -0.001 A 
ENDROOT
TORSDOF 0
ENDMDL
