MODEL 1
REMARK minimizedAffinity -2.6619246
REMARK minimizedRMSD -1
REMARK  0 active torsions:
REMARK  status: ('A' for Active; 'I' for Inactive)
ROOT
ATOM      1  C   UNL d   1      -2.449  -5.373  -1.984  0.00  0.00     0.078 C 
ATOM      2  C1  UNL d   1      -2.346  -3.879  -2.071  0.00  0.00    -0.077 A 
ATOM      3  C2  UNL d   1      -2.702  -3.067  -0.987  0.00  0.00    -0.001 A 
ATOM      4  C3  UNL d   1      -2.610  -1.678  -1.086  0.00  0.00     0.003 A 
ATOM      5  C4  UNL d   1      -2.163  -1.089  -2.267  0.00  0.00    -0.005 A 
ATOM      6  C5  UNL d   1      -1.808  -1.888  -3.351  0.00  0.00     0.003 A 
ATOM      7  C6  UNL d   1      -1.900  -3.278  -3.255  0.00  0.00    -0.001 A 
ENDROOT
TORSDOF 0
ENDMDL
