MODEL 1
REMARK minimizedAffinity -5.94701719
REMARK minimizedRMSD -1
REMARK  0 active torsions:
REMARK  status: ('A' for Active; 'I' for Inactive)
ROOT
ATOM      1  C   UNL d   1       1.304  -0.068   0.578  0.00  0.00     0.078 C 
ATOM      2  C1  UNL d   1      -0.120  -0.160   0.114  0.00  0.00    -0.077 A 
ATOM      3  C2  UNL d   1      -1.180  -0.100   1.026  0.00  0.00    -0.001 A 
ATOM      4  C3  UNL d   1      -2.500  -0.197   0.582  0.00  0.00     0.003 A 
ATOM      5  C4  UNL d   1      -2.771  -0.355  -0.776  0.00  0.00    -0.005 A 
ATOM      6  C5  UNL d   1      -1.722  -0.418  -1.691  0.00  0.00     0.003 A 
ATOM      7  C6  UNL d   1      -0.402  -0.321  -1.248  0.00  0.00    -0.001 A 
ENDROOT
TORSDOF 0
ENDMDL
