MODEL 1
REMARK minimizedAffinity 36.87994
REMARK minimizedRMSD -1
REMARK  0 active torsions:
REMARK  status: ('A' for Active; 'I' for Inactive)
ROOT
ATOM      1  C   UNL d   1       3.545  -0.854  -0.491  0.00  0.00     0.124 A 
ATOM      2  C1  UNL d   1       3.631  -2.225  -0.286  0.00  0.00     0.062 A 
ATOM      3  C2  UNL d   1       2.566  -3.052  -0.632  0.00  0.00     0.162 A 
ATOM      4  C3  UNL d   1       1.406  -2.512  -1.187  0.00  0.00    -0.034 A 
ATOM      5  C4  UNL d   1       1.326  -1.133  -1.388  0.00  0.00     0.162 A 
ATOM      6  C5  UNL d   1       2.393  -0.310  -1.041  0.00  0.00     0.062 A 
ATOM      7  F   UNL d   1       2.308   1.014  -1.239  0.00  0.00    -0.097 F 
ATOM      8  F1  UNL d   1       0.226  -0.580  -1.920  0.00  0.00    -0.096 F 
ATOM      9  I   UNL d   1      -0.188  -3.746  -1.705  0.00  0.00    -0.060 I 
ATOM     10  F2  UNL d   1       2.677  -4.373  -0.424  0.00  0.00    -0.096 F 
ATOM     11  F3  UNL d   1       4.742  -2.753   0.246  0.00  0.00    -0.097 F 
ATOM     12  F4  UNL d   1       4.570  -0.061  -0.156  0.00  0.00    -0.092 F 
ENDROOT
TORSDOF 0
ENDMDL
