MODEL 1
REMARK minimizedAffinity 25.4294567
REMARK minimizedRMSD -1
REMARK  0 active torsions:
REMARK  status: ('A' for Active; 'I' for Inactive)
ROOT
ATOM      1  C   UNL d   1       0.389  -2.262  -2.352  0.00  0.00     0.124 A 
ATOM      2  C1  UNL d   1       0.242  -2.621  -1.019  0.00  0.00     0.062 A 
ATOM      3  C2  UNL d   1       0.838  -1.858  -0.019  0.00  0.00     0.162 A 
ATOM      4  C3  UNL d   1       1.586  -0.727  -0.347  0.00  0.00    -0.034 A 
ATOM      5  C4  UNL d   1       1.730  -0.373  -1.690  0.00  0.00     0.162 A 
ATOM      6  C5  UNL d   1       1.133  -1.139  -2.686  0.00  0.00     0.062 A 
ATOM      7  F   UNL d   1       1.276  -0.790  -3.973  0.00  0.00    -0.097 F 
ATOM      8  F1  UNL d   1       2.443   0.708  -2.041  0.00  0.00    -0.096 F 
ATOM      9  I   UNL d   1       2.478   0.416   1.145  0.00  0.00    -0.060 I 
ATOM     10  F2  UNL d   1       0.679  -2.229   1.260  0.00  0.00    -0.096 F 
ATOM     11  F3  UNL d   1      -0.475  -3.706  -0.694  0.00  0.00    -0.097 F 
ATOM     12  F4  UNL d   1      -0.184  -2.998  -3.313  0.00  0.00    -0.092 F 
ENDROOT
TORSDOF 0
ENDMDL
