MODEL 1
REMARK minimizedAffinity 28.7887325
REMARK minimizedRMSD -1
REMARK  0 active torsions:
REMARK  status: ('A' for Active; 'I' for Inactive)
ROOT
ATOM      1  C   UNL d   1       2.030  -2.978  -0.835  0.00  0.00     0.124 A 
ATOM      2  C1  UNL d   1       0.981  -2.201  -1.306  0.00  0.00     0.062 A 
ATOM      3  C2  UNL d   1       1.158  -0.835  -1.508  0.00  0.00     0.162 A 
ATOM      4  C3  UNL d   1       2.390  -0.238  -1.240  0.00  0.00    -0.034 A 
ATOM      5  C4  UNL d   1       3.440  -1.026  -0.765  0.00  0.00     0.162 A 
ATOM      6  C5  UNL d   1       3.258  -2.391  -0.565  0.00  0.00     0.062 A 
ATOM      7  F   UNL d   1       4.272  -3.141  -0.110  0.00  0.00    -0.097 F 
ATOM      8  F1  UNL d   1       4.637  -0.485  -0.497  0.00  0.00    -0.096 F 
ATOM      9  I   UNL d   1       2.659   1.804  -1.540  0.00  0.00    -0.060 I 
ATOM     10  F2  UNL d   1       0.128  -0.108  -1.964  0.00  0.00    -0.096 F 
ATOM     11  F3  UNL d   1      -0.206  -2.766  -1.567  0.00  0.00    -0.097 F 
ATOM     12  F4  UNL d   1       1.857  -4.292  -0.641  0.00  0.00    -0.092 F 
ENDROOT
TORSDOF 0
ENDMDL
