MODEL 1
REMARK minimizedAffinity 28.8072453
REMARK minimizedRMSD -1
REMARK  0 active torsions:
REMARK  status: ('A' for Active; 'I' for Inactive)
ROOT
ATOM      1  C   UNL d   1      -4.688  -0.486   2.644  0.00  0.00     0.124 A 
ATOM      2  C1  UNL d   1      -4.059   0.656   2.166  0.00  0.00     0.062 A 
ATOM      3  C2  UNL d   1      -3.179   1.363   2.980  0.00  0.00     0.162 A 
ATOM      4  C3  UNL d   1      -2.922   0.930   4.280  0.00  0.00    -0.034 A 
ATOM      5  C4  UNL d   1      -3.559  -0.218   4.754  0.00  0.00     0.162 A 
ATOM      6  C5  UNL d   1      -4.438  -0.921   3.937  0.00  0.00     0.062 A 
ATOM      7  F   UNL d   1      -5.044  -2.024   4.400  0.00  0.00    -0.097 F 
ATOM      8  F1  UNL d   1      -3.334  -0.662   6.000  0.00  0.00    -0.096 F 
ATOM      9  I   UNL d   1      -1.606   1.985   5.501  0.00  0.00    -0.060 I 
ATOM     10  F2  UNL d   1      -2.586   2.462   2.492  0.00  0.00    -0.096 F 
ATOM     11  F3  UNL d   1      -4.301   1.079   0.917  0.00  0.00    -0.097 F 
ATOM     12  F4  UNL d   1      -5.535  -1.164   1.859  0.00  0.00    -0.092 F 
ENDROOT
TORSDOF 0
ENDMDL
