MODEL 1
REMARK minimizedAffinity 33.1281013
REMARK minimizedRMSD -1
REMARK  0 active torsions:
REMARK  status: ('A' for Active; 'I' for Inactive)
ROOT
ATOM      1  C   UNL d   1       0.372  -3.775  -1.656  0.00  0.00     0.124 A 
ATOM      2  C1  UNL d   1      -0.277  -2.562  -1.843  0.00  0.00     0.062 A 
ATOM      3  C2  UNL d   1       0.373  -1.368  -1.545  0.00  0.00     0.162 A 
ATOM      4  C3  UNL d   1       1.679  -1.380  -1.057  0.00  0.00    -0.034 A 
ATOM      5  C4  UNL d   1       2.325  -2.603  -0.870  0.00  0.00     0.162 A 
ATOM      6  C5  UNL d   1       1.672  -3.795  -1.170  0.00  0.00     0.062 A 
ATOM      7  F   UNL d   1       2.300  -4.965  -0.988  0.00  0.00    -0.097 F 
ATOM      8  F1  UNL d   1       3.581  -2.651  -0.402  0.00  0.00    -0.096 F 
ATOM      9  I   UNL d   1       2.654   0.404  -0.609  0.00  0.00    -0.060 I 
ATOM     10  F2  UNL d   1      -0.278  -0.211  -1.735  0.00  0.00    -0.096 F 
ATOM     11  F3  UNL d   1      -1.533  -2.541  -2.311  0.00  0.00    -0.097 F 
ATOM     12  F4  UNL d   1      -0.255  -4.923  -1.942  0.00  0.00    -0.092 F 
ENDROOT
TORSDOF 0
ENDMDL
