MODEL 1
REMARK minimizedAffinity 15.6294632
REMARK minimizedRMSD -1
REMARK  0 active torsions:
REMARK  status: ('A' for Active; 'I' for Inactive)
ROOT
ATOM      1  C   UNL d   1      -3.880  -1.002   3.370  0.00  0.00     0.124 A 
ATOM      2  C1  UNL d   1      -4.806  -0.934   4.402  0.00  0.00     0.062 A 
ATOM      3  C2  UNL d   1      -5.095   0.287   5.004  0.00  0.00     0.162 A 
ATOM      4  C3  UNL d   1      -4.458   1.451   4.575  0.00  0.00    -0.034 A 
ATOM      5  C4  UNL d   1      -3.528   1.375   3.537  0.00  0.00     0.162 A 
ATOM      6  C5  UNL d   1      -3.242   0.153   2.938  0.00  0.00     0.062 A 
ATOM      7  F   UNL d   1      -2.348   0.089   1.941  0.00  0.00    -0.097 F 
ATOM      8  F1  UNL d   1      -2.897   2.476   3.100  0.00  0.00    -0.096 F 
ATOM      9  I   UNL d   1      -4.887   3.279   5.473  0.00  0.00    -0.060 I 
ATOM     10  F2  UNL d   1      -5.993   0.322   5.999  0.00  0.00    -0.096 F 
ATOM     11  F3  UNL d   1      -5.423  -2.049   4.821  0.00  0.00    -0.097 F 
ATOM     12  F4  UNL d   1      -3.603  -2.178   2.792  0.00  0.00    -0.092 F 
ENDROOT
TORSDOF 0
ENDMDL
