MODEL 1
REMARK minimizedAffinity 28.5385151
REMARK minimizedRMSD -1
REMARK  0 active torsions:
REMARK  status: ('A' for Active; 'I' for Inactive)
ROOT
ATOM      1  C   UNL d   1      -2.849   0.202   2.088  0.00  0.00     0.124 A 
ATOM      2  C1  UNL d   1      -4.142  -0.129   2.469  0.00  0.00     0.062 A 
ATOM      3  C2  UNL d   1      -4.718   0.469   3.585  0.00  0.00     0.162 A 
ATOM      4  C3  UNL d   1      -4.002   1.407   4.330  0.00  0.00    -0.034 A 
ATOM      5  C4  UNL d   1      -2.702   1.735   3.941  0.00  0.00     0.162 A 
ATOM      6  C5  UNL d   1      -2.130   1.134   2.824  0.00  0.00     0.062 A 
ATOM      7  F   UNL d   1      -0.881   1.455   2.458  0.00  0.00    -0.097 F 
ATOM      8  F1  UNL d   1      -1.985   2.632   4.634  0.00  0.00    -0.096 F 
ATOM      9  I   UNL d   1      -4.860   2.304   6.000  0.00  0.00    -0.060 I 
ATOM     10  F2  UNL d   1      -5.969   0.130   3.930  0.00  0.00    -0.096 F 
ATOM     11  F3  UNL d   1      -4.838  -1.029   1.760  0.00  0.00    -0.097 F 
ATOM     12  F4  UNL d   1      -2.297  -0.376   1.014  0.00  0.00    -0.092 F 
ENDROOT
TORSDOF 0
ENDMDL
