MODEL 1
REMARK minimizedAffinity 23.1198044
REMARK minimizedRMSD -1
REMARK  0 active torsions:
REMARK  status: ('A' for Active; 'I' for Inactive)
ROOT
ATOM      1  C   UNL d   1       2.295  -2.582  -1.640  0.00  0.00     0.124 A 
ATOM      2  C1  UNL d   1       3.540  -2.739  -1.047  0.00  0.00     0.062 A 
ATOM      3  C2  UNL d   1       4.241  -1.629  -0.585  0.00  0.00     0.162 A 
ATOM      4  C3  UNL d   1       3.697  -0.351  -0.713  0.00  0.00    -0.034 A 
ATOM      5  C4  UNL d   1       2.445  -0.200  -1.310  0.00  0.00     0.162 A 
ATOM      6  C5  UNL d   1       1.748  -1.313  -1.770  0.00  0.00     0.062 A 
ATOM      7  F   UNL d   1       0.545  -1.159  -2.342  0.00  0.00    -0.097 F 
ATOM      8  F1  UNL d   1       1.893   1.014  -1.448  0.00  0.00    -0.096 F 
ATOM      9  I   UNL d   1       4.742   1.312  -0.023  0.00  0.00    -0.060 I 
ATOM     10  F2  UNL d   1       5.442  -1.811  -0.017  0.00  0.00    -0.096 F 
ATOM     11  F3  UNL d   1       4.071  -3.964  -0.921  0.00  0.00    -0.097 F 
ATOM     12  F4  UNL d   1       1.623  -3.652  -2.084  0.00  0.00    -0.092 F 
ENDROOT
TORSDOF 0
ENDMDL
