MODEL 1
REMARK minimizedAffinity 19.1001072
REMARK minimizedRMSD -1
REMARK  0 active torsions:
REMARK  status: ('A' for Active; 'I' for Inactive)
ROOT
ATOM      1  C   UNL d   1      -2.947   1.062   2.701  0.00  0.00     0.124 A 
ATOM      2  C1  UNL d   1      -2.912   1.501   4.017  0.00  0.00     0.062 A 
ATOM      3  C2  UNL d   1      -1.714   1.493   4.726  0.00  0.00     0.162 A 
ATOM      4  C3  UNL d   1      -0.540   1.046   4.119  0.00  0.00    -0.034 A 
ATOM      5  C4  UNL d   1      -0.583   0.605   2.795  0.00  0.00     0.162 A 
ATOM      6  C5  UNL d   1      -1.783   0.615   2.091  0.00  0.00     0.062 A 
ATOM      7  F   UNL d   1      -1.815   0.190   0.820  0.00  0.00    -0.097 F 
ATOM      8  F1  UNL d   1       0.526   0.169   2.181  0.00  0.00    -0.096 F 
ATOM      9  I   UNL d   1       1.253   1.033   5.175  0.00  0.00    -0.060 I 
ATOM     10  F2  UNL d   1      -1.709   1.923   5.997  0.00  0.00    -0.096 F 
ATOM     11  F3  UNL d   1      -4.035   1.932   4.609  0.00  0.00    -0.097 F 
ATOM     12  F4  UNL d   1      -4.101   1.070   2.022  0.00  0.00    -0.092 F 
ENDROOT
TORSDOF 0
ENDMDL
