MODEL 1
REMARK minimizedAffinity 20.3696899
REMARK minimizedRMSD -1
REMARK  0 active torsions:
REMARK  status: ('A' for Active; 'I' for Inactive)
ROOT
ATOM      1  C   UNL d   1      -2.097  -4.852  -3.079  0.00  0.00     0.124 A 
ATOM      2  C1  UNL d   1      -3.423  -5.196  -2.851  0.00  0.00     0.062 A 
ATOM      3  C2  UNL d   1      -4.426  -4.707  -3.683  0.00  0.00     0.162 A 
ATOM      4  C3  UNL d   1      -4.107  -3.870  -4.753  0.00  0.00    -0.034 A 
ATOM      5  C4  UNL d   1      -2.772  -3.528  -4.975  0.00  0.00     0.162 A 
ATOM      6  C5  UNL d   1      -1.773  -4.019  -4.140  0.00  0.00     0.062 A 
ATOM      7  F   UNL d   1      -0.493  -3.687  -4.362  0.00  0.00    -0.097 F 
ATOM      8  F1  UNL d   1      -2.430  -2.726  -5.994  0.00  0.00    -0.096 F 
ATOM      9  I   UNL d   1      -5.603  -3.137  -6.000  0.00  0.00    -0.060 I 
ATOM     10  F2  UNL d   1      -5.698  -5.055  -3.439  0.00  0.00    -0.096 F 
ATOM     11  F3  UNL d   1      -3.739  -6.000  -1.825  0.00  0.00    -0.097 F 
ATOM     12  F4  UNL d   1      -1.135  -5.323  -2.276  0.00  0.00    -0.092 F 
ENDROOT
TORSDOF 0
ENDMDL
