MODEL 1
REMARK minimizedAffinity 20.9370728
REMARK minimizedRMSD -1
REMARK  0 active torsions:
REMARK  status: ('A' for Active; 'I' for Inactive)
ROOT
ATOM      1  C   UNL d   1       0.772   1.370   2.305  0.00  0.00     0.124 A 
ATOM      2  C1  UNL d   1       0.347   0.051   2.377  0.00  0.00     0.062 A 
ATOM      3  C2  UNL d   1       0.745  -0.866   1.409  0.00  0.00     0.162 A 
ATOM      4  C3  UNL d   1       1.574  -0.468   0.360  0.00  0.00    -0.034 A 
ATOM      5  C4  UNL d   1       1.997   0.861   0.294  0.00  0.00     0.162 A 
ATOM      6  C5  UNL d   1       1.597   1.774   1.264  0.00  0.00     0.062 A 
ATOM      7  F   UNL d   1       2.008   3.048   1.193  0.00  0.00    -0.097 F 
ATOM      8  F1  UNL d   1       2.794   1.278  -0.700  0.00  0.00    -0.096 F 
ATOM      9  I   UNL d   1       2.171  -1.837  -1.089  0.00  0.00    -0.060 I 
ATOM     10  F2  UNL d   1       0.319  -2.135   1.503  0.00  0.00    -0.096 F 
ATOM     11  F3  UNL d   1      -0.450  -0.341   3.381  0.00  0.00    -0.097 F 
ATOM     12  F4  UNL d   1       0.387   2.251   3.238  0.00  0.00    -0.092 F 
ENDROOT
TORSDOF 0
ENDMDL
