MODEL 1
REMARK minimizedAffinity 7.44967794
REMARK minimizedRMSD -1
REMARK  0 active torsions:
REMARK  status: ('A' for Active; 'I' for Inactive)
ROOT
ATOM      1  C   UNL d   1       3.563  -2.913  -1.041  0.00  0.00     0.124 A 
ATOM      2  C1  UNL d   1       3.489  -4.236  -1.453  0.00  0.00     0.062 A 
ATOM      3  C2  UNL d   1       2.334  -4.714  -2.066  0.00  0.00     0.162 A 
ATOM      4  C3  UNL d   1       1.244  -3.868  -2.271  0.00  0.00    -0.034 A 
ATOM      5  C4  UNL d   1       1.327  -2.538  -1.853  0.00  0.00     0.162 A 
ATOM      6  C5  UNL d   1       2.483  -2.065  -1.241  0.00  0.00     0.062 A 
ATOM      7  F   UNL d   1       2.553  -0.787  -0.843  0.00  0.00    -0.097 F 
ATOM      8  F1  UNL d   1       0.297  -1.698  -2.035  0.00  0.00    -0.096 F 
ATOM      9  I   UNL d   1      -0.484  -4.579  -3.187  0.00  0.00    -0.060 I 
ATOM     10  F2  UNL d   1       2.290  -5.997  -2.454  0.00  0.00    -0.096 F 
ATOM     11  F3  UNL d   1       4.531  -5.057  -1.260  0.00  0.00    -0.097 F 
ATOM     12  F4  UNL d   1       4.675  -2.456  -0.450  0.00  0.00    -0.092 F 
ENDROOT
TORSDOF 0
ENDMDL
