MODEL 1
REMARK minimizedAffinity 19.1552811
REMARK minimizedRMSD -1
REMARK  0 active torsions:
REMARK  status: ('A' for Active; 'I' for Inactive)
ROOT
ATOM      1  C   UNL d   1      -2.801  -3.125  -3.797  0.00  0.00     0.124 A 
ATOM      2  C1  UNL d   1      -2.141  -3.976  -2.921  0.00  0.00     0.062 A 
ATOM      3  C2  UNL d   1      -1.035  -3.524  -2.207  0.00  0.00     0.162 A 
ATOM      4  C3  UNL d   1      -0.581  -2.215  -2.366  0.00  0.00    -0.034 A 
ATOM      5  C4  UNL d   1      -1.250  -1.366  -3.250  0.00  0.00     0.162 A 
ATOM      6  C5  UNL d   1      -2.355  -1.821  -3.961  0.00  0.00     0.062 A 
ATOM      7  F   UNL d   1      -2.992  -0.998  -4.807  0.00  0.00    -0.097 F 
ATOM      8  F1  UNL d   1      -0.841  -0.100  -3.426  0.00  0.00    -0.096 F 
ATOM      9  I   UNL d   1       1.073  -1.536  -1.301  0.00  0.00    -0.060 I 
ATOM     10  F2  UNL d   1      -0.416  -4.368  -1.368  0.00  0.00    -0.096 F 
ATOM     11  F3  UNL d   1      -2.569  -5.236  -2.762  0.00  0.00    -0.097 F 
ATOM     12  F4  UNL d   1      -3.865  -3.563  -4.483  0.00  0.00    -0.092 F 
ENDROOT
TORSDOF 0
ENDMDL
