MODEL 1
REMARK minimizedAffinity 22.5552521
REMARK minimizedRMSD -1
REMARK  0 active torsions:
REMARK  status: ('A' for Active; 'I' for Inactive)
ROOT
ATOM      1  C   UNL d   1      -3.675  -0.607   3.195  0.00  0.00     0.124 A 
ATOM      2  C1  UNL d   1      -3.468   0.758   3.054  0.00  0.00     0.062 A 
ATOM      3  C2  UNL d   1      -2.179   1.257   2.891  0.00  0.00     0.162 A 
ATOM      4  C3  UNL d   1      -1.086   0.390   2.867  0.00  0.00    -0.034 A 
ATOM      5  C4  UNL d   1      -1.303  -0.982   3.011  0.00  0.00     0.162 A 
ATOM      6  C5  UNL d   1      -2.593  -1.475   3.173  0.00  0.00     0.062 A 
ATOM      7  F   UNL d   1      -2.791  -2.795   3.310  0.00  0.00    -0.097 F 
ATOM      8  F1  UNL d   1      -0.275  -1.843   2.992  0.00  0.00    -0.096 F 
ATOM      9  I   UNL d   1       0.843   1.132   2.624  0.00  0.00    -0.060 I 
ATOM     10  F2  UNL d   1      -2.008   2.581   2.757  0.00  0.00    -0.096 F 
ATOM     11  F3  UNL d   1      -4.512   1.599   3.076  0.00  0.00    -0.097 F 
ATOM     12  F4  UNL d   1      -4.916  -1.084   3.353  0.00  0.00    -0.092 F 
ENDROOT
TORSDOF 0
ENDMDL
