MODEL 1
REMARK minimizedAffinity 34.0653648
REMARK minimizedRMSD -1
REMARK  0 active torsions:
REMARK  status: ('A' for Active; 'I' for Inactive)
ROOT
ATOM      1  C   UNL d   1      -2.712  -2.925  -3.027  0.00  0.00     0.124 A 
ATOM      2  C1  UNL d   1      -2.399  -1.573  -3.061  0.00  0.00     0.062 A 
ATOM      3  C2  UNL d   1      -1.218  -1.113  -2.487  0.00  0.00     0.162 A 
ATOM      4  C3  UNL d   1      -0.339  -2.007  -1.874  0.00  0.00    -0.034 A 
ATOM      5  C4  UNL d   1      -0.661  -3.365  -1.843  0.00  0.00     0.162 A 
ATOM      6  C5  UNL d   1      -1.843  -3.819  -2.418  0.00  0.00     0.062 A 
ATOM      7  F   UNL d   1      -2.144  -5.125  -2.384  0.00  0.00    -0.097 F 
ATOM      8  F1  UNL d   1       0.161  -4.251  -1.262  0.00  0.00    -0.096 F 
ATOM      9  I   UNL d   1       1.429  -1.323  -1.015  0.00  0.00    -0.060 I 
ATOM     10  F2  UNL d   1      -0.941   0.198  -2.535  0.00  0.00    -0.096 F 
ATOM     11  F3  UNL d   1      -3.238  -0.707  -3.647  0.00  0.00    -0.097 F 
ATOM     12  F4  UNL d   1      -3.851  -3.364  -3.579  0.00  0.00    -0.092 F 
ENDROOT
TORSDOF 0
ENDMDL
