MODEL 1
REMARK minimizedAffinity 18.6657352
REMARK minimizedRMSD -1
REMARK  0 active torsions:
REMARK  status: ('A' for Active; 'I' for Inactive)
ROOT
ATOM      1  C   UNL d   1       3.264  -1.729  -0.873  0.00  0.00     0.124 A 
ATOM      2  C1  UNL d   1       2.115  -0.958  -0.775  0.00  0.00     0.062 A 
ATOM      3  C2  UNL d   1       0.894  -1.461  -1.216  0.00  0.00     0.162 A 
ATOM      4  C3  UNL d   1       0.816  -2.744  -1.758  0.00  0.00    -0.034 A 
ATOM      5  C4  UNL d   1       1.977  -3.514  -1.854  0.00  0.00     0.162 A 
ATOM      6  C5  UNL d   1       3.195  -3.006  -1.412  0.00  0.00     0.062 A 
ATOM      7  F   UNL d   1       4.304  -3.753  -1.508  0.00  0.00    -0.097 F 
ATOM      8  F1  UNL d   1       1.938  -4.751  -2.370  0.00  0.00    -0.096 F 
ATOM      9  I   UNL d   1      -1.007  -3.501  -2.418  0.00  0.00    -0.060 I 
ATOM     10  F2  UNL d   1      -0.201  -0.694  -1.109  0.00  0.00    -0.096 F 
ATOM     11  F3  UNL d   1       2.179   0.277  -0.256  0.00  0.00    -0.097 F 
ATOM     12  F4  UNL d   1       4.437  -1.242  -0.450  0.00  0.00    -0.092 F 
ENDROOT
TORSDOF 0
ENDMDL
