MODEL 1
REMARK minimizedAffinity 26.364954
REMARK minimizedRMSD -1
REMARK  0 active torsions:
REMARK  status: ('A' for Active; 'I' for Inactive)
ROOT
ATOM      1  C   UNL d   1       1.501  -0.653  -2.450  0.00  0.00     0.124 A 
ATOM      2  C1  UNL d   1       2.173  -1.436  -1.522  0.00  0.00     0.062 A 
ATOM      3  C2  UNL d   1       3.038  -0.847  -0.605  0.00  0.00     0.162 A 
ATOM      4  C3  UNL d   1       3.237   0.534  -0.611  0.00  0.00    -0.034 A 
ATOM      5  C4  UNL d   1       2.558   1.315  -1.548  0.00  0.00     0.162 A 
ATOM      6  C5  UNL d   1       1.695   0.721  -2.463  0.00  0.00     0.062 A 
ATOM      7  F   UNL d   1       1.046   1.479  -3.359  0.00  0.00    -0.097 F 
ATOM      8  F1  UNL d   1       2.726   2.645  -1.582  0.00  0.00    -0.096 F 
ATOM      9  I   UNL d   1       4.530   1.419   0.759  0.00  0.00    -0.060 I 
ATOM     10  F2  UNL d   1       3.674  -1.627   0.282  0.00  0.00    -0.096 F 
ATOM     11  F3  UNL d   1       1.989  -2.764  -1.508  0.00  0.00    -0.097 F 
ATOM     12  F4  UNL d   1       0.670  -1.223  -3.332  0.00  0.00    -0.092 F 
ENDROOT
TORSDOF 0
ENDMDL
