MODEL 1
REMARK minimizedAffinity 16.4644203
REMARK minimizedRMSD -1
REMARK  0 active torsions:
REMARK  status: ('A' for Active; 'I' for Inactive)
ROOT
ATOM      1  C   UNL d   1       2.944  -0.578  -1.361  0.00  0.00     0.124 A 
ATOM      2  C1  UNL d   1       2.130  -1.588  -1.857  0.00  0.00     0.062 A 
ATOM      3  C2  UNL d   1       2.479  -2.922  -1.670  0.00  0.00     0.162 A 
ATOM      4  C3  UNL d   1       3.647  -3.255  -0.983  0.00  0.00    -0.034 A 
ATOM      5  C4  UNL d   1       4.460  -2.234  -0.489  0.00  0.00     0.162 A 
ATOM      6  C5  UNL d   1       4.107  -0.902  -0.678  0.00  0.00     0.062 A 
ATOM      7  F   UNL d   1       4.894   0.073  -0.198  0.00  0.00    -0.097 F 
ATOM      8  F1  UNL d   1       5.590  -2.518   0.176  0.00  0.00    -0.096 F 
ATOM      9  I   UNL d   1       4.172  -5.249  -0.702  0.00  0.00    -0.060 I 
ATOM     10  F2  UNL d   1       1.675  -3.877  -2.160  0.00  0.00    -0.096 F 
ATOM     11  F3  UNL d   1       1.006  -1.277  -2.518  0.00  0.00    -0.097 F 
ATOM     12  F4  UNL d   1       2.606   0.705  -1.543  0.00  0.00    -0.092 F 
ENDROOT
TORSDOF 0
ENDMDL
