MODEL 1
REMARK minimizedAffinity -1.37002206
REMARK minimizedRMSD -1
REMARK  0 active torsions:
REMARK  status: ('A' for Active; 'I' for Inactive)
ROOT
ATOM      1  C   UNL d   1       1.258   1.588  -1.275  0.00  0.00     0.124 A 
ATOM      2  C1  UNL d   1       0.995   1.214   0.035  0.00  0.00     0.062 A 
ATOM      3  C2  UNL d   1       0.562  -0.077   0.322  0.00  0.00     0.162 A 
ATOM      4  C3  UNL d   1       0.388  -1.005  -0.705  0.00  0.00    -0.034 A 
ATOM      5  C4  UNL d   1       0.653  -0.622  -2.021  0.00  0.00     0.162 A 
ATOM      6  C5  UNL d   1       1.086   0.670  -2.302  0.00  0.00     0.062 A 
ATOM      7  F   UNL d   1       1.339   1.029  -3.569  0.00  0.00    -0.097 F 
ATOM      8  F1  UNL d   1       0.497  -1.489  -3.032  0.00  0.00    -0.096 F 
ATOM      9  I   UNL d   1      -0.260  -2.936  -0.280  0.00  0.00    -0.060 I 
ATOM     10  F2  UNL d   1       0.316  -0.410   1.598  0.00  0.00    -0.096 F 
ATOM     11  F3  UNL d   1       1.159   2.100   1.029  0.00  0.00    -0.097 F 
ATOM     12  F4  UNL d   1       1.674   2.831  -1.548  0.00  0.00    -0.092 F 
ENDROOT
TORSDOF 0
ENDMDL
