MODEL 1
REMARK minimizedAffinity 9.29441452
REMARK minimizedRMSD -1
REMARK  0 active torsions:
REMARK  status: ('A' for Active; 'I' for Inactive)
ROOT
ATOM      1  C4' PXY d   1       5.999  -2.494   6.000  0.00  0.00     0.077 C 
ATOM      2  C1' PXY d   1       1.537  -1.339   2.510  0.00  0.00     0.077 C 
ATOM      3  C1  PXY d   1       2.701  -1.636   3.435  0.00  0.00    -0.082 A 
ATOM      4  C2  PXY d   1       3.905  -1.840   2.927  0.00  0.00     0.003 A 
ATOM      5  C3  PXY d   1       4.963  -2.141   3.746  0.00  0.00     0.003 A 
ATOM      6  C4  PXY d   1       4.796  -2.181   5.105  0.00  0.00    -0.082 A 
ATOM      7  C5  PXY d   1       3.573  -1.964   5.632  0.00  0.00     0.003 A 
ATOM      8  C6  PXY d   1       2.504  -1.700   4.780  0.00  0.00     0.003 A 
ENDROOT
TORSDOF 0
ENDMDL
