MODEL 1
REMARK minimizedAffinity 6.30151129
REMARK minimizedRMSD -1
REMARK  0 active torsions:
REMARK  status: ('A' for Active; 'I' for Inactive)
ROOT
ATOM      1  C4' PXY d   1       1.155  -1.733  -0.600  0.00  0.00     0.077 C 
ATOM      2  C1' PXY d   1       2.447  -2.375   4.997  0.00  0.00     0.077 C 
ATOM      3  C1  PXY d   1       2.100  -2.196   3.532  0.00  0.00    -0.082 A 
ATOM      4  C2  PXY d   1       2.219  -3.220   2.703  0.00  0.00     0.003 A 
ATOM      5  C3  PXY d   1       1.941  -3.068   1.369  0.00  0.00     0.003 A 
ATOM      6  C4  PXY d   1       1.485  -1.869   0.889  0.00  0.00    -0.082 A 
ATOM      7  C5  PXY d   1       1.350  -0.823   1.731  0.00  0.00     0.003 A 
ATOM      8  C6  PXY d   1       1.677  -0.987   3.074  0.00  0.00     0.003 A 
ENDROOT
TORSDOF 0
ENDMDL
