MODEL 1
REMARK minimizedAffinity 12.3035688
REMARK minimizedRMSD -1
REMARK  0 active torsions:
REMARK  status: ('A' for Active; 'I' for Inactive)
ROOT
ATOM      1  C4' PXY d   1       1.640  -3.284   5.658  0.00  0.00     0.077 C 
ATOM      2  C1' PXY d   1       3.444   0.128   1.354  0.00  0.00     0.077 C 
ATOM      3  C1  PXY d   1       2.979  -0.776   2.478  0.00  0.00    -0.082 A 
ATOM      4  C2  PXY d   1       1.805  -0.560   3.048  0.00  0.00     0.003 A 
ATOM      5  C3  PXY d   1       1.382  -1.348   4.088  0.00  0.00     0.003 A 
ATOM      6  C4  PXY d   1       2.147  -2.402   4.513  0.00  0.00    -0.082 A 
ATOM      7  C5  PXY d   1       3.341  -2.636   3.929  0.00  0.00     0.003 A 
ATOM      8  C6  PXY d   1       3.770  -1.799   2.903  0.00  0.00     0.003 A 
ENDROOT
TORSDOF 0
ENDMDL
