MODEL 1
REMARK minimizedAffinity -0.383811116
REMARK minimizedRMSD -1
REMARK  0 active torsions:
REMARK  status: ('A' for Active; 'I' for Inactive)
ROOT
ATOM      1  C4' PXY d   1       3.251   5.670  -0.807  0.00  0.00     0.077 C 
ATOM      2  C1' PXY d   1       5.996   5.914  -5.888  0.00  0.00     0.077 C 
ATOM      3  C1  PXY d   1       5.287   5.847  -4.550  0.00  0.00    -0.082 A 
ATOM      4  C2  PXY d   1       3.979   5.649  -4.511  0.00  0.00     0.003 A 
ATOM      5  C3  PXY d   1       3.318   5.617  -3.311  0.00  0.00     0.003 A 
ATOM      6  C4  PXY d   1       4.010   5.736  -2.135  0.00  0.00    -0.082 A 
ATOM      7  C5  PXY d   1       5.345   5.927  -2.166  0.00  0.00     0.003 A 
ATOM      8  C6  PXY d   1       5.992   5.998  -3.396  0.00  0.00     0.003 A 
ENDROOT
TORSDOF 0
ENDMDL
