MODEL 1
REMARK minimizedAffinity 16.8506813
REMARK minimizedRMSD -1
REMARK  0 active torsions:
REMARK  status: ('A' for Active; 'I' for Inactive)
ROOT
ATOM      1  C4' PXY d   1      -5.952   0.057  -0.980  0.00  0.00     0.077 C 
ATOM      2  C1' PXY d   1      -5.005   2.784  -5.989  0.00  0.00     0.077 C 
ATOM      3  C1  PXY d   1      -5.253   2.080  -4.669  0.00  0.00    -0.082 A 
ATOM      4  C2  PXY d   1      -4.961   0.795  -4.548  0.00  0.00     0.003 A 
ATOM      5  C3  PXY d   1      -5.209   0.136  -3.372  0.00  0.00     0.003 A 
ATOM      6  C4  PXY d   1      -5.710   0.811  -2.291  0.00  0.00    -0.082 A 
ATOM      7  C5  PXY d   1      -6.000   2.124  -2.403  0.00  0.00     0.003 A 
ATOM      8  C6  PXY d   1      -5.780   2.766  -3.619  0.00  0.00     0.003 A 
ENDROOT
TORSDOF 0
ENDMDL
