MODEL 1
REMARK minimizedAffinity 3.21107364
REMARK minimizedRMSD -1
REMARK  0 active torsions:
REMARK  status: ('A' for Active; 'I' for Inactive)
ROOT
ATOM      1  C4' PXY d   1       5.793  -2.637   5.999  0.00  0.00     0.077 C 
ATOM      2  C1' PXY d   1       1.612  -1.030   2.345  0.00  0.00     0.077 C 
ATOM      3  C1  PXY d   1       2.700  -1.452   3.313  0.00  0.00    -0.082 A 
ATOM      4  C2  PXY d   1       3.963  -1.168   3.041  0.00  0.00     0.003 A 
ATOM      5  C3  PXY d   1       4.963  -1.570   3.890  0.00  0.00     0.003 A 
ATOM      6  C4  PXY d   1       4.661  -2.222   5.055  0.00  0.00    -0.082 A 
ATOM      7  C5  PXY d   1       3.374  -2.506   5.345  0.00  0.00     0.003 A 
ATOM      8  C6  PXY d   1       2.378  -2.126   4.450  0.00  0.00     0.003 A 
ENDROOT
TORSDOF 0
ENDMDL
