MODEL 1
REMARK minimizedAffinity 13.513773
REMARK minimizedRMSD -1
REMARK  0 active torsions:
REMARK  status: ('A' for Active; 'I' for Inactive)
ROOT
ATOM      1  C4' PXY d   1       4.427  -2.988   6.000  0.00  0.00     0.077 C 
ATOM      2  C1' PXY d   1       1.202  -0.711   1.777  0.00  0.00     0.077 C 
ATOM      3  C1  PXY d   1       2.037  -1.311   2.891  0.00  0.00    -0.082 A 
ATOM      4  C2  PXY d   1       3.275  -0.886   3.082  0.00  0.00     0.003 A 
ATOM      5  C3  PXY d   1       4.055  -1.441   4.064  0.00  0.00     0.003 A 
ATOM      6  C4  PXY d   1       3.544  -2.403   4.894  0.00  0.00    -0.082 A 
ATOM      7  C5  PXY d   1       2.278  -2.834   4.712  0.00  0.00     0.003 A 
ATOM      8  C6  PXY d   1       1.516  -2.288   3.683  0.00  0.00     0.003 A 
ENDROOT
TORSDOF 0
ENDMDL
