MODEL 1
REMARK minimizedAffinity 2.5022788
REMARK minimizedRMSD -1
REMARK  0 active torsions:
REMARK  status: ('A' for Active; 'I' for Inactive)
ROOT
ATOM      1  C4' PXY d   1       2.497  -1.740   4.382  0.00  0.00     0.077 C 
ATOM      2  C1' PXY d   1       2.465   2.585   0.547  0.00  0.00     0.077 C 
ATOM      3  C1  PXY d   1       2.461   1.449   1.550  0.00  0.00    -0.082 A 
ATOM      4  C2  PXY d   1       3.367   1.424   2.515  0.00  0.00     0.003 A 
ATOM      5  C3  PXY d   1       3.397   0.387   3.411  0.00  0.00     0.003 A 
ATOM      6  C4  PXY d   1       2.458  -0.607   3.352  0.00  0.00    -0.082 A 
ATOM      7  C5  PXY d   1       1.524  -0.584   2.378  0.00  0.00     0.003 A 
ATOM      8  C6  PXY d   1       1.535   0.456   1.453  0.00  0.00     0.003 A 
ENDROOT
TORSDOF 0
ENDMDL
