MODEL 1
REMARK minimizedAffinity 14.7530222
REMARK minimizedRMSD -1
REMARK  0 active torsions:
REMARK  status: ('A' for Active; 'I' for Inactive)
ROOT
ATOM      1  C4' PXY d   1       2.239  -4.399   5.127  0.00  0.00     0.077 C 
ATOM      2  C1' PXY d   1       2.703   0.322   1.824  0.00  0.00     0.077 C 
ATOM      3  C1  PXY d   1       2.576  -0.909   2.700  0.00  0.00    -0.082 A 
ATOM      4  C2  PXY d   1       3.372  -1.945   2.491  0.00  0.00     0.003 A 
ATOM      5  C3  PXY d   1       3.249  -3.078   3.253  0.00  0.00     0.003 A 
ATOM      6  C4  PXY d   1       2.338  -3.132   4.274  0.00  0.00    -0.082 A 
ATOM      7  C5  PXY d   1       1.529  -2.075   4.500  0.00  0.00     0.003 A 
ATOM      8  C6  PXY d   1       1.642  -0.949   3.688  0.00  0.00     0.003 A 
ENDROOT
TORSDOF 0
ENDMDL
