MODEL 1
REMARK minimizedAffinity 2.83137202
REMARK minimizedRMSD -1
REMARK  0 active torsions:
REMARK  status: ('A' for Active; 'I' for Inactive)
ROOT
ATOM      1  C4' PXY d   1       2.792   1.014   2.593  0.00  0.00     0.077 C 
ATOM      2  C1' PXY d   1       2.727  -4.423   4.555  0.00  0.00     0.077 C 
ATOM      3  C1  PXY d   1       2.733  -2.999   4.035  0.00  0.00    -0.082 A 
ATOM      4  C2  PXY d   1       3.881  -2.355   3.904  0.00  0.00     0.003 A 
ATOM      5  C3  PXY d   1       3.901  -1.056   3.466  0.00  0.00     0.003 A 
ATOM      6  C4  PXY d   1       2.739  -0.428   3.106  0.00  0.00    -0.082 A 
ATOM      7  C5  PXY d   1       1.565  -1.082   3.226  0.00  0.00     0.003 A 
ATOM      8  C6  PXY d   1       1.562  -2.387   3.713  0.00  0.00     0.003 A 
ENDROOT
TORSDOF 0
ENDMDL
