MODEL 1
REMARK minimizedAffinity 14.0989742
REMARK minimizedRMSD -1
REMARK  0 active torsions:
REMARK  status: ('A' for Active; 'I' for Inactive)
ROOT
ATOM      1  C4' PXY d   1       1.877   4.491  -0.612  0.00  0.00     0.077 C 
ATOM      2  C1' PXY d   1       1.920  -0.208   2.754  0.00  0.00     0.077 C 
ATOM      3  C1  PXY d   1       1.922   1.024   1.871  0.00  0.00    -0.082 A 
ATOM      4  C2  PXY d   1       0.890   1.852   1.901  0.00  0.00     0.003 A 
ATOM      5  C3  PXY d   1       0.861   2.954   1.085  0.00  0.00     0.003 A 
ATOM      6  C4  PXY d   1       1.922   3.240   0.269  0.00  0.00    -0.082 A 
ATOM      7  C5  PXY d   1       2.983   2.406   0.240  0.00  0.00     0.003 A 
ATOM      8  C6  PXY d   1       2.975   1.270   1.046  0.00  0.00     0.003 A 
ENDROOT
TORSDOF 0
ENDMDL
