MODEL 1
REMARK minimizedAffinity 4.8172946
REMARK minimizedRMSD -1
REMARK  0 active torsions:
REMARK  status: ('A' for Active; 'I' for Inactive)
ROOT
ATOM      1  C4' PXY d   1       3.743  -1.792   4.925  0.00  0.00     0.077 C 
ATOM      2  C1' PXY d   1      -0.072  -6.000   6.000  0.00  0.00     0.077 C 
ATOM      3  C1  PXY d   1       0.938  -4.904   5.723  0.00  0.00    -0.082 A 
ATOM      4  C2  PXY d   1       0.533  -3.647   5.636  0.00  0.00     0.003 A 
ATOM      5  C3  PXY d   1       1.428  -2.647   5.354  0.00  0.00     0.003 A 
ATOM      6  C4  PXY d   1       2.760  -2.930   5.212  0.00  0.00    -0.082 A 
ATOM      7  C5  PXY d   1       3.183  -4.208   5.310  0.00  0.00     0.003 A 
ATOM      8  C6  PXY d   1       2.252  -5.214   5.556  0.00  0.00     0.003 A 
ENDROOT
TORSDOF 0
ENDMDL
