MODEL 1
REMARK minimizedAffinity 10.1567459
REMARK minimizedRMSD -1
REMARK  0 active torsions:
REMARK  status: ('A' for Active; 'I' for Inactive)
ROOT
ATOM      1  C4' PXY d   1       3.605   1.948   0.628  0.00  0.00     0.077 C 
ATOM      2  C1' PXY d   1       1.413  -1.218   4.940  0.00  0.00     0.077 C 
ATOM      3  C1  PXY d   1       1.981  -0.377   3.813  0.00  0.00    -0.082 A 
ATOM      4  C2  PXY d   1       2.426  -0.968   2.716  0.00  0.00     0.003 A 
ATOM      5  C3  PXY d   1       2.972  -0.226   1.701  0.00  0.00     0.003 A 
ATOM      6  C4  PXY d   1       3.014   1.140   1.787  0.00  0.00    -0.082 A 
ATOM      7  C5  PXY d   1       2.553   1.751   2.899  0.00  0.00     0.003 A 
ATOM      8  C6  PXY d   1       2.040   0.977   3.935  0.00  0.00     0.003 A 
ENDROOT
TORSDOF 0
ENDMDL
