MODEL 1
REMARK minimizedAffinity 3.77968597
REMARK minimizedRMSD -1
REMARK  3 active torsions:
REMARK  status: ('A' for Active; 'I' for Inactive)
REMARK    1  A    between atoms: C3'_2  and  C2'_3 
REMARK    2  A    between atoms: C2'_3  and  C1'_4 
REMARK    3  A    between atoms: C1'_4  and  C1_5 
ROOT
ATOM      1  C1  N4B d   1       1.089   2.798   2.013  0.00  0.00    -0.075 A 
ATOM      2  C2  N4B d   1       1.437   1.850   3.000  0.00  0.00     0.002 A 
ATOM      3  C3  N4B d   1       1.859   2.271   4.238  0.00  0.00     0.002 A 
ATOM      4  C4  N4B d   1       1.957   3.628   4.504  0.00  0.00    -0.004 A 
ATOM      5  C5  N4B d   1       1.594   4.537   3.554  0.00  0.00     0.002 A 
ATOM      6  C6  N4B d   1       1.165   4.129   2.307  0.00  0.00     0.002 A 
ENDROOT
BRANCH   1   7
ATOM      7  C1' N4B d   1       0.705   2.388   0.618  0.00  0.00     0.057 C 
BRANCH   7   8
ATOM      8  C2' N4B d   1       1.098   0.930   0.398  0.00  0.00     0.009 C 
BRANCH   8   9
ATOM      9  C3' N4B d   1      -0.099   0.065   0.046  0.00  0.00     0.004 C 
ATOM     10  C4' N4B d   1      -0.085  -1.261   0.747  0.00  0.00     0.003 C 
ENDBRANCH   8   9
ENDBRANCH   7   8
ENDBRANCH   1   7
TORSDOF 3
ENDMDL
