MODEL 1
REMARK minimizedAffinity -0.547406375
REMARK minimizedRMSD -1
REMARK  3 active torsions:
REMARK  status: ('A' for Active; 'I' for Inactive)
REMARK    1  A    between atoms: C3'_2  and  C2'_3 
REMARK    2  A    between atoms: C2'_3  and  C1'_4 
REMARK    3  A    between atoms: C1'_4  and  C1_5 
ROOT
ATOM      1  C1  N4B d   1       0.340   0.320   2.285  0.00  0.00    -0.075 A 
ATOM      2  C2  N4B d   1       0.724   0.067   0.950  0.00  0.00     0.002 A 
ATOM      3  C3  N4B d   1       0.719   1.086   0.029  0.00  0.00     0.002 A 
ATOM      4  C4  N4B d   1       0.320   2.357   0.415  0.00  0.00    -0.004 A 
ATOM      5  C5  N4B d   1      -0.025   2.599   1.712  0.00  0.00     0.002 A 
ATOM      6  C6  N4B d   1      -0.021   1.585   2.649  0.00  0.00     0.002 A 
ENDROOT
BRANCH   1   7
ATOM      7  C1' N4B d   1       0.247  -0.780   3.307  0.00  0.00     0.057 C 
BRANCH   7   8
ATOM      8  C2' N4B d   1       1.652  -1.264   3.652  0.00  0.00     0.009 C 
BRANCH   8   9
ATOM      9  C3' N4B d   1       1.632  -2.378   4.684  0.00  0.00     0.004 C 
ATOM     10  C4' N4B d   1       2.968  -2.599   5.327  0.00  0.00     0.003 C 
ENDBRANCH   8   9
ENDBRANCH   7   8
ENDBRANCH   1   7
TORSDOF 3
ENDMDL
