MODEL 1
REMARK minimizedAffinity 8.27099037
REMARK minimizedRMSD -1
REMARK  3 active torsions:
REMARK  status: ('A' for Active; 'I' for Inactive)
REMARK    1  A    between atoms: C3'_2  and  C2'_3 
REMARK    2  A    between atoms: C2'_3  and  C1'_4 
REMARK    3  A    between atoms: C1'_4  and  C1_5 
ROOT
ATOM      1  C1  N4B d   1       0.666   0.842   1.950  0.00  0.00    -0.075 A 
ATOM      2  C2  N4B d   1       1.064   1.637   3.048  0.00  0.00     0.002 A 
ATOM      3  C3  N4B d   1       1.142   3.002   2.914  0.00  0.00     0.002 A 
ATOM      4  C4  N4B d   1       0.848   3.590   1.693  0.00  0.00    -0.004 A 
ATOM      5  C5  N4B d   1       0.440   2.817   0.645  0.00  0.00     0.002 A 
ATOM      6  C6  N4B d   1       0.353   1.445   0.766  0.00  0.00     0.002 A 
ENDROOT
BRANCH   1   7
ATOM      7  C1' N4B d   1       0.649  -0.660   2.023  0.00  0.00     0.057 C 
BRANCH   7   8
ATOM      8  C2' N4B d   1       0.968  -1.096   3.450  0.00  0.00     0.009 C 
BRANCH   8   9
ATOM      9  C3' N4B d   1       2.213  -1.965   3.513  0.00  0.00     0.004 C 
ATOM     10  C4' N4B d   1       2.299  -2.765   4.779  0.00  0.00     0.003 C 
ENDBRANCH   8   9
ENDBRANCH   7   8
ENDBRANCH   1   7
TORSDOF 3
ENDMDL
