MODEL 1
REMARK minimizedAffinity -0.0519160219
REMARK minimizedRMSD -1
REMARK  3 active torsions:
REMARK  status: ('A' for Active; 'I' for Inactive)
REMARK    1  A    between atoms: C3'_2  and  C2'_3 
REMARK    2  A    between atoms: C2'_3  and  C1'_4 
REMARK    3  A    between atoms: C1'_4  and  C1_5 
ROOT
ATOM      1  C1  N4B d   1       0.484  -0.951   3.341  0.00  0.00    -0.075 A 
ATOM      2  C2  N4B d   1       1.829  -1.376   3.412  0.00  0.00     0.002 A 
ATOM      3  C3  N4B d   1       2.241  -2.179   4.447  0.00  0.00     0.002 A 
ATOM      4  C4  N4B d   1       1.335  -2.554   5.427  0.00  0.00    -0.004 A 
ATOM      5  C5  N4B d   1       0.032  -2.161   5.337  0.00  0.00     0.002 A 
ATOM      6  C6  N4B d   1      -0.398  -1.356   4.301  0.00  0.00     0.002 A 
ENDROOT
BRANCH   1   7
ATOM      7  C1' N4B d   1       0.006  -0.002   2.276  0.00  0.00     0.057 C 
BRANCH   7   8
ATOM      8  C2' N4B d   1       0.669  -0.362   0.950  0.00  0.00     0.009 C 
BRANCH   8   9
ATOM      9  C3' N4B d   1       0.699   0.816  -0.009  0.00  0.00     0.004 C 
ATOM     10  C4' N4B d   1       0.053   2.044   0.560  0.00  0.00     0.003 C 
ENDBRANCH   8   9
ENDBRANCH   7   8
ENDBRANCH   1   7
TORSDOF 3
ENDMDL
