MODEL 1
REMARK minimizedAffinity 0.840759218
REMARK minimizedRMSD -1
REMARK  3 active torsions:
REMARK  status: ('A' for Active; 'I' for Inactive)
REMARK    1  A    between atoms: C3'_2  and  C2'_3 
REMARK    2  A    between atoms: C2'_3  and  C1'_4 
REMARK    3  A    between atoms: C1'_4  and  C1_5 
ROOT
ATOM      1  C1  N4B d   1      -3.374   3.519  -4.485  0.00  0.00    -0.075 A 
ATOM      2  C2  N4B d   1      -4.407   2.806  -3.836  0.00  0.00     0.002 A 
ATOM      3  C3  N4B d   1      -5.701   2.912  -4.283  0.00  0.00     0.002 A 
ATOM      4  C4  N4B d   1      -5.988   3.735  -5.362  0.00  0.00    -0.004 A 
ATOM      5  C5  N4B d   1      -4.982   4.400  -5.999  0.00  0.00     0.002 A 
ATOM      6  C6  N4B d   1      -3.676   4.300  -5.563  0.00  0.00     0.002 A 
ENDROOT
BRANCH   1   7
ATOM      7  C1' N4B d   1      -1.958   3.502  -3.979  0.00  0.00     0.057 C 
BRANCH   7   8
ATOM      8  C2' N4B d   1      -1.753   2.268  -3.105  0.00  0.00     0.009 C 
BRANCH   8   9
ATOM      9  C3' N4B d   1      -0.566   1.438  -3.562  0.00  0.00     0.004 C 
ATOM     10  C4' N4B d   1      -0.968   0.102  -4.112  0.00  0.00     0.003 C 
ENDBRANCH   8   9
ENDBRANCH   7   8
ENDBRANCH   1   7
TORSDOF 3
ENDMDL
