MODEL 1
REMARK minimizedAffinity -1.81807435
REMARK minimizedRMSD -1
REMARK  3 active torsions:
REMARK  status: ('A' for Active; 'I' for Inactive)
REMARK    1  A    between atoms: C3'_2  and  C2'_3 
REMARK    2  A    between atoms: C2'_3  and  C1'_4 
REMARK    3  A    between atoms: C1'_4  and  C1_5 
ROOT
ATOM      1  C1  N4B d   1      -3.094   3.859  -4.095  0.00  0.00    -0.075 A 
ATOM      2  C2  N4B d   1      -1.708   4.127  -4.070  0.00  0.00     0.002 A 
ATOM      3  C3  N4B d   1      -1.151   4.955  -5.013  0.00  0.00     0.002 A 
ATOM      4  C4  N4B d   1      -1.955   5.510  -5.998  0.00  0.00    -0.004 A 
ATOM      5  C5  N4B d   1      -3.297   5.268  -6.000  0.00  0.00     0.002 A 
ATOM      6  C6  N4B d   1      -3.871   4.440  -5.056  0.00  0.00     0.002 A 
ENDROOT
BRANCH   1   7
ATOM      7  C1' N4B d   1      -3.734   2.892  -3.137  0.00  0.00     0.057 C 
BRANCH   7   8
ATOM      8  C2' N4B d   1      -5.144   2.567  -3.620  0.00  0.00     0.009 C 
BRANCH   8   9
ATOM      9  C3' N4B d   1      -5.164   1.366  -4.550  0.00  0.00     0.004 C 
ATOM     10  C4' N4B d   1      -5.079   1.751  -5.997  0.00  0.00     0.003 C 
ENDBRANCH   8   9
ENDBRANCH   7   8
ENDBRANCH   1   7
TORSDOF 3
ENDMDL
