MODEL 1
REMARK minimizedAffinity 1.62554252
REMARK minimizedRMSD -1
REMARK  3 active torsions:
REMARK  status: ('A' for Active; 'I' for Inactive)
REMARK    1  A    between atoms: C3'_2  and  C2'_3 
REMARK    2  A    between atoms: C2'_3  and  C1'_4 
REMARK    3  A    between atoms: C1'_4  and  C1_5 
ROOT
ATOM      1  C1  N4B d   1      -3.285   3.715  -4.801  0.00  0.00    -0.075 A 
ATOM      2  C2  N4B d   1      -4.166   2.828  -4.145  0.00  0.00     0.002 A 
ATOM      3  C3  N4B d   1      -5.510   2.860  -4.429  0.00  0.00     0.002 A 
ATOM      4  C4  N4B d   1      -5.994   3.778  -5.348  0.00  0.00    -0.004 A 
ATOM      5  C5  N4B d   1      -5.133   4.614  -5.997  0.00  0.00     0.002 A 
ATOM      6  C6  N4B d   1      -3.780   4.590  -5.724  0.00  0.00     0.002 A 
ENDROOT
BRANCH   1   7
ATOM      7  C1' N4B d   1      -1.821   3.776  -4.461  0.00  0.00     0.057 C 
BRANCH   7   8
ATOM      8  C2' N4B d   1      -1.593   3.107  -3.109  0.00  0.00     0.009 C 
BRANCH   8   9
ATOM      9  C3' N4B d   1      -0.698   1.885  -3.223  0.00  0.00     0.004 C 
ATOM     10  C4' N4B d   1       0.147   1.667  -2.003  0.00  0.00     0.003 C 
ENDBRANCH   8   9
ENDBRANCH   7   8
ENDBRANCH   1   7
TORSDOF 3
ENDMDL
