MODEL 1
REMARK minimizedAffinity 2.59433866
REMARK minimizedRMSD -1
REMARK  3 active torsions:
REMARK  status: ('A' for Active; 'I' for Inactive)
REMARK    1  A    between atoms: C3'_2  and  C2'_3 
REMARK    2  A    between atoms: C2'_3  and  C1'_4 
REMARK    3  A    between atoms: C1'_4  and  C1_5 
ROOT
ATOM      1  C1  N4B d   1      -3.591   3.022  -4.639  0.00  0.00    -0.075 A 
ATOM      2  C2  N4B d   1      -4.091   4.143  -5.339  0.00  0.00     0.002 A 
ATOM      3  C3  N4B d   1      -5.293   4.060  -5.999  0.00  0.00     0.002 A 
ATOM      4  C4  N4B d   1      -6.000   2.867  -5.989  0.00  0.00    -0.004 A 
ATOM      5  C5  N4B d   1      -5.523   1.797  -5.289  0.00  0.00     0.002 A 
ATOM      6  C6  N4B d   1      -4.318   1.868  -4.618  0.00  0.00     0.002 A 
ENDROOT
BRANCH   1   7
ATOM      7  C1' N4B d   1      -2.242   3.038  -3.975  0.00  0.00     0.057 C 
BRANCH   7   8
ATOM      8  C2' N4B d   1      -2.364   2.434  -2.579  0.00  0.00     0.009 C 
BRANCH   8   9
ATOM      9  C3' N4B d   1      -1.040   1.878  -2.083  0.00  0.00     0.004 C 
ATOM     10  C4' N4B d   1      -0.893   1.971  -0.593  0.00  0.00     0.003 C 
ENDBRANCH   8   9
ENDBRANCH   7   8
ENDBRANCH   1   7
TORSDOF 3
ENDMDL
