MODEL 1
REMARK minimizedAffinity -3.3094511
REMARK minimizedRMSD -1
REMARK  1 active torsions:
REMARK  status: ('A' for Active; 'I' for Inactive)
REMARK    1  A    between atoms: C1_2  and  C2_3 
ROOT
ATOM      1  C2  UNL d   1       1.392  -0.472   0.262  0.00  0.00    -0.076 A 
ATOM      2  C3  UNL d   1       0.316  -1.236  -0.224  0.00  0.00     0.004 A 
ATOM      3  C4  UNL d   1      -0.914  -0.644  -0.504  0.00  0.00    -0.003 A 
ATOM      4  C5  UNL d   1      -1.089   0.721  -0.303  0.00  0.00     0.000 A 
ATOM      5  C6  UNL d   1      -0.027   1.496   0.161  0.00  0.00     0.000 A 
ATOM      6  C7  UNL d   1       1.225   0.918   0.433  0.00  0.00    -0.073 A 
ATOM      7  C8  UNL d   1       2.334   1.801   0.937  0.00  0.00     0.078 C 
ENDROOT
BRANCH   1   8
ATOM      8  C1  UNL d   1       2.695  -1.174   0.574  0.00  0.00     0.053 C 
ATOM      9  C   UNL d   1       3.019  -2.273  -0.426  0.00  0.00     0.018 C 
ENDBRANCH   1   8
TORSDOF 1
ENDMDL
