MODEL 1
REMARK minimizedAffinity -5.44465733
REMARK minimizedRMSD -1
REMARK  1 active torsions:
REMARK  status: ('A' for Active; 'I' for Inactive)
REMARK    1  A    between atoms: C1_2  and  C2_3 
ROOT
ATOM      1  C2  UNL d   1       0.572   0.324  -0.307  0.00  0.00    -0.076 A 
ATOM      2  C3  UNL d   1       1.466   1.301   0.167  0.00  0.00     0.004 A 
ATOM      3  C4  UNL d   1       2.755   0.958   0.571  0.00  0.00    -0.003 A 
ATOM      4  C5  UNL d   1       3.172  -0.367   0.506  0.00  0.00     0.000 A 
ATOM      5  C6  UNL d   1       2.305  -1.346   0.022  0.00  0.00     0.000 A 
ATOM      6  C7  UNL d   1       1.007  -1.015  -0.404  0.00  0.00    -0.073 A 
ATOM      7  C8  UNL d   1       0.112  -2.112  -0.911  0.00  0.00     0.078 C 
ENDROOT
BRANCH   1   8
ATOM      8  C1  UNL d   1      -0.823   0.751  -0.705  0.00  0.00     0.053 C 
ATOM      9  C   UNL d   1      -1.834   0.556   0.415  0.00  0.00     0.018 C 
ENDBRANCH   1   8
TORSDOF 1
ENDMDL
