MODEL 1
REMARK minimizedAffinity -5.348701
REMARK minimizedRMSD -1
REMARK  1 active torsions:
REMARK  status: ('A' for Active; 'I' for Inactive)
REMARK    1  A    between atoms: C1_2  and  C2_3 
ROOT
ATOM      1  C2  UNL d   1       1.075   0.273   0.204  0.00  0.00    -0.076 A 
ATOM      2  C3  UNL d   1       0.893  -1.120   0.259  0.00  0.00     0.004 A 
ATOM      3  C4  UNL d   1       1.973  -1.977   0.467  0.00  0.00    -0.003 A 
ATOM      4  C5  UNL d   1       3.252  -1.454   0.624  0.00  0.00     0.000 A 
ATOM      5  C6  UNL d   1       3.448  -0.074   0.590  0.00  0.00     0.000 A 
ATOM      6  C7  UNL d   1       2.368   0.804   0.397  0.00  0.00    -0.073 A 
ATOM      7  C8  UNL d   1       2.637   2.284   0.363  0.00  0.00     0.078 C 
ENDROOT
BRANCH   1   8
ATOM      8  C1  UNL d   1      -0.130   1.151  -0.052  0.00  0.00     0.053 C 
ATOM      9  C   UNL d   1      -1.344   0.356  -0.506  0.00  0.00     0.018 C 
ENDBRANCH   1   8
TORSDOF 1
ENDMDL
