MODEL 1
REMARK minimizedAffinity -6.16710186
REMARK minimizedRMSD -1
REMARK  1 active torsions:
REMARK  status: ('A' for Active; 'I' for Inactive)
REMARK    1  A    between atoms: C1_2  and  C2_3 
ROOT
ATOM      1  C2  UNL d   1       0.637   0.535  -0.113  0.00  0.00    -0.076 A 
ATOM      2  C3  UNL d   1       1.551   1.479   0.386  0.00  0.00     0.004 A 
ATOM      3  C4  UNL d   1       2.822   1.094   0.809  0.00  0.00    -0.003 A 
ATOM      4  C5  UNL d   1       3.199  -0.243   0.740  0.00  0.00     0.000 A 
ATOM      5  C6  UNL d   1       2.312  -1.190   0.231  0.00  0.00     0.000 A 
ATOM      6  C7  UNL d   1       1.033  -0.816  -0.215  0.00  0.00    -0.073 A 
ATOM      7  C8  UNL d   1       0.114  -1.880  -0.750  0.00  0.00     0.078 C 
ENDROOT
BRANCH   1   8
ATOM      8  C1  UNL d   1      -0.737   1.008  -0.532  0.00  0.00     0.053 C 
ATOM      9  C   UNL d   1      -1.742   0.963   0.609  0.00  0.00     0.018 C 
ENDBRANCH   1   8
TORSDOF 1
ENDMDL
