MODEL 1
REMARK minimizedAffinity -0.933613777
REMARK minimizedRMSD -1
REMARK  1 active torsions:
REMARK  status: ('A' for Active; 'I' for Inactive)
REMARK    1  A    between atoms: C1_2  and  C2_3 
ROOT
ATOM      1  C2  UNL d   1       1.817   0.180   0.083  0.00  0.00    -0.076 A 
ATOM      2  C3  UNL d   1       0.632  -0.573   0.002  0.00  0.00     0.004 A 
ATOM      3  C4  UNL d   1      -0.608   0.052  -0.124  0.00  0.00    -0.003 A 
ATOM      4  C5  UNL d   1      -0.683   1.440  -0.170  0.00  0.00     0.000 A 
ATOM      5  C6  UNL d   1       0.483   2.201  -0.108  0.00  0.00     0.000 A 
ATOM      6  C7  UNL d   1       1.743   1.587   0.002  0.00  0.00    -0.073 A 
ATOM      7  C8  UNL d   1       2.967   2.457   0.070  0.00  0.00     0.078 C 
ENDROOT
BRANCH   1   8
ATOM      8  C1  UNL d   1       3.130  -0.552   0.246  0.00  0.00     0.053 C 
ATOM      9  C   UNL d   1       3.508  -1.352  -0.991  0.00  0.00     0.018 C 
ENDBRANCH   1   8
TORSDOF 1
ENDMDL
