MODEL 1
REMARK minimizedAffinity -5.44088173
REMARK minimizedRMSD -1
REMARK  1 active torsions:
REMARK  status: ('A' for Active; 'I' for Inactive)
REMARK    1  A    between atoms: C1_2  and  C2_3 
ROOT
ATOM      1  C2  UNL d   1       0.176  -0.116   0.244  0.00  0.00    -0.076 A 
ATOM      2  C3  UNL d   1      -0.010  -1.509   0.214  0.00  0.00     0.004 A 
ATOM      3  C4  UNL d   1       1.038  -2.380   0.512  0.00  0.00    -0.003 A 
ATOM      4  C5  UNL d   1       2.288  -1.870   0.846  0.00  0.00     0.000 A 
ATOM      5  C6  UNL d   1       2.485  -0.491   0.899  0.00  0.00     0.000 A 
ATOM      6  C7  UNL d   1       1.436   0.400   0.617  0.00  0.00    -0.073 A 
ATOM      7  C8  UNL d   1       1.706   1.878   0.682  0.00  0.00     0.078 C 
ENDROOT
BRANCH   1   8
ATOM      8  C1  UNL d   1      -0.989   0.778  -0.115  0.00  0.00     0.053 C 
ATOM      9  C   UNL d   1      -2.243   0.448   0.680  0.00  0.00     0.018 C 
ENDBRANCH   1   8
TORSDOF 1
ENDMDL
