MODEL 1
REMARK minimizedAffinity 0.0425941683
REMARK minimizedRMSD -1
REMARK  0 active torsions:
REMARK  status: ('A' for Active; 'I' for Inactive)
ROOT
ATOM      1  C   UNL d   1       2.676  -1.131  -1.289  0.00  0.00     0.023 A 
ATOM      2  C1  UNL d   1       2.704   0.136  -0.707  0.00  0.00     0.003 A 
ATOM      3  C2  UNL d   1       1.565   0.641  -0.076  0.00  0.00     0.048 A 
ATOM      4  C3  UNL d   1       0.402  -0.127  -0.029  0.00  0.00     0.023 A 
ATOM      5  C4  UNL d   1       0.370  -1.396  -0.609  0.00  0.00     0.048 A 
ATOM      6  C5  UNL d   1       1.511  -1.897  -1.240  0.00  0.00     0.003 A 
ATOM      7  I   UNL d   1      -1.294   0.622   0.910  0.00  0.00    -0.146 I 
ENDROOT
TORSDOF 0
ENDMDL
