MODEL 1
REMARK minimizedAffinity -1.60823262
REMARK minimizedRMSD -1
REMARK  0 active torsions:
REMARK  status: ('A' for Active; 'I' for Inactive)
ROOT
ATOM      1  C   UNL d   1       2.260  -0.917  -1.325  0.00  0.00     0.023 A 
ATOM      2  C1  UNL d   1       2.156   0.413  -0.918  0.00  0.00     0.003 A 
ATOM      3  C2  UNL d   1       1.111   0.809  -0.080  0.00  0.00     0.048 A 
ATOM      4  C3  UNL d   1       0.175  -0.132   0.349  0.00  0.00     0.023 A 
ATOM      5  C4  UNL d   1       0.276  -1.464  -0.055  0.00  0.00     0.048 A 
ATOM      6  C5  UNL d   1       1.322  -1.855  -0.894  0.00  0.00     0.003 A 
ATOM      7  I   UNL d   1      -1.380   0.454   1.597  0.00  0.00    -0.146 I 
ENDROOT
TORSDOF 0
ENDMDL
