MODEL 1
REMARK minimizedAffinity -3.46462226
REMARK minimizedRMSD -1
REMARK  0 active torsions:
REMARK  status: ('A' for Active; 'I' for Inactive)
ROOT
ATOM      1  C   UNL d   1       2.432  -1.195  -1.001  0.00  0.00     0.023 A 
ATOM      2  C1  UNL d   1       1.441  -1.986  -0.419  0.00  0.00     0.003 A 
ATOM      3  C2  UNL d   1       0.303  -1.391   0.129  0.00  0.00     0.048 A 
ATOM      4  C3  UNL d   1       0.162  -0.004   0.091  0.00  0.00     0.023 A 
ATOM      5  C4  UNL d   1       1.151   0.791  -0.491  0.00  0.00     0.048 A 
ATOM      6  C5  UNL d   1       2.287   0.192  -1.037  0.00  0.00     0.003 A 
ATOM      7  I   UNL d   1      -1.531   0.885   0.906  0.00  0.00    -0.146 I 
ENDROOT
TORSDOF 0
ENDMDL
