MODEL 1
REMARK minimizedAffinity -2.63718987
REMARK minimizedRMSD -1
REMARK  0 active torsions:
REMARK  status: ('A' for Active; 'I' for Inactive)
ROOT
ATOM      1  C   UNL d   1       3.412  -0.455  -0.961  0.00  0.00     0.023 A 
ATOM      2  C1  UNL d   1       2.286  -1.279  -0.982  0.00  0.00     0.003 A 
ATOM      3  C2  UNL d   1       1.025  -0.747  -0.705  0.00  0.00     0.048 A 
ATOM      4  C3  UNL d   1       0.897   0.609  -0.408  0.00  0.00     0.023 A 
ATOM      5  C4  UNL d   1       2.020   1.437  -0.387  0.00  0.00     0.048 A 
ATOM      6  C5  UNL d   1       3.279   0.901  -0.664  0.00  0.00     0.003 A 
ATOM      7  I   UNL d   1      -0.980   1.402   0.005  0.00  0.00    -0.146 I 
ENDROOT
TORSDOF 0
ENDMDL
