MODEL 1
REMARK minimizedAffinity -2.62406158
REMARK minimizedRMSD -1
REMARK  0 active torsions:
REMARK  status: ('A' for Active; 'I' for Inactive)
ROOT
ATOM      1  C   UNL d   1       2.308  -1.417  -0.744  0.00  0.00     0.023 A 
ATOM      2  C1  UNL d   1       1.119  -2.115  -0.531  0.00  0.00     0.003 A 
ATOM      3  C2  UNL d   1      -0.035  -1.429  -0.147  0.00  0.00     0.048 A 
ATOM      4  C3  UNL d   1       0.006  -0.046   0.019  0.00  0.00     0.023 A 
ATOM      5  C4  UNL d   1       1.193   0.657  -0.194  0.00  0.00     0.048 A 
ATOM      6  C5  UNL d   1       2.345  -0.033  -0.576  0.00  0.00     0.003 A 
ATOM      7  I   UNL d   1      -1.711   0.977   0.589  0.00  0.00    -0.146 I 
ENDROOT
TORSDOF 0
ENDMDL
