MODEL 1
REMARK minimizedAffinity -5.01416492
REMARK minimizedRMSD -1
REMARK  0 active torsions:
REMARK  status: ('A' for Active; 'I' for Inactive)
ROOT
ATOM      1  C   UNL d   1       1.896  -1.034  -0.862  0.00  0.00     0.023 A 
ATOM      2  C1  UNL d   1       0.749  -1.600  -0.305  0.00  0.00     0.003 A 
ATOM      3  C2  UNL d   1      -0.247  -0.780   0.229  0.00  0.00     0.048 A 
ATOM      4  C3  UNL d   1      -0.090   0.606   0.202  0.00  0.00     0.023 A 
ATOM      5  C4  UNL d   1       1.055   1.176  -0.355  0.00  0.00     0.048 A 
ATOM      6  C5  UNL d   1       2.049   0.352  -0.887  0.00  0.00     0.003 A 
ATOM      7  I   UNL d   1      -1.572   1.829   0.996  0.00  0.00    -0.146 I 
ENDROOT
TORSDOF 0
ENDMDL
