MODEL 1
REMARK minimizedAffinity -2.80691004
REMARK minimizedRMSD -1
REMARK  0 active torsions:
REMARK  status: ('A' for Active; 'I' for Inactive)
ROOT
ATOM      1  C   UNL d   1       1.909  -0.937  -1.384  0.00  0.00     0.023 A 
ATOM      2  C1  UNL d   1       1.410   0.360  -1.514  0.00  0.00     0.003 A 
ATOM      3  C2  UNL d   1       0.386   0.803  -0.674  0.00  0.00     0.048 A 
ATOM      4  C3  UNL d   1      -0.133  -0.054   0.295  0.00  0.00     0.023 A 
ATOM      5  C4  UNL d   1       0.363  -1.352   0.430  0.00  0.00     0.048 A 
ATOM      6  C5  UNL d   1       1.386  -1.791  -0.413  0.00  0.00     0.003 A 
ATOM      7  I   UNL d   1      -1.657   0.604   1.546  0.00  0.00    -0.146 I 
ENDROOT
TORSDOF 0
ENDMDL
