MODEL 1
REMARK minimizedAffinity -3.34655237
REMARK minimizedRMSD -1
REMARK  0 active torsions:
REMARK  status: ('A' for Active; 'I' for Inactive)
ROOT
ATOM      1  C   UNL d   1       2.660  -1.124  -0.613  0.00  0.00     0.023 A 
ATOM      2  C1  UNL d   1       1.615  -1.915  -0.138  0.00  0.00     0.003 A 
ATOM      3  C2  UNL d   1       0.433  -1.319   0.308  0.00  0.00     0.048 A 
ATOM      4  C3  UNL d   1       0.304   0.069   0.276  0.00  0.00     0.023 A 
ATOM      5  C4  UNL d   1       1.347   0.865  -0.200  0.00  0.00     0.048 A 
ATOM      6  C5  UNL d   1       2.527   0.265  -0.644  0.00  0.00     0.003 A 
ATOM      7  I   UNL d   1      -1.454   0.958   0.939  0.00  0.00    -0.146 I 
ENDROOT
TORSDOF 0
ENDMDL
