MODEL 1
REMARK minimizedAffinity -1.87570775
REMARK minimizedRMSD -1
REMARK  0 active torsions:
REMARK  status: ('A' for Active; 'I' for Inactive)
ROOT
ATOM      1  C   UNL d   1       5.776  -2.272   4.143  0.00  0.00     0.023 A 
ATOM      2  C1  UNL d   1       5.904  -1.206   3.252  0.00  0.00     0.003 A 
ATOM      3  C2  UNL d   1       5.967   0.103   3.732  0.00  0.00     0.048 A 
ATOM      4  C3  UNL d   1       5.903   0.340   5.104  0.00  0.00     0.023 A 
ATOM      5  C4  UNL d   1       5.776  -0.723   6.000  0.00  0.00     0.048 A 
ATOM      6  C5  UNL d   1       5.712  -2.030   5.515  0.00  0.00     0.003 A 
ATOM      7  I   UNL d   1       5.998   2.289   5.821  0.00  0.00    -0.146 I 
ENDROOT
TORSDOF 0
ENDMDL
