MODEL 1
REMARK minimizedAffinity -1.83792531
REMARK minimizedRMSD -1
REMARK  0 active torsions:
REMARK  status: ('A' for Active; 'I' for Inactive)
ROOT
ATOM      1  C   UNL d   1      -1.214   0.094   0.349  0.00  0.00     0.023 A 
ATOM      2  C1  UNL d   1      -0.710  -1.200   0.218  0.00  0.00     0.003 A 
ATOM      3  C2  UNL d   1       0.590  -1.400  -0.252  0.00  0.00     0.048 A 
ATOM      4  C3  UNL d   1       1.379  -0.301  -0.590  0.00  0.00     0.023 A 
ATOM      5  C4  UNL d   1       0.879   0.995  -0.459  0.00  0.00     0.048 A 
ATOM      6  C5  UNL d   1      -0.421   1.190   0.011  0.00  0.00     0.003 A 
ATOM      7  I   UNL d   1       3.314  -0.596  -1.290  0.00  0.00    -0.146 I 
ENDROOT
TORSDOF 0
ENDMDL
