MODEL 1
REMARK minimizedAffinity -3.35585093
REMARK minimizedRMSD -1
REMARK  0 active torsions:
REMARK  status: ('A' for Active; 'I' for Inactive)
ROOT
ATOM      1  C   UNL d   1       2.520  -0.860  -1.213  0.00  0.00     0.023 A 
ATOM      2  C1  UNL d   1       2.431   0.483  -0.846  0.00  0.00     0.003 A 
ATOM      3  C2  UNL d   1       1.258   0.974  -0.270  0.00  0.00     0.048 A 
ATOM      4  C3  UNL d   1       0.178   0.117  -0.063  0.00  0.00     0.023 A 
ATOM      5  C4  UNL d   1       0.263  -1.228  -0.427  0.00  0.00     0.048 A 
ATOM      6  C5  UNL d   1       1.438  -1.714  -1.004  0.00  0.00     0.003 A 
ATOM      7  I   UNL d   1      -1.569   0.845   0.795  0.00  0.00    -0.146 I 
ENDROOT
TORSDOF 0
ENDMDL
