MODEL 1
REMARK minimizedAffinity -3.51235819
REMARK minimizedRMSD -1
REMARK  0 active torsions:
REMARK  status: ('A' for Active; 'I' for Inactive)
ROOT
ATOM      1  C   UNL d   1      -1.738   0.584  -0.381  0.00  0.00     0.023 A 
ATOM      2  C1  UNL d   1      -1.385  -0.740  -0.120  0.00  0.00     0.003 A 
ATOM      3  C2  UNL d   1      -0.054  -1.145  -0.239  0.00  0.00     0.048 A 
ATOM      4  C3  UNL d   1       0.919  -0.221  -0.618  0.00  0.00     0.023 A 
ATOM      5  C4  UNL d   1       0.570   1.105  -0.879  0.00  0.00     0.048 A 
ATOM      6  C5  UNL d   1      -0.762   1.506  -0.760  0.00  0.00     0.003 A 
ATOM      7  I   UNL d   1       2.901  -0.821  -0.795  0.00  0.00    -0.146 I 
ENDROOT
TORSDOF 0
ENDMDL
