MODEL 1
REMARK minimizedAffinity -3.73057199
REMARK minimizedRMSD -1
REMARK  0 active torsions:
REMARK  status: ('A' for Active; 'I' for Inactive)
ROOT
ATOM      1  C   UNL d   1      -3.294   0.696   2.593  0.00  0.00     0.023 A 
ATOM      2  C1  UNL d   1      -2.264   1.614   2.797  0.00  0.00     0.003 A 
ATOM      3  C2  UNL d   1      -1.259   1.762   1.839  0.00  0.00     0.048 A 
ATOM      4  C3  UNL d   1      -1.291   0.990   0.678  0.00  0.00     0.023 A 
ATOM      5  C4  UNL d   1      -2.320   0.071   0.470  0.00  0.00     0.048 A 
ATOM      6  C5  UNL d   1      -3.322  -0.075   1.431  0.00  0.00     0.003 A 
ATOM      7  I   UNL d   1       0.203   1.209  -0.750  0.00  0.00    -0.146 I 
ENDROOT
TORSDOF 0
ENDMDL
