MODEL 1
REMARK minimizedAffinity 7.28577805
REMARK minimizedRMSD -1
REMARK  0 active torsions:
REMARK  status: ('A' for Active; 'I' for Inactive)
ROOT
ATOM      1  C   UNL d   1      -5.274   3.716   6.000  0.00  0.00     0.023 A 
ATOM      2  C1  UNL d   1      -5.992   4.179   4.897  0.00  0.00     0.003 A 
ATOM      3  C2  UNL d   1      -5.999   3.445   3.709  0.00  0.00     0.048 A 
ATOM      4  C3  UNL d   1      -5.287   2.249   3.631  0.00  0.00     0.023 A 
ATOM      5  C4  UNL d   1      -4.568   1.781   4.732  0.00  0.00     0.048 A 
ATOM      6  C5  UNL d   1      -4.562   2.519   5.917  0.00  0.00     0.003 A 
ATOM      7  I   UNL d   1      -5.297   1.154   1.864  0.00  0.00    -0.146 I 
ENDROOT
TORSDOF 0
ENDMDL
