MODEL 1
REMARK minimizedAffinity 1.27429152
REMARK minimizedRMSD -1
REMARK  0 active torsions:
REMARK  status: ('A' for Active; 'I' for Inactive)
ROOT
ATOM      1  C   UNL d   1      -5.620   3.569   5.756  0.00  0.00     0.023 A 
ATOM      2  C1  UNL d   1      -5.993   3.966   4.472  0.00  0.00     0.003 A 
ATOM      3  C2  UNL d   1      -5.998   3.039   3.427  0.00  0.00     0.048 A 
ATOM      4  C3  UNL d   1      -5.629   1.717   3.674  0.00  0.00     0.023 A 
ATOM      5  C4  UNL d   1      -5.256   1.315   4.957  0.00  0.00     0.048 A 
ATOM      6  C5  UNL d   1      -5.252   2.245   5.999  0.00  0.00     0.003 A 
ATOM      7  I   UNL d   1      -5.636   0.336   2.120  0.00  0.00    -0.146 I 
ENDROOT
TORSDOF 0
ENDMDL
