MODEL 1
REMARK minimizedAffinity 10.0281487
REMARK minimizedRMSD -1
REMARK  0 active torsions:
REMARK  status: ('A' for Active; 'I' for Inactive)
ROOT
ATOM      1  C   UNL d   1      -1.285   0.785   2.273  0.00  0.00     0.023 A 
ATOM      2  C1  UNL d   1      -1.081  -0.455   1.667  0.00  0.00     0.003 A 
ATOM      3  C2  UNL d   1       0.155  -0.758   1.092  0.00  0.00     0.048 A 
ATOM      4  C3  UNL d   1       1.183   0.183   1.128  0.00  0.00     0.023 A 
ATOM      5  C4  UNL d   1       0.984   1.425   1.734  0.00  0.00     0.048 A 
ATOM      6  C5  UNL d   1      -0.253   1.723   2.307  0.00  0.00     0.003 A 
ATOM      7  I   UNL d   1       3.024  -0.265   0.273  0.00  0.00    -0.146 I 
ENDROOT
TORSDOF 0
ENDMDL
