MODEL 1
REMARK minimizedAffinity 4.13795233
REMARK minimizedRMSD -1
REMARK  0 active torsions:
REMARK  status: ('A' for Active; 'I' for Inactive)
ROOT
ATOM      1  C   UNL d   1      -2.646   0.126   0.387  0.00  0.00     0.023 A 
ATOM      2  C1  UNL d   1      -1.334  -0.340   0.471  0.00  0.00     0.003 A 
ATOM      3  C2  UNL d   1      -0.458   0.201   1.415  0.00  0.00     0.048 A 
ATOM      4  C3  UNL d   1      -0.901   1.207   2.272  0.00  0.00     0.023 A 
ATOM      5  C4  UNL d   1      -2.214   1.676   2.192  0.00  0.00     0.048 A 
ATOM      6  C5  UNL d   1      -3.085   1.133   1.246  0.00  0.00     0.003 A 
ATOM      7  I   UNL d   1       0.400   2.014   3.678  0.00  0.00    -0.146 I 
ENDROOT
TORSDOF 0
ENDMDL
