MODEL 1
REMARK minimizedAffinity 15.4426384
REMARK minimizedRMSD -1
REMARK  0 active torsions:
REMARK  status: ('A' for Active; 'I' for Inactive)
ROOT
ATOM      1  C   UNL d   1       2.682  -5.999   2.923  0.00  0.00     0.023 A 
ATOM      2  C1  UNL d   1       2.665  -5.970   1.528  0.00  0.00     0.003 A 
ATOM      3  C2  UNL d   1       1.448  -5.930   0.844  0.00  0.00     0.048 A 
ATOM      4  C3  UNL d   1       0.252  -5.919   1.561  0.00  0.00     0.023 A 
ATOM      5  C4  UNL d   1       0.264  -5.947   2.956  0.00  0.00     0.048 A 
ATOM      6  C5  UNL d   1       1.483  -5.987   3.636  0.00  0.00     0.003 A 
ATOM      7  I   UNL d   1      -1.560  -5.859   0.545  0.00  0.00    -0.146 I 
ENDROOT
TORSDOF 0
ENDMDL
