MODEL 1
REMARK minimizedAffinity 5.44812965
REMARK minimizedRMSD -1
REMARK  0 active torsions:
REMARK  status: ('A' for Active; 'I' for Inactive)
ROOT
ATOM      1  C   UNL d   1       0.597  -0.096   1.130  0.00  0.00     0.023 A 
ATOM      2  C1  UNL d   1      -0.099  -0.633   2.213  0.00  0.00     0.003 A 
ATOM      3  C2  UNL d   1      -1.395  -0.198   2.498  0.00  0.00     0.048 A 
ATOM      4  C3  UNL d   1      -1.989   0.775   1.694  0.00  0.00     0.023 A 
ATOM      5  C4  UNL d   1      -1.297   1.314   0.609  0.00  0.00     0.048 A 
ATOM      6  C5  UNL d   1      -0.002   0.877   0.329  0.00  0.00     0.003 A 
ATOM      7  I   UNL d   1      -3.918   1.424   2.115  0.00  0.00    -0.146 I 
ENDROOT
TORSDOF 0
ENDMDL
