MODEL 1
REMARK minimizedAffinity 2.34079599
REMARK minimizedRMSD -1
REMARK  0 active torsions:
REMARK  status: ('A' for Active; 'I' for Inactive)
ROOT
ATOM      1  C   UNL d   1      -4.120   1.468   1.761  0.00  0.00     0.023 A 
ATOM      2  C1  UNL d   1      -3.244   1.457   2.847  0.00  0.00     0.003 A 
ATOM      3  C2  UNL d   1      -1.946   0.966   2.694  0.00  0.00     0.048 A 
ATOM      4  C3  UNL d   1      -1.529   0.488   1.452  0.00  0.00     0.023 A 
ATOM      5  C4  UNL d   1      -2.402   0.498   0.362  0.00  0.00     0.048 A 
ATOM      6  C5  UNL d   1      -3.699   0.989   0.520  0.00  0.00     0.003 A 
ATOM      7  I   UNL d   1       0.402  -0.243   1.222  0.00  0.00    -0.146 I 
ENDROOT
TORSDOF 0
ENDMDL
