MODEL 1
REMARK minimizedAffinity 5.91953421
REMARK minimizedRMSD -1
REMARK  0 active torsions:
REMARK  status: ('A' for Active; 'I' for Inactive)
ROOT
ATOM      1  C   UNL d   1      -3.049   2.183   2.355  0.00  0.00     0.023 A 
ATOM      2  C1  UNL d   1      -1.719   1.764   2.303  0.00  0.00     0.003 A 
ATOM      3  C2  UNL d   1      -1.371   0.632   1.562  0.00  0.00     0.048 A 
ATOM      4  C3  UNL d   1      -2.357  -0.075   0.876  0.00  0.00     0.023 A 
ATOM      5  C4  UNL d   1      -3.689   0.341   0.924  0.00  0.00     0.048 A 
ATOM      6  C5  UNL d   1      -4.032   1.472   1.666  0.00  0.00     0.003 A 
ATOM      7  I   UNL d   1      -1.841  -1.760  -0.227  0.00  0.00    -0.146 I 
ENDROOT
TORSDOF 0
ENDMDL
