MODEL 1
REMARK minimizedAffinity 10.0730906
REMARK minimizedRMSD -1
REMARK  0 active torsions:
REMARK  status: ('A' for Active; 'I' for Inactive)
ROOT
ATOM      1  C   UNL d   1      -2.660   0.654  -0.010  0.00  0.00     0.023 A 
ATOM      2  C1  UNL d   1      -3.144  -0.383  -0.807  0.00  0.00     0.003 A 
ATOM      3  C2  UNL d   1      -2.724  -1.695  -0.579  0.00  0.00     0.048 A 
ATOM      4  C3  UNL d   1      -1.821  -1.963   0.449  0.00  0.00     0.023 A 
ATOM      5  C4  UNL d   1      -1.334  -0.929   1.250  0.00  0.00     0.048 A 
ATOM      6  C5  UNL d   1      -1.756   0.382   1.017  0.00  0.00     0.003 A 
ATOM      7  I   UNL d   1      -1.195  -3.915   0.791  0.00  0.00    -0.146 I 
ENDROOT
TORSDOF 0
ENDMDL
