MODEL 1
REMARK minimizedAffinity 4.82867193
REMARK minimizedRMSD -1
REMARK  0 active torsions:
REMARK  status: ('A' for Active; 'I' for Inactive)
ROOT
ATOM      1  C   UNL d   1      -0.210   2.753   3.412  0.00  0.00     0.023 A 
ATOM      2  C1  UNL d   1       0.730   1.814   2.986  0.00  0.00     0.003 A 
ATOM      3  C2  UNL d   1       0.329   0.723   2.213  0.00  0.00     0.048 A 
ATOM      4  C3  UNL d   1      -1.014   0.577   1.869  0.00  0.00     0.023 A 
ATOM      5  C4  UNL d   1      -1.959   1.514   2.292  0.00  0.00     0.048 A 
ATOM      6  C5  UNL d   1      -1.553   2.602   3.066  0.00  0.00     0.003 A 
ATOM      7  I   UNL d   1      -1.615  -1.046   0.718  0.00  0.00    -0.146 I 
ENDROOT
TORSDOF 0
ENDMDL
