MODEL 1
REMARK minimizedAffinity 8.64596176
REMARK minimizedRMSD -1
REMARK  0 active torsions:
REMARK  status: ('A' for Active; 'I' for Inactive)
ROOT
ATOM      1  C   UNL d   1      -0.528   2.541   3.363  0.00  0.00     0.023 A 
ATOM      2  C1  UNL d   1      -1.814   2.464   2.827  0.00  0.00     0.003 A 
ATOM      3  C2  UNL d   1      -2.147   1.425   1.956  0.00  0.00     0.048 A 
ATOM      4  C3  UNL d   1      -1.191   0.466   1.625  0.00  0.00     0.023 A 
ATOM      5  C4  UNL d   1       0.097   0.538   2.159  0.00  0.00     0.048 A 
ATOM      6  C5  UNL d   1       0.426   1.579   3.029  0.00  0.00     0.003 A 
ATOM      7  I   UNL d   1      -1.685  -1.082   0.328  0.00  0.00    -0.146 I 
ENDROOT
TORSDOF 0
ENDMDL
