MODEL 1
REMARK minimizedAffinity 5.17859364
REMARK minimizedRMSD -1
REMARK  0 active torsions:
REMARK  status: ('A' for Active; 'I' for Inactive)
ROOT
ATOM      1  C   UNL d   1      -2.644   1.369   1.818  0.00  0.00     0.023 A 
ATOM      2  C1  UNL d   1      -1.569   1.794   2.600  0.00  0.00     0.003 A 
ATOM      3  C2  UNL d   1      -0.265   1.445   2.245  0.00  0.00     0.048 A 
ATOM      4  C3  UNL d   1      -0.041   0.671   1.107  0.00  0.00     0.023 A 
ATOM      5  C4  UNL d   1      -1.113   0.244   0.321  0.00  0.00     0.048 A 
ATOM      6  C5  UNL d   1      -2.416   0.595   0.680  0.00  0.00     0.003 A 
ATOM      7  I   UNL d   1       1.900   0.151   0.577  0.00  0.00    -0.146 I 
ENDROOT
TORSDOF 0
ENDMDL
