MODEL 1
REMARK minimizedAffinity 1.12077451
REMARK minimizedRMSD -1
REMARK  0 active torsions:
REMARK  status: ('A' for Active; 'I' for Inactive)
ROOT
ATOM      1  C   UNL d   1      -3.090   1.510   2.139  0.00  0.00     0.023 A 
ATOM      2  C1  UNL d   1      -2.801   0.826   0.958  0.00  0.00     0.003 A 
ATOM      3  C2  UNL d   1      -1.489   0.438   0.677  0.00  0.00     0.048 A 
ATOM      4  C3  UNL d   1      -0.471   0.738   1.582  0.00  0.00     0.023 A 
ATOM      5  C4  UNL d   1      -0.756   1.421   2.765  0.00  0.00     0.048 A 
ATOM      6  C5  UNL d   1      -2.069   1.808   3.041  0.00  0.00     0.003 A 
ATOM      7  I   UNL d   1       1.482   0.162   1.166  0.00  0.00    -0.146 I 
ENDROOT
TORSDOF 0
ENDMDL
