MODEL 1
REMARK minimizedAffinity 9.7097559
REMARK minimizedRMSD -1
REMARK  0 active torsions:
REMARK  status: ('A' for Active; 'I' for Inactive)
ROOT
ATOM      1  C   UNL d   1      -2.112   1.729   2.664  0.00  0.00     0.023 A 
ATOM      2  C1  UNL d   1      -2.100   1.222   1.364  0.00  0.00     0.003 A 
ATOM      3  C2  UNL d   1      -0.935   0.653   0.846  0.00  0.00     0.048 A 
ATOM      4  C3  UNL d   1       0.214   0.592   1.633  0.00  0.00     0.023 A 
ATOM      5  C4  UNL d   1       0.206   1.096   2.935  0.00  0.00     0.048 A 
ATOM      6  C5  UNL d   1      -0.960   1.666   3.448  0.00  0.00     0.003 A 
ATOM      7  I   UNL d   1       1.949  -0.256   0.864  0.00  0.00    -0.146 I 
ENDROOT
TORSDOF 0
ENDMDL
