MODEL 1
REMARK minimizedAffinity 5.228158
REMARK minimizedRMSD -1
REMARK  0 active torsions:
REMARK  status: ('A' for Active; 'I' for Inactive)
ROOT
ATOM      1  C   UNL d   1       0.085   2.554   3.243  0.00  0.00     0.023 A 
ATOM      2  C1  UNL d   1       0.964   1.753   2.515  0.00  0.00     0.003 A 
ATOM      3  C2  UNL d   1       0.472   0.714   1.722  0.00  0.00     0.048 A 
ATOM      4  C3  UNL d   1      -0.902   0.483   1.660  0.00  0.00     0.023 A 
ATOM      5  C4  UNL d   1      -1.786   1.283   2.386  0.00  0.00     0.048 A 
ATOM      6  C5  UNL d   1      -1.289   2.320   3.178  0.00  0.00     0.003 A 
ATOM      7  I   UNL d   1      -1.638  -1.061   0.480  0.00  0.00    -0.146 I 
ENDROOT
TORSDOF 0
ENDMDL
