MODEL 1
REMARK minimizedAffinity 10.1231318
REMARK minimizedRMSD -1
REMARK  0 active torsions:
REMARK  status: ('A' for Active; 'I' for Inactive)
ROOT
ATOM      1  C   UNL d   1       1.679   0.251   2.199  0.00  0.00     0.023 A 
ATOM      2  C1  UNL d   1       1.254   1.578   2.262  0.00  0.00     0.003 A 
ATOM      3  C2  UNL d   1      -0.093   1.891   2.068  0.00  0.00     0.048 A 
ATOM      4  C3  UNL d   1      -1.010   0.872   1.812  0.00  0.00     0.023 A 
ATOM      5  C4  UNL d   1      -0.590  -0.457   1.749  0.00  0.00     0.048 A 
ATOM      6  C5  UNL d   1       0.758  -0.766   1.943  0.00  0.00     0.003 A 
ATOM      7  I   UNL d   1      -3.015   1.336   1.523  0.00  0.00    -0.146 I 
ENDROOT
TORSDOF 0
ENDMDL
