MODEL 1
REMARK minimizedAffinity 11.8830576
REMARK minimizedRMSD -1
REMARK  0 active torsions:
REMARK  status: ('A' for Active; 'I' for Inactive)
ROOT
ATOM      1  C   UNL d   1      -5.997  -5.586  -2.628  0.00  0.00     0.023 A 
ATOM      2  C1  UNL d   1      -4.888  -6.000  -1.891  0.00  0.00     0.003 A 
ATOM      3  C2  UNL d   1      -3.753  -5.190  -1.820  0.00  0.00     0.048 A 
ATOM      4  C3  UNL d   1      -3.734  -3.966  -2.489  0.00  0.00     0.023 A 
ATOM      5  C4  UNL d   1      -4.842  -3.547  -3.227  0.00  0.00     0.048 A 
ATOM      6  C5  UNL d   1      -5.974  -4.361  -3.296  0.00  0.00     0.003 A 
ATOM      7  I   UNL d   1      -2.046  -2.758  -2.385  0.00  0.00    -0.146 I 
ENDROOT
TORSDOF 0
ENDMDL
