MODEL 1
REMARK minimizedAffinity 13.2936583
REMARK minimizedRMSD -1
REMARK  0 active torsions:
REMARK  status: ('A' for Active; 'I' for Inactive)
ROOT
ATOM      1  C   UNL d   1      -4.620  -2.994  -3.377  0.00  0.00     0.023 A 
ATOM      2  C1  UNL d   1      -3.369  -2.971  -2.760  0.00  0.00     0.003 A 
ATOM      3  C2  UNL d   1      -3.098  -3.833  -1.695  0.00  0.00     0.048 A 
ATOM      4  C3  UNL d   1      -4.083  -4.715  -1.252  0.00  0.00     0.023 A 
ATOM      5  C4  UNL d   1      -5.336  -4.741  -1.867  0.00  0.00     0.048 A 
ATOM      6  C5  UNL d   1      -5.602  -3.878  -2.931  0.00  0.00     0.003 A 
ATOM      7  I   UNL d   1      -3.683  -5.998   0.333  0.00  0.00    -0.146 I 
ENDROOT
TORSDOF 0
ENDMDL
