MODEL 1
REMARK minimizedAffinity 6.65159035
REMARK minimizedRMSD -1
REMARK  0 active torsions:
REMARK  status: ('A' for Active; 'I' for Inactive)
ROOT
ATOM      1  C   UNL d   1       4.480   1.248  -3.205  0.00  0.00     0.023 A 
ATOM      2  C1  UNL d   1       4.396   1.136  -4.593  0.00  0.00     0.003 A 
ATOM      3  C2  UNL d   1       3.821   2.163  -5.344  0.00  0.00     0.048 A 
ATOM      4  C3  UNL d   1       3.333   3.300  -4.700  0.00  0.00     0.023 A 
ATOM      5  C4  UNL d   1       3.416   3.417  -3.312  0.00  0.00     0.048 A 
ATOM      6  C5  UNL d   1       3.990   2.387  -2.565  0.00  0.00     0.003 A 
ATOM      7  I   UNL d   1       2.477   4.831  -5.816  0.00  0.00    -0.146 I 
ENDROOT
TORSDOF 0
ENDMDL
