MODEL 1
REMARK minimizedAffinity 5.16328573
REMARK minimizedRMSD -1
REMARK  0 active torsions:
REMARK  status: ('A' for Active; 'I' for Inactive)
ROOT
ATOM      1  C   UNL d   1       2.241   5.404  -5.897  0.00  0.00     0.023 A 
ATOM      2  C1  UNL d   1       2.190   4.014  -6.000  0.00  0.00     0.003 A 
ATOM      3  C2  UNL d   1       2.695   3.217  -4.971  0.00  0.00     0.048 A 
ATOM      4  C3  UNL d   1       3.250   3.817  -3.841  0.00  0.00     0.023 A 
ATOM      5  C4  UNL d   1       3.303   5.207  -3.733  0.00  0.00     0.048 A 
ATOM      6  C5  UNL d   1       2.797   6.000  -4.765  0.00  0.00     0.003 A 
ATOM      7  I   UNL d   1       4.003   2.632  -2.308  0.00  0.00    -0.146 I 
ENDROOT
TORSDOF 0
ENDMDL
