MODEL 1
REMARK minimizedAffinity 12.2081738
REMARK minimizedRMSD -1
REMARK  0 active torsions:
REMARK  status: ('A' for Active; 'I' for Inactive)
ROOT
ATOM      1  C   UNL d   1      -6.000  -5.481  -2.870  0.00  0.00     0.023 A 
ATOM      2  C1  UNL d   1      -4.849  -5.999  -2.276  0.00  0.00     0.003 A 
ATOM      3  C2  UNL d   1      -3.695  -5.218  -2.187  0.00  0.00     0.048 A 
ATOM      4  C3  UNL d   1      -3.700  -3.918  -2.693  0.00  0.00     0.023 A 
ATOM      5  C4  UNL d   1      -4.849  -3.395  -3.288  0.00  0.00     0.048 A 
ATOM      6  C5  UNL d   1      -6.000  -4.181  -3.375  0.00  0.00     0.003 A 
ATOM      7  I   UNL d   1      -1.984  -2.753  -2.561  0.00  0.00    -0.146 I 
ENDROOT
TORSDOF 0
ENDMDL
