MODEL 1
REMARK minimizedAffinity 11.4565115
REMARK minimizedRMSD -1
REMARK  0 active torsions:
REMARK  status: ('A' for Active; 'I' for Inactive)
ROOT
ATOM      1  C   UNL d   1      -1.509  -3.744  -2.622  0.00  0.00     0.023 A 
ATOM      2  C1  UNL d   1      -2.616  -2.896  -2.608  0.00  0.00     0.003 A 
ATOM      3  C2  UNL d   1      -3.906  -3.430  -2.570  0.00  0.00     0.048 A 
ATOM      4  C3  UNL d   1      -4.081  -4.813  -2.545  0.00  0.00     0.023 A 
ATOM      5  C4  UNL d   1      -2.976  -5.666  -2.559  0.00  0.00     0.048 A 
ATOM      6  C5  UNL d   1      -1.688  -5.127  -2.598  0.00  0.00     0.003 A 
ATOM      7  I   UNL d   1      -6.000  -5.610  -2.488  0.00  0.00    -0.146 I 
ENDROOT
TORSDOF 0
ENDMDL
