MODEL 1
REMARK minimizedAffinity 8.88205719
REMARK minimizedRMSD -1
REMARK  0 active torsions:
REMARK  status: ('A' for Active; 'I' for Inactive)
ROOT
ATOM      1  C   UNL d   1      -1.218  -4.813   1.880  0.00  0.00     0.023 A 
ATOM      2  C1  UNL d   1      -1.409  -3.643   1.144  0.00  0.00     0.003 A 
ATOM      3  C2  UNL d   1      -2.249  -3.648   0.029  0.00  0.00     0.048 A 
ATOM      4  C3  UNL d   1      -2.897  -4.825  -0.344  0.00  0.00     0.023 A 
ATOM      5  C4  UNL d   1      -2.710  -5.997   0.390  0.00  0.00     0.048 A 
ATOM      6  C5  UNL d   1      -1.868  -5.988   1.503  0.00  0.00     0.003 A 
ATOM      7  I   UNL d   1      -4.150  -4.833  -2.003  0.00  0.00    -0.146 I 
ENDROOT
TORSDOF 0
ENDMDL
