MODEL 1
REMARK minimizedAffinity 12.424284
REMARK minimizedRMSD -1
REMARK  0 active torsions:
REMARK  status: ('A' for Active; 'I' for Inactive)
ROOT
ATOM      1  C   UNL d   1      -5.999  -5.260  -2.631  0.00  0.00     0.023 A 
ATOM      2  C1  UNL d   1      -5.983  -4.133  -3.453  0.00  0.00     0.003 A 
ATOM      3  C2  UNL d   1      -4.791  -3.433  -3.658  0.00  0.00     0.048 A 
ATOM      4  C3  UNL d   1      -3.620  -3.867  -3.038  0.00  0.00     0.023 A 
ATOM      5  C4  UNL d   1      -3.631  -4.994  -2.215  0.00  0.00     0.048 A 
ATOM      6  C5  UNL d   1      -4.825  -5.690  -2.013  0.00  0.00     0.003 A 
ATOM      7  I   UNL d   1      -1.846  -2.828  -3.341  0.00  0.00    -0.146 I 
ENDROOT
TORSDOF 0
ENDMDL
