MODEL 1
REMARK minimizedAffinity 10.4728594
REMARK minimizedRMSD -1
REMARK  0 active torsions:
REMARK  status: ('A' for Active; 'I' for Inactive)
ROOT
ATOM      1  C   UNL d   1      -5.775  -5.883  -3.125  0.00  0.00     0.023 A 
ATOM      2  C1  UNL d   1      -4.963  -6.000  -1.996  0.00  0.00     0.003 A 
ATOM      3  C2  UNL d   1      -3.801  -5.233  -1.887  0.00  0.00     0.048 A 
ATOM      4  C3  UNL d   1      -3.457  -4.351  -2.911  0.00  0.00     0.023 A 
ATOM      5  C4  UNL d   1      -4.266  -4.230  -4.042  0.00  0.00     0.048 A 
ATOM      6  C5  UNL d   1      -5.426  -4.999  -4.146  0.00  0.00     0.003 A 
ATOM      7  I   UNL d   1      -1.728  -3.209  -2.751  0.00  0.00    -0.146 I 
ENDROOT
TORSDOF 0
ENDMDL
