MODEL 1
REMARK minimizedAffinity 9.72700214
REMARK minimizedRMSD -1
REMARK  0 active torsions:
REMARK  status: ('A' for Active; 'I' for Inactive)
ROOT
ATOM      1  C   UNL d   1      -3.890  -4.037  -2.032  0.00  0.00     0.023 A 
ATOM      2  C1  UNL d   1      -3.017  -3.040  -2.469  0.00  0.00     0.003 A 
ATOM      3  C2  UNL d   1      -1.797  -3.385  -3.053  0.00  0.00     0.048 A 
ATOM      4  C3  UNL d   1      -1.456  -4.730  -3.197  0.00  0.00     0.023 A 
ATOM      5  C4  UNL d   1      -2.326  -5.731  -2.763  0.00  0.00     0.048 A 
ATOM      6  C5  UNL d   1      -3.545  -5.380  -2.178  0.00  0.00     0.003 A 
ATOM      7  I   UNL d   1       0.360  -5.246  -4.066  0.00  0.00    -0.146 I 
ENDROOT
TORSDOF 0
ENDMDL
