MODEL 1
REMARK minimizedAffinity 4.42121553
REMARK minimizedRMSD -1
REMARK  0 active torsions:
REMARK  status: ('A' for Active; 'I' for Inactive)
ROOT
ATOM      1  C   UNL d   1      -1.121  -4.070   3.018  0.00  0.00     0.023 A 
ATOM      2  C1  UNL d   1      -1.359  -5.444   3.009  0.00  0.00     0.003 A 
ATOM      3  C2  UNL d   1      -2.213  -6.000   2.054  0.00  0.00     0.048 A 
ATOM      4  C3  UNL d   1      -2.825  -5.175   1.111  0.00  0.00     0.023 A 
ATOM      5  C4  UNL d   1      -2.589  -3.800   1.115  0.00  0.00     0.048 A 
ATOM      6  C5  UNL d   1      -1.735  -3.249   2.073  0.00  0.00     0.003 A 
ATOM      7  I   UNL d   1      -4.096  -6.000  -0.312  0.00  0.00    -0.146 I 
ENDROOT
TORSDOF 0
ENDMDL
