MODEL 1
REMARK minimizedAffinity 11.1386786
REMARK minimizedRMSD -1
REMARK  0 active torsions:
REMARK  status: ('A' for Active; 'I' for Inactive)
ROOT
ATOM      1  C   UNL d   1      -0.579  -3.293   1.860  0.00  0.00     0.023 A 
ATOM      2  C1  UNL d   1      -0.742  -4.496   2.547  0.00  0.00     0.003 A 
ATOM      3  C2  UNL d   1      -1.882  -5.274   2.335  0.00  0.00     0.048 A 
ATOM      4  C3  UNL d   1      -2.855  -4.844   1.433  0.00  0.00     0.023 A 
ATOM      5  C4  UNL d   1      -2.695  -3.641   0.742  0.00  0.00     0.048 A 
ATOM      6  C5  UNL d   1      -1.554  -2.867   0.959  0.00  0.00     0.003 A 
ATOM      7  I   UNL d   1      -4.552  -6.000   1.115  0.00  0.00    -0.146 I 
ENDROOT
TORSDOF 0
ENDMDL
