MODEL 1
REMARK minimizedAffinity 0.997596323
REMARK minimizedRMSD -1
REMARK  0 active torsions:
REMARK  status: ('A' for Active; 'I' for Inactive)
ROOT
ATOM      1  C   UNL d   1      -1.538  -3.354  -3.170  0.00  0.00     0.023 A 
ATOM      2  C1  UNL d   1      -1.827  -4.498  -3.913  0.00  0.00     0.003 A 
ATOM      3  C2  UNL d   1      -3.107  -5.055  -3.871  0.00  0.00     0.048 A 
ATOM      4  C3  UNL d   1      -4.093  -4.461  -3.084  0.00  0.00     0.023 A 
ATOM      5  C4  UNL d   1      -3.809  -3.315  -2.340  0.00  0.00     0.048 A 
ATOM      6  C5  UNL d   1      -2.527  -2.763  -2.385  0.00  0.00     0.003 A 
ATOM      7  I   UNL d   1      -5.999  -5.288  -3.020  0.00  0.00    -0.146 I 
ENDROOT
TORSDOF 0
ENDMDL
