MODEL 1
REMARK minimizedAffinity 8.89764595
REMARK minimizedRMSD -1
REMARK  0 active torsions:
REMARK  status: ('A' for Active; 'I' for Inactive)
ROOT
ATOM      1  C   UNL d   1      -5.968  -5.282  -1.485  0.00  0.00     0.023 A 
ATOM      2  C1  UNL d   1      -5.999  -4.095  -2.218  0.00  0.00     0.003 A 
ATOM      3  C2  UNL d   1      -4.835  -3.342  -2.380  0.00  0.00     0.048 A 
ATOM      4  C3  UNL d   1      -3.641  -3.782  -1.808  0.00  0.00     0.023 A 
ATOM      5  C4  UNL d   1      -3.605  -4.969  -1.075  0.00  0.00     0.048 A 
ATOM      6  C5  UNL d   1      -4.772  -5.718  -0.915  0.00  0.00     0.003 A 
ATOM      7  I   UNL d   1      -1.907  -2.663  -2.049  0.00  0.00    -0.146 I 
ENDROOT
TORSDOF 0
ENDMDL
