MODEL 1
REMARK minimizedAffinity 14.4840498
REMARK minimizedRMSD -1
REMARK  0 active torsions:
REMARK  status: ('A' for Active; 'I' for Inactive)
ROOT
ATOM      1  C   UNL d   1      -1.486  -4.143   1.432  0.00  0.00     0.023 A 
ATOM      2  C1  UNL d   1      -1.111  -3.355   2.520  0.00  0.00     0.003 A 
ATOM      3  C2  UNL d   1      -1.140  -3.886   3.812  0.00  0.00     0.048 A 
ATOM      4  C3  UNL d   1      -1.543  -5.207   4.007  0.00  0.00     0.023 A 
ATOM      5  C4  UNL d   1      -1.918  -5.999   2.922  0.00  0.00     0.048 A 
ATOM      6  C5  UNL d   1      -1.889  -5.464   1.633  0.00  0.00     0.003 A 
ATOM      7  I   UNL d   1      -1.586  -5.999   5.928  0.00  0.00    -0.146 I 
ENDROOT
TORSDOF 0
ENDMDL
