MODEL 1
REMARK minimizedAffinity 15.7315512
REMARK minimizedRMSD -1
REMARK  0 active torsions:
REMARK  status: ('A' for Active; 'I' for Inactive)
ROOT
ATOM      1  C1  DEN d   1       4.051  -5.998  -3.267  0.00  0.00     0.130 A 
ATOM      2  C2  DEN d   1       2.659  -5.812  -3.668  0.00  0.00    -0.031 A 
ATOM      3  C3  DEN d   1       1.987  -5.013  -2.623  0.00  0.00     0.027 A 
ATOM      4  C4  DEN d   1       2.962  -4.049  -0.439  0.00  0.00     0.027 A 
ATOM      5  C5  DEN d   1       4.095  -3.955   0.340  0.00  0.00    -0.003 A 
ATOM      6  C6  DEN d   1       5.273  -4.559  -0.010  0.00  0.00     0.001 A 
ATOM      7  C7  DEN d   1       5.359  -5.247  -1.192  0.00  0.00     0.017 A 
ATOM      8  C8  DEN d   1       4.219  -5.353  -1.978  0.00  0.00    -0.094 A 
ATOM      9  C9  DEN d   1       3.040  -4.724  -1.613  0.00  0.00    -0.072 A 
ENDROOT
TORSDOF 0
ENDMDL
