MODEL 1
REMARK minimizedAffinity 15.3090639
REMARK minimizedRMSD -1
REMARK  0 active torsions:
REMARK  status: ('A' for Active; 'I' for Inactive)
ROOT
ATOM      1  C1  DEN d   1      -0.454   1.599  -0.712  0.00  0.00     0.130 A 
ATOM      2  C2  DEN d   1       0.306   2.498  -1.577  0.00  0.00    -0.031 A 
ATOM      3  C3  DEN d   1      -0.540   2.838  -2.739  0.00  0.00     0.027 A 
ATOM      4  C4  DEN d   1      -2.942   2.068  -3.277  0.00  0.00     0.027 A 
ATOM      5  C5  DEN d   1      -3.995   1.292  -2.845  0.00  0.00    -0.003 A 
ATOM      6  C6  DEN d   1      -3.930   0.544  -1.700  0.00  0.00     0.001 A 
ATOM      7  C7  DEN d   1      -2.804   0.591  -0.922  0.00  0.00     0.017 A 
ATOM      8  C8  DEN d   1      -1.735   1.365  -1.354  0.00  0.00    -0.094 A 
ATOM      9  C9  DEN d   1      -1.824   2.123  -2.509  0.00  0.00    -0.072 A 
ENDROOT
TORSDOF 0
ENDMDL
