MODEL 1
REMARK minimizedAffinity 6.12786722
REMARK minimizedRMSD -1
REMARK  0 active torsions:
REMARK  status: ('A' for Active; 'I' for Inactive)
ROOT
ATOM      1  C1  DEN d   1       0.697   4.261   0.343  0.00  0.00     0.130 A 
ATOM      2  C2  DEN d   1      -0.352   3.665  -0.480  0.00  0.00    -0.031 A 
ATOM      3  C3  DEN d   1      -0.907   2.510   0.255  0.00  0.00     0.027 A 
ATOM      4  C4  DEN d   1      -0.251   1.595   2.575  0.00  0.00     0.027 A 
ATOM      5  C5  DEN d   1       0.594   1.762   3.650  0.00  0.00    -0.003 A 
ATOM      6  C6  DEN d   1       1.548   2.745   3.682  0.00  0.00     0.001 A 
ATOM      7  C7  DEN d   1       1.650   3.627   2.639  0.00  0.00     0.017 A 
ATOM      8  C8  DEN d   1       0.806   3.460   1.549  0.00  0.00    -0.094 A 
ATOM      9  C9  DEN d   1      -0.160   2.468   1.541  0.00  0.00    -0.072 A 
ENDROOT
TORSDOF 0
ENDMDL
