MODEL 1
REMARK minimizedAffinity 15.0846329
REMARK minimizedRMSD -1
REMARK  0 active torsions:
REMARK  status: ('A' for Active; 'I' for Inactive)
ROOT
ATOM      1  C1  DEN d   1       5.999  -3.082  -1.091  0.00  0.00     0.130 A 
ATOM      2  C2  DEN d   1       5.948  -4.541  -1.071  0.00  0.00    -0.031 A 
ATOM      3  C3  DEN d   1       4.596  -4.945  -0.638  0.00  0.00     0.027 A 
ATOM      4  C4  DEN d   1       2.584  -3.460  -0.005  0.00  0.00     0.027 A 
ATOM      5  C5  DEN d   1       2.150  -2.161   0.141  0.00  0.00    -0.003 A 
ATOM      6  C6  DEN d   1       2.971  -1.087  -0.078  0.00  0.00     0.001 A 
ATOM      7  C7  DEN d   1       4.258  -1.292  -0.499  0.00  0.00     0.017 A 
ATOM      8  C8  DEN d   1       4.706  -2.599  -0.643  0.00  0.00    -0.094 A 
ATOM      9  C9  DEN d   1       3.856  -3.671  -0.428  0.00  0.00    -0.072 A 
ENDROOT
TORSDOF 0
ENDMDL
