MODEL 1
REMARK minimizedAffinity -2.38008833
REMARK minimizedRMSD -1
REMARK  0 active torsions:
REMARK  status: ('A' for Active; 'I' for Inactive)
ROOT
ATOM      1  C1  DEN d   1       3.014  -3.733  -2.347  0.00  0.00     0.130 A 
ATOM      2  C2  DEN d   1       3.810  -4.881  -2.772  0.00  0.00    -0.031 A 
ATOM      3  C3  DEN d   1       5.044  -4.905  -1.961  0.00  0.00     0.027 A 
ATOM      4  C4  DEN d   1       5.792  -3.289  -0.095  0.00  0.00     0.027 A 
ATOM      5  C5  DEN d   1       5.453  -2.155   0.611  0.00  0.00    -0.003 A 
ATOM      6  C6  DEN d   1       4.304  -1.455   0.359  0.00  0.00     0.001 A 
ATOM      7  C7  DEN d   1       3.428  -1.906  -0.593  0.00  0.00     0.017 A 
ATOM      8  C8  DEN d   1       3.766  -3.044  -1.314  0.00  0.00    -0.094 A 
ATOM      9  C9  DEN d   1       4.927  -3.746  -1.036  0.00  0.00    -0.072 A 
ENDROOT
TORSDOF 0
ENDMDL
