MODEL 1
REMARK minimizedAffinity 16.931675
REMARK minimizedRMSD -1
REMARK  0 active torsions:
REMARK  status: ('A' for Active; 'I' for Inactive)
ROOT
ATOM      1  C   UNL d   1       4.546   5.632   2.803  0.00  0.00    -0.002 A 
ATOM      2  C1  UNL d   1       4.273   4.707   3.801  0.00  0.00     0.010 A 
ATOM      3  C2  UNL d   1       3.005   4.133   3.910  0.00  0.00     0.041 A 
ATOM      4  C3  UNL d   1       2.007   4.506   2.988  0.00  0.00    -0.075 A 
ATOM      5  S   UNL d   1       0.382   3.933   2.927  0.00  0.00     0.015 SA
ATOM      6  C4  UNL d   1       0.012   4.901   1.574  0.00  0.00     0.022 A 
ATOM      7  C5  UNL d   1       1.090   5.650   1.166  0.00  0.00     0.026 A 
ATOM      8  C6  UNL d   1       2.258   5.434   1.974  0.00  0.00    -0.082 A 
ATOM      9  C7  UNL d   1       3.553   5.999   1.891  0.00  0.00     0.045 A 
ENDROOT
TORSDOF 0
ENDMDL
