MODEL 1
REMARK minimizedAffinity 11.6776075
REMARK minimizedRMSD -1
REMARK  0 active torsions:
REMARK  status: ('A' for Active; 'I' for Inactive)
ROOT
ATOM      1  C   UNL d   1       0.075   4.389   1.635  0.00  0.00    -0.002 A 
ATOM      2  C1  UNL d   1      -0.991   4.078   2.468  0.00  0.00     0.010 A 
ATOM      3  C2  UNL d   1      -1.939   3.129   2.083  0.00  0.00     0.041 A 
ATOM      4  C3  UNL d   1      -1.796   2.488   0.837  0.00  0.00    -0.075 A 
ATOM      5  S   UNL d   1      -2.834   1.291   0.157  0.00  0.00     0.015 SA
ATOM      6  C4  UNL d   1      -1.887   1.163  -1.254  0.00  0.00     0.022 A 
ATOM      7  C5  UNL d   1      -0.801   2.005  -1.224  0.00  0.00     0.026 A 
ATOM      8  C6  UNL d   1      -0.730   2.783  -0.019  0.00  0.00    -0.082 A 
ATOM      9  C7  UNL d   1       0.214   3.751   0.399  0.00  0.00     0.045 A 
ENDROOT
TORSDOF 0
ENDMDL
