MODEL 1
REMARK minimizedAffinity 6.00395584
REMARK minimizedRMSD -1
REMARK  0 active torsions:
REMARK  status: ('A' for Active; 'I' for Inactive)
ROOT
ATOM      1  C   UNL d   1       2.714   0.064  -0.306  0.00  0.00    -0.002 A 
ATOM      2  C1  UNL d   1       3.488   0.573   0.727  0.00  0.00     0.010 A 
ATOM      3  C2  UNL d   1       4.528   1.465   0.462  0.00  0.00     0.041 A 
ATOM      4  C3  UNL d   1       4.779   1.842  -0.872  0.00  0.00    -0.075 A 
ATOM      5  S   UNL d   1       6.000   2.922  -1.435  0.00  0.00     0.015 SA
ATOM      6  C4  UNL d   1       5.522   2.734  -3.060  0.00  0.00     0.022 A 
ATOM      7  C5  UNL d   1       4.459   1.871  -3.189  0.00  0.00     0.026 A 
ATOM      8  C6  UNL d   1       4.013   1.344  -1.930  0.00  0.00    -0.082 A 
ATOM      9  C7  UNL d   1       2.966   0.440  -1.628  0.00  0.00     0.045 A 
ENDROOT
TORSDOF 0
ENDMDL
