MODEL 1
REMARK minimizedAffinity 17.6337624
REMARK minimizedRMSD -1
REMARK  0 active torsions:
REMARK  status: ('A' for Active; 'I' for Inactive)
ROOT
ATOM      1  C   UNL d   1      -0.804   5.378   1.444  0.00  0.00    -0.002 A 
ATOM      2  C1  UNL d   1       0.330   4.732   1.915  0.00  0.00     0.010 A 
ATOM      3  C2  UNL d   1       0.672   3.463   1.444  0.00  0.00     0.041 A 
ATOM      4  C3  UNL d   1      -0.153   2.849   0.480  0.00  0.00    -0.075 A 
ATOM      5  S   UNL d   1       0.069   1.299  -0.243  0.00  0.00     0.015 SA
ATOM      6  C4  UNL d   1      -1.336   1.459  -1.194  0.00  0.00     0.022 A 
ATOM      7  C5  UNL d   1      -1.971   2.659  -0.978  0.00  0.00     0.026 A 
ATOM      8  C6  UNL d   1      -1.300   3.480  -0.010  0.00  0.00    -0.082 A 
ATOM      9  C7  UNL d   1      -1.619   4.766   0.489  0.00  0.00     0.045 A 
ENDROOT
TORSDOF 0
ENDMDL
