MODEL 1
REMARK minimizedAffinity 5.31482029
REMARK minimizedRMSD -1
REMARK  0 active torsions:
REMARK  status: ('A' for Active; 'I' for Inactive)
ROOT
ATOM      1  C   UNL d   1       2.256   0.314  -0.463  0.00  0.00    -0.002 A 
ATOM      2  C1  UNL d   1       2.765   0.955   0.657  0.00  0.00     0.010 A 
ATOM      3  C2  UNL d   1       2.047   1.979   1.278  0.00  0.00     0.041 A 
ATOM      4  C3  UNL d   1       0.794   2.349   0.750  0.00  0.00    -0.075 A 
ATOM      5  S   UNL d   1      -0.263   3.574   1.344  0.00  0.00     0.015 SA
ATOM      6  C4  UNL d   1      -1.417   3.275   0.126  0.00  0.00     0.022 A 
ATOM      7  C5  UNL d   1      -1.021   2.268  -0.723  0.00  0.00     0.026 A 
ATOM      8  C6  UNL d   1       0.260   1.718  -0.377  0.00  0.00    -0.082 A 
ATOM      9  C7  UNL d   1       1.013   0.684  -0.984  0.00  0.00     0.045 A 
ENDROOT
TORSDOF 0
ENDMDL
