MODEL 1
REMARK minimizedAffinity 11.913868
REMARK minimizedRMSD -1
REMARK  0 active torsions:
REMARK  status: ('A' for Active; 'I' for Inactive)
ROOT
ATOM      1  C   UNL d   1       2.072  -0.057  -1.143  0.00  0.00    -0.002 A 
ATOM      2  C1  UNL d   1       2.587   0.109   0.135  0.00  0.00     0.010 A 
ATOM      3  C2  UNL d   1       3.802   0.770   0.330  0.00  0.00     0.041 A 
ATOM      4  C3  UNL d   1       4.495   1.267  -0.791  0.00  0.00    -0.075 A 
ATOM      5  S   UNL d   1       5.999   2.110  -0.794  0.00  0.00     0.015 SA
ATOM      6  C4  UNL d   1       5.992   2.269  -2.491  0.00  0.00     0.022 A 
ATOM      7  C5  UNL d   1       4.877   1.699  -3.058  0.00  0.00     0.026 A 
ATOM      8  C6  UNL d   1       3.996   1.112  -2.088  0.00  0.00    -0.082 A 
ATOM      9  C7  UNL d   1       2.762   0.437  -2.253  0.00  0.00     0.045 A 
ENDROOT
TORSDOF 0
ENDMDL
