MODEL 1
REMARK minimizedAffinity 9.8687315
REMARK minimizedRMSD -1
REMARK  0 active torsions:
REMARK  status: ('A' for Active; 'I' for Inactive)
ROOT
ATOM      1  C   UNL d   1       2.429   0.620   1.296  0.00  0.00     0.023 A 
ATOM      2  C1  UNL d   1       1.810   1.452   2.229  0.00  0.00     0.003 A 
ATOM      3  C2  UNL d   1       2.305   2.737   2.457  0.00  0.00     0.048 A 
ATOM      4  C3  UNL d   1       3.419   3.185   1.748  0.00  0.00     0.023 A 
ATOM      5  C4  UNL d   1       4.041   2.357   0.812  0.00  0.00     0.048 A 
ATOM      6  C5  UNL d   1       3.543   1.072   0.588  0.00  0.00     0.003 A 
ATOM      7  I   UNL d   1       4.158   5.099   2.085  0.00  0.00    -0.146 I 
ENDROOT
TORSDOF 0
ENDMDL
