MODEL 1
REMARK minimizedAffinity 8.50516891
REMARK minimizedRMSD -1
REMARK  0 active torsions:
REMARK  status: ('A' for Active; 'I' for Inactive)
ROOT
ATOM      1  C   UNL d   1      -5.971  -5.963   3.334  0.00  0.00     0.023 A 
ATOM      2  C1  UNL d   1      -5.984  -5.187   4.493  0.00  0.00     0.003 A 
ATOM      3  C2  UNL d   1      -5.992  -3.794   4.401  0.00  0.00     0.048 A 
ATOM      4  C3  UNL d   1      -5.988  -3.183   3.148  0.00  0.00     0.023 A 
ATOM      5  C4  UNL d   1      -5.976  -3.956   1.985  0.00  0.00     0.048 A 
ATOM      6  C5  UNL d   1      -5.967  -5.349   2.082  0.00  0.00     0.003 A 
ATOM      7  I   UNL d   1      -6.000  -1.109   3.008  0.00  0.00    -0.146 I 
ENDROOT
TORSDOF 0
ENDMDL
