MODEL 1
REMARK minimizedAffinity 14.9486437
REMARK minimizedRMSD -1
REMARK  0 active torsions:
REMARK  status: ('A' for Active; 'I' for Inactive)
ROOT
ATOM      1  C   UNL d   1       1.559  -0.149  -2.444  0.00  0.00     0.023 A 
ATOM      2  C1  UNL d   1       1.677   1.232  -2.292  0.00  0.00     0.003 A 
ATOM      3  C2  UNL d   1       2.023   1.773  -1.052  0.00  0.00     0.048 A 
ATOM      4  C3  UNL d   1       2.252   0.926   0.032  0.00  0.00     0.023 A 
ATOM      5  C4  UNL d   1       2.136  -0.457  -0.115  0.00  0.00     0.048 A 
ATOM      6  C5  UNL d   1       1.789  -0.993  -1.357  0.00  0.00     0.003 A 
ATOM      7  I   UNL d   1       2.768   1.729   1.878  0.00  0.00    -0.146 I 
ENDROOT
TORSDOF 0
ENDMDL
