MODEL 1
REMARK minimizedAffinity 6.40574169
REMARK minimizedRMSD -1
REMARK  0 active torsions:
REMARK  status: ('A' for Active; 'I' for Inactive)
ROOT
ATOM      1  C   UNL d   1       2.240  -3.105  -2.199  0.00  0.00     0.023 A 
ATOM      2  C1  UNL d   1       2.783  -4.123  -2.984  0.00  0.00     0.003 A 
ATOM      3  C2  UNL d   1       3.776  -4.955  -2.463  0.00  0.00     0.048 A 
ATOM      4  C3  UNL d   1       4.222  -4.763  -1.155  0.00  0.00     0.023 A 
ATOM      5  C4  UNL d   1       3.681  -3.747  -0.366  0.00  0.00     0.048 A 
ATOM      6  C5  UNL d   1       2.689  -2.917  -0.892  0.00  0.00     0.003 A 
ATOM      7  I   UNL d   1       5.700  -6.000  -0.377  0.00  0.00    -0.146 I 
ENDROOT
TORSDOF 0
ENDMDL
