MODEL 1
REMARK minimizedAffinity 8.91299152
REMARK minimizedRMSD -1
REMARK  0 active torsions:
REMARK  status: ('A' for Active; 'I' for Inactive)
ROOT
ATOM      1  C   UNL d   1      -5.905  -5.175   4.879  0.00  0.00     0.023 A 
ATOM      2  C1  UNL d   1      -5.891  -4.197   5.873  0.00  0.00     0.003 A 
ATOM      3  C2  UNL d   1      -5.917  -2.845   5.525  0.00  0.00     0.048 A 
ATOM      4  C3  UNL d   1      -5.958  -2.478   4.180  0.00  0.00     0.023 A 
ATOM      5  C4  UNL d   1      -5.974  -3.454   3.182  0.00  0.00     0.048 A 
ATOM      6  C5  UNL d   1      -5.947  -4.804   3.535  0.00  0.00     0.003 A 
ATOM      7  I   UNL d   1      -5.998  -0.467   3.659  0.00  0.00    -0.146 I 
ENDROOT
TORSDOF 0
ENDMDL
