MODEL 1
REMARK minimizedAffinity 18.2485657
REMARK minimizedRMSD -1
REMARK  0 active torsions:
REMARK  status: ('A' for Active; 'I' for Inactive)
ROOT
ATOM      1  C   UNL d   1       3.066   1.429   4.224  0.00  0.00     0.023 A 
ATOM      2  C1  UNL d   1       3.617   1.671   5.482  0.00  0.00     0.003 A 
ATOM      3  C2  UNL d   1       3.650   2.970   5.993  0.00  0.00     0.048 A 
ATOM      4  C3  UNL d   1       3.129   4.023   5.240  0.00  0.00     0.023 A 
ATOM      5  C4  UNL d   1       2.576   3.785   3.981  0.00  0.00     0.048 A 
ATOM      6  C5  UNL d   1       2.546   2.484   3.474  0.00  0.00     0.003 A 
ATOM      7  I   UNL d   1       3.177   5.957   5.999  0.00  0.00    -0.146 I 
ENDROOT
TORSDOF 0
ENDMDL
