MODEL 1
REMARK minimizedAffinity 17.9993992
REMARK minimizedRMSD -1
REMARK  0 active torsions:
REMARK  status: ('A' for Active; 'I' for Inactive)
ROOT
ATOM      1  C   UNL d   1      -6.000  -0.004   4.294  0.00  0.00     0.023 A 
ATOM      2  C1  UNL d   1      -6.000  -1.297   4.817  0.00  0.00     0.003 A 
ATOM      3  C2  UNL d   1      -6.000  -2.398   3.958  0.00  0.00     0.048 A 
ATOM      4  C3  UNL d   1      -5.999  -2.199   2.578  0.00  0.00     0.023 A 
ATOM      5  C4  UNL d   1      -5.999  -0.907   2.050  0.00  0.00     0.048 A 
ATOM      6  C5  UNL d   1      -5.999   0.191   2.913  0.00  0.00     0.003 A 
ATOM      7  I   UNL d   1      -5.999  -3.837   1.298  0.00  0.00    -0.146 I 
ENDROOT
TORSDOF 0
ENDMDL
