MODEL 1
REMARK minimizedAffinity 7.63848782
REMARK minimizedRMSD -1
REMARK  0 active torsions:
REMARK  status: ('A' for Active; 'I' for Inactive)
ROOT
ATOM      1  C   UNL d   1      -1.442  -3.228  -2.257  0.00  0.00     0.023 A 
ATOM      2  C1  UNL d   1      -0.798  -2.028  -1.958  0.00  0.00     0.003 A 
ATOM      3  C2  UNL d   1       0.501  -2.040  -1.445  0.00  0.00     0.048 A 
ATOM      4  C3  UNL d   1       1.150  -3.256  -1.235  0.00  0.00     0.023 A 
ATOM      5  C4  UNL d   1       0.510  -4.459  -1.534  0.00  0.00     0.048 A 
ATOM      6  C5  UNL d   1      -0.789  -4.443  -2.046  0.00  0.00     0.003 A 
ATOM      7  I   UNL d   1       3.083  -3.276  -0.472  0.00  0.00    -0.146 I 
ENDROOT
TORSDOF 0
ENDMDL
