MODEL 1
REMARK minimizedAffinity 8.49241257
REMARK minimizedRMSD -1
REMARK  0 active torsions:
REMARK  status: ('A' for Active; 'I' for Inactive)
ROOT
ATOM      1  C   UNL d   1      -2.261  -3.056  -3.399  0.00  0.00     0.023 A 
ATOM      2  C1  UNL d   1      -1.846  -1.775  -3.035  0.00  0.00     0.003 A 
ATOM      3  C2  UNL d   1      -0.677  -1.604  -2.290  0.00  0.00     0.048 A 
ATOM      4  C3  UNL d   1       0.072  -2.719  -1.914  0.00  0.00     0.023 A 
ATOM      5  C4  UNL d   1      -0.339  -4.002  -2.277  0.00  0.00     0.048 A 
ATOM      6  C5  UNL d   1      -1.509  -4.168  -3.021  0.00  0.00     0.003 A 
ATOM      7  I   UNL d   1       1.812  -2.467  -0.806  0.00  0.00    -0.146 I 
ENDROOT
TORSDOF 0
ENDMDL
