MODEL 1
REMARK minimizedAffinity 13.8031893
REMARK minimizedRMSD -1
REMARK  0 active torsions:
REMARK  status: ('A' for Active; 'I' for Inactive)
ROOT
ATOM      1  C   UNL d   1      -5.824  -1.976   0.903  0.00  0.00     0.023 A 
ATOM      2  C1  UNL d   1      -5.948  -3.300   1.323  0.00  0.00     0.003 A 
ATOM      3  C2  UNL d   1      -5.995  -3.600   2.686  0.00  0.00     0.048 A 
ATOM      4  C3  UNL d   1      -5.918  -2.571   3.624  0.00  0.00     0.023 A 
ATOM      5  C4  UNL d   1      -5.794  -1.244   3.208  0.00  0.00     0.048 A 
ATOM      6  C5  UNL d   1      -5.747  -0.949   1.844  0.00  0.00     0.003 A 
ATOM      7  I   UNL d   1      -5.988  -3.015   5.653  0.00  0.00    -0.146 I 
ENDROOT
TORSDOF 0
ENDMDL
