MODEL 1
REMARK minimizedAffinity 7.77030563
REMARK minimizedRMSD -1
REMARK  0 active torsions:
REMARK  status: ('A' for Active; 'I' for Inactive)
ROOT
ATOM      1  C   UNL d   1       1.599   0.356  -2.729  0.00  0.00     0.023 A 
ATOM      2  C1  UNL d   1       2.457   0.827  -1.736  0.00  0.00     0.003 A 
ATOM      3  C2  UNL d   1       2.532   2.195  -1.467  0.00  0.00     0.048 A 
ATOM      4  C3  UNL d   1       1.745   3.087  -2.196  0.00  0.00     0.023 A 
ATOM      5  C4  UNL d   1       0.885   2.620  -3.191  0.00  0.00     0.048 A 
ATOM      6  C5  UNL d   1       0.814   1.251  -3.456  0.00  0.00     0.003 A 
ATOM      7  I   UNL d   1       1.854   5.124  -1.798  0.00  0.00    -0.146 I 
ENDROOT
TORSDOF 0
ENDMDL
