MODEL 1
REMARK minimizedAffinity 15.2044849
REMARK minimizedRMSD -1
REMARK  0 active torsions:
REMARK  status: ('A' for Active; 'I' for Inactive)
ROOT
ATOM      1  C   UNL d   1       2.294   2.014  -2.117  0.00  0.00     0.023 A 
ATOM      2  C1  UNL d   1       1.523   1.188  -2.934  0.00  0.00     0.003 A 
ATOM      3  C2  UNL d   1       1.305  -0.144  -2.576  0.00  0.00     0.048 A 
ATOM      4  C3  UNL d   1       1.860  -0.644  -1.399  0.00  0.00     0.023 A 
ATOM      5  C4  UNL d   1       2.632   0.180  -0.577  0.00  0.00     0.048 A 
ATOM      6  C5  UNL d   1       2.848   1.510  -0.940  0.00  0.00     0.003 A 
ATOM      7  I   UNL d   1       1.537  -2.626  -0.864  0.00  0.00    -0.146 I 
ENDROOT
TORSDOF 0
ENDMDL
