MODEL 1
REMARK minimizedAffinity 3.37994957
REMARK minimizedRMSD -1
REMARK  0 active torsions:
REMARK  status: ('A' for Active; 'I' for Inactive)
ROOT
ATOM      1  C   UNL d   1      -0.036  -3.323  -2.327  0.00  0.00     0.023 A 
ATOM      2  C1  UNL d   1       0.506  -2.337  -3.151  0.00  0.00     0.003 A 
ATOM      3  C2  UNL d   1       1.466  -1.456  -2.649  0.00  0.00     0.048 A 
ATOM      4  C3  UNL d   1       1.881  -1.568  -1.322  0.00  0.00     0.023 A 
ATOM      5  C4  UNL d   1       1.341  -2.554  -0.494  0.00  0.00     0.048 A 
ATOM      6  C5  UNL d   1       0.381  -3.431  -1.000  0.00  0.00     0.003 A 
ATOM      7  I   UNL d   1       3.310  -0.258  -0.573  0.00  0.00    -0.146 I 
ENDROOT
TORSDOF 0
ENDMDL
