MODEL 1
REMARK minimizedAffinity -4.40501976
REMARK minimizedRMSD -1
REMARK  0 active torsions:
REMARK  status: ('A' for Active; 'I' for Inactive)
ROOT
ATOM      1  C   UNL d   1       3.848   0.331   1.259  0.00  0.00    -0.002 A 
ATOM      2  C1  UNL d   1       3.858  -0.940   0.701  0.00  0.00     0.010 A 
ATOM      3  C2  UNL d   1       2.692  -1.489   0.164  0.00  0.00     0.041 A 
ATOM      4  C3  UNL d   1       1.505  -0.731   0.194  0.00  0.00    -0.075 A 
ATOM      5  S   UNL d   1      -0.042  -1.198  -0.406  0.00  0.00     0.015 SA
ATOM      6  C4  UNL d   1      -0.753   0.279   0.063  0.00  0.00     0.022 A 
ATOM      7  C5  UNL d   1       0.154   1.119   0.664  0.00  0.00     0.026 A 
ATOM      8  C6  UNL d   1       1.470   0.552   0.749  0.00  0.00    -0.082 A 
ATOM      9  C7  UNL d   1       2.669   1.080   1.287  0.00  0.00     0.045 A 
ENDROOT
TORSDOF 0
ENDMDL
