MODEL 1
REMARK minimizedAffinity -5.36571693
REMARK minimizedRMSD -1
REMARK  0 active torsions:
REMARK  status: ('A' for Active; 'I' for Inactive)
ROOT
ATOM      1  C   UNL d   1       3.556  -1.084   0.523  0.00  0.00    -0.002 A 
ATOM      2  C1  UNL d   1       3.554   0.284   0.756  0.00  0.00     0.010 A 
ATOM      3  C2  UNL d   1       2.366   1.015   0.686  0.00  0.00     0.041 A 
ATOM      4  C3  UNL d   1       1.168   0.340   0.379  0.00  0.00    -0.075 A 
ATOM      5  S   UNL d   1      -0.407   1.028   0.240  0.00  0.00     0.015 SA
ATOM      6  C4  UNL d   1      -1.114  -0.478  -0.129  0.00  0.00     0.022 A 
ATOM      7  C5  UNL d   1      -0.186  -1.492  -0.151  0.00  0.00     0.026 A 
ATOM      8  C6  UNL d   1       1.144  -1.037   0.142  0.00  0.00    -0.082 A 
ATOM      9  C7  UNL d   1       2.366  -1.749   0.218  0.00  0.00     0.045 A 
ENDROOT
TORSDOF 0
ENDMDL
