MODEL 1
REMARK minimizedAffinity 1.23283398
REMARK minimizedRMSD -1
REMARK  0 active torsions:
REMARK  status: ('A' for Active; 'I' for Inactive)
ROOT
ATOM      1  C   UNL d   1       3.211   0.445   0.060  0.00  0.00    -0.002 A 
ATOM      2  C1  UNL d   1       3.249  -0.914  -0.218  0.00  0.00     0.010 A 
ATOM      3  C2  UNL d   1       2.067  -1.635  -0.399  0.00  0.00     0.041 A 
ATOM      4  C3  UNL d   1       0.834  -0.960  -0.296  0.00  0.00    -0.075 A 
ATOM      5  S   UNL d   1      -0.740  -1.638  -0.479  0.00  0.00     0.015 SA
ATOM      6  C4  UNL d   1      -1.500  -0.139  -0.193  0.00  0.00     0.022 A 
ATOM      7  C5  UNL d   1      -0.590   0.865   0.039  0.00  0.00     0.026 A 
ATOM      8  C6  UNL d   1       0.771   0.408  -0.017  0.00  0.00    -0.082 A 
ATOM      9  C7  UNL d   1       1.987   1.111   0.161  0.00  0.00     0.045 A 
ENDROOT
TORSDOF 0
ENDMDL
