MODEL 1
REMARK minimizedAffinity -1.3144002
REMARK minimizedRMSD -1
REMARK  0 active torsions:
REMARK  status: ('A' for Active; 'I' for Inactive)
ROOT
ATOM      1  C   UNL d   1       2.544   1.081   1.087  0.00  0.00    -0.002 A 
ATOM      2  C1  UNL d   1       2.004   0.061   1.858  0.00  0.00     0.010 A 
ATOM      3  C2  UNL d   1       0.660  -0.295   1.724  0.00  0.00     0.041 A 
ATOM      4  C3  UNL d   1      -0.138   0.397   0.793  0.00  0.00    -0.075 A 
ATOM      5  S   UNL d   1      -1.809   0.134   0.458  0.00  0.00     0.015 SA
ATOM      6  C4  UNL d   1      -1.845   1.368  -0.717  0.00  0.00     0.022 A 
ATOM      7  C5  UNL d   1      -0.621   1.977  -0.862  0.00  0.00     0.026 A 
ATOM      8  C6  UNL d   1       0.383   1.427   0.005  0.00  0.00    -0.082 A 
ATOM      9  C7  UNL d   1       1.748   1.765   0.165  0.00  0.00     0.045 A 
ENDROOT
TORSDOF 0
ENDMDL
