MODEL 1
REMARK minimizedAffinity -3.77080703
REMARK minimizedRMSD -1
REMARK  0 active torsions:
REMARK  status: ('A' for Active; 'I' for Inactive)
ROOT
ATOM      1  C   UNL d   1       0.149  -2.301  -0.019  0.00  0.00    -0.002 A 
ATOM      2  C1  UNL d   1      -0.703  -1.219  -0.186  0.00  0.00     0.010 A 
ATOM      3  C2  UNL d   1      -0.232   0.086  -0.032  0.00  0.00     0.041 A 
ATOM      4  C3  UNL d   1       1.124   0.288   0.294  0.00  0.00    -0.075 A 
ATOM      5  S   UNL d   1       1.923   1.797   0.530  0.00  0.00     0.015 SA
ATOM      6  C4  UNL d   1       3.415   1.041   0.857  0.00  0.00     0.022 A 
ATOM      7  C5  UNL d   1       3.324  -0.329   0.792  0.00  0.00     0.026 A 
ATOM      8  C6  UNL d   1       2.002  -0.786   0.465  0.00  0.00    -0.082 A 
ATOM      9  C7  UNL d   1       1.494  -2.097   0.303  0.00  0.00     0.045 A 
ENDROOT
TORSDOF 0
ENDMDL
