MODEL 1
REMARK minimizedAffinity -3.38243198
REMARK minimizedRMSD -1
REMARK  0 active torsions:
REMARK  status: ('A' for Active; 'I' for Inactive)
ROOT
ATOM      1  C   UNL d   1       3.286   0.311   0.956  0.00  0.00    -0.002 A 
ATOM      2  C1  UNL d   1       3.280  -1.064   0.767  0.00  0.00     0.010 A 
ATOM      3  C2  UNL d   1       2.196  -1.692   0.151  0.00  0.00     0.041 A 
ATOM      4  C3  UNL d   1       1.107  -0.907  -0.278  0.00  0.00    -0.075 A 
ATOM      5  S   UNL d   1      -0.329  -1.459  -1.056  0.00  0.00     0.015 SA
ATOM      6  C4  UNL d   1      -0.968   0.118  -1.158  0.00  0.00     0.022 A 
ATOM      7  C5  UNL d   1      -0.120   1.054  -0.615  0.00  0.00     0.026 A 
ATOM      8  C6  UNL d   1       1.090   0.479  -0.100  0.00  0.00    -0.082 A 
ATOM      9  C7  UNL d   1       2.204   1.086   0.529  0.00  0.00     0.045 A 
ENDROOT
TORSDOF 0
ENDMDL
