MODEL 1
REMARK minimizedAffinity -3.16594028
REMARK minimizedRMSD -1
REMARK  0 active torsions:
REMARK  status: ('A' for Active; 'I' for Inactive)
ROOT
ATOM      1  C   UNL d   1       2.633  -1.539  -0.708  0.00  0.00    -0.002 A 
ATOM      2  C1  UNL d   1       3.148  -0.369  -0.167  0.00  0.00     0.010 A 
ATOM      3  C2  UNL d   1       2.296   0.648   0.267  0.00  0.00     0.041 A 
ATOM      4  C3  UNL d   1       0.904   0.469   0.147  0.00  0.00    -0.075 A 
ATOM      5  S   UNL d   1      -0.331   1.578   0.612  0.00  0.00     0.015 SA
ATOM      6  C4  UNL d   1      -1.572   0.526   0.103  0.00  0.00     0.022 A 
ATOM      7  C5  UNL d   1      -1.074  -0.647  -0.411  0.00  0.00     0.026 A 
ATOM      8  C6  UNL d   1       0.361  -0.700  -0.394  0.00  0.00    -0.082 A 
ATOM      9  C7  UNL d   1       1.251  -1.713  -0.825  0.00  0.00     0.045 A 
ENDROOT
TORSDOF 0
ENDMDL
