MODEL 1
REMARK minimizedAffinity -6.08010006
REMARK minimizedRMSD -1
REMARK  0 active torsions:
REMARK  status: ('A' for Active; 'I' for Inactive)
ROOT
ATOM      1  C4' PXY d   1      -0.024  -3.438   1.024  0.00  0.00     0.077 C 
ATOM      2  C1' PXY d   1       0.772   1.420  -2.006  0.00  0.00     0.077 C 
ATOM      3  C1  PXY d   1       0.563   0.140  -1.222  0.00  0.00    -0.082 A 
ATOM      4  C2  PXY d   1       0.014   0.191  -0.020  0.00  0.00     0.003 A 
ATOM      5  C3  PXY d   1      -0.153  -0.955   0.716  0.00  0.00     0.003 A 
ATOM      6  C4  PXY d   1       0.197  -2.171   0.193  0.00  0.00    -0.082 A 
ATOM      7  C5  PXY d   1       0.749  -2.232  -1.037  0.00  0.00     0.003 A 
ATOM      8  C6  PXY d   1       0.948  -1.054  -1.751  0.00  0.00     0.003 A 
ENDROOT
TORSDOF 0
ENDMDL
