MODEL 1
REMARK minimizedAffinity -3.63823152
REMARK minimizedRMSD -1
REMARK  0 active torsions:
REMARK  status: ('A' for Active; 'I' for Inactive)
ROOT
ATOM      1  C4' PXY d   1       0.758   1.834  -0.160  0.00  0.00     0.077 C 
ATOM      2  C1' PXY d   1      -0.409  -3.823  -0.394  0.00  0.00     0.077 C 
ATOM      3  C1  PXY d   1      -0.115  -2.337  -0.328  0.00  0.00    -0.082 A 
ATOM      4  C2  PXY d   1       0.838  -1.825  -1.090  0.00  0.00     0.003 A 
ATOM      5  C3  PXY d   1       1.138  -0.489  -1.020  0.00  0.00     0.003 A 
ATOM      6  C4  PXY d   1       0.420   0.341  -0.200  0.00  0.00    -0.082 A 
ATOM      7  C5  PXY d   1      -0.561  -0.173   0.572  0.00  0.00     0.003 A 
ATOM      8  C6  PXY d   1      -0.822  -1.539   0.516  0.00  0.00     0.003 A 
ENDROOT
TORSDOF 0
ENDMDL
