MODEL 1
REMARK minimizedAffinity 4.09234381
REMARK minimizedRMSD -1
REMARK  0 active torsions:
REMARK  status: ('A' for Active; 'I' for Inactive)
ROOT
ATOM      1  C4' PXY d   1      -1.414  -0.451   0.033  0.00  0.00     0.077 C 
ATOM      2  C1' PXY d   1      -1.316  -4.375  -4.210  0.00  0.00     0.077 C 
ATOM      3  C1  PXY d   1      -1.354  -3.346  -3.097  0.00  0.00    -0.082 A 
ATOM      4  C2  PXY d   1      -0.310  -2.558  -2.899  0.00  0.00     0.003 A 
ATOM      5  C3  PXY d   1      -0.316  -1.643  -1.877  0.00  0.00     0.003 A 
ATOM      6  C4  PXY d   1      -1.422  -1.498  -1.084  0.00  0.00    -0.082 A 
ATOM      7  C5  PXY d   1      -2.496  -2.291  -1.287  0.00  0.00     0.003 A 
ATOM      8  C6  PXY d   1      -2.454  -3.241  -2.303  0.00  0.00     0.003 A 
ENDROOT
TORSDOF 0
ENDMDL
