MODEL 1
REMARK minimizedAffinity -4.58948803
REMARK minimizedRMSD -1
REMARK  0 active torsions:
REMARK  status: ('A' for Active; 'I' for Inactive)
ROOT
ATOM      1  C4' PXY d   1      -0.337   1.169  -0.049  0.00  0.00     0.077 C 
ATOM      2  C1' PXY d   1      -0.223  -4.514  -1.099  0.00  0.00     0.077 C 
ATOM      3  C1  PXY d   1      -0.260  -3.026  -0.813  0.00  0.00    -0.082 A 
ATOM      4  C2  PXY d   1      -0.054  -2.166  -1.797  0.00  0.00     0.003 A 
ATOM      5  C3  PXY d   1      -0.053  -0.817  -1.550  0.00  0.00     0.003 A 
ATOM      6  C4  PXY d   1      -0.318  -0.343  -0.293  0.00  0.00    -0.082 A 
ATOM      7  C5  PXY d   1      -0.540  -1.214   0.714  0.00  0.00     0.003 A 
ATOM      8  C6  PXY d   1      -0.496  -2.580   0.451  0.00  0.00     0.003 A 
ENDROOT
TORSDOF 0
ENDMDL
