MODEL 1
REMARK minimizedAffinity -5.26901245
REMARK minimizedRMSD -1
REMARK  0 active torsions:
REMARK  status: ('A' for Active; 'I' for Inactive)
ROOT
ATOM      1  C4' PXY d   1       0.706   0.263  -0.712  0.00  0.00     0.077 C 
ATOM      2  C1' PXY d   1      -0.091  -5.433  -1.295  0.00  0.00     0.077 C 
ATOM      3  C1  PXY d   1       0.109  -3.939  -1.133  0.00  0.00    -0.082 A 
ATOM      4  C2  PXY d   1       0.609  -3.233  -2.134  0.00  0.00     0.003 A 
ATOM      5  C3  PXY d   1       0.826  -1.887  -1.994  0.00  0.00     0.003 A 
ATOM      6  C4  PXY d   1       0.478  -1.246  -0.834  0.00  0.00    -0.082 A 
ATOM      7  C5  PXY d   1      -0.042  -1.957   0.188  0.00  0.00     0.003 A 
ATOM      8  C6  PXY d   1      -0.216  -3.330   0.040  0.00  0.00     0.003 A 
ENDROOT
TORSDOF 0
ENDMDL
