MODEL 1
REMARK minimizedAffinity -5.26353455
REMARK minimizedRMSD -1
REMARK  0 active torsions:
REMARK  status: ('A' for Active; 'I' for Inactive)
ROOT
ATOM      1  C4' PXY d   1      -0.035   1.149   0.012  0.00  0.00     0.077 C 
ATOM      2  C1' PXY d   1       0.070  -4.527  -1.076  0.00  0.00     0.077 C 
ATOM      3  C1  PXY d   1       0.035  -3.041  -0.780  0.00  0.00    -0.082 A 
ATOM      4  C2  PXY d   1       0.228  -2.174  -1.761  0.00  0.00     0.003 A 
ATOM      5  C3  PXY d   1       0.232  -0.827  -1.506  0.00  0.00     0.003 A 
ATOM      6  C4  PXY d   1      -0.018  -0.361  -0.243  0.00  0.00    -0.082 A 
ATOM      7  C5  PXY d   1      -0.226  -1.239   0.761  0.00  0.00     0.003 A 
ATOM      8  C6  PXY d   1      -0.185  -2.603   0.489  0.00  0.00     0.003 A 
ENDROOT
TORSDOF 0
ENDMDL
