MODEL 1
REMARK minimizedAffinity -0.774761081
REMARK minimizedRMSD -1
REMARK  0 active torsions:
REMARK  status: ('A' for Active; 'I' for Inactive)
ROOT
ATOM      1  C4' PXY d   1       0.914  -1.060  -3.293  0.00  0.00     0.077 C 
ATOM      2  C1' PXY d   1      -1.405  -0.037   1.903  0.00  0.00     0.077 C 
ATOM      3  C1  PXY d   1      -0.798  -0.293   0.537  0.00  0.00    -0.082 A 
ATOM      4  C2  PXY d   1      -0.835  -1.512   0.022  0.00  0.00     0.003 A 
ATOM      5  C3  PXY d   1      -0.263  -1.767  -1.197  0.00  0.00     0.003 A 
ATOM      6  C4  PXY d   1       0.306  -0.754  -1.922  0.00  0.00    -0.082 A 
ATOM      7  C5  PXY d   1       0.338   0.494  -1.408  0.00  0.00     0.003 A 
ATOM      8  C6  PXY d   1      -0.212   0.724  -0.150  0.00  0.00     0.003 A 
ENDROOT
TORSDOF 0
ENDMDL
