MODEL 1
REMARK minimizedAffinity -5.70715141
REMARK minimizedRMSD -1
REMARK  0 active torsions:
REMARK  status: ('A' for Active; 'I' for Inactive)
ROOT
ATOM      1  C4' PXY d   1       0.047   1.485  -0.065  0.00  0.00     0.077 C 
ATOM      2  C1' PXY d   1       0.091  -4.195  -1.137  0.00  0.00     0.077 C 
ATOM      3  C1  PXY d   1       0.070  -2.707  -0.847  0.00  0.00    -0.082 A 
ATOM      4  C2  PXY d   1       0.483  -1.855  -1.771  0.00  0.00     0.003 A 
ATOM      5  C3  PXY d   1       0.501  -0.508  -1.514  0.00  0.00     0.003 A 
ATOM      6  C4  PXY d   1       0.041  -0.025  -0.318  0.00  0.00    -0.082 A 
ATOM      7  C5  PXY d   1      -0.392  -0.887   0.626  0.00  0.00     0.003 A 
ATOM      8  C6  PXY d   1      -0.363  -2.253   0.360  0.00  0.00     0.003 A 
ENDROOT
TORSDOF 0
ENDMDL
