MODEL 1
REMARK minimizedAffinity -1.02427685
REMARK minimizedRMSD -1
REMARK  0 active torsions:
REMARK  status: ('A' for Active; 'I' for Inactive)
ROOT
ATOM      1  C4' PXY d   1       0.283  -0.613  -2.310  0.00  0.00     0.077 C 
ATOM      2  C1' PXY d   1       1.752   3.600   1.366  0.00  0.00     0.077 C 
ATOM      3  C1  PXY d   1       1.356   2.493   0.409  0.00  0.00    -0.082 A 
ATOM      4  C2  PXY d   1       2.287   1.880  -0.304  0.00  0.00     0.003 A 
ATOM      5  C3  PXY d   1       1.943   0.899  -1.198  0.00  0.00     0.003 A 
ATOM      6  C4  PXY d   1       0.638   0.504  -1.324  0.00  0.00    -0.082 A 
ATOM      7  C5  PXY d   1      -0.317   1.117  -0.593  0.00  0.00     0.003 A 
ATOM      8  C6  PXY d   1       0.048   2.139   0.279  0.00  0.00     0.003 A 
ENDROOT
TORSDOF 0
ENDMDL
