MODEL 1
REMARK minimizedAffinity -6.2462821
REMARK minimizedRMSD -1
REMARK  0 active torsions:
REMARK  status: ('A' for Active; 'I' for Inactive)
ROOT
ATOM      1  C4' PXY d   1      -0.027   0.742   0.342  0.00  0.00     0.077 C 
ATOM      2  C1' PXY d   1       0.040  -4.933  -0.759  0.00  0.00     0.077 C 
ATOM      3  C1  PXY d   1       0.034  -3.443  -0.476  0.00  0.00    -0.082 A 
ATOM      4  C2  PXY d   1      -0.653  -2.976   0.553  0.00  0.00     0.003 A 
ATOM      5  C3  PXY d   1      -0.696  -1.628   0.803  0.00  0.00     0.003 A 
ATOM      6  C4  PXY d   1       0.016  -0.756   0.024  0.00  0.00    -0.082 A 
ATOM      7  C5  PXY d   1       0.728  -1.226  -1.021  0.00  0.00     0.003 A 
ATOM      8  C6  PXY d   1       0.725  -2.593  -1.283  0.00  0.00     0.003 A 
ENDROOT
TORSDOF 0
ENDMDL
