MODEL 1
REMARK minimizedAffinity 0.488727808
REMARK minimizedRMSD -1
REMARK  0 active torsions:
REMARK  status: ('A' for Active; 'I' for Inactive)
ROOT
ATOM      1  C4' PXY d   1       0.890   3.027   0.130  0.00  0.00     0.077 C 
ATOM      2  C1' PXY d   1      -1.400  -2.265   0.543  0.00  0.00     0.077 C 
ATOM      3  C1  PXY d   1      -0.792  -0.881   0.425  0.00  0.00    -0.082 A 
ATOM      4  C2  PXY d   1      -0.805  -0.069   1.470  0.00  0.00     0.003 A 
ATOM      5  C3  PXY d   1      -0.288   1.197   1.371  0.00  0.00     0.003 A 
ATOM      6  C4  PXY d   1       0.296   1.618   0.206  0.00  0.00    -0.082 A 
ATOM      7  C5  PXY d   1       0.323   0.792  -0.861  0.00  0.00     0.003 A 
ATOM      8  C6  PXY d   1      -0.244  -0.474  -0.753  0.00  0.00     0.003 A 
ENDROOT
TORSDOF 0
ENDMDL
