MODEL 1
REMARK minimizedAffinity -5.5670948
REMARK minimizedRMSD -1
REMARK  0 active torsions:
REMARK  status: ('A' for Active; 'I' for Inactive)
ROOT
ATOM      1  C4' PXY d   1       0.212  -5.551  -0.615  0.00  0.00     0.077 C 
ATOM      2  C1' PXY d   1      -0.331   0.195  -0.282  0.00  0.00     0.077 C 
ATOM      3  C1  PXY d   1      -0.189  -1.311  -0.382  0.00  0.00    -0.082 A 
ATOM      4  C2  PXY d   1      -0.621  -2.077   0.606  0.00  0.00     0.003 A 
ATOM      5  C3  PXY d   1      -0.471  -3.438   0.546  0.00  0.00     0.003 A 
ATOM      6  C4  PXY d   1       0.080  -4.026  -0.561  0.00  0.00    -0.082 A 
ATOM      7  C5  PXY d   1       0.514  -3.253  -1.579  0.00  0.00     0.003 A 
ATOM      8  C6  PXY d   1       0.390  -1.870  -1.480  0.00  0.00     0.003 A 
ENDROOT
TORSDOF 0
ENDMDL
