MODEL 1
REMARK minimizedAffinity -5.14852667
REMARK minimizedRMSD -1
REMARK  0 active torsions:
REMARK  status: ('A' for Active; 'I' for Inactive)
ROOT
ATOM      1  C4' PXY d   1      -0.153   0.789  -0.701  0.00  0.00     0.077 C 
ATOM      2  C1' PXY d   1       0.687  -4.930  -0.763  0.00  0.00     0.077 C 
ATOM      3  C1  PXY d   1       0.470  -3.430  -0.759  0.00  0.00    -0.082 A 
ATOM      4  C2  PXY d   1       0.588  -2.754   0.372  0.00  0.00     0.003 A 
ATOM      5  C3  PXY d   1       0.363  -1.402   0.399  0.00  0.00     0.003 A 
ATOM      6  C4  PXY d   1       0.067  -0.726  -0.754  0.00  0.00    -0.082 A 
ATOM      7  C5  PXY d   1      -0.045  -1.406  -1.914  0.00  0.00     0.003 A 
ATOM      8  C6  PXY d   1       0.146  -2.785  -1.913  0.00  0.00     0.003 A 
ENDROOT
TORSDOF 0
ENDMDL
