MODEL 1
REMARK minimizedAffinity -6.04102707
REMARK minimizedRMSD -1
REMARK  0 active torsions:
REMARK  status: ('A' for Active; 'I' for Inactive)
ROOT
ATOM      1  C4' PXY d   1       0.237   0.601  -0.396  0.00  0.00     0.077 C 
ATOM      2  C1' PXY d   1       0.420  -5.175  -0.557  0.00  0.00     0.077 C 
ATOM      3  C1  PXY d   1       0.365  -3.661  -0.504  0.00  0.00    -0.082 A 
ATOM      4  C2  PXY d   1       0.482  -2.962  -1.621  0.00  0.00     0.003 A 
ATOM      5  C3  PXY d   1       0.467  -1.591  -1.587  0.00  0.00     0.003 A 
ATOM      6  C4  PXY d   1       0.277  -0.930  -0.403  0.00  0.00    -0.082 A 
ATOM      7  C5  PXY d   1       0.145  -1.636   0.740  0.00  0.00     0.003 A 
ATOM      8  C6  PXY d   1       0.205  -3.026   0.689  0.00  0.00     0.003 A 
ENDROOT
TORSDOF 0
ENDMDL
