MODEL 1
REMARK minimizedAffinity -5.61404324
REMARK minimizedRMSD -1
REMARK  0 active torsions:
REMARK  status: ('A' for Active; 'I' for Inactive)
ROOT
ATOM      1  C4' PXY d   1      -2.010   0.471   1.866  0.00  0.00     0.077 C 
ATOM      2  C1' PXY d   1       1.577  -2.278  -1.739  0.00  0.00     0.077 C 
ATOM      3  C1  PXY d   1       0.644  -1.546  -0.794  0.00  0.00    -0.082 A 
ATOM      4  C2  PXY d   1      -0.135  -2.238   0.021  0.00  0.00     0.003 A 
ATOM      5  C3  PXY d   1      -1.008  -1.593   0.860  0.00  0.00     0.003 A 
ATOM      6  C4  PXY d   1      -1.046  -0.225   0.902  0.00  0.00    -0.082 A 
ATOM      7  C5  PXY d   1      -0.246   0.488   0.080  0.00  0.00     0.003 A 
ATOM      8  C6  PXY d   1       0.603  -0.186  -0.793  0.00  0.00     0.003 A 
ENDROOT
TORSDOF 0
ENDMDL
