MODEL 1
REMARK minimizedAffinity -3.58500981
REMARK minimizedRMSD -1
REMARK  0 active torsions:
REMARK  status: ('A' for Active; 'I' for Inactive)
ROOT
ATOM      1  C4' PXY d   1       2.050   3.829   1.346  0.00  0.00     0.077 C 
ATOM      2  C1' PXY d   1       0.436  -0.146  -2.528  0.00  0.00     0.077 C 
ATOM      3  C1  PXY d   1       0.871   0.892  -1.512  0.00  0.00    -0.082 A 
ATOM      4  C2  PXY d   1      -0.014   1.388  -0.663  0.00  0.00     0.003 A 
ATOM      5  C3  PXY d   1       0.356   2.351   0.241  0.00  0.00     0.003 A 
ATOM      6  C4  PXY d   1       1.657   2.772   0.311  0.00  0.00    -0.082 A 
ATOM      7  C5  PXY d   1       2.568   2.263  -0.546  0.00  0.00     0.003 A 
ATOM      8  C6  PXY d   1       2.164   1.317  -1.483  0.00  0.00     0.003 A 
ENDROOT
TORSDOF 0
ENDMDL
