MODEL 1
REMARK minimizedAffinity -4.84670448
REMARK minimizedRMSD -1
REMARK  0 active torsions:
REMARK  status: ('A' for Active; 'I' for Inactive)
ROOT
ATOM      1  C4' PXY d   1       0.703   2.720   0.110  0.00  0.00     0.077 C 
ATOM      2  C1' PXY d   1       0.111  -3.018  -0.255  0.00  0.00     0.077 C 
ATOM      3  C1  PXY d   1       0.267  -1.513  -0.172  0.00  0.00    -0.082 A 
ATOM      4  C2  PXY d   1       0.697  -0.961   0.951  0.00  0.00     0.003 A 
ATOM      5  C3  PXY d   1       0.813   0.402   1.054  0.00  0.00     0.003 A 
ATOM      6  C4  PXY d   1       0.538   1.204  -0.022  0.00  0.00    -0.082 A 
ATOM      7  C5  PXY d   1       0.110   0.647  -1.174  0.00  0.00     0.003 A 
ATOM      8  C6  PXY d   1      -0.041  -0.735  -1.245  0.00  0.00     0.003 A 
ENDROOT
TORSDOF 0
ENDMDL
