MODEL 1
REMARK minimizedAffinity -4.22184849
REMARK minimizedRMSD -1
REMARK  0 active torsions:
REMARK  status: ('A' for Active; 'I' for Inactive)
ROOT
ATOM      1  C4' PXY d   1       0.358   0.717  -0.771  0.00  0.00     0.077 C 
ATOM      2  C1' PXY d   1      -0.116  -5.043  -0.862  0.00  0.00     0.077 C 
ATOM      3  C1  PXY d   1       0.016  -3.533  -0.848  0.00  0.00    -0.082 A 
ATOM      4  C2  PXY d   1      -0.228  -2.865   0.268  0.00  0.00     0.003 A 
ATOM      5  C3  PXY d   1      -0.144  -1.497   0.289  0.00  0.00     0.003 A 
ATOM      6  C4  PXY d   1       0.245  -0.809  -0.829  0.00  0.00    -0.082 A 
ATOM      7  C5  PXY d   1       0.506  -1.484  -1.968  0.00  0.00     0.003 A 
ATOM      8  C6  PXY d   1       0.375  -2.870  -1.980  0.00  0.00     0.003 A 
ENDROOT
TORSDOF 0
ENDMDL
