MODEL 1
REMARK minimizedAffinity -3.55407715
REMARK minimizedRMSD -1
REMARK  0 active torsions:
REMARK  status: ('A' for Active; 'I' for Inactive)
ROOT
ATOM      1  C4' PXY d   1       1.237  -3.465  -2.327  0.00  0.00     0.077 C 
ATOM      2  C1' PXY d   1      -1.214  -0.016   1.611  0.00  0.00     0.077 C 
ATOM      3  C1  PXY d   1      -0.575  -0.931   0.585  0.00  0.00    -0.082 A 
ATOM      4  C2  PXY d   1       0.422  -0.483  -0.160  0.00  0.00     0.003 A 
ATOM      5  C3  PXY d   1       0.990  -1.287  -1.115  0.00  0.00     0.003 A 
ATOM      6  C4  PXY d   1       0.568  -2.580  -1.272  0.00  0.00    -0.082 A 
ATOM      7  C5  PXY d   1      -0.442  -3.048  -0.509  0.00  0.00     0.003 A 
ATOM      8  C6  PXY d   1      -1.032  -2.203   0.426  0.00  0.00     0.003 A 
ENDROOT
TORSDOF 0
ENDMDL
