MODEL 1
REMARK minimizedAffinity -5.06059647
REMARK minimizedRMSD -1
REMARK  0 active torsions:
REMARK  status: ('A' for Active; 'I' for Inactive)
ROOT
ATOM      1  C4' PXY d   1      -0.763  -0.005   1.582  0.00  0.00     0.077 C 
ATOM      2  C1' PXY d   1       0.369  -3.434  -2.932  0.00  0.00     0.077 C 
ATOM      3  C1  PXY d   1       0.062  -2.542  -1.746  0.00  0.00    -0.082 A 
ATOM      4  C2  PXY d   1       0.525  -1.303  -1.722  0.00  0.00     0.003 A 
ATOM      5  C3  PXY d   1       0.283  -0.493  -0.642  0.00  0.00     0.003 A 
ATOM      6  C4  PXY d   1      -0.485  -0.938   0.400  0.00  0.00    -0.082 A 
ATOM      7  C5  PXY d   1      -0.970  -2.198   0.378  0.00  0.00     0.003 A 
ATOM      8  C6  PXY d   1      -0.679  -3.018  -0.708  0.00  0.00     0.003 A 
ENDROOT
TORSDOF 0
ENDMDL
