MODEL 1
REMARK minimizedAffinity 3.1921041
REMARK minimizedRMSD -1
REMARK  1 active torsions:
REMARK  status: ('A' for Active; 'I' for Inactive)
REMARK    1  A    between atoms: C3_4  and  O_7 
ROOT
ATOM      1  C   UNL d   1       4.140   2.188   6.000  0.00  0.00    -0.033 A 
ATOM      2  C1  UNL d   1       2.748   2.294   5.999  0.00  0.00     0.039 A 
ATOM      3  C2  UNL d   1       2.142   3.552   5.997  0.00  0.00    -0.080 A 
ATOM      4  C3  UNL d   1       2.938   4.694   5.996  0.00  0.00     0.150 A 
ATOM      5  C4  UNL d   1       4.325   4.596   5.992  0.00  0.00    -0.007 A 
ATOM      6  C5  UNL d   1       4.929   3.339   5.995  0.00  0.00     0.039 A 
ENDROOT
BRANCH   4   7
ATOM      7  O   UNL d   1       2.391   5.943   5.999  0.00  0.00    -0.526 OA
ATOM      8  H5  UNL d   1       1.424   5.856   6.030  0.00  0.00     0.418 HD
ENDBRANCH   4   7
TORSDOF 1
ENDMDL
