MODEL 1
REMARK minimizedAffinity 3.38239384
REMARK minimizedRMSD -1
REMARK  1 active torsions:
REMARK  status: ('A' for Active; 'I' for Inactive)
REMARK    1  A    between atoms: C3_4  and  O_7 
ROOT
ATOM      1  C   UNL d   1       4.324   1.526  -0.144  0.00  0.00    -0.033 A 
ATOM      2  C1  UNL d   1       2.961   1.332   0.086  0.00  0.00     0.039 A 
ATOM      3  C2  UNL d   1       2.425   0.043   0.070  0.00  0.00    -0.080 A 
ATOM      4  C3  UNL d   1       3.261  -1.042  -0.175  0.00  0.00     0.150 A 
ATOM      5  C4  UNL d   1       4.621  -0.857  -0.401  0.00  0.00    -0.007 A 
ATOM      6  C5  UNL d   1       5.155   0.431  -0.385  0.00  0.00     0.039 A 
ENDROOT
BRANCH   4   7
ATOM      7  O   UNL d   1       2.783  -2.318  -0.205  0.00  0.00    -0.526 OA
ATOM      8  H5  UNL d   1       1.822  -2.290  -0.061  0.00  0.00     0.418 HD
ENDBRANCH   4   7
TORSDOF 1
ENDMDL
