MODEL 1
REMARK minimizedAffinity 6.38687944
REMARK minimizedRMSD -1
REMARK  1 active torsions:
REMARK  status: ('A' for Active; 'I' for Inactive)
REMARK    1  A    between atoms: C3_4  and  O_7 
ROOT
ATOM      1  C   UNL d   1      -1.260  -0.797   0.913  0.00  0.00    -0.033 A 
ATOM      2  C1  UNL d   1      -0.837  -0.884  -0.415  0.00  0.00     0.039 A 
ATOM      3  C2  UNL d   1       0.446  -0.461  -0.770  0.00  0.00    -0.080 A 
ATOM      4  C3  UNL d   1       1.295   0.045   0.211  0.00  0.00     0.150 A 
ATOM      5  C4  UNL d   1       0.881   0.130   1.537  0.00  0.00    -0.007 A 
ATOM      6  C5  UNL d   1      -0.400  -0.292   1.889  0.00  0.00     0.039 A 
ENDROOT
BRANCH   4   7
ATOM      7  O   UNL d   1       2.553   0.474  -0.088  0.00  0.00    -0.526 OA
ATOM      8  H5  UNL d   1       2.691   0.382  -1.045  0.00  0.00     0.418 HD
ENDBRANCH   4   7
TORSDOF 1
ENDMDL
