MODEL 1
REMARK minimizedAffinity 7.10671377
REMARK minimizedRMSD -1
REMARK  1 active torsions:
REMARK  status: ('A' for Active; 'I' for Inactive)
REMARK    1  A    between atoms: C3_4  and  O_7 
ROOT
ATOM      1  C   UNL d   1       1.552  -0.273   1.938  0.00  0.00    -0.033 A 
ATOM      2  C1  UNL d   1       0.180  -0.230   2.190  0.00  0.00     0.039 A 
ATOM      3  C2  UNL d   1      -0.728  -0.561   1.183  0.00  0.00    -0.080 A 
ATOM      4  C3  UNL d   1      -0.252  -0.934  -0.071  0.00  0.00     0.150 A 
ATOM      5  C4  UNL d   1       1.114  -0.982  -0.329  0.00  0.00    -0.007 A 
ATOM      6  C5  UNL d   1       2.020  -0.651   0.678  0.00  0.00     0.039 A 
ENDROOT
BRANCH   4   7
ATOM      7  O   UNL d   1      -1.099  -1.261  -1.087  0.00  0.00    -0.526 OA
ATOM      8  H5  UNL d   1      -2.013  -1.155  -0.772  0.00  0.00     0.418 HD
ENDBRANCH   4   7
TORSDOF 1
ENDMDL
