MODEL 1
REMARK minimizedAffinity 2.98427105
REMARK minimizedRMSD -1
REMARK  1 active torsions:
REMARK  status: ('A' for Active; 'I' for Inactive)
REMARK    1  A    between atoms: C3_4  and  O_7 
ROOT
ATOM      1  C   UNL d   1      -0.660   3.256   3.032  0.00  0.00    -0.033 A 
ATOM      2  C1  UNL d   1      -1.281   2.469   4.004  0.00  0.00     0.039 A 
ATOM      3  C2  UNL d   1      -2.585   2.011   3.806  0.00  0.00    -0.080 A 
ATOM      4  C3  UNL d   1      -3.255   2.345   2.632  0.00  0.00     0.150 A 
ATOM      5  C4  UNL d   1      -2.641   3.125   1.658  0.00  0.00    -0.007 A 
ATOM      6  C5  UNL d   1      -1.340   3.583   1.858  0.00  0.00     0.039 A 
ENDROOT
BRANCH   4   7
ATOM      7  O   UNL d   1      -4.531   1.925   2.396  0.00  0.00    -0.526 OA
ATOM      8  H5  UNL d   1      -4.836   1.420   3.168  0.00  0.00     0.418 HD
ENDBRANCH   4   7
TORSDOF 1
ENDMDL
