MODEL 1
REMARK minimizedAffinity 2.43677235
REMARK minimizedRMSD -1
REMARK  1 active torsions:
REMARK  status: ('A' for Active; 'I' for Inactive)
REMARK    1  A    between atoms: C3_4  and  O_7 
ROOT
ATOM      1  C   UNL d   1       0.829  -0.274   0.741  0.00  0.00    -0.033 A 
ATOM      2  C1  UNL d   1       0.175  -0.089   1.961  0.00  0.00     0.039 A 
ATOM      3  C2  UNL d   1      -1.198  -0.321   2.061  0.00  0.00    -0.080 A 
ATOM      4  C3  UNL d   1      -1.904  -0.740   0.936  0.00  0.00     0.150 A 
ATOM      5  C4  UNL d   1      -1.258  -0.930  -0.281  0.00  0.00    -0.007 A 
ATOM      6  C5  UNL d   1       0.113  -0.696  -0.379  0.00  0.00     0.039 A 
ENDROOT
BRANCH   4   7
ATOM      7  O   UNL d   1      -3.246  -0.975   0.984  0.00  0.00    -0.526 OA
ATOM      8  H5  UNL d   1      -3.562  -0.774   1.881  0.00  0.00     0.418 HD
ENDBRANCH   4   7
TORSDOF 1
ENDMDL
