MODEL 1
REMARK minimizedAffinity 9.87131977
REMARK minimizedRMSD -1
REMARK  1 active torsions:
REMARK  status: ('A' for Active; 'I' for Inactive)
REMARK    1  A    between atoms: C3_4  and  O_7 
ROOT
ATOM      1  C   UNL d   1      -0.208  -3.839   4.058  0.00  0.00    -0.033 A 
ATOM      2  C1  UNL d   1      -0.820  -4.907   3.399  0.00  0.00     0.039 A 
ATOM      3  C2  UNL d   1      -1.821  -5.642   4.037  0.00  0.00    -0.080 A 
ATOM      4  C3  UNL d   1      -2.200  -5.300   5.332  0.00  0.00     0.150 A 
ATOM      5  C4  UNL d   1      -1.596  -4.235   5.994  0.00  0.00    -0.007 A 
ATOM      6  C5  UNL d   1      -0.597  -3.502   5.355  0.00  0.00     0.039 A 
ENDROOT
BRANCH   4   7
ATOM      7  O   UNL d   1      -3.168  -5.991   5.998  0.00  0.00    -0.526 OA
ATOM      8  H5  UNL d   1      -3.474  -6.717   5.429  0.00  0.00     0.418 HD
ENDBRANCH   4   7
TORSDOF 1
ENDMDL
