MODEL 1
REMARK minimizedAffinity 9.27958393
REMARK minimizedRMSD -1
REMARK  1 active torsions:
REMARK  status: ('A' for Active; 'I' for Inactive)
REMARK    1  A    between atoms: C3_4  and  O_7 
ROOT
ATOM      1  C   UNL d   1      -0.862  -5.901   5.989  0.00  0.00    -0.033 A 
ATOM      2  C1  UNL d   1       0.534  -5.957   5.988  0.00  0.00     0.039 A 
ATOM      3  C2  UNL d   1       1.270  -5.049   5.225  0.00  0.00    -0.080 A 
ATOM      4  C3  UNL d   1       0.601  -4.091   4.469  0.00  0.00     0.150 A 
ATOM      5  C4  UNL d   1      -0.789  -4.027   4.468  0.00  0.00    -0.007 A 
ATOM      6  C5  UNL d   1      -1.523  -4.935   5.230  0.00  0.00     0.039 A 
ENDROOT
BRANCH   4   7
ATOM      7  O   UNL d   1       1.276  -3.186   3.705  0.00  0.00    -0.526 OA
ATOM      8  H5  UNL d   1       2.228  -3.369   3.781  0.00  0.00     0.418 HD
ENDBRANCH   4   7
TORSDOF 1
ENDMDL
