MODEL 1
REMARK minimizedAffinity 3.84423089
REMARK minimizedRMSD -1
REMARK  1 active torsions:
REMARK  status: ('A' for Active; 'I' for Inactive)
REMARK    1  A    between atoms: C3_4  and  O_7 
ROOT
ATOM      1  C   UNL d   1       0.781  -4.476   4.130  0.00  0.00    -0.033 A 
ATOM      2  C1  UNL d   1       0.376  -3.917   5.343  0.00  0.00     0.039 A 
ATOM      3  C2  UNL d   1      -0.767  -4.394   5.987  0.00  0.00    -0.080 A 
ATOM      4  C3  UNL d   1      -1.496  -5.429   5.408  0.00  0.00     0.150 A 
ATOM      5  C4  UNL d   1      -1.096  -5.994   4.201  0.00  0.00    -0.007 A 
ATOM      6  C5  UNL d   1       0.045  -5.515   3.559  0.00  0.00     0.039 A 
ENDROOT
BRANCH   4   7
ATOM      7  O   UNL d   1      -2.621  -5.925   5.997  0.00  0.00    -0.526 OA
ATOM      8  H5  UNL d   1      -2.791  -5.420   6.809  0.00  0.00     0.418 HD
ENDBRANCH   4   7
TORSDOF 1
ENDMDL
