MODEL 1
REMARK minimizedAffinity -4.28290033
REMARK minimizedRMSD -1
REMARK  0 active torsions:
REMARK  status: ('A' for Active; 'I' for Inactive)
ROOT
ATOM      1  C4' PXY d   1      -1.595   0.382  -0.324  0.00  0.00     0.077 C 
ATOM      2  C1' PXY d   1       3.546  -1.468   1.564  0.00  0.00     0.077 C 
ATOM      3  C1  PXY d   1       2.200  -0.971   1.073  0.00  0.00    -0.082 A 
ATOM      4  C2  PXY d   1       1.199  -1.824   0.933  0.00  0.00     0.003 A 
ATOM      5  C3  PXY d   1      -0.015  -1.397   0.460  0.00  0.00     0.003 A 
ATOM      6  C4  PXY d   1      -0.222  -0.073   0.178  0.00  0.00    -0.082 A 
ATOM      7  C5  PXY d   1       0.791   0.805   0.328  0.00  0.00     0.003 A 
ATOM      8  C6  PXY d   1       2.028   0.345   0.771  0.00  0.00     0.003 A 
ENDROOT
TORSDOF 0
ENDMDL
