MODEL 1
REMARK minimizedAffinity -5.43546867
REMARK minimizedRMSD -1
REMARK  0 active torsions:
REMARK  status: ('A' for Active; 'I' for Inactive)
ROOT
ATOM      1  C4' PXY d   1      -2.180   0.001   0.005  0.00  0.00     0.077 C 
ATOM      2  C1' PXY d   1       3.538   0.056   0.852  0.00  0.00     0.077 C 
ATOM      3  C1  PXY d   1       2.038   0.055   0.629  0.00  0.00    -0.082 A 
ATOM      4  C2  PXY d   1       1.319  -0.984   1.023  0.00  0.00     0.003 A 
ATOM      5  C3  PXY d   1      -0.033  -1.016   0.801  0.00  0.00     0.003 A 
ATOM      6  C4  PXY d   1      -0.665   0.050   0.218  0.00  0.00    -0.082 A 
ATOM      7  C5  PXY d   1       0.060   1.118  -0.177  0.00  0.00     0.003 A 
ATOM      8  C6  PXY d   1       1.438   1.113   0.021  0.00  0.00     0.003 A 
ENDROOT
TORSDOF 0
ENDMDL
