MODEL 1
REMARK minimizedAffinity -5.42987919
REMARK minimizedRMSD -1
REMARK  0 active torsions:
REMARK  status: ('A' for Active; 'I' for Inactive)
ROOT
ATOM      1  C4' PXY d   1       3.064  -0.077   1.100  0.00  0.00     0.077 C 
ATOM      2  C1' PXY d   1      -2.306   0.408  -0.982  0.00  0.00     0.077 C 
ATOM      3  C1  PXY d   1      -0.901   0.270  -0.430  0.00  0.00    -0.082 A 
ATOM      4  C2  PXY d   1      -0.149   1.348  -0.277  0.00  0.00     0.003 A 
ATOM      5  C3  PXY d   1       1.135   1.237   0.190  0.00  0.00     0.003 A 
ATOM      6  C4  PXY d   1       1.636   0.016   0.556  0.00  0.00    -0.082 A 
ATOM      7  C5  PXY d   1       0.872  -1.087   0.413  0.00  0.00     0.003 A 
ATOM      8  C6  PXY d   1      -0.415  -0.958  -0.102  0.00  0.00     0.003 A 
ENDROOT
TORSDOF 0
ENDMDL
