MODEL 1
REMARK minimizedAffinity -5.41836119
REMARK minimizedRMSD -1
REMARK  0 active torsions:
REMARK  status: ('A' for Active; 'I' for Inactive)
ROOT
ATOM      1  C4' PXY d   1      -2.402  -1.121   1.095  0.00  0.00     0.077 C 
ATOM      2  C1' PXY d   1       3.285  -0.125   0.804  0.00  0.00     0.077 C 
ATOM      3  C1  PXY d   1       1.791  -0.373   0.881  0.00  0.00    -0.082 A 
ATOM      4  C2  PXY d   1       1.343  -1.532   1.336  0.00  0.00     0.003 A 
ATOM      5  C3  PXY d   1      -0.003  -1.786   1.382  0.00  0.00     0.003 A 
ATOM      6  C4  PXY d   1      -0.903  -0.823   1.009  0.00  0.00    -0.082 A 
ATOM      7  C5  PXY d   1      -0.454   0.367   0.554  0.00  0.00     0.003 A 
ATOM      8  C6  PXY d   1       0.918   0.589   0.476  0.00  0.00     0.003 A 
ENDROOT
TORSDOF 0
ENDMDL
