MODEL 1
REMARK minimizedAffinity -2.92646074
REMARK minimizedRMSD -1
REMARK  0 active torsions:
REMARK  status: ('A' for Active; 'I' for Inactive)
ROOT
ATOM      1  C4' PXY d   1       2.994   0.647   1.226  0.00  0.00     0.077 C 
ATOM      2  C1' PXY d   1      -2.352   0.076  -0.898  0.00  0.00     0.077 C 
ATOM      3  C1  PXY d   1      -0.951   0.239  -0.342  0.00  0.00    -0.082 A 
ATOM      4  C2  PXY d   1      -0.097  -0.768  -0.418  0.00  0.00     0.003 A 
ATOM      5  C3  PXY d   1       1.164  -0.649   0.108  0.00  0.00     0.003 A 
ATOM      6  C4  PXY d   1       1.572   0.531   0.670  0.00  0.00    -0.082 A 
ATOM      7  C5  PXY d   1       0.709   1.567   0.741  0.00  0.00     0.003 A 
ATOM      8  C6  PXY d   1      -0.579   1.412   0.238  0.00  0.00     0.003 A 
ENDROOT
TORSDOF 0
ENDMDL
