MODEL 1
REMARK minimizedAffinity -5.45600224
REMARK minimizedRMSD -1
REMARK  0 active torsions:
REMARK  status: ('A' for Active; 'I' for Inactive)
ROOT
ATOM      1  C4' PXY d   1      -1.436  -0.018  -0.130  0.00  0.00     0.077 C 
ATOM      2  C1' PXY d   1       3.838  -1.389   1.801  0.00  0.00     0.077 C 
ATOM      3  C1  PXY d   1       2.452  -1.042   1.294  0.00  0.00    -0.082 A 
ATOM      4  C2  PXY d   1       2.254   0.103   0.662  0.00  0.00     0.003 A 
ATOM      5  C3  PXY d   1       1.000   0.447   0.226  0.00  0.00     0.003 A 
ATOM      6  C4  PXY d   1      -0.051  -0.414   0.391  0.00  0.00    -0.082 A 
ATOM      7  C5  PXY d   1       0.145  -1.590   1.025  0.00  0.00     0.003 A 
ATOM      8  C6  PXY d   1       1.416  -1.902   1.497  0.00  0.00     0.003 A 
ENDROOT
TORSDOF 0
ENDMDL
