MODEL 1
REMARK minimizedAffinity -5.62718439
REMARK minimizedRMSD -1
REMARK  0 active torsions:
REMARK  status: ('A' for Active; 'I' for Inactive)
ROOT
ATOM      1  C4' PXY d   1       1.866  -2.985   1.529  0.00  0.00     0.077 C 
ATOM      2  C1' PXY d   1       0.909   2.478  -0.101  0.00  0.00     0.077 C 
ATOM      3  C1  PXY d   1       1.172   1.047   0.324  0.00  0.00    -0.082 A 
ATOM      4  C2  PXY d   1       0.179   0.173   0.331  0.00  0.00     0.003 A 
ATOM      5  C3  PXY d   1       0.393  -1.117   0.742  0.00  0.00     0.003 A 
ATOM      6  C4  PXY d   1       1.648  -1.531   1.099  0.00  0.00    -0.082 A 
ATOM      7  C5  PXY d   1       2.669  -0.649   1.084  0.00  0.00     0.003 A 
ATOM      8  C6  PXY d   1       2.423   0.667   0.703  0.00  0.00     0.003 A 
ENDROOT
TORSDOF 0
ENDMDL
