MODEL 1
REMARK minimizedAffinity -3.82872486
REMARK minimizedRMSD -1
REMARK  0 active torsions:
REMARK  status: ('A' for Active; 'I' for Inactive)
ROOT
ATOM      1  C4' PXY d   1      -2.326   0.005  -0.833  0.00  0.00     0.077 C 
ATOM      2  C1' PXY d   1       3.159  -0.033   0.992  0.00  0.00     0.077 C 
ATOM      3  C1  PXY d   1       1.719  -0.011   0.519  0.00  0.00    -0.082 A 
ATOM      4  C2  PXY d   1       1.073  -1.151   0.335  0.00  0.00     0.003 A 
ATOM      5  C3  PXY d   1      -0.219  -1.150  -0.124  0.00  0.00     0.003 A 
ATOM      6  C4  PXY d   1      -0.874   0.031  -0.346  0.00  0.00    -0.082 A 
ATOM      7  C5  PXY d   1      -0.226   1.199  -0.151  0.00  0.00     0.003 A 
ATOM      8  C6  PXY d   1       1.099   1.175   0.276  0.00  0.00     0.003 A 
ENDROOT
TORSDOF 0
ENDMDL
