MODEL 1
REMARK minimizedAffinity -1.82089245
REMARK minimizedRMSD -1
REMARK  0 active torsions:
REMARK  status: ('A' for Active; 'I' for Inactive)
ROOT
ATOM      1  C4' PXY d   1       4.080  -1.175   1.276  0.00  0.00     0.077 C 
ATOM      2  C1' PXY d   1      -1.307   0.715   0.365  0.00  0.00     0.077 C 
ATOM      3  C1  PXY d   1       0.110   0.232   0.603  0.00  0.00    -0.082 A 
ATOM      4  C2  PXY d   1       0.434  -1.017   0.307  0.00  0.00     0.003 A 
ATOM      5  C3  PXY d   1       1.703  -1.480   0.546  0.00  0.00     0.003 A 
ATOM      6  C4  PXY d   1       2.664  -0.641   1.043  0.00  0.00    -0.082 A 
ATOM      7  C5  PXY d   1       2.344   0.637   1.338  0.00  0.00     0.003 A 
ATOM      8  C6  PXY d   1       1.040   1.076   1.126  0.00  0.00     0.003 A 
ENDROOT
TORSDOF 0
ENDMDL
