MODEL 1
REMARK minimizedAffinity -4.36737108
REMARK minimizedRMSD -1
REMARK  2 active torsions:
REMARK  status: ('A' for Active; 'I' for Inactive)
REMARK    1  A    between atoms: C1_2  and  C2_3 
REMARK    2  A    between atoms: C2_3  and  C3_4 
ROOT
ATOM      1  C3  UNL d   1       0.009  -0.122  -0.384  0.00  0.00    -0.075 A 
ATOM      2  C4  UNL d   1      -0.473  -0.803   0.743  0.00  0.00     0.002 A 
ATOM      3  C5  UNL d   1      -1.328  -0.168   1.643  0.00  0.00     0.002 A 
ATOM      4  C6  UNL d   1      -1.704   1.158   1.434  0.00  0.00    -0.004 A 
ATOM      5  C7  UNL d   1      -1.218   1.850   0.327  0.00  0.00     0.002 A 
ATOM      6  C8  UNL d   1      -0.366   1.214  -0.578  0.00  0.00     0.002 A 
ENDROOT
BRANCH   1   7
ATOM      7  C2  UNL d   1       0.911  -0.813  -1.378  0.00  0.00     0.056 C 
BRANCH   7   8
ATOM      8  C1  UNL d   1       0.208  -1.886  -2.217  0.00  0.00     0.007 C 
ATOM      9  C   UNL d   1       0.684  -3.299  -1.907  0.00  0.00     0.009 C 
ENDBRANCH   7   8
ENDBRANCH   1   7
TORSDOF 2
ENDMDL
