MODEL 1
REMARK minimizedAffinity -2.26480818
REMARK minimizedRMSD -1
REMARK  2 active torsions:
REMARK  status: ('A' for Active; 'I' for Inactive)
REMARK    1  A    between atoms: C1_2  and  C2_3 
REMARK    2  A    between atoms: C2_3  and  C3_4 
ROOT
ATOM      1  C3  UNL d   1       0.337  -0.624  -0.033  0.00  0.00    -0.075 A 
ATOM      2  C4  UNL d   1       0.025  -1.365   1.117  0.00  0.00     0.002 A 
ATOM      3  C5  UNL d   1      -0.732  -0.796   2.142  0.00  0.00     0.002 A 
ATOM      4  C6  UNL d   1      -1.176   0.519   2.036  0.00  0.00    -0.004 A 
ATOM      5  C7  UNL d   1      -0.859   1.270   0.906  0.00  0.00     0.002 A 
ATOM      6  C8  UNL d   1      -0.106   0.702  -0.123  0.00  0.00     0.002 A 
ENDROOT
BRANCH   1   7
ATOM      7  C2  UNL d   1       1.130  -1.243  -1.159  0.00  0.00     0.056 C 
BRANCH   7   8
ATOM      8  C1  UNL d   1       0.726  -2.684  -1.487  0.00  0.00     0.007 C 
ATOM      9  C   UNL d   1       0.057  -2.825  -2.848  0.00  0.00     0.009 C 
ENDBRANCH   7   8
ENDBRANCH   1   7
TORSDOF 2
ENDMDL
