MODEL 1
REMARK minimizedAffinity -6.62710619
REMARK minimizedRMSD -1
REMARK  2 active torsions:
REMARK  status: ('A' for Active; 'I' for Inactive)
REMARK    1  A    between atoms: C1_2  and  C2_3 
REMARK    2  A    between atoms: C2_3  and  C3_4 
ROOT
ATOM      1  C3  UNL d   1      -0.313  -0.424   0.070  0.00  0.00    -0.075 A 
ATOM      2  C4  UNL d   1      -1.000   0.549  -0.670  0.00  0.00     0.002 A 
ATOM      3  C5  UNL d   1      -1.772   1.516  -0.025  0.00  0.00     0.002 A 
ATOM      4  C6  UNL d   1      -1.875   1.516   1.364  0.00  0.00    -0.004 A 
ATOM      5  C7  UNL d   1      -1.211   0.544   2.109  0.00  0.00     0.002 A 
ATOM      6  C8  UNL d   1      -0.434  -0.422   1.466  0.00  0.00     0.002 A 
ENDROOT
BRANCH   1   7
ATOM      7  C2  UNL d   1       0.548  -1.455  -0.620  0.00  0.00     0.056 C 
BRANCH   7   8
ATOM      8  C1  UNL d   1      -0.025  -1.956  -1.950  0.00  0.00     0.007 C 
ATOM      9  C   UNL d   1      -0.940  -3.164  -1.793  0.00  0.00     0.009 C 
ENDBRANCH   7   8
ENDBRANCH   1   7
TORSDOF 2
ENDMDL
