MODEL 1
REMARK minimizedAffinity -6.11793995
REMARK minimizedRMSD -1
REMARK  2 active torsions:
REMARK  status: ('A' for Active; 'I' for Inactive)
REMARK    1  A    between atoms: C1_2  and  C2_3 
REMARK    2  A    between atoms: C2_3  and  C3_4 
ROOT
ATOM      1  C3  UNL d   1      -0.325  -0.186  -0.043  0.00  0.00    -0.075 A 
ATOM      2  C4  UNL d   1      -0.810  -0.745   1.148  0.00  0.00     0.002 A 
ATOM      3  C5  UNL d   1      -1.498   0.042   2.072  0.00  0.00     0.002 A 
ATOM      4  C6  UNL d   1      -1.700   1.398   1.822  0.00  0.00    -0.004 A 
ATOM      5  C7  UNL d   1      -1.208   1.968   0.650  0.00  0.00     0.002 A 
ATOM      6  C8  UNL d   1      -0.523   1.181  -0.278  0.00  0.00     0.002 A 
ENDROOT
BRANCH   1   7
ATOM      7  C2  UNL d   1       0.395  -1.039  -1.060  0.00  0.00     0.056 C 
BRANCH   7   8
ATOM      8  C1  UNL d   1      -0.374  -2.299  -1.473  0.00  0.00     0.007 C 
ATOM      9  C   UNL d   1       0.316  -3.088  -2.578  0.00  0.00     0.009 C 
ENDBRANCH   7   8
ENDBRANCH   1   7
TORSDOF 2
ENDMDL
