MODEL 1
REMARK minimizedAffinity -5.81628561
REMARK minimizedRMSD -1
REMARK  2 active torsions:
REMARK  status: ('A' for Active; 'I' for Inactive)
REMARK    1  A    between atoms: C1_2  and  C2_3 
REMARK    2  A    between atoms: C2_3  and  C3_4 
ROOT
ATOM      1  C3  UNL d   1      -0.243   0.041   0.232  0.00  0.00    -0.075 A 
ATOM      2  C4  UNL d   1      -1.200   0.884  -0.351  0.00  0.00     0.002 A 
ATOM      3  C5  UNL d   1      -1.978   1.727   0.443  0.00  0.00     0.002 A 
ATOM      4  C6  UNL d   1      -1.818   1.730   1.827  0.00  0.00    -0.004 A 
ATOM      5  C7  UNL d   1      -0.881   0.884   2.418  0.00  0.00     0.002 A 
ATOM      6  C8  UNL d   1      -0.098   0.043   1.626  0.00  0.00     0.002 A 
ENDROOT
BRANCH   1   7
ATOM      7  C2  UNL d   1       0.624  -0.852  -0.624  0.00  0.00     0.056 C 
BRANCH   7   8
ATOM      8  C1  UNL d   1      -0.165  -1.787  -1.547  0.00  0.00     0.007 C 
ATOM      9  C   UNL d   1       0.695  -2.877  -2.174  0.00  0.00     0.009 C 
ENDBRANCH   7   8
ENDBRANCH   1   7
TORSDOF 2
ENDMDL
