MODEL 1
REMARK minimizedAffinity -6.23812103
REMARK minimizedRMSD -1
REMARK  2 active torsions:
REMARK  status: ('A' for Active; 'I' for Inactive)
REMARK    1  A    between atoms: C1_2  and  C2_3 
REMARK    2  A    between atoms: C2_3  and  C3_4 
ROOT
ATOM      1  C3  UNL d   1      -0.027  -0.072  -0.152  0.00  0.00    -0.075 A 
ATOM      2  C4  UNL d   1      -0.449  -0.351   1.156  0.00  0.00     0.002 A 
ATOM      3  C5  UNL d   1      -1.152   0.604   1.892  0.00  0.00     0.002 A 
ATOM      4  C6  UNL d   1      -1.433   1.849   1.335  0.00  0.00    -0.004 A 
ATOM      5  C7  UNL d   1      -1.005   2.142   0.042  0.00  0.00     0.002 A 
ATOM      6  C8  UNL d   1      -0.305   1.188  -0.699  0.00  0.00     0.002 A 
ENDROOT
BRANCH   1   7
ATOM      7  C2  UNL d   1       0.708  -1.111  -0.965  0.00  0.00     0.056 C 
BRANCH   7   8
ATOM      8  C1  UNL d   1      -0.136  -1.749  -2.073  0.00  0.00     0.007 C 
ATOM      9  C   UNL d   1       0.337  -3.144  -2.461  0.00  0.00     0.009 C 
ENDBRANCH   7   8
ENDBRANCH   1   7
TORSDOF 2
ENDMDL
