MODEL 1
REMARK minimizedAffinity -5.58022642
REMARK minimizedRMSD -1
REMARK  2 active torsions:
REMARK  status: ('A' for Active; 'I' for Inactive)
REMARK    1  A    between atoms: C1_2  and  C2_3 
REMARK    2  A    between atoms: C2_3  and  C3_4 
ROOT
ATOM      1  C3  UNL d   1      -0.029   0.101  -0.016  0.00  0.00    -0.075 A 
ATOM      2  C4  UNL d   1      -0.833   1.172  -0.432  0.00  0.00     0.002 A 
ATOM      3  C5  UNL d   1      -1.805   1.700   0.419  0.00  0.00     0.002 A 
ATOM      4  C6  UNL d   1      -1.992   1.159   1.688  0.00  0.00    -0.004 A 
ATOM      5  C7  UNL d   1      -1.210   0.084   2.106  0.00  0.00     0.002 A 
ATOM      6  C8  UNL d   1      -0.234  -0.443   1.258  0.00  0.00     0.002 A 
ENDROOT
BRANCH   1   7
ATOM      7  C2  UNL d   1       1.044  -0.456  -0.921  0.00  0.00     0.056 C 
BRANCH   7   8
ATOM      8  C1  UNL d   1       0.989  -1.978  -1.091  0.00  0.00     0.007 C 
ATOM      9  C   UNL d   1       0.216  -2.416  -2.327  0.00  0.00     0.009 C 
ENDBRANCH   7   8
ENDBRANCH   1   7
TORSDOF 2
ENDMDL
