MODEL 1
REMARK minimizedAffinity -5.37330151
REMARK minimizedRMSD -1
REMARK  2 active torsions:
REMARK  status: ('A' for Active; 'I' for Inactive)
REMARK    1  A    between atoms: C1_2  and  C2_3 
REMARK    2  A    between atoms: C2_3  and  C3_4 
ROOT
ATOM      1  C3  UNL d   1      -0.282  -0.131   0.338  0.00  0.00    -0.075 A 
ATOM      2  C4  UNL d   1      -0.946   0.971  -0.220  0.00  0.00     0.002 A 
ATOM      3  C5  UNL d   1      -1.851   1.713   0.540  0.00  0.00     0.002 A 
ATOM      4  C6  UNL d   1      -2.111   1.357   1.861  0.00  0.00    -0.004 A 
ATOM      5  C7  UNL d   1      -1.470   0.254   2.421  0.00  0.00     0.002 A 
ATOM      6  C8  UNL d   1      -0.561  -0.487   1.664  0.00  0.00     0.002 A 
ENDROOT
BRANCH   1   7
ATOM      7  C2  UNL d   1       0.720  -0.919  -0.471  0.00  0.00     0.056 C 
BRANCH   7   8
ATOM      8  C1  UNL d   1       0.125  -1.606  -1.705  0.00  0.00     0.007 C 
ATOM      9  C   UNL d   1       0.694  -2.996  -1.951  0.00  0.00     0.009 C 
ENDBRANCH   7   8
ENDBRANCH   1   7
TORSDOF 2
ENDMDL
