MODEL 1
REMARK minimizedAffinity -5.71696663
REMARK minimizedRMSD -1
REMARK  2 active torsions:
REMARK  status: ('A' for Active; 'I' for Inactive)
REMARK    1  A    between atoms: C1_2  and  C2_3 
REMARK    2  A    between atoms: C2_3  and  C3_4 
ROOT
ATOM      1  C3  UNL d   1       1.500  -4.047  -1.049  0.00  0.00    -0.075 A 
ATOM      2  C4  UNL d   1       0.518  -4.339  -2.006  0.00  0.00     0.002 A 
ATOM      3  C5  UNL d   1      -0.286  -3.325  -2.528  0.00  0.00     0.002 A 
ATOM      4  C6  UNL d   1      -0.124  -2.011  -2.093  0.00  0.00    -0.004 A 
ATOM      5  C7  UNL d   1       0.837  -1.713  -1.130  0.00  0.00     0.002 A 
ATOM      6  C8  UNL d   1       1.645  -2.725  -0.610  0.00  0.00     0.002 A 
ENDROOT
BRANCH   1   7
ATOM      7  C2  UNL d   1       2.393  -5.136  -0.501  0.00  0.00     0.056 C 
BRANCH   7   8
ATOM      8  C1  UNL d   1       3.075  -4.776   0.823  0.00  0.00     0.007 C 
ATOM      9  C   UNL d   1       3.810  -5.949   1.457  0.00  0.00     0.009 C 
ENDBRANCH   7   8
ENDBRANCH   1   7
TORSDOF 2
ENDMDL
