MODEL 1
REMARK minimizedAffinity -5.7315321
REMARK minimizedRMSD -1
REMARK  2 active torsions:
REMARK  status: ('A' for Active; 'I' for Inactive)
REMARK    1  A    between atoms: C1_2  and  C2_3 
REMARK    2  A    between atoms: C2_3  and  C3_4 
ROOT
ATOM      1  C3  UNL d   1       0.030   0.138  -0.197  0.00  0.00    -0.075 A 
ATOM      2  C4  UNL d   1      -0.326  -0.306   1.085  0.00  0.00     0.002 A 
ATOM      3  C5  UNL d   1      -1.135   0.479   1.907  0.00  0.00     0.002 A 
ATOM      4  C6  UNL d   1      -1.589   1.719   1.463  0.00  0.00    -0.004 A 
ATOM      5  C7  UNL d   1      -1.228   2.178   0.198  0.00  0.00     0.002 A 
ATOM      6  C8  UNL d   1      -0.423   1.392  -0.628  0.00  0.00     0.002 A 
ENDROOT
BRANCH   1   7
ATOM      7  C2  UNL d   1       0.881  -0.719  -1.103  0.00  0.00     0.056 C 
BRANCH   7   8
ATOM      8  C1  UNL d   1       0.625  -2.223  -0.959  0.00  0.00     0.007 C 
ATOM      9  C   UNL d   1       0.311  -2.909  -2.282  0.00  0.00     0.009 C 
ENDBRANCH   7   8
ENDBRANCH   1   7
TORSDOF 2
ENDMDL
