MODEL 1
REMARK minimizedAffinity -4.97011089
REMARK minimizedRMSD -1
REMARK  2 active torsions:
REMARK  status: ('A' for Active; 'I' for Inactive)
REMARK    1  A    between atoms: C1_2  and  C2_3 
REMARK    2  A    between atoms: C2_3  and  C3_4 
ROOT
ATOM      1  C3  UNL d   1      -0.026  -0.072   0.179  0.00  0.00    -0.075 A 
ATOM      2  C4  UNL d   1      -0.276  -0.149   1.557  0.00  0.00     0.002 A 
ATOM      3  C5  UNL d   1      -1.304   0.597   2.133  0.00  0.00     0.002 A 
ATOM      4  C6  UNL d   1      -2.087   1.436   1.343  0.00  0.00    -0.004 A 
ATOM      5  C7  UNL d   1      -1.836   1.534  -0.024  0.00  0.00     0.002 A 
ATOM      6  C8  UNL d   1      -0.811   0.785  -0.604  0.00  0.00     0.002 A 
ENDROOT
BRANCH   1   7
ATOM      7  C2  UNL d   1       1.066  -0.899  -0.456  0.00  0.00     0.056 C 
BRANCH   7   8
ATOM      8  C1  UNL d   1       0.776  -2.404  -0.478  0.00  0.00     0.007 C 
ATOM      9  C   UNL d   1      -0.064  -2.835  -1.673  0.00  0.00     0.009 C 
ENDBRANCH   7   8
ENDBRANCH   1   7
TORSDOF 2
ENDMDL
