MODEL 1
REMARK minimizedAffinity -6.35490036
REMARK minimizedRMSD -1
REMARK  2 active torsions:
REMARK  status: ('A' for Active; 'I' for Inactive)
REMARK    1  A    between atoms: C1_2  and  C2_3 
REMARK    2  A    between atoms: C2_3  and  C3_4 
ROOT
ATOM      1  C3  UNL d   1      -0.409   0.011  -0.044  0.00  0.00    -0.075 A 
ATOM      2  C4  UNL d   1      -0.643  -0.211   1.320  0.00  0.00     0.002 A 
ATOM      3  C5  UNL d   1      -1.601   0.537   2.006  0.00  0.00     0.002 A 
ATOM      4  C6  UNL d   1      -2.327   1.522   1.340  0.00  0.00    -0.004 A 
ATOM      5  C7  UNL d   1      -2.091   1.763  -0.012  0.00  0.00     0.002 A 
ATOM      6  C8  UNL d   1      -1.137   1.012  -0.701  0.00  0.00     0.002 A 
ENDROOT
BRANCH   1   7
ATOM      7  C2  UNL d   1       0.605  -0.815  -0.799  0.00  0.00     0.056 C 
BRANCH   7   8
ATOM      8  C1  UNL d   1      -0.003  -1.710  -1.884  0.00  0.00     0.007 C 
ATOM      9  C   UNL d   1       0.713  -3.047  -2.030  0.00  0.00     0.009 C 
ENDBRANCH   7   8
ENDBRANCH   1   7
TORSDOF 2
ENDMDL
