MODEL 1
REMARK minimizedAffinity -3.09730029
REMARK minimizedRMSD -1
REMARK  2 active torsions:
REMARK  status: ('A' for Active; 'I' for Inactive)
REMARK    1  A    between atoms: C1_2  and  C2_3 
REMARK    2  A    between atoms: C2_3  and  C3_4 
ROOT
ATOM      1  C3  UNL d   1      -0.199   0.007   0.102  0.00  0.00    -0.075 A 
ATOM      2  C4  UNL d   1      -0.284  -0.144   1.494  0.00  0.00     0.002 A 
ATOM      3  C5  UNL d   1      -0.909   0.828   2.275  0.00  0.00     0.002 A 
ATOM      4  C6  UNL d   1      -1.446   1.967   1.678  0.00  0.00    -0.004 A 
ATOM      5  C7  UNL d   1      -1.352   2.135   0.298  0.00  0.00     0.002 A 
ATOM      6  C8  UNL d   1      -0.732   1.162  -0.486  0.00  0.00     0.002 A 
ENDROOT
BRANCH   1   7
ATOM      7  C2  UNL d   1       0.450  -1.055  -0.753  0.00  0.00     0.056 C 
BRANCH   7   8
ATOM      8  C1  UNL d   1      -0.545  -1.942  -1.508  0.00  0.00     0.007 C 
ATOM      9  C   UNL d   1       0.128  -3.004  -2.367  0.00  0.00     0.009 C 
ENDBRANCH   7   8
ENDBRANCH   1   7
TORSDOF 2
ENDMDL
