MODEL 1
REMARK minimizedAffinity -4.62925911
REMARK minimizedRMSD -1
REMARK  2 active torsions:
REMARK  status: ('A' for Active; 'I' for Inactive)
REMARK    1  A    between atoms: C1_2  and  C2_3 
REMARK    2  A    between atoms: C2_3  and  C3_4 
ROOT
ATOM      1  C3  UNL d   1       0.051   0.177  -0.071  0.00  0.00    -0.075 A 
ATOM      2  C4  UNL d   1      -0.616   1.351  -0.450  0.00  0.00     0.002 A 
ATOM      3  C5  UNL d   1      -1.511   1.970   0.423  0.00  0.00     0.002 A 
ATOM      4  C6  UNL d   1      -1.757   1.419   1.679  0.00  0.00    -0.004 A 
ATOM      5  C7  UNL d   1      -1.112   0.244   2.059  0.00  0.00     0.002 A 
ATOM      6  C8  UNL d   1      -0.213  -0.375   1.190  0.00  0.00     0.002 A 
ENDROOT
BRANCH   1   7
ATOM      7  C2  UNL d   1       1.043  -0.482  -1.000  0.00  0.00     0.056 C 
BRANCH   7   8
ATOM      8  C1  UNL d   1       0.945  -2.011  -1.034  0.00  0.00     0.007 C 
ATOM      9  C   UNL d   1       0.299  -2.542  -2.307  0.00  0.00     0.009 C 
ENDBRANCH   7   8
ENDBRANCH   1   7
TORSDOF 2
ENDMDL
