MODEL 1
REMARK minimizedAffinity -4.05680752
REMARK minimizedRMSD -1
REMARK  3 active torsions:
REMARK  status: ('A' for Active; 'I' for Inactive)
REMARK    1  A    between atoms: C3'_2  and  C2'_3 
REMARK    2  A    between atoms: C2'_3  and  C1'_4 
REMARK    3  A    between atoms: C1'_4  and  C1_5 
ROOT
ATOM      1  C1  N4B d   1      -0.769   2.013   0.699  0.00  0.00    -0.075 A 
ATOM      2  C2  N4B d   1       0.138   2.990   1.166  0.00  0.00     0.002 A 
ATOM      3  C3  N4B d   1       1.451   2.655   1.393  0.00  0.00     0.002 A 
ATOM      4  C4  N4B d   1       1.873   1.351   1.179  0.00  0.00    -0.004 A 
ATOM      5  C5  N4B d   1       0.996   0.420   0.704  0.00  0.00     0.002 A 
ATOM      6  C6  N4B d   1      -0.325   0.744   0.468  0.00  0.00     0.002 A 
ENDROOT
BRANCH   1   7
ATOM      7  C1' N4B d   1      -2.232   2.311   0.519  0.00  0.00     0.057 C 
BRANCH   7   8
ATOM      8  C2' N4B d   1      -2.986   1.002   0.301  0.00  0.00     0.009 C 
BRANCH   8   9
ATOM      9  C3' N4B d   1      -4.067   0.789   1.347  0.00  0.00     0.004 C 
ATOM     10  C4' N4B d   1      -5.308   1.583   1.070  0.00  0.00     0.003 C 
ENDBRANCH   8   9
ENDBRANCH   7   8
ENDBRANCH   1   7
TORSDOF 3
ENDMDL
