MODEL 1
REMARK minimizedAffinity 6.20624018
REMARK minimizedRMSD -1
REMARK  3 active torsions:
REMARK  status: ('A' for Active; 'I' for Inactive)
REMARK    1  A    between atoms: C3'_2  and  C2'_3 
REMARK    2  A    between atoms: C2'_3  and  C1'_4 
REMARK    3  A    between atoms: C1'_4  and  C1_5 
ROOT
ATOM      1  C1  N4B d   1       2.547   0.396  -1.786  0.00  0.00    -0.075 A 
ATOM      2  C2  N4B d   1       1.765   0.719  -0.655  0.00  0.00     0.002 A 
ATOM      3  C3  N4B d   1       1.785  -0.098   0.449  0.00  0.00     0.002 A 
ATOM      4  C4  N4B d   1       2.560  -1.248   0.437  0.00  0.00    -0.004 A 
ATOM      5  C5  N4B d   1       3.331  -1.539  -0.650  0.00  0.00     0.002 A 
ATOM      6  C6  N4B d   1       3.325  -0.725  -1.764  0.00  0.00     0.002 A 
ENDROOT
BRANCH   1   7
ATOM      7  C1' N4B d   1       2.492   1.213  -3.049  0.00  0.00     0.057 C 
BRANCH   7   8
ATOM      8  C2' N4B d   1       1.087   1.128  -3.639  0.00  0.00     0.009 C 
BRANCH   8   9
ATOM      9  C3' N4B d   1       1.082   0.447  -4.997  0.00  0.00     0.004 C 
ATOM     10  C4' N4B d   1       0.193   1.137  -5.989  0.00  0.00     0.003 C 
ENDBRANCH   8   9
ENDBRANCH   7   8
ENDBRANCH   1   7
TORSDOF 3
ENDMDL
