MODEL 1
REMARK minimizedAffinity 19.5561218
REMARK minimizedRMSD -1
REMARK  3 active torsions:
REMARK  status: ('A' for Active; 'I' for Inactive)
REMARK    1  A    between atoms: C3'_2  and  C2'_3 
REMARK    2  A    between atoms: C2'_3  and  C1'_4 
REMARK    3  A    between atoms: C1'_4  and  C1_5 
ROOT
ATOM      1  C1  N4B d   1       2.691   2.063   1.595  0.00  0.00    -0.075 A 
ATOM      2  C2  N4B d   1       1.886   0.902   1.577  0.00  0.00     0.002 A 
ATOM      3  C3  N4B d   1       1.550   0.319   0.381  0.00  0.00     0.002 A 
ATOM      4  C4  N4B d   1       1.988   0.886  -0.806  0.00  0.00    -0.004 A 
ATOM      5  C5  N4B d   1       2.785   1.993  -0.779  0.00  0.00     0.002 A 
ATOM      6  C6  N4B d   1       3.135   2.588   0.416  0.00  0.00     0.002 A 
ENDROOT
BRANCH   1   7
ATOM      7  C1' N4B d   1       3.014   2.785   2.875  0.00  0.00     0.057 C 
BRANCH   7   8
ATOM      8  C2' N4B d   1       1.899   3.781   3.183  0.00  0.00     0.009 C 
BRANCH   8   9
ATOM      9  C3' N4B d   1       2.360   5.219   3.017  0.00  0.00     0.004 C 
ATOM     10  C4' N4B d   1       2.298   6.000   4.296  0.00  0.00     0.003 C 
ENDBRANCH   8   9
ENDBRANCH   7   8
ENDBRANCH   1   7
TORSDOF 3
ENDMDL
