MODEL 1
REMARK minimizedAffinity -4.26457071
REMARK minimizedRMSD -1
REMARK  3 active torsions:
REMARK  status: ('A' for Active; 'I' for Inactive)
REMARK    1  A    between atoms: C3'_2  and  C2'_3 
REMARK    2  A    between atoms: C2'_3  and  C1'_4 
REMARK    3  A    between atoms: C1'_4  and  C1_5 
ROOT
ATOM      1  C1  N4B d   1       0.783   2.691   0.326  0.00  0.00    -0.075 A 
ATOM      2  C2  N4B d   1       0.616   1.317   0.043  0.00  0.00     0.002 A 
ATOM      3  C3  N4B d   1      -0.634   0.751   0.103  0.00  0.00     0.002 A 
ATOM      4  C4  N4B d   1      -1.724   1.531   0.459  0.00  0.00    -0.004 A 
ATOM      5  C5  N4B d   1      -1.558   2.863   0.706  0.00  0.00     0.002 A 
ATOM      6  C6  N4B d   1      -0.308   3.446   0.646  0.00  0.00     0.002 A 
ENDROOT
BRANCH   1   7
ATOM      7  C1' N4B d   1       2.142   3.335   0.357  0.00  0.00     0.057 C 
BRANCH   7   8
ATOM      8  C2' N4B d   1       3.212   2.255   0.231  0.00  0.00     0.009 C 
BRANCH   8   9
ATOM      9  C3' N4B d   1       3.455   1.539   1.549  0.00  0.00     0.004 C 
ATOM     10  C4' N4B d   1       3.618   2.484   2.702  0.00  0.00     0.003 C 
ENDBRANCH   8   9
ENDBRANCH   7   8
ENDBRANCH   1   7
TORSDOF 3
ENDMDL
