MODEL 1
REMARK minimizedAffinity -5.09238005
REMARK minimizedRMSD -1
REMARK  3 active torsions:
REMARK  status: ('A' for Active; 'I' for Inactive)
REMARK    1  A    between atoms: C3'_2  and  C2'_3 
REMARK    2  A    between atoms: C2'_3  and  C1'_4 
REMARK    3  A    between atoms: C1'_4  and  C1_5 
ROOT
ATOM      1  C1  N4B d   1      -1.242  -0.132  -0.748  0.00  0.00    -0.075 A 
ATOM      2  C2  N4B d   1      -2.076  -1.015  -1.469  0.00  0.00     0.002 A 
ATOM      3  C3  N4B d   1      -1.743  -2.343  -1.574  0.00  0.00     0.002 A 
ATOM      4  C4  N4B d   1      -0.575  -2.806  -0.986  0.00  0.00    -0.004 A 
ATOM      5  C5  N4B d   1       0.213  -1.952  -0.271  0.00  0.00     0.002 A 
ATOM      6  C6  N4B d   1      -0.113  -0.615  -0.153  0.00  0.00     0.002 A 
ENDROOT
BRANCH   1   7
ATOM      7  C1' N4B d   1      -1.520   1.344  -0.678  0.00  0.00     0.057 C 
BRANCH   7   8
ATOM      8  C2' N4B d   1      -1.246   1.839   0.739  0.00  0.00     0.009 C 
BRANCH   8   9
ATOM      9  C3' N4B d   1      -0.348   3.064   0.749  0.00  0.00     0.004 C 
ATOM     10  C4' N4B d   1       1.052   2.754   1.187  0.00  0.00     0.003 C 
ENDBRANCH   8   9
ENDBRANCH   7   8
ENDBRANCH   1   7
TORSDOF 3
ENDMDL
