MODEL 1
REMARK minimizedAffinity 8.52074242
REMARK minimizedRMSD -1
REMARK  3 active torsions:
REMARK  status: ('A' for Active; 'I' for Inactive)
REMARK    1  A    between atoms: C3'_2  and  C2'_3 
REMARK    2  A    between atoms: C2'_3  and  C1'_4 
REMARK    3  A    between atoms: C1'_4  and  C1_5 
ROOT
ATOM      1  C1  N4B d   1       2.244   0.535   0.822  0.00  0.00    -0.075 A 
ATOM      2  C2  N4B d   1       2.798   1.552   1.630  0.00  0.00     0.002 A 
ATOM      3  C3  N4B d   1       1.973   2.402   2.326  0.00  0.00     0.002 A 
ATOM      4  C4  N4B d   1       0.597   2.267   2.214  0.00  0.00    -0.004 A 
ATOM      5  C5  N4B d   1       0.070   1.266   1.452  0.00  0.00     0.002 A 
ATOM      6  C6  N4B d   1       0.887   0.402   0.751  0.00  0.00     0.002 A 
ENDROOT
BRANCH   1   7
ATOM      7  C1' N4B d   1       3.104  -0.363  -0.024  0.00  0.00     0.057 C 
BRANCH   7   8
ATOM      8  C2' N4B d   1       2.433  -0.568  -1.379  0.00  0.00     0.009 C 
BRANCH   8   9
ATOM      9  C3' N4B d   1       3.317  -0.109  -2.526  0.00  0.00     0.004 C 
ATOM     10  C4' N4B d   1       2.713  -0.384  -3.871  0.00  0.00     0.003 C 
ENDBRANCH   8   9
ENDBRANCH   7   8
ENDBRANCH   1   7
TORSDOF 3
ENDMDL
