MODEL 1
REMARK minimizedAffinity -4.43772221
REMARK minimizedRMSD -1
REMARK  3 active torsions:
REMARK  status: ('A' for Active; 'I' for Inactive)
REMARK    1  A    between atoms: C3'_2  and  C2'_3 
REMARK    2  A    between atoms: C2'_3  and  C1'_4 
REMARK    3  A    between atoms: C1'_4  and  C1_5 
ROOT
ATOM      1  C1  N4B d   1      -4.223   2.978  -1.849  0.00  0.00    -0.075 A 
ATOM      2  C2  N4B d   1      -5.211   3.759  -1.211  0.00  0.00     0.002 A 
ATOM      3  C3  N4B d   1      -5.900   3.250  -0.137  0.00  0.00     0.002 A 
ATOM      4  C4  N4B d   1      -5.632   1.962   0.302  0.00  0.00    -0.004 A 
ATOM      5  C5  N4B d   1      -4.658   1.224  -0.304  0.00  0.00     0.002 A 
ATOM      6  C6  N4B d   1      -3.955   1.724  -1.382  0.00  0.00     0.002 A 
ENDROOT
BRANCH   1   7
ATOM      7  C1' N4B d   1      -3.503   3.459  -3.080  0.00  0.00     0.057 C 
BRANCH   7   8
ATOM      8  C2' N4B d   1      -4.313   3.076  -4.315  0.00  0.00     0.009 C 
BRANCH   8   9
ATOM      9  C3' N4B d   1      -4.084   4.040  -5.466  0.00  0.00     0.004 C 
ATOM     10  C4' N4B d   1      -5.359   4.620  -6.000  0.00  0.00     0.003 C 
ENDBRANCH   8   9
ENDBRANCH   7   8
ENDBRANCH   1   7
TORSDOF 3
ENDMDL
