MODEL 1
REMARK minimizedAffinity -3.64861584
REMARK minimizedRMSD -1
REMARK  3 active torsions:
REMARK  status: ('A' for Active; 'I' for Inactive)
REMARK    1  A    between atoms: C3'_2  and  C2'_3 
REMARK    2  A    between atoms: C2'_3  and  C1'_4 
REMARK    3  A    between atoms: C1'_4  and  C1_5 
ROOT
ATOM      1  C1  N4B d   1      -0.376  -1.839  -1.079  0.00  0.00    -0.075 A 
ATOM      2  C2  N4B d   1      -1.661  -2.424  -1.039  0.00  0.00     0.002 A 
ATOM      3  C3  N4B d   1      -1.868  -3.665  -1.591  0.00  0.00     0.002 A 
ATOM      4  C4  N4B d   1      -0.815  -4.329  -2.201  0.00  0.00    -0.004 A 
ATOM      5  C5  N4B d   1       0.429  -3.768  -2.213  0.00  0.00     0.002 A 
ATOM      6  C6  N4B d   1       0.653  -2.524  -1.659  0.00  0.00     0.002 A 
ENDROOT
BRANCH   1   7
ATOM      7  C1' N4B d   1      -0.120  -0.449  -0.566  0.00  0.00     0.057 C 
BRANCH   7   8
ATOM      8  C2' N4B d   1       1.017   0.179  -1.367  0.00  0.00     0.009 C 
BRANCH   8   9
ATOM      9  C3' N4B d   1       1.752   1.244  -0.571  0.00  0.00     0.004 C 
ATOM     10  C4' N4B d   1       3.079   0.772  -0.057  0.00  0.00     0.003 C 
ENDBRANCH   8   9
ENDBRANCH   7   8
ENDBRANCH   1   7
TORSDOF 3
ENDMDL
