MODEL 1
REMARK minimizedAffinity -0.65405947
REMARK minimizedRMSD -1
REMARK  3 active torsions:
REMARK  status: ('A' for Active; 'I' for Inactive)
REMARK    1  A    between atoms: C3'_2  and  C2'_3 
REMARK    2  A    between atoms: C2'_3  and  C1'_4 
REMARK    3  A    between atoms: C1'_4  and  C1_5 
ROOT
ATOM      1  C1  N4B d   1       0.589   1.340   0.777  0.00  0.00    -0.075 A 
ATOM      2  C2  N4B d   1       1.444   1.257  -0.343  0.00  0.00     0.002 A 
ATOM      3  C3  N4B d   1       2.365   2.249  -0.579  0.00  0.00     0.002 A 
ATOM      4  C4  N4B d   1       2.435   3.337   0.277  0.00  0.00    -0.004 A 
ATOM      5  C5  N4B d   1       1.623   3.397   1.371  0.00  0.00     0.002 A 
ATOM      6  C6  N4B d   1       0.696   2.406   1.623  0.00  0.00     0.002 A 
ENDROOT
BRANCH   1   7
ATOM      7  C1' N4B d   1      -0.491   0.324   1.029  0.00  0.00     0.057 C 
BRANCH   7   8
ATOM      8  C2' N4B d   1      -1.815   1.047   1.261  0.00  0.00     0.009 C 
BRANCH   8   9
ATOM      9  C3' N4B d   1      -2.935   0.466   0.416  0.00  0.00     0.004 C 
ATOM     10  C4' N4B d   1      -4.254   1.138   0.659  0.00  0.00     0.003 C 
ENDBRANCH   8   9
ENDBRANCH   7   8
ENDBRANCH   1   7
TORSDOF 3
ENDMDL
