MODEL 1
REMARK minimizedAffinity 7.00888395
REMARK minimizedRMSD -1
REMARK  0 active torsions:
REMARK  status: ('A' for Active; 'I' for Inactive)
ROOT
ATOM      1  O1  BZF d   1      -1.676  -3.873  -3.684  0.00  0.00    -0.204 OA
ATOM      2  C2  BZF d   1      -0.815  -4.947  -3.567  0.00  0.00     0.174 A 
ATOM      3  C3  BZF d   1      -0.835  -5.442  -2.312  0.00  0.00    -0.012 A 
ATOM      4  C3A BZF d   1      -1.835  -4.684  -1.625  0.00  0.00    -0.107 A 
ATOM      5  C4  BZF d   1      -2.328  -4.716  -0.351  0.00  0.00     0.055 A 
ATOM      6  C5  BZF d   1      -3.250  -3.791   0.024  0.00  0.00    -0.016 A 
ATOM      7  C6  BZF d   1      -3.698  -2.818  -0.846  0.00  0.00     0.022 A 
ATOM      8  C7  BZF d   1      -3.242  -2.749  -2.120  0.00  0.00     0.029 A 
ATOM      9  C7A BZF d   1      -2.334  -3.702  -2.512  0.00  0.00     0.058 A 
ENDROOT
TORSDOF 0
ENDMDL
