MODEL 1
REMARK minimizedAffinity 6.53012991
REMARK minimizedRMSD -1
REMARK  0 active torsions:
REMARK  status: ('A' for Active; 'I' for Inactive)
ROOT
ATOM      1  O1  BZF d   1      -3.635   2.764  -1.514  0.00  0.00    -0.204 OA
ATOM      2  C2  BZF d   1      -2.279   2.501  -1.541  0.00  0.00     0.174 A 
ATOM      3  C3  BZF d   1      -1.935   1.659  -0.545  0.00  0.00    -0.012 A 
ATOM      4  C3A BZF d   1      -3.167   1.305   0.091  0.00  0.00    -0.107 A 
ATOM      5  C4  BZF d   1      -3.481   0.487   1.138  0.00  0.00     0.055 A 
ATOM      6  C5  BZF d   1      -4.772   0.418   1.558  0.00  0.00    -0.016 A 
ATOM      7  C6  BZF d   1      -5.771   1.156   0.957  0.00  0.00     0.022 A 
ATOM      8  C7  BZF d   1      -5.508   1.978  -0.088  0.00  0.00     0.029 A 
ATOM      9  C7A BZF d   1      -4.211   2.025  -0.535  0.00  0.00     0.058 A 
ENDROOT
TORSDOF 0
ENDMDL
