MODEL 1
REMARK minimizedAffinity 11.4666672
REMARK minimizedRMSD -1
REMARK  0 active torsions:
REMARK  status: ('A' for Active; 'I' for Inactive)
ROOT
ATOM      1  O1  BZF d   1      -3.059  -4.686  -2.168  0.00  0.00    -0.204 OA
ATOM      2  C2  BZF d   1      -2.794  -3.385  -2.550  0.00  0.00     0.174 A 
ATOM      3  C3  BZF d   1      -2.189  -2.708  -1.552  0.00  0.00    -0.012 A 
ATOM      4  C3A BZF d   1      -1.986  -3.671  -0.513  0.00  0.00    -0.107 A 
ATOM      5  C4  BZF d   1      -1.416  -3.609   0.726  0.00  0.00     0.055 A 
ATOM      6  C5  BZF d   1      -1.443  -4.710   1.521  0.00  0.00    -0.016 A 
ATOM      7  C6  BZF d   1      -2.033  -5.888   1.112  0.00  0.00     0.022 A 
ATOM      8  C7  BZF d   1      -2.606  -5.999  -0.111  0.00  0.00     0.029 A 
ATOM      9  C7A BZF d   1      -2.552  -4.898  -0.930  0.00  0.00     0.058 A 
ENDROOT
TORSDOF 0
ENDMDL
