MODEL 1
REMARK minimizedAffinity 2.11168146
REMARK minimizedRMSD -1
REMARK  0 active torsions:
REMARK  status: ('A' for Active; 'I' for Inactive)
ROOT
ATOM      1  O1  BZF d   1       4.476   4.622   5.111  0.00  0.00    -0.204 OA
ATOM      2  C2  BZF d   1       4.385   5.916   4.636  0.00  0.00     0.174 A 
ATOM      3  C3  BZF d   1       4.868   6.000   3.380  0.00  0.00    -0.012 A 
ATOM      4  C3A BZF d   1       5.204   4.657   3.016  0.00  0.00    -0.107 A 
ATOM      5  C4  BZF d   1       5.715   4.092   1.883  0.00  0.00     0.055 A 
ATOM      6  C5  BZF d   1       5.994   2.762   1.876  0.00  0.00    -0.016 A 
ATOM      7  C6  BZF d   1       5.778   1.969   2.984  0.00  0.00     0.022 A 
ATOM      8  C7  BZF d   1       5.268   2.484   4.129  0.00  0.00     0.029 A 
ATOM      9  C7A BZF d   1       4.954   3.821   4.129  0.00  0.00     0.058 A 
ENDROOT
TORSDOF 0
ENDMDL
