MODEL 1
REMARK minimizedAffinity 4.85270882
REMARK minimizedRMSD -1
REMARK  0 active torsions:
REMARK  status: ('A' for Active; 'I' for Inactive)
ROOT
ATOM      1  O1  BZF d   1      -4.472   2.638   0.029  0.00  0.00    -0.204 OA
ATOM      2  C2  BZF d   1      -5.771   2.256   0.303  0.00  0.00     0.174 A 
ATOM      3  C3  BZF d   1      -5.804   1.016   0.832  0.00  0.00    -0.012 A 
ATOM      4  C3A BZF d   1      -4.433   0.633   0.979  0.00  0.00    -0.107 A 
ATOM      5  C4  BZF d   1      -3.817  -0.485   1.464  0.00  0.00     0.055 A 
ATOM      6  C5  BZF d   1      -2.463  -0.574   1.398  0.00  0.00    -0.016 A 
ATOM      7  C6  BZF d   1      -1.694   0.432   0.850  0.00  0.00     0.022 A 
ATOM      8  C7  BZF d   1      -2.260   1.562   0.360  0.00  0.00     0.029 A 
ATOM      9  C7A BZF d   1      -3.626   1.670   0.455  0.00  0.00     0.058 A 
ENDROOT
TORSDOF 0
ENDMDL
