MODEL 1
REMARK minimizedAffinity -1.77626097
REMARK minimizedRMSD -1
REMARK  0 active torsions:
REMARK  status: ('A' for Active; 'I' for Inactive)
ROOT
ATOM      1  O1  BZF d   1      -2.389   1.832   0.467  0.00  0.00    -0.204 OA
ATOM      2  C2  BZF d   1      -1.625   0.703   0.694  0.00  0.00     0.174 A 
ATOM      3  C3  BZF d   1      -2.370  -0.276   1.246  0.00  0.00    -0.012 A 
ATOM      4  C3A BZF d   1      -3.703   0.243   1.287  0.00  0.00    -0.107 A 
ATOM      5  C4  BZF d   1      -4.896  -0.266   1.714  0.00  0.00     0.055 A 
ATOM      6  C5  BZF d   1      -6.000   0.526   1.685  0.00  0.00    -0.016 A 
ATOM      7  C6  BZF d   1      -5.946   1.831   1.241  0.00  0.00     0.022 A 
ATOM      8  C7  BZF d   1      -4.787   2.378   0.804  0.00  0.00     0.029 A 
ATOM      9  C7A BZF d   1      -3.676   1.571   0.800  0.00  0.00     0.058 A 
ENDROOT
TORSDOF 0
ENDMDL
