MODEL 1
REMARK minimizedAffinity 0.504019916
REMARK minimizedRMSD -1
REMARK  0 active torsions:
REMARK  status: ('A' for Active; 'I' for Inactive)
ROOT
ATOM      1  O1  BZF d   1      -4.764   2.624   0.583  0.00  0.00    -0.204 OA
ATOM      2  C2  BZF d   1      -6.000   2.278   1.095  0.00  0.00     0.174 A 
ATOM      3  C3  BZF d   1      -5.969   1.038   1.623  0.00  0.00    -0.012 A 
ATOM      4  C3A BZF d   1      -4.606   0.616   1.512  0.00  0.00    -0.107 A 
ATOM      5  C4  BZF d   1      -3.943  -0.521   1.876  0.00  0.00     0.055 A 
ATOM      6  C5  BZF d   1      -2.627  -0.648   1.560  0.00  0.00    -0.016 A 
ATOM      7  C6  BZF d   1      -1.946   0.338   0.877  0.00  0.00     0.022 A 
ATOM      8  C7  BZF d   1      -2.560   1.486   0.499  0.00  0.00     0.029 A 
ATOM      9  C7A BZF d   1      -3.881   1.631   0.846  0.00  0.00     0.058 A 
ENDROOT
TORSDOF 0
ENDMDL
