MODEL 1
REMARK minimizedAffinity 8.33235168
REMARK minimizedRMSD -1
REMARK  0 active torsions:
REMARK  status: ('A' for Active; 'I' for Inactive)
ROOT
ATOM      1  O1  BZF d   1      -3.278   2.763  -0.860  0.00  0.00    -0.204 OA
ATOM      2  C2  BZF d   1      -1.965   2.384  -1.063  0.00  0.00     0.174 A 
ATOM      3  C3  BZF d   1      -1.686   1.246  -0.395  0.00  0.00    -0.012 A 
ATOM      4  C3A BZF d   1      -2.927   0.841   0.192  0.00  0.00    -0.107 A 
ATOM      5  C4  BZF d   1      -3.297  -0.223   0.964  0.00  0.00     0.055 A 
ATOM      6  C5  BZF d   1      -4.570  -0.286   1.434  0.00  0.00    -0.016 A 
ATOM      7  C6  BZF d   1      -5.496   0.698   1.158  0.00  0.00     0.022 A 
ATOM      8  C7  BZF d   1      -5.177   1.770   0.393  0.00  0.00     0.029 A 
ATOM      9  C7A BZF d   1      -3.901   1.821  -0.112  0.00  0.00     0.058 A 
ENDROOT
TORSDOF 0
ENDMDL
