MODEL 1
REMARK minimizedAffinity 0.965745568
REMARK minimizedRMSD -1
REMARK  0 active torsions:
REMARK  status: ('A' for Active; 'I' for Inactive)
ROOT
ATOM      1  O1  BZF d   1      -4.873   1.981   0.136  0.00  0.00    -0.204 OA
ATOM      2  C2  BZF d   1      -5.648   1.191   0.964  0.00  0.00     0.174 A 
ATOM      3  C3  BZF d   1      -4.931   0.156   1.446  0.00  0.00    -0.012 A 
ATOM      4  C3A BZF d   1      -3.601   0.359   0.958  0.00  0.00    -0.107 A 
ATOM      5  C4  BZF d   1      -2.431  -0.328   1.110  0.00  0.00     0.055 A 
ATOM      6  C5  BZF d   1      -1.326   0.095   0.442  0.00  0.00    -0.016 A 
ATOM      7  C6  BZF d   1      -1.357   1.196  -0.389  0.00  0.00     0.022 A 
ATOM      8  C7  BZF d   1      -2.493   1.912  -0.567  0.00  0.00     0.029 A 
ATOM      9  C7A BZF d   1      -3.604   1.507   0.132  0.00  0.00     0.058 A 
ENDROOT
TORSDOF 0
ENDMDL
