MODEL 1
REMARK minimizedAffinity 10.7534885
REMARK minimizedRMSD -1
REMARK  0 active torsions:
REMARK  status: ('A' for Active; 'I' for Inactive)
ROOT
ATOM      1  O1  BZF d   1       5.038   1.486   1.610  0.00  0.00    -0.204 OA
ATOM      2  C2  BZF d   1       5.430   2.807   1.711  0.00  0.00     0.174 A 
ATOM      3  C3  BZF d   1       4.940   3.531   0.684  0.00  0.00    -0.012 A 
ATOM      4  C3A BZF d   1       4.118   2.625  -0.057  0.00  0.00    -0.107 A 
ATOM      5  C4  BZF d   1       3.349   2.757  -1.178  0.00  0.00     0.055 A 
ATOM      6  C5  BZF d   1       2.731   1.659  -1.688  0.00  0.00    -0.016 A 
ATOM      7  C6  BZF d   1       2.864   0.415  -1.106  0.00  0.00     0.022 A 
ATOM      8  C7  BZF d   1       3.612   0.236   0.009  0.00  0.00     0.029 A 
ATOM      9  C7A BZF d   1       4.211   1.349   0.546  0.00  0.00     0.058 A 
ENDROOT
TORSDOF 0
ENDMDL
