MODEL 1
REMARK minimizedAffinity 20.4988365
REMARK minimizedRMSD -1
REMARK  0 active torsions:
REMARK  status: ('A' for Active; 'I' for Inactive)
ROOT
ATOM      1  O1  BZF d   1       5.999   4.777   5.831  0.00  0.00    -0.204 OA
ATOM      2  C2  BZF d   1       5.374   5.997   5.654  0.00  0.00     0.174 A 
ATOM      3  C3  BZF d   1       4.644   6.000   4.520  0.00  0.00    -0.012 A 
ATOM      4  C3A BZF d   1       4.750   4.671   4.000  0.00  0.00    -0.107 A 
ATOM      5  C4  BZF d   1       4.232   4.049   2.901  0.00  0.00     0.055 A 
ATOM      6  C5  BZF d   1       4.588   2.764   2.639  0.00  0.00    -0.016 A 
ATOM      7  C6  BZF d   1       5.464   2.074   3.452  0.00  0.00     0.022 A 
ATOM      8  C7  BZF d   1       6.000   2.647   4.557  0.00  0.00     0.029 A 
ATOM      9  C7A BZF d   1       5.616   3.935   4.842  0.00  0.00     0.058 A 
ENDROOT
TORSDOF 0
ENDMDL
