MODEL 1
REMARK minimizedAffinity 1.58451807
REMARK minimizedRMSD -1
REMARK  0 active torsions:
REMARK  status: ('A' for Active; 'I' for Inactive)
ROOT
ATOM      1  O1  BZF d   1       1.419  -6.000  -5.034  0.00  0.00    -0.204 OA
ATOM      2  C2  BZF d   1       2.685  -5.843  -4.504  0.00  0.00     0.174 A 
ATOM      3  C3  BZF d   1       2.621  -5.395  -3.234  0.00  0.00    -0.012 A 
ATOM      4  C3A BZF d   1       1.225  -5.352  -2.921  0.00  0.00    -0.107 A 
ATOM      5  C4  BZF d   1       0.524  -5.004  -1.801  0.00  0.00     0.055 A 
ATOM      6  C5  BZF d   1      -0.834  -5.002  -1.847  0.00  0.00    -0.016 A 
ATOM      7  C6  BZF d   1      -1.523  -5.337  -2.994  0.00  0.00     0.022 A 
ATOM      8  C7  BZF d   1      -0.871  -5.693  -4.128  0.00  0.00     0.029 A 
ATOM      9  C7A BZF d   1       0.501  -5.728  -4.076  0.00  0.00     0.058 A 
ENDROOT
TORSDOF 0
ENDMDL
