MODEL 1
REMARK minimizedAffinity 4.22508574
REMARK minimizedRMSD -1
REMARK  0 active torsions:
REMARK  status: ('A' for Active; 'I' for Inactive)
ROOT
ATOM      1  O1  BZF d   1       3.364   1.908   1.865  0.00  0.00    -0.204 OA
ATOM      2  C2  BZF d   1       3.603   0.936   0.912  0.00  0.00     0.174 A 
ATOM      3  C3  BZF d   1       2.450   0.525   0.347  0.00  0.00    -0.012 A 
ATOM      4  C3A BZF d   1       1.434   1.353   0.921  0.00  0.00    -0.107 A 
ATOM      5  C4  BZF d   1       0.082   1.436   0.749  0.00  0.00     0.055 A 
ATOM      6  C5  BZF d   1      -0.630   2.302   1.517  0.00  0.00    -0.016 A 
ATOM      7  C6  BZF d   1      -0.024   3.095   2.469  0.00  0.00     0.022 A 
ATOM      8  C7  BZF d   1       1.315   3.051   2.674  0.00  0.00     0.029 A 
ATOM      9  C7A BZF d   1       2.041   2.201   1.876  0.00  0.00     0.058 A 
ENDROOT
TORSDOF 0
ENDMDL
