MODEL 1
REMARK minimizedAffinity 10.6889496
REMARK minimizedRMSD -1
REMARK  0 active torsions:
REMARK  status: ('A' for Active; 'I' for Inactive)
ROOT
ATOM      1  O1  BZF d   1       0.524   1.551  -2.407  0.00  0.00    -0.204 OA
ATOM      2  C2  BZF d   1       1.738   1.115  -2.904  0.00  0.00     0.174 A 
ATOM      3  C3  BZF d   1       2.584   0.811  -1.899  0.00  0.00    -0.012 A 
ATOM      4  C3A BZF d   1       1.824   0.985  -0.700  0.00  0.00    -0.107 A 
ATOM      5  C4  BZF d   1       2.109   0.820   0.625  0.00  0.00     0.055 A 
ATOM      6  C5  BZF d   1       1.167   1.146   1.549  0.00  0.00    -0.016 A 
ATOM      7  C6  BZF d   1      -0.067   1.642   1.184  0.00  0.00     0.022 A 
ATOM      8  C7  BZF d   1      -0.398   1.818  -0.118  0.00  0.00     0.029 A 
ATOM      9  C7A BZF d   1       0.540   1.459  -1.056  0.00  0.00     0.058 A 
ENDROOT
TORSDOF 0
ENDMDL
