MODEL 1
REMARK minimizedAffinity 5.62795162
REMARK minimizedRMSD -1
REMARK  0 active torsions:
REMARK  status: ('A' for Active; 'I' for Inactive)
ROOT
ATOM      1  O1  BZF d   1      -3.591   3.719  -5.498  0.00  0.00    -0.204 OA
ATOM      2  C2  BZF d   1      -3.015   4.869  -6.000  0.00  0.00     0.174 A 
ATOM      3  C3  BZF d   1      -1.669   4.772  -5.997  0.00  0.00    -0.012 A 
ATOM      4  C3A BZF d   1      -1.390   3.443  -5.546  0.00  0.00    -0.107 A 
ATOM      5  C4  BZF d   1      -0.234   2.743  -5.347  0.00  0.00     0.055 A 
ATOM      6  C5  BZF d   1      -0.303   1.488  -4.829  0.00  0.00    -0.016 A 
ATOM      7  C6  BZF d   1      -1.508   0.906  -4.494  0.00  0.00     0.022 A 
ATOM      8  C7  BZF d   1      -2.681   1.560  -4.678  0.00  0.00     0.029 A 
ATOM      9  C7A BZF d   1      -2.617   2.815  -5.232  0.00  0.00     0.058 A 
ENDROOT
TORSDOF 0
ENDMDL
