MODEL 1
REMARK minimizedAffinity 3.39175987
REMARK minimizedRMSD -1
REMARK  0 active torsions:
REMARK  status: ('A' for Active; 'I' for Inactive)
ROOT
ATOM      1  O1  BZF d   1      -0.512   2.662   1.967  0.00  0.00    -0.204 OA
ATOM      2  C2  BZF d   1       0.001   3.384   3.027  0.00  0.00     0.174 A 
ATOM      3  C3  BZF d   1       1.331   3.192   3.139  0.00  0.00    -0.012 A 
ATOM      4  C3A BZF d   1       1.686   2.366   2.026  0.00  0.00    -0.107 A 
ATOM      5  C4  BZF d   1       2.868   1.845   1.582  0.00  0.00     0.055 A 
ATOM      6  C5  BZF d   1       2.862   1.018   0.504  0.00  0.00    -0.016 A 
ATOM      7  C6  BZF d   1       1.694   0.686  -0.150  0.00  0.00     0.022 A 
ATOM      8  C7  BZF d   1       0.498   1.182   0.249  0.00  0.00     0.029 A 
ATOM      9  C7A BZF d   1       0.504   2.045   1.318  0.00  0.00     0.058 A 
ENDROOT
TORSDOF 0
ENDMDL
