MODEL 1
REMARK minimizedAffinity 0.592877865
REMARK minimizedRMSD -1
REMARK  0 active torsions:
REMARK  status: ('A' for Active; 'I' for Inactive)
ROOT
ATOM      1  O1  BZF d   1      -1.455   2.671   2.280  0.00  0.00    -0.204 OA
ATOM      2  C2  BZF d   1      -0.827   3.253   3.365  0.00  0.00     0.174 A 
ATOM      3  C3  BZF d   1       0.498   3.005   3.341  0.00  0.00    -0.012 A 
ATOM      4  C3A BZF d   1       0.726   2.296   2.119  0.00  0.00    -0.107 A 
ATOM      5  C4  BZF d   1       1.845   1.788   1.523  0.00  0.00     0.055 A 
ATOM      6  C5  BZF d   1       1.717   1.086   0.367  0.00  0.00    -0.016 A 
ATOM      7  C6  BZF d   1       0.486   0.869  -0.218  0.00  0.00     0.022 A 
ATOM      8  C7  BZF d   1      -0.652   1.358   0.333  0.00  0.00     0.029 A 
ATOM      9  C7A BZF d   1      -0.522   2.095   1.485  0.00  0.00     0.058 A 
ENDROOT
TORSDOF 0
ENDMDL
