MODEL 1
REMARK minimizedAffinity 10.2342854
REMARK minimizedRMSD -1
REMARK  0 active torsions:
REMARK  status: ('A' for Active; 'I' for Inactive)
ROOT
ATOM      1  O1  BZF d   1      -0.748   2.077   1.799  0.00  0.00    -0.204 OA
ATOM      2  C2  BZF d   1      -0.351   3.163   2.554  0.00  0.00     0.174 A 
ATOM      3  C3  BZF d   1       0.994   3.268   2.570  0.00  0.00    -0.012 A 
ATOM      4  C3A BZF d   1       1.462   2.234   1.699  0.00  0.00    -0.107 A 
ATOM      5  C4  BZF d   1       2.705   1.841   1.293  0.00  0.00     0.055 A 
ATOM      6  C5  BZF d   1       2.824   0.747   0.495  0.00  0.00    -0.016 A 
ATOM      7  C6  BZF d   1       1.723   0.022   0.089  0.00  0.00     0.022 A 
ATOM      8  C7  BZF d   1       0.469   0.376   0.462  0.00  0.00     0.029 A 
ATOM      9  C7A BZF d   1       0.343   1.500   1.242  0.00  0.00     0.058 A 
ENDROOT
TORSDOF 0
ENDMDL
