MODEL 1
REMARK minimizedAffinity 13.1356134
REMARK minimizedRMSD -1
REMARK  0 active torsions:
REMARK  status: ('A' for Active; 'I' for Inactive)
ROOT
ATOM      1  O1  BZF d   1       1.731   1.827   2.131  0.00  0.00    -0.204 OA
ATOM      2  C2  BZF d   1       0.371   2.068   2.096  0.00  0.00     0.174 A 
ATOM      3  C3  BZF d   1      -0.108   1.926   0.843  0.00  0.00    -0.012 A 
ATOM      4  C3A BZF d   1       1.007   1.483   0.062  0.00  0.00    -0.107 A 
ATOM      5  C4  BZF d   1       1.159   1.154  -1.254  0.00  0.00     0.055 A 
ATOM      6  C5  BZF d   1       2.396   0.832  -1.716  0.00  0.00    -0.016 A 
ATOM      7  C6  BZF d   1       3.501   0.833  -0.891  0.00  0.00     0.022 A 
ATOM      8  C7  BZF d   1       3.399   1.148   0.423  0.00  0.00     0.029 A 
ATOM      9  C7A BZF d   1       2.145   1.443   0.900  0.00  0.00     0.058 A 
ENDROOT
TORSDOF 0
ENDMDL
