MODEL 1
REMARK minimizedAffinity 2.91961098
REMARK minimizedRMSD -1
REMARK  0 active torsions:
REMARK  status: ('A' for Active; 'I' for Inactive)
ROOT
ATOM      1  O1  BZF d   1       3.049   1.910   2.155  0.00  0.00    -0.204 OA
ATOM      2  C2  BZF d   1       3.436   1.150   1.068  0.00  0.00     0.174 A 
ATOM      3  C3  BZF d   1       2.361   0.729   0.371  0.00  0.00    -0.012 A 
ATOM      4  C3A BZF d   1       1.235   1.336   1.013  0.00  0.00    -0.107 A 
ATOM      5  C4  BZF d   1      -0.109   1.310   0.773  0.00  0.00     0.055 A 
ATOM      6  C5  BZF d   1      -0.945   1.951   1.631  0.00  0.00    -0.016 A 
ATOM      7  C6  BZF d   1      -0.473   2.621   2.741  0.00  0.00     0.022 A 
ATOM      8  C7  BZF d   1       0.852   2.679   3.017  0.00  0.00     0.029 A 
ATOM      9  C7A BZF d   1       1.703   2.060   2.134  0.00  0.00     0.058 A 
ENDROOT
TORSDOF 0
ENDMDL
