MODEL 1
REMARK minimizedAffinity 8.4147377
REMARK minimizedRMSD -1
REMARK  3 active torsions:
REMARK  status: ('A' for Active; 'I' for Inactive)
REMARK    1  A    between atoms: C3'_2  and  C2'_3 
REMARK    2  A    between atoms: C2'_3  and  C1'_4 
REMARK    3  A    between atoms: C1'_4  and  C1_5 
ROOT
ATOM      1  C1  N4B d   1      -3.273  -0.793   0.763  0.00  0.00    -0.075 A 
ATOM      2  C2  N4B d   1      -2.838  -1.329   1.995  0.00  0.00     0.002 A 
ATOM      3  C3  N4B d   1      -3.752  -1.622   2.978  0.00  0.00     0.002 A 
ATOM      4  C4  N4B d   1      -5.098  -1.371   2.759  0.00  0.00    -0.004 A 
ATOM      5  C5  N4B d   1      -5.513  -0.877   1.557  0.00  0.00     0.002 A 
ATOM      6  C6  N4B d   1      -4.606  -0.581   0.559  0.00  0.00     0.002 A 
ENDROOT
BRANCH   1   7
ATOM      7  C1' N4B d   1      -2.303  -0.377  -0.308  0.00  0.00     0.057 C 
BRANCH   7   8
ATOM      8  C2' N4B d   1      -2.485   1.110  -0.598  0.00  0.00     0.009 C 
BRANCH   8   9
ATOM      9  C3' N4B d   1      -1.159   1.851  -0.624  0.00  0.00     0.004 C 
ATOM     10  C4' N4B d   1      -0.330   1.516  -1.828  0.00  0.00     0.003 C 
ENDBRANCH   8   9
ENDBRANCH   7   8
ENDBRANCH   1   7
TORSDOF 3
ENDMDL
