MODEL 1
REMARK minimizedAffinity 4.37086868
REMARK minimizedRMSD -1
REMARK  3 active torsions:
REMARK  status: ('A' for Active; 'I' for Inactive)
REMARK    1  A    between atoms: C3'_2  and  C2'_3 
REMARK    2  A    between atoms: C2'_3  and  C1'_4 
REMARK    3  A    between atoms: C1'_4  and  C1_5 
ROOT
ATOM      1  C1  N4B d   1       5.258   2.454   3.780  0.00  0.00    -0.075 A 
ATOM      2  C2  N4B d   1       5.656   2.257   5.121  0.00  0.00     0.002 A 
ATOM      3  C3  N4B d   1       6.000   1.002   5.558  0.00  0.00     0.002 A 
ATOM      4  C4  N4B d   1       5.936  -0.071   4.681  0.00  0.00    -0.004 A 
ATOM      5  C5  N4B d   1       5.576   0.131   3.381  0.00  0.00     0.002 A 
ATOM      6  C6  N4B d   1       5.231   1.389   2.927  0.00  0.00     0.002 A 
ENDROOT
BRANCH   1   7
ATOM      7  C1' N4B d   1       4.790   3.793   3.278  0.00  0.00     0.057 C 
BRANCH   7   8
ATOM      8  C2' N4B d   1       5.997   4.709   3.097  0.00  0.00     0.009 C 
BRANCH   8   9
ATOM      9  C3' N4B d   1       5.864   5.989   3.905  0.00  0.00     0.004 C 
ATOM     10  C4' N4B d   1       6.000   5.761   5.381  0.00  0.00     0.003 C 
ENDBRANCH   8   9
ENDBRANCH   7   8
ENDBRANCH   1   7
TORSDOF 3
ENDMDL
