MODEL 1
REMARK minimizedAffinity 8.77216148
REMARK minimizedRMSD -1
REMARK  3 active torsions:
REMARK  status: ('A' for Active; 'I' for Inactive)
REMARK    1  A    between atoms: C3'_2  and  C2'_3 
REMARK    2  A    between atoms: C2'_3  and  C1'_4 
REMARK    3  A    between atoms: C1'_4  and  C1_5 
ROOT
ATOM      1  C1  N4B d   1       4.754   2.550   3.500  0.00  0.00    -0.075 A 
ATOM      2  C2  N4B d   1       4.331   1.513   2.639  0.00  0.00     0.002 A 
ATOM      3  C3  N4B d   1       4.715   0.218   2.884  0.00  0.00     0.002 A 
ATOM      4  C4  N4B d   1       5.535  -0.061   3.967  0.00  0.00    -0.004 A 
ATOM      5  C5  N4B d   1       5.918   0.942   4.808  0.00  0.00     0.002 A 
ATOM      6  C6  N4B d   1       5.536   2.248   4.577  0.00  0.00     0.002 A 
ENDROOT
BRANCH   1   7
ATOM      7  C1' N4B d   1       4.430   3.993   3.224  0.00  0.00     0.057 C 
BRANCH   7   8
ATOM      8  C2' N4B d   1       5.665   4.845   3.501  0.00  0.00     0.009 C 
BRANCH   8   9
ATOM      9  C3' N4B d   1       5.363   5.990   4.452  0.00  0.00     0.004 C 
ATOM     10  C4' N4B d   1       5.997   5.809   5.799  0.00  0.00     0.003 C 
ENDBRANCH   8   9
ENDBRANCH   7   8
ENDBRANCH   1   7
TORSDOF 3
ENDMDL
