MODEL 1
REMARK minimizedAffinity 9.73913002
REMARK minimizedRMSD -1
REMARK  3 active torsions:
REMARK  status: ('A' for Active; 'I' for Inactive)
REMARK    1  A    between atoms: C3'_2  and  C2'_3 
REMARK    2  A    between atoms: C2'_3  and  C1'_4 
REMARK    3  A    between atoms: C1'_4  and  C1_5 
ROOT
ATOM      1  C1  N4B d   1       3.719   3.765  -5.687  0.00  0.00    -0.075 A 
ATOM      2  C2  N4B d   1       3.339   2.418  -5.870  0.00  0.00     0.002 A 
ATOM      3  C3  N4B d   1       4.300   1.444  -5.996  0.00  0.00     0.002 A 
ATOM      4  C4  N4B d   1       5.641   1.796  -5.962  0.00  0.00    -0.004 A 
ATOM      5  C5  N4B d   1       6.000   3.096  -5.759  0.00  0.00     0.002 A 
ATOM      6  C6  N4B d   1       5.045   4.084  -5.627  0.00  0.00     0.002 A 
ENDROOT
BRANCH   1   7
ATOM      7  C1' N4B d   1       2.706   4.876  -5.631  0.00  0.00     0.057 C 
BRANCH   7   8
ATOM      8  C2' N4B d   1       3.048   5.807  -4.471  0.00  0.00     0.009 C 
BRANCH   8   9
ATOM      9  C3' N4B d   1       3.558   5.044  -3.261  0.00  0.00     0.004 C 
ATOM     10  C4' N4B d   1       3.098   5.638  -1.963  0.00  0.00     0.003 C 
ENDBRANCH   8   9
ENDBRANCH   7   8
ENDBRANCH   1   7
TORSDOF 3
ENDMDL
