MODEL 1
REMARK minimizedAffinity -1.54170036
REMARK minimizedRMSD -1
REMARK  3 active torsions:
REMARK  status: ('A' for Active; 'I' for Inactive)
REMARK    1  A    between atoms: C3'_2  and  C2'_3 
REMARK    2  A    between atoms: C2'_3  and  C1'_4 
REMARK    3  A    between atoms: C1'_4  and  C1_5 
ROOT
ATOM      1  C1  N4B d   1       3.700   1.088  -4.350  0.00  0.00    -0.075 A 
ATOM      2  C2  N4B d   1       4.317   0.013  -3.673  0.00  0.00     0.002 A 
ATOM      3  C3  N4B d   1       5.463  -0.549  -4.178  0.00  0.00     0.002 A 
ATOM      4  C4  N4B d   1       5.998  -0.068  -5.364  0.00  0.00    -0.004 A 
ATOM      5  C5  N4B d   1       5.411   0.988  -5.998  0.00  0.00     0.002 A 
ATOM      6  C6  N4B d   1       4.260   1.565  -5.499  0.00  0.00     0.002 A 
ENDROOT
BRANCH   1   7
ATOM      7  C1' N4B d   1       2.398   1.678  -3.882  0.00  0.00     0.057 C 
BRANCH   7   8
ATOM      8  C2' N4B d   1       1.557   0.584  -3.232  0.00  0.00     0.009 C 
BRANCH   8   9
ATOM      9  C3' N4B d   1       0.424   1.158  -2.398  0.00  0.00     0.004 C 
ATOM     10  C4' N4B d   1       0.706   2.549  -1.914  0.00  0.00     0.003 C 
ENDBRANCH   8   9
ENDBRANCH   7   8
ENDBRANCH   1   7
TORSDOF 3
ENDMDL
