MODEL 1
REMARK minimizedAffinity 5.50539541
REMARK minimizedRMSD -1
REMARK  3 active torsions:
REMARK  status: ('A' for Active; 'I' for Inactive)
REMARK    1  A    between atoms: C3'_2  and  C2'_3 
REMARK    2  A    between atoms: C2'_3  and  C1'_4 
REMARK    3  A    between atoms: C1'_4  and  C1_5 
ROOT
ATOM      1  C1  N4B d   1      -0.429   0.967  -1.420  0.00  0.00    -0.075 A 
ATOM      2  C2  N4B d   1      -0.072  -0.309  -1.908  0.00  0.00     0.002 A 
ATOM      3  C3  N4B d   1       0.768  -0.420  -2.989  0.00  0.00     0.002 A 
ATOM      4  C4  N4B d   1       1.247   0.726  -3.606  0.00  0.00    -0.004 A 
ATOM      5  C5  N4B d   1       0.918   1.954  -3.112  0.00  0.00     0.002 A 
ATOM      6  C6  N4B d   1       0.077   2.081  -2.025  0.00  0.00     0.002 A 
ENDROOT
BRANCH   1   7
ATOM      7  C1' N4B d   1      -1.413   1.141  -0.295  0.00  0.00     0.057 C 
BRANCH   7   8
ATOM      8  C2' N4B d   1      -2.468   0.042  -0.379  0.00  0.00     0.009 C 
BRANCH   8   9
ATOM      9  C3' N4B d   1      -2.274  -1.016   0.693  0.00  0.00     0.004 C 
ATOM     10  C4' N4B d   1      -1.646  -2.271   0.163  0.00  0.00     0.003 C 
ENDBRANCH   8   9
ENDBRANCH   7   8
ENDBRANCH   1   7
TORSDOF 3
ENDMDL
