MODEL 1
REMARK minimizedAffinity 7.77670479
REMARK minimizedRMSD -1
REMARK  3 active torsions:
REMARK  status: ('A' for Active; 'I' for Inactive)
REMARK    1  A    between atoms: C3'_2  and  C2'_3 
REMARK    2  A    between atoms: C2'_3  and  C1'_4 
REMARK    3  A    between atoms: C1'_4  and  C1_5 
ROOT
ATOM      1  C1  N4B d   1      -1.888  -0.834  -0.567  0.00  0.00    -0.075 A 
ATOM      2  C2  N4B d   1      -2.429   0.441  -0.295  0.00  0.00     0.002 A 
ATOM      3  C3  N4B d   1      -1.970   1.542  -0.975  0.00  0.00     0.002 A 
ATOM      4  C4  N4B d   1      -0.961   1.395  -1.916  0.00  0.00    -0.004 A 
ATOM      5  C5  N4B d   1      -0.461   0.156  -2.192  0.00  0.00     0.002 A 
ATOM      6  C6  N4B d   1      -0.916  -0.959  -1.518  0.00  0.00     0.002 A 
ENDROOT
BRANCH   1   7
ATOM      7  C1' N4B d   1      -2.297  -2.054   0.212  0.00  0.00     0.057 C 
BRANCH   7   8
ATOM      8  C2' N4B d   1      -1.176  -3.088   0.149  0.00  0.00     0.009 C 
BRANCH   8   9
ATOM      9  C3' N4B d   1      -1.155  -3.978   1.380  0.00  0.00     0.004 C 
ATOM     10  C4' N4B d   1       0.210  -4.524   1.677  0.00  0.00     0.003 C 
ENDBRANCH   8   9
ENDBRANCH   7   8
ENDBRANCH   1   7
TORSDOF 3
ENDMDL
