MODEL 1
REMARK minimizedAffinity 7.73186016
REMARK minimizedRMSD -1
REMARK  3 active torsions:
REMARK  status: ('A' for Active; 'I' for Inactive)
REMARK    1  A    between atoms: C3'_2  and  C2'_3 
REMARK    2  A    between atoms: C2'_3  and  C1'_4 
REMARK    3  A    between atoms: C1'_4  and  C1_5 
ROOT
ATOM      1  C1  N4B d   1       2.328   2.255  -5.014  0.00  0.00    -0.075 A 
ATOM      2  C2  N4B d   1       2.502   3.654  -4.944  0.00  0.00     0.002 A 
ATOM      3  C3  N4B d   1       3.720   4.211  -5.249  0.00  0.00     0.002 A 
ATOM      4  C4  N4B d   1       4.779   3.391  -5.608  0.00  0.00    -0.004 A 
ATOM      5  C5  N4B d   1       4.596   2.042  -5.698  0.00  0.00     0.002 A 
ATOM      6  C6  N4B d   1       3.376   1.469  -5.398  0.00  0.00     0.002 A 
ENDROOT
BRANCH   1   7
ATOM      7  C1' N4B d   1       1.041   1.593  -4.607  0.00  0.00     0.057 C 
BRANCH   7   8
ATOM      8  C2' N4B d   1       0.407   2.387  -3.469  0.00  0.00     0.009 C 
BRANCH   8   9
ATOM      9  C3' N4B d   1       0.019   1.497  -2.301  0.00  0.00     0.004 C 
ATOM     10  C4' N4B d   1      -0.724   2.236  -1.229  0.00  0.00     0.003 C 
ENDBRANCH   8   9
ENDBRANCH   7   8
ENDBRANCH   1   7
TORSDOF 3
ENDMDL
