MODEL 1
REMARK minimizedAffinity 12.7262287
REMARK minimizedRMSD -1
REMARK  0 active torsions:
REMARK  status: ('A' for Active; 'I' for Inactive)
ROOT
ATOM      1  N1  IND d   1      -1.313   0.381   0.880  0.00  0.00    -0.196 N 
ATOM      2  C2  IND d   1      -0.454   0.276   1.938  0.00  0.00     0.054 A 
ATOM      3  C3  IND d   1      -1.138   0.289   3.104  0.00  0.00    -0.031 A 
ATOM      4  C4  IND d   1      -3.680   0.372   3.507  0.00  0.00     0.051 A 
ATOM      5  C5  IND d   1      -4.870   0.511   2.851  0.00  0.00    -0.031 A 
ATOM      6  C6  IND d   1      -4.938   0.613   1.476  0.00  0.00     0.015 A 
ATOM      7  C7  IND d   1      -3.813   0.568   0.703  0.00  0.00    -0.016 A 
ATOM      8  C8  IND d   1      -2.601   0.435   1.366  0.00  0.00    -0.047 A 
ATOM      9  C9  IND d   1      -2.523   0.373   2.763  0.00  0.00    -0.096 A 
ATOM     10  HN1 IND d   1      -1.088   0.409   0.051  0.00  0.00     0.298 HD
ENDROOT
TORSDOF 0
ENDMDL
