MODEL 1
REMARK minimizedAffinity 5.77788353
REMARK minimizedRMSD -1
REMARK  0 active torsions:
REMARK  status: ('A' for Active; 'I' for Inactive)
ROOT
ATOM      1  N1  IND d   1      -1.446  -0.409   1.654  0.00  0.00    -0.196 N 
ATOM      2  C2  IND d   1      -1.930   0.825   1.988  0.00  0.00     0.054 A 
ATOM      3  C3  IND d   1      -3.221   0.944   1.604  0.00  0.00    -0.031 A 
ATOM      4  C4  IND d   1      -4.766  -0.797   0.504  0.00  0.00     0.051 A 
ATOM      5  C5  IND d   1      -4.765  -2.056  -0.027  0.00  0.00    -0.031 A 
ATOM      6  C6  IND d   1      -3.635  -2.848  -0.021  0.00  0.00     0.015 A 
ATOM      7  C7  IND d   1      -2.462  -2.412   0.527  0.00  0.00    -0.016 A 
ATOM      8  C8  IND d   1      -2.458  -1.131   1.060  0.00  0.00    -0.047 A 
ATOM      9  C9  IND d   1      -3.590  -0.307   1.020  0.00  0.00    -0.096 A 
ATOM     10  HN1 IND d   1      -0.644  -0.687   1.792  0.00  0.00     0.298 HD
ENDROOT
TORSDOF 0
ENDMDL
