MODEL 1
REMARK minimizedAffinity 11.449646
REMARK minimizedRMSD -1
REMARK  0 active torsions:
REMARK  status: ('A' for Active; 'I' for Inactive)
ROOT
ATOM      1  N1  IND d   1      -5.324  -0.587  -0.059  0.00  0.00    -0.196 N 
ATOM      2  C2  IND d   1      -5.057  -1.927  -0.016  0.00  0.00     0.054 A 
ATOM      3  C3  IND d   1      -3.846  -2.147   0.544  0.00  0.00    -0.031 A 
ATOM      4  C4  IND d   1      -2.180  -0.464   1.553  0.00  0.00     0.051 A 
ATOM      5  C5  IND d   1      -1.967   0.876   1.714  0.00  0.00    -0.031 A 
ATOM      6  C6  IND d   1      -2.882   1.816   1.285  0.00  0.00     0.015 A 
ATOM      7  C7  IND d   1      -4.055   1.449   0.688  0.00  0.00    -0.016 A 
ATOM      8  C8  IND d   1      -4.271   0.089   0.517  0.00  0.00    -0.047 A 
ATOM      9  C9  IND d   1      -3.327  -0.868   0.911  0.00  0.00    -0.096 A 
ATOM     10  HN1 IND d   1      -6.031  -0.227  -0.390  0.00  0.00     0.298 HD
ENDROOT
TORSDOF 0
ENDMDL
