MODEL 1
REMARK minimizedAffinity 11.1613445
REMARK minimizedRMSD -1
REMARK  0 active torsions:
REMARK  status: ('A' for Active; 'I' for Inactive)
ROOT
ATOM      1  N1  IND d   1      -1.207   0.367   1.201  0.00  0.00    -0.196 N 
ATOM      2  C2  IND d   1      -0.392   0.184   2.283  0.00  0.00     0.054 A 
ATOM      3  C3  IND d   1      -1.125   0.115   3.417  0.00  0.00    -0.031 A 
ATOM      4  C4  IND d   1      -3.681   0.176   3.720  0.00  0.00     0.051 A 
ATOM      5  C5  IND d   1      -4.843   0.366   3.027  0.00  0.00    -0.031 A 
ATOM      6  C6  IND d   1      -4.854   0.567   1.662  0.00  0.00     0.015 A 
ATOM      7  C7  IND d   1      -3.697   0.575   0.934  0.00  0.00    -0.016 A 
ATOM      8  C8  IND d   1      -2.515   0.390   1.636  0.00  0.00    -0.047 A 
ATOM      9  C9  IND d   1      -2.494   0.227   3.027  0.00  0.00    -0.096 A 
ATOM     10  HN1 IND d   1      -0.947   0.454   0.386  0.00  0.00     0.298 HD
ENDROOT
TORSDOF 0
ENDMDL
