MODEL 1
REMARK minimizedAffinity 3.62932801
REMARK minimizedRMSD -1
REMARK  0 active torsions:
REMARK  status: ('A' for Active; 'I' for Inactive)
ROOT
ATOM      1  N1  IND d   1      -4.233   0.782   0.122  0.00  0.00    -0.196 N 
ATOM      2  C2  IND d   1      -5.471   1.214   0.508  0.00  0.00     0.054 A 
ATOM      3  C3  IND d   1      -5.586   1.172   1.854  0.00  0.00    -0.031 A 
ATOM      4  C4  IND d   1      -3.833   0.525   3.625  0.00  0.00     0.051 A 
ATOM      5  C5  IND d   1      -2.567   0.027   3.757  0.00  0.00    -0.031 A 
ATOM      6  C6  IND d   1      -1.775  -0.248   2.661  0.00  0.00     0.015 A 
ATOM      7  C7  IND d   1      -2.217  -0.023   1.388  0.00  0.00    -0.016 A 
ATOM      8  C8  IND d   1      -3.504   0.476   1.251  0.00  0.00    -0.047 A 
ATOM      9  C9  IND d   1      -4.328   0.717   2.357  0.00  0.00    -0.096 A 
ATOM     10  HN1 IND d   1      -3.955   0.713  -0.689  0.00  0.00     0.298 HD
ENDROOT
TORSDOF 0
ENDMDL
