MODEL 1
REMARK minimizedAffinity 10.1405001
REMARK minimizedRMSD -1
REMARK  0 active torsions:
REMARK  status: ('A' for Active; 'I' for Inactive)
ROOT
ATOM      1  N1  IND d   1      -2.670  -0.709  -5.955  0.00  0.00    -0.196 N 
ATOM      2  C2  IND d   1      -1.380  -1.160  -5.988  0.00  0.00     0.054 A 
ATOM      3  C3  IND d   1      -1.353  -2.511  -5.974  0.00  0.00    -0.031 A 
ATOM      4  C4  IND d   1      -3.308  -4.186  -5.999  0.00  0.00     0.051 A 
ATOM      5  C5  IND d   1      -4.672  -4.251  -5.935  0.00  0.00    -0.031 A 
ATOM      6  C6  IND d   1      -5.454  -3.116  -5.876  0.00  0.00     0.015 A 
ATOM      7  C7  IND d   1      -4.900  -1.867  -5.890  0.00  0.00    -0.016 A 
ATOM      8  C8  IND d   1      -3.515  -1.798  -5.948  0.00  0.00    -0.047 A 
ATOM      9  C9  IND d   1      -2.714  -2.947  -5.965  0.00  0.00    -0.096 A 
ATOM     10  HN1 IND d   1      -2.914   0.115  -5.940  0.00  0.00     0.298 HD
ENDROOT
TORSDOF 0
ENDMDL
