MODEL 1
REMARK minimizedAffinity 6.57377481
REMARK minimizedRMSD -1
REMARK  0 active torsions:
REMARK  status: ('A' for Active; 'I' for Inactive)
ROOT
ATOM      1  N1  IND d   1      -0.912  -1.925  -5.968  0.00  0.00    -0.196 N 
ATOM      2  C2  IND d   1      -1.090  -0.570  -5.970  0.00  0.00     0.054 A 
ATOM      3  C3  IND d   1      -2.408  -0.268  -5.997  0.00  0.00    -0.031 A 
ATOM      4  C4  IND d   1      -4.446  -1.840  -5.939  0.00  0.00     0.051 A 
ATOM      5  C5  IND d   1      -4.788  -3.163  -5.969  0.00  0.00    -0.031 A 
ATOM      6  C6  IND d   1      -3.835  -4.161  -5.998  0.00  0.00     0.015 A 
ATOM      7  C7  IND d   1      -2.500  -3.872  -5.987  0.00  0.00    -0.016 A 
ATOM      8  C8  IND d   1      -2.150  -2.530  -5.963  0.00  0.00    -0.047 A 
ATOM      9  C9  IND d   1      -3.112  -1.512  -5.976  0.00  0.00    -0.096 A 
ATOM     10  HN1 IND d   1      -0.154  -2.331  -5.969  0.00  0.00     0.298 HD
ENDROOT
TORSDOF 0
ENDMDL
