MODEL 1
REMARK minimizedAffinity -3.74455214
REMARK minimizedRMSD -1
REMARK  0 active torsions:
REMARK  status: ('A' for Active; 'I' for Inactive)
ROOT
ATOM      1  N1  IND d   1       0.504   0.232   2.445  0.00  0.00    -0.196 N 
ATOM      2  C2  IND d   1       0.441   1.063   3.529  0.00  0.00     0.054 A 
ATOM      3  C3  IND d   1      -0.838   1.431   3.766  0.00  0.00    -0.031 A 
ATOM      4  C4  IND d   1      -2.997   0.708   2.565  0.00  0.00     0.051 A 
ATOM      5  C5  IND d   1      -3.444  -0.012   1.493  0.00  0.00    -0.031 A 
ATOM      6  C6  IND d   1      -2.580  -0.704   0.668  0.00  0.00     0.015 A 
ATOM      7  C7  IND d   1      -1.233  -0.711   0.893  0.00  0.00    -0.016 A 
ATOM      8  C8  IND d   1      -0.775   0.025   1.977  0.00  0.00    -0.047 A 
ATOM      9  C9  IND d   1      -1.642   0.764   2.792  0.00  0.00    -0.096 A 
ATOM     10  HN1 IND d   1       1.221  -0.106   2.113  0.00  0.00     0.298 HD
ENDROOT
TORSDOF 0
ENDMDL
