MODEL 1
REMARK minimizedAffinity 6.20243502
REMARK minimizedRMSD -1
REMARK  0 active torsions:
REMARK  status: ('A' for Active; 'I' for Inactive)
ROOT
ATOM      1  N1  IND d   1      -0.002  -5.141   2.961  0.00  0.00    -0.196 N 
ATOM      2  C2  IND d   1      -0.482  -4.437   1.892  0.00  0.00     0.054 A 
ATOM      3  C3  IND d   1       0.518  -4.149   1.030  0.00  0.00    -0.031 A 
ATOM      4  C4  IND d   1       3.001  -4.823   1.123  0.00  0.00     0.051 A 
ATOM      5  C5  IND d   1       3.921  -5.438   1.924  0.00  0.00    -0.031 A 
ATOM      6  C6  IND d   1       3.573  -5.999   3.136  0.00  0.00     0.015 A 
ATOM      7  C7  IND d   1       2.284  -5.976   3.587  0.00  0.00    -0.016 A 
ATOM      8  C8  IND d   1       1.348  -5.346   2.779  0.00  0.00    -0.047 A 
ATOM      9  C9  IND d   1       1.704  -4.737   1.569  0.00  0.00    -0.096 A 
ATOM     10  HN1 IND d   1      -0.465  -5.410   3.634  0.00  0.00     0.298 HD
ENDROOT
TORSDOF 0
ENDMDL
