MODEL 1
REMARK minimizedAffinity -1.79106271
REMARK minimizedRMSD -1
REMARK  0 active torsions:
REMARK  status: ('A' for Active; 'I' for Inactive)
ROOT
ATOM      1  N1  IND d   1      -4.279  -4.498  -5.990  0.00  0.00    -0.196 N 
ATOM      2  C2  IND d   1      -5.605  -4.165  -5.962  0.00  0.00     0.054 A 
ATOM      3  C3  IND d   1      -5.751  -2.822  -5.923  0.00  0.00    -0.031 A 
ATOM      4  C4  IND d   1      -3.956  -0.978  -6.000  0.00  0.00     0.051 A 
ATOM      5  C5  IND d   1      -2.602  -0.791  -5.991  0.00  0.00    -0.031 A 
ATOM      6  C6  IND d   1      -1.720  -1.853  -5.984  0.00  0.00     0.015 A 
ATOM      7  C7  IND d   1      -2.161  -3.146  -5.997  0.00  0.00    -0.016 A 
ATOM      8  C8  IND d   1      -3.536  -3.339  -5.999  0.00  0.00    -0.047 A 
ATOM      9  C9  IND d   1      -4.436  -2.266  -5.963  0.00  0.00    -0.096 A 
ATOM     10  HN1 IND d   1      -3.963  -5.298  -5.999  0.00  0.00     0.298 HD
ENDROOT
TORSDOF 0
ENDMDL
