MODEL 1
REMARK minimizedAffinity 0.162748262
REMARK minimizedRMSD -1
REMARK  0 active torsions:
REMARK  status: ('A' for Active; 'I' for Inactive)
ROOT
ATOM      1  N1  IND d   1      -4.718  -3.735  -5.969  0.00  0.00    -0.196 N 
ATOM      2  C2  IND d   1      -5.880  -3.037  -5.793  0.00  0.00     0.054 A 
ATOM      3  C3  IND d   1      -5.615  -1.727  -5.589  0.00  0.00    -0.031 A 
ATOM      4  C4  IND d   1      -3.356  -0.493  -5.605  0.00  0.00     0.051 A 
ATOM      5  C5  IND d   1      -2.010  -0.712  -5.688  0.00  0.00    -0.031 A 
ATOM      6  C6  IND d   1      -1.487  -1.975  -5.876  0.00  0.00     0.015 A 
ATOM      7  C7  IND d   1      -2.295  -3.070  -6.000  0.00  0.00    -0.016 A 
ATOM      8  C8  IND d   1      -3.663  -2.852  -5.908  0.00  0.00    -0.047 A 
ATOM      9  C9  IND d   1      -4.197  -1.578  -5.675  0.00  0.00    -0.096 A 
ATOM     10  HN1 IND d   1      -4.657  -4.583  -6.097  0.00  0.00     0.298 HD
ENDROOT
TORSDOF 0
ENDMDL
