MODEL 1
REMARK minimizedAffinity 10.2486744
REMARK minimizedRMSD -1
REMARK  0 active torsions:
REMARK  status: ('A' for Active; 'I' for Inactive)
ROOT
ATOM      1  N1  IND d   1      -2.370  -4.423  -5.993  0.00  0.00    -0.196 N 
ATOM      2  C2  IND d   1      -1.208  -3.703  -5.990  0.00  0.00     0.054 A 
ATOM      3  C3  IND d   1      -1.475  -2.378  -6.000  0.00  0.00    -0.031 A 
ATOM      4  C4  IND d   1      -3.746  -1.167  -5.919  0.00  0.00     0.051 A 
ATOM      5  C5  IND d   1      -5.092  -1.400  -5.948  0.00  0.00    -0.031 A 
ATOM      6  C6  IND d   1      -5.611  -2.678  -5.991  0.00  0.00     0.015 A 
ATOM      7  C7  IND d   1      -4.798  -3.776  -5.996  0.00  0.00    -0.016 A 
ATOM      8  C8  IND d   1      -3.430  -3.544  -5.974  0.00  0.00    -0.047 A 
ATOM      9  C9  IND d   1      -2.898  -2.248  -5.973  0.00  0.00    -0.096 A 
ATOM     10  HN1 IND d   1      -2.429  -5.281  -6.004  0.00  0.00     0.298 HD
ENDROOT
TORSDOF 0
ENDMDL
