MODEL 1
REMARK minimizedAffinity 10.3634462
REMARK minimizedRMSD -1
REMARK  0 active torsions:
REMARK  status: ('A' for Active; 'I' for Inactive)
ROOT
ATOM      1  N1  IND d   1      -5.498   4.842   5.992  0.00  0.00    -0.196 N 
ATOM      2  C2  IND d   1      -4.781   5.994   5.827  0.00  0.00     0.054 A 
ATOM      3  C3  IND d   1      -4.101   5.961   4.659  0.00  0.00    -0.031 A 
ATOM      4  C4  IND d   1      -4.099   4.162   2.818  0.00  0.00     0.051 A 
ATOM      5  C5  IND d   1      -4.572   2.912   2.533  0.00  0.00    -0.031 A 
ATOM      6  C6  IND d   1      -5.397   2.229   3.402  0.00  0.00     0.015 A 
ATOM      7  C7  IND d   1      -5.791   2.777   4.590  0.00  0.00    -0.016 A 
ATOM      8  C8  IND d   1      -5.306   4.043   4.886  0.00  0.00    -0.047 A 
ATOM      9  C9  IND d   1      -4.435   4.724   4.027  0.00  0.00    -0.096 A 
ATOM     10  HN1 IND d   1      -5.987   4.649   6.673  0.00  0.00     0.298 HD
ENDROOT
TORSDOF 0
ENDMDL
