MODEL 1
REMARK minimizedAffinity -2.38527107
REMARK minimizedRMSD -1
REMARK  0 active torsions:
REMARK  status: ('A' for Active; 'I' for Inactive)
ROOT
ATOM      1  N1  IND d   1      -4.113  -4.139  -6.000  0.00  0.00    -0.196 N 
ATOM      2  C2  IND d   1      -5.424  -3.753  -5.962  0.00  0.00     0.054 A 
ATOM      3  C3  IND d   1      -5.516  -2.406  -5.891  0.00  0.00    -0.031 A 
ATOM      4  C4  IND d   1      -3.647  -0.635  -5.927  0.00  0.00     0.051 A 
ATOM      5  C5  IND d   1      -2.287  -0.504  -5.917  0.00  0.00    -0.031 A 
ATOM      6  C6  IND d   1      -1.449  -1.600  -5.937  0.00  0.00     0.015 A 
ATOM      7  C7  IND d   1      -1.942  -2.874  -5.980  0.00  0.00    -0.016 A 
ATOM      8  C8  IND d   1      -3.323  -3.011  -5.983  0.00  0.00    -0.047 A 
ATOM      9  C9  IND d   1      -4.179  -1.903  -5.920  0.00  0.00    -0.096 A 
ATOM     10  HN1 IND d   1      -3.830  -4.950  -6.029  0.00  0.00     0.298 HD
ENDROOT
TORSDOF 0
ENDMDL
