MODEL 1
REMARK minimizedAffinity 16.4050884
REMARK minimizedRMSD -1
REMARK  0 active torsions:
REMARK  status: ('A' for Active; 'I' for Inactive)
ROOT
ATOM      1  N1  IND d   1       0.869  -0.097  -1.195  0.00  0.00    -0.196 N 
ATOM      2  C2  IND d   1       1.876   0.815  -1.348  0.00  0.00     0.054 A 
ATOM      3  C3  IND d   1       2.074   1.495  -0.196  0.00  0.00    -0.031 A 
ATOM      4  C4  IND d   1       0.929   1.205   2.091  0.00  0.00     0.051 A 
ATOM      5  C5  IND d   1      -0.079   0.523   2.712  0.00  0.00    -0.031 A 
ATOM      6  C6  IND d   1      -0.836  -0.422   2.050  0.00  0.00     0.015 A 
ATOM      7  C7  IND d   1      -0.605  -0.729   0.739  0.00  0.00    -0.016 A 
ATOM      8  C8  IND d   1       0.414  -0.033   0.103  0.00  0.00    -0.047 A 
ATOM      9  C9  IND d   1       1.157   0.957   0.758  0.00  0.00    -0.096 A 
ATOM     10  HN1 IND d   1       0.571  -0.622  -1.807  0.00  0.00     0.298 HD
ENDROOT
TORSDOF 0
ENDMDL
