MODEL 1
REMARK minimizedAffinity 11.0077238
REMARK minimizedRMSD -1
REMARK  0 active torsions:
REMARK  status: ('A' for Active; 'I' for Inactive)
ROOT
ATOM      1  N1  IND d   1      -2.287   0.714  -5.964  0.00  0.00    -0.196 N 
ATOM      2  C2  IND d   1      -0.993   1.154  -5.931  0.00  0.00     0.054 A 
ATOM      3  C3  IND d   1      -0.141   0.105  -5.898  0.00  0.00    -0.031 A 
ATOM      4  C4  IND d   1      -0.647  -2.417  -5.995  0.00  0.00     0.051 A 
ATOM      5  C5  IND d   1      -1.683  -3.309  -5.996  0.00  0.00    -0.031 A 
ATOM      6  C6  IND d   1      -3.000  -2.897  -5.989  0.00  0.00     0.015 A 
ATOM      7  C7  IND d   1      -3.331  -1.571  -5.992  0.00  0.00    -0.016 A 
ATOM      8  C8  IND d   1      -2.282  -0.663  -5.984  0.00  0.00    -0.047 A 
ATOM      9  C9  IND d   1      -0.944  -1.076  -5.949  0.00  0.00    -0.096 A 
ATOM     10  HN1 IND d   1      -2.987   1.214  -5.972  0.00  0.00     0.298 HD
ENDROOT
TORSDOF 0
ENDMDL
