MODEL 1
REMARK minimizedAffinity -0.929996014
REMARK minimizedRMSD -1
REMARK  2 active torsions:
REMARK  status: ('A' for Active; 'I' for Inactive)
REMARK    1  A    between atoms: C2'_3  and  C1'_4 
REMARK    2  A    between atoms: C1'_4  and  C1_5 
ROOT
ATOM      1  C1  I4B d   1      -1.445  -0.373   3.339  0.00  0.00    -0.075 A 
ATOM      2  C2  I4B d   1      -2.536  -1.123   3.701  0.00  0.00     0.003 A 
ATOM      3  C3  I4B d   1      -2.390  -2.202   4.607  0.00  0.00     0.002 A 
ATOM      4  C4  I4B d   1      -1.135  -2.524   5.084  0.00  0.00    -0.004 A 
ATOM      5  C5  I4B d   1      -0.035  -1.747   4.733  0.00  0.00     0.002 A 
ATOM      6  C6  I4B d   1      -0.192  -0.657   3.865  0.00  0.00     0.003 A 
ENDROOT
BRANCH   1   7
ATOM      7  C1' I4B d   1      -1.630   0.739   2.355  0.00  0.00     0.060 C 
BRANCH   7   8
ATOM      8  C2' I4B d   1      -0.803   0.417   1.127  0.00  0.00    -0.013 C 
ATOM      9  C4' I4B d   1       0.451  -0.331   1.495  0.00  0.00     0.013 C 
ATOM     10  C3' I4B d   1      -1.658  -0.386   0.191  0.00  0.00     0.013 C 
ENDBRANCH   7   8
ENDBRANCH   1   7
TORSDOF 2
ENDMDL
