MODEL 1
REMARK minimizedAffinity 1.87337446
REMARK minimizedRMSD -1
REMARK  2 active torsions:
REMARK  status: ('A' for Active; 'I' for Inactive)
REMARK    1  A    between atoms: C2'_3  and  C1'_4 
REMARK    2  A    between atoms: C1'_4  and  C1_5 
ROOT
ATOM      1  C1  I4B d   1       0.161  -0.889   3.326  0.00  0.00    -0.075 A 
ATOM      2  C2  I4B d   1      -0.903  -0.201   2.798  0.00  0.00     0.003 A 
ATOM      3  C3  I4B d   1      -2.208  -0.406   3.308  0.00  0.00     0.002 A 
ATOM      4  C4  I4B d   1      -2.409  -1.337   4.306  0.00  0.00    -0.004 A 
ATOM      5  C5  I4B d   1      -1.326  -2.016   4.857  0.00  0.00     0.002 A 
ATOM      6  C6  I4B d   1      -0.031  -1.782   4.372  0.00  0.00     0.003 A 
ENDROOT
BRANCH   1   7
ATOM      7  C1' I4B d   1       1.521  -0.673   2.741  0.00  0.00     0.060 C 
BRANCH   7   8
ATOM      8  C2' I4B d   1       1.368   0.210   1.520  0.00  0.00    -0.013 C 
ATOM      9  C4' I4B d   1       2.556   1.122   1.355  0.00  0.00     0.013 C 
ATOM     10  C3' I4B d   1       1.198  -0.679   0.324  0.00  0.00     0.013 C 
ENDBRANCH   7   8
ENDBRANCH   1   7
TORSDOF 2
ENDMDL
