MODEL 1
REMARK minimizedAffinity -2.8976903
REMARK minimizedRMSD -1
REMARK  2 active torsions:
REMARK  status: ('A' for Active; 'I' for Inactive)
REMARK    1  A    between atoms: C2'_3  and  C1'_4 
REMARK    2  A    between atoms: C1'_4  and  C1_5 
ROOT
ATOM      1  C1  I4B d   1      -0.010  -0.350   2.521  0.00  0.00    -0.075 A 
ATOM      2  C2  I4B d   1       0.241  -0.201   1.179  0.00  0.00     0.003 A 
ATOM      3  C3  I4B d   1      -0.701   0.450   0.346  0.00  0.00     0.002 A 
ATOM      4  C4  I4B d   1      -1.895   0.888   0.882  0.00  0.00    -0.004 A 
ATOM      5  C5  I4B d   1      -2.137   0.757   2.246  0.00  0.00     0.002 A 
ATOM      6  C6  I4B d   1      -1.184   0.145   3.074  0.00  0.00     0.003 A 
ENDROOT
BRANCH   1   7
ATOM      7  C1' I4B d   1       0.991  -1.071   3.366  0.00  0.00     0.060 C 
BRANCH   7   8
ATOM      8  C2' I4B d   1       0.392  -1.254   4.745  0.00  0.00    -0.013 C 
ATOM      9  C4' I4B d   1      -0.537  -2.439   4.784  0.00  0.00     0.013 C 
ATOM     10  C3' I4B d   1       1.519  -1.419   5.721  0.00  0.00     0.013 C 
ENDBRANCH   7   8
ENDBRANCH   1   7
TORSDOF 2
ENDMDL
