MODEL 1
REMARK minimizedAffinity 10.2661886
REMARK minimizedRMSD -1
REMARK  2 active torsions:
REMARK  status: ('A' for Active; 'I' for Inactive)
REMARK    1  A    between atoms: C2'_3  and  C1'_4 
REMARK    2  A    between atoms: C1'_4  and  C1_5 
ROOT
ATOM      1  C1  I4B d   1      -2.439   0.186   2.217  0.00  0.00    -0.075 A 
ATOM      2  C2  I4B d   1      -1.352  -0.280   2.913  0.00  0.00     0.003 A 
ATOM      3  C3  I4B d   1      -1.531  -1.166   4.003  0.00  0.00     0.002 A 
ATOM      4  C4  I4B d   1      -2.808  -1.517   4.392  0.00  0.00    -0.004 A 
ATOM      5  C5  I4B d   1      -3.908  -1.061   3.670  0.00  0.00     0.002 A 
ATOM      6  C6  I4B d   1      -3.722  -0.214   2.568  0.00  0.00     0.003 A 
ENDROOT
BRANCH   1   7
ATOM      7  C1' I4B d   1      -2.216   1.147   1.091  0.00  0.00     0.060 C 
BRANCH   7   8
ATOM      8  C2' I4B d   1      -2.904   0.592  -0.139  0.00  0.00    -0.013 C 
ATOM      9  C4' I4B d   1      -3.088   1.656  -1.188  0.00  0.00     0.013 C 
ATOM     10  C3' I4B d   1      -2.075  -0.545  -0.660  0.00  0.00     0.013 C 
ENDBRANCH   7   8
ENDBRANCH   1   7
TORSDOF 2
ENDMDL
