MODEL 1
REMARK minimizedAffinity 6.73564005
REMARK minimizedRMSD -1
REMARK  2 active torsions:
REMARK  status: ('A' for Active; 'I' for Inactive)
REMARK    1  A    between atoms: C2'_3  and  C1'_4 
REMARK    2  A    between atoms: C1'_4  and  C1_5 
ROOT
ATOM      1  C1  I4B d   1      -1.175   0.358   2.053  0.00  0.00    -0.075 A 
ATOM      2  C2  I4B d   1       0.078   0.447   1.499  0.00  0.00     0.003 A 
ATOM      3  C3  I4B d   1       1.191  -0.130   2.158  0.00  0.00     0.002 A 
ATOM      4  C4  I4B d   1       1.014  -0.737   3.385  0.00  0.00    -0.004 A 
ATOM      5  C5  I4B d   1      -0.260  -0.846   3.934  0.00  0.00     0.002 A 
ATOM      6  C6  I4B d   1      -1.364  -0.305   3.258  0.00  0.00     0.003 A 
ENDROOT
BRANCH   1   7
ATOM      7  C1' I4B d   1      -2.323   1.007   1.346  0.00  0.00     0.060 C 
BRANCH   7   8
ATOM      8  C2' I4B d   1      -2.149   0.771  -0.141  0.00  0.00    -0.013 C 
ATOM      9  C4' I4B d   1      -2.415  -0.668  -0.499  0.00  0.00     0.013 C 
ATOM     10  C3' I4B d   1      -3.083   1.691  -0.868  0.00  0.00     0.013 C 
ENDBRANCH   7   8
ENDBRANCH   1   7
TORSDOF 2
ENDMDL
