MODEL 1
REMARK minimizedAffinity 8.07538128
REMARK minimizedRMSD -1
REMARK  2 active torsions:
REMARK  status: ('A' for Active; 'I' for Inactive)
REMARK    1  A    between atoms: C2'_3  and  C1'_4 
REMARK    2  A    between atoms: C1'_4  and  C1_5 
ROOT
ATOM      1  C1  I4B d   1      -0.542   0.298  -3.573  0.00  0.00    -0.075 A 
ATOM      2  C2  I4B d   1      -1.010  -0.686  -4.408  0.00  0.00     0.003 A 
ATOM      3  C3  I4B d   1      -0.186  -1.196  -5.441  0.00  0.00     0.002 A 
ATOM      4  C4  I4B d   1       1.072  -0.661  -5.633  0.00  0.00    -0.004 A 
ATOM      5  C5  I4B d   1       1.553   0.320  -4.772  0.00  0.00     0.002 A 
ATOM      6  C6  I4B d   1       0.746   0.795  -3.727  0.00  0.00     0.003 A 
ENDROOT
BRANCH   1   7
ATOM      7  C1' I4B d   1      -1.451   0.836  -2.514  0.00  0.00     0.060 C 
BRANCH   7   8
ATOM      8  C2' I4B d   1      -1.710  -0.272  -1.514  0.00  0.00    -0.013 C 
ATOM      9  C4' I4B d   1      -0.713  -0.232  -0.385  0.00  0.00     0.013 C 
ATOM     10  C3' I4B d   1      -3.111  -0.118  -1.004  0.00  0.00     0.013 C 
ENDBRANCH   7   8
ENDBRANCH   1   7
TORSDOF 2
ENDMDL
