MODEL 1
REMARK minimizedAffinity -0.0221320819
REMARK minimizedRMSD -1
REMARK  2 active torsions:
REMARK  status: ('A' for Active; 'I' for Inactive)
REMARK    1  A    between atoms: C2'_3  and  C1'_4 
REMARK    2  A    between atoms: C1'_4  and  C1_5 
ROOT
ATOM      1  C1  I4B d   1       0.712  -0.244   1.606  0.00  0.00    -0.075 A 
ATOM      2  C2  I4B d   1       0.557  -0.614   2.918  0.00  0.00     0.003 A 
ATOM      3  C3  I4B d   1      -0.698  -0.464   3.558  0.00  0.00     0.002 A 
ATOM      4  C4  I4B d   1      -1.749   0.103   2.867  0.00  0.00    -0.004 A 
ATOM      5  C5  I4B d   1      -1.596   0.457   1.529  0.00  0.00     0.002 A 
ATOM      6  C6  I4B d   1      -0.361   0.271   0.891  0.00  0.00     0.003 A 
ENDROOT
BRANCH   1   7
ATOM      7  C1' I4B d   1       2.060  -0.386   0.972  0.00  0.00     0.060 C 
BRANCH   7   8
ATOM      8  C2' I4B d   1       2.381   0.914   0.262  0.00  0.00    -0.013 C 
ATOM      9  C4' I4B d   1       3.222   1.815   1.128  0.00  0.00     0.013 C 
ATOM     10  C3' I4B d   1       3.086   0.581  -1.018  0.00  0.00     0.013 C 
ENDBRANCH   7   8
ENDBRANCH   1   7
TORSDOF 2
ENDMDL
