MODEL 1
REMARK minimizedAffinity 2.97062469
REMARK minimizedRMSD -1
REMARK  2 active torsions:
REMARK  status: ('A' for Active; 'I' for Inactive)
REMARK    1  A    between atoms: C2'_3  and  C1'_4 
REMARK    2  A    between atoms: C1'_4  and  C1_5 
ROOT
ATOM      1  C1  I4B d   1      -1.517  -0.297   2.488  0.00  0.00    -0.075 A 
ATOM      2  C2  I4B d   1      -2.739  -0.897   2.667  0.00  0.00     0.003 A 
ATOM      3  C3  I4B d   1      -2.886  -1.946   3.607  0.00  0.00     0.002 A 
ATOM      4  C4  I4B d   1      -1.784  -2.392   4.306  0.00  0.00    -0.004 A 
ATOM      5  C5  I4B d   1      -0.551  -1.767   4.140  0.00  0.00     0.002 A 
ATOM      6  C6  I4B d   1      -0.419  -0.704   3.235  0.00  0.00     0.003 A 
ENDROOT
BRANCH   1   7
ATOM      7  C1' I4B d   1      -1.390   0.785   1.463  0.00  0.00     0.060 C 
BRANCH   7   8
ATOM      8  C2' I4B d   1      -0.788   0.175   0.213  0.00  0.00    -0.013 C 
ATOM      9  C4' I4B d   1       0.549  -0.455   0.503  0.00  0.00     0.013 C 
ATOM     10  C3' I4B d   1      -1.758  -0.835  -0.322  0.00  0.00     0.013 C 
ENDBRANCH   7   8
ENDBRANCH   1   7
TORSDOF 2
ENDMDL
