MODEL 1
REMARK minimizedAffinity 5.48948288
REMARK minimizedRMSD -1
REMARK  2 active torsions:
REMARK  status: ('A' for Active; 'I' for Inactive)
REMARK    1  A    between atoms: C2'_3  and  C1'_4 
REMARK    2  A    between atoms: C1'_4  and  C1_5 
ROOT
ATOM      1  C1  I4B d   1      -1.008   0.228   2.201  0.00  0.00    -0.075 A 
ATOM      2  C2  I4B d   1      -1.155  -0.183   3.502  0.00  0.00     0.003 A 
ATOM      3  C3  I4B d   1      -0.038  -0.658   4.230  0.00  0.00     0.002 A 
ATOM      4  C4  I4B d   1       1.190  -0.751   3.607  0.00  0.00    -0.004 A 
ATOM      5  C5  I4B d   1       1.342  -0.312   2.295  0.00  0.00     0.002 A 
ATOM      6  C6  I4B d   1       0.239   0.192   1.591  0.00  0.00     0.003 A 
ENDROOT
BRANCH   1   7
ATOM      7  C1' I4B d   1      -2.216   0.692   1.450  0.00  0.00     0.060 C 
BRANCH   7   8
ATOM      8  C2' I4B d   1      -2.011   0.363  -0.014  0.00  0.00    -0.013 C 
ATOM      9  C4' I4B d   1      -2.530  -1.012  -0.342  0.00  0.00     0.013 C 
ATOM     10  C3' I4B d   1      -2.708   1.413  -0.827  0.00  0.00     0.013 C 
ENDBRANCH   7   8
ENDBRANCH   1   7
TORSDOF 2
ENDMDL
