MODEL 1
REMARK minimizedAffinity -2.45563126
REMARK minimizedRMSD -1
REMARK  1 active torsions:
REMARK  status: ('A' for Active; 'I' for Inactive)
REMARK    1  A    between atoms: C3_4  and  O_7 
ROOT
ATOM      1  C   UNL d   1       1.125  -2.425   0.210  0.00  0.00    -0.033 A 
ATOM      2  C1  UNL d   1      -0.073  -2.199   0.891  0.00  0.00     0.039 A 
ATOM      3  C2  UNL d   1      -0.758  -0.995   0.722  0.00  0.00    -0.080 A 
ATOM      4  C3  UNL d   1      -0.236  -0.026  -0.131  0.00  0.00     0.150 A 
ATOM      5  C4  UNL d   1       0.955  -0.245  -0.815  0.00  0.00    -0.007 A 
ATOM      6  C5  UNL d   1       1.639  -1.448  -0.644  0.00  0.00     0.039 A 
ENDROOT
BRANCH   4   7
ATOM      7  O   UNL d   1      -0.866   1.167  -0.324  0.00  0.00    -0.526 OA
ATOM      8  H5  UNL d   1      -1.661   1.190   0.235  0.00  0.00     0.418 HD
ENDBRANCH   4   7
TORSDOF 1
ENDMDL
