MODEL 1
REMARK minimizedAffinity -5.54477119
REMARK minimizedRMSD -1
REMARK  1 active torsions:
REMARK  status: ('A' for Active; 'I' for Inactive)
REMARK    1  A    between atoms: C3_4  and  O_7 
ROOT
ATOM      1  C   UNL d   1       0.236   0.873  -0.035  0.00  0.00    -0.033 A 
ATOM      2  C1  UNL d   1      -0.012  -0.475  -0.301  0.00  0.00     0.039 A 
ATOM      3  C2  UNL d   1       0.959  -1.436  -0.013  0.00  0.00    -0.080 A 
ATOM      4  C3  UNL d   1       2.172  -1.036   0.541  0.00  0.00     0.150 A 
ATOM      5  C4  UNL d   1       2.425   0.305   0.812  0.00  0.00    -0.007 A 
ATOM      6  C5  UNL d   1       1.454   1.263   0.522  0.00  0.00     0.039 A 
ENDROOT
BRANCH   4   7
ATOM      7  O   UNL d   1       3.153  -1.936   0.835  0.00  0.00    -0.526 OA
ATOM      8  H5  UNL d   1       2.849  -2.820   0.568  0.00  0.00     0.418 HD
ENDBRANCH   4   7
TORSDOF 1
ENDMDL
