MODEL 1
REMARK minimizedAffinity -4.72448349
REMARK minimizedRMSD -1
REMARK  1 active torsions:
REMARK  status: ('A' for Active; 'I' for Inactive)
REMARK    1  A    between atoms: C3_4  and  O_7 
ROOT
ATOM      1  C   UNL d   1       0.982   0.464   0.884  0.00  0.00    -0.033 A 
ATOM      2  C1  UNL d   1       2.035   1.343   1.145  0.00  0.00     0.039 A 
ATOM      3  C2  UNL d   1       3.351   0.875   1.158  0.00  0.00    -0.080 A 
ATOM      4  C3  UNL d   1       3.600  -0.471   0.908  0.00  0.00     0.150 A 
ATOM      5  C4  UNL d   1       2.556  -1.352   0.643  0.00  0.00    -0.007 A 
ATOM      6  C5  UNL d   1       1.243  -0.883   0.631  0.00  0.00     0.039 A 
ENDROOT
BRANCH   4   7
ATOM      7  O   UNL d   1       4.866  -0.975   0.915  0.00  0.00    -0.526 OA
ATOM      8  H5  UNL d   1       5.482  -0.258   1.140  0.00  0.00     0.418 HD
ENDBRANCH   4   7
TORSDOF 1
ENDMDL
