MODEL 1
REMARK minimizedAffinity -4.56289148
REMARK minimizedRMSD -1
REMARK  1 active torsions:
REMARK  status: ('A' for Active; 'I' for Inactive)
REMARK    1  A    between atoms: C3_4  and  O_7 
ROOT
ATOM      1  C   UNL d   1       2.829  -0.683   0.384  0.00  0.00    -0.033 A 
ATOM      2  C1  UNL d   1       1.885  -1.597  -0.089  0.00  0.00     0.039 A 
ATOM      3  C2  UNL d   1       0.547  -1.219  -0.212  0.00  0.00    -0.080 A 
ATOM      4  C3  UNL d   1       0.166   0.073   0.141  0.00  0.00     0.150 A 
ATOM      5  C4  UNL d   1       1.102   0.989   0.610  0.00  0.00    -0.007 A 
ATOM      6  C5  UNL d   1       2.438   0.610   0.732  0.00  0.00     0.039 A 
ENDROOT
BRANCH   4   7
ATOM      7  O   UNL d   1      -1.129   0.486   0.043  0.00  0.00    -0.526 OA
ATOM      8  H5  UNL d   1      -1.668  -0.261  -0.267  0.00  0.00     0.418 HD
ENDBRANCH   4   7
TORSDOF 1
ENDMDL
