MODEL 1
REMARK minimizedAffinity -4.58530331
REMARK minimizedRMSD -1
REMARK  1 active torsions:
REMARK  status: ('A' for Active; 'I' for Inactive)
REMARK    1  A    between atoms: C3_4  and  O_7 
ROOT
ATOM      1  C   UNL d   1      -0.094  -1.531  -0.076  0.00  0.00    -0.033 A 
ATOM      2  C1  UNL d   1       1.140  -2.141   0.156  0.00  0.00     0.039 A 
ATOM      3  C2  UNL d   1       2.253  -1.366   0.487  0.00  0.00    -0.080 A 
ATOM      4  C3  UNL d   1       2.118   0.017   0.584  0.00  0.00     0.150 A 
ATOM      5  C4  UNL d   1       0.890   0.631   0.358  0.00  0.00    -0.007 A 
ATOM      6  C5  UNL d   1      -0.219  -0.146   0.026  0.00  0.00     0.039 A 
ENDROOT
BRANCH   4   7
ATOM      7  O   UNL d   1       3.176   0.816   0.899  0.00  0.00    -0.526 OA
ATOM      8  H5  UNL d   1       3.965   0.256   0.999  0.00  0.00     0.418 HD
ENDBRANCH   4   7
TORSDOF 1
ENDMDL
