MODEL 1
REMARK minimizedAffinity -5.67128515
REMARK minimizedRMSD -1
REMARK  1 active torsions:
REMARK  status: ('A' for Active; 'I' for Inactive)
REMARK    1  A    between atoms: C3_4  and  O_7 
ROOT
ATOM      1  C   UNL d   1       2.464  -0.943   0.660  0.00  0.00    -0.033 A 
ATOM      2  C1  UNL d   1       1.169  -0.855   0.146  0.00  0.00     0.039 A 
ATOM      3  C2  UNL d   1       0.668   0.375  -0.284  0.00  0.00    -0.080 A 
ATOM      4  C3  UNL d   1       1.472   1.508  -0.196  0.00  0.00     0.150 A 
ATOM      5  C4  UNL d   1       2.765   1.428   0.311  0.00  0.00    -0.007 A 
ATOM      6  C5  UNL d   1       3.263   0.198   0.741  0.00  0.00     0.039 A 
ENDROOT
BRANCH   4   7
ATOM      7  O   UNL d   1       1.026   2.732  -0.599  0.00  0.00    -0.526 OA
ATOM      8  H5  UNL d   1       0.106   2.640  -0.900  0.00  0.00     0.418 HD
ENDBRANCH   4   7
TORSDOF 1
ENDMDL
