MODEL 1
REMARK minimizedAffinity -5.04665613
REMARK minimizedRMSD -1
REMARK  1 active torsions:
REMARK  status: ('A' for Active; 'I' for Inactive)
REMARK    1  A    between atoms: C3_4  and  O_7 
ROOT
ATOM      1  C   UNL d   1       2.772  -0.728   0.507  0.00  0.00    -0.033 A 
ATOM      2  C1  UNL d   1       1.823  -1.722   0.258  0.00  0.00     0.039 A 
ATOM      3  C2  UNL d   1       0.484  -1.378   0.062  0.00  0.00    -0.080 A 
ATOM      4  C3  UNL d   1       0.107  -0.039   0.117  0.00  0.00     0.150 A 
ATOM      5  C4  UNL d   1       1.047   0.957   0.361  0.00  0.00    -0.007 A 
ATOM      6  C5  UNL d   1       2.384   0.612   0.557  0.00  0.00     0.039 A 
ENDROOT
BRANCH   4   7
ATOM      7  O   UNL d   1      -1.189   0.344  -0.062  0.00  0.00    -0.526 OA
ATOM      8  H5  UNL d   1      -1.730  -0.452  -0.193  0.00  0.00     0.418 HD
ENDBRANCH   4   7
TORSDOF 1
ENDMDL
