MODEL 1
REMARK minimizedAffinity -4.70049047
REMARK minimizedRMSD -1
REMARK  1 active torsions:
REMARK  status: ('A' for Active; 'I' for Inactive)
REMARK    1  A    between atoms: C3_4  and  O_7 
ROOT
ATOM      1  C   UNL d   1       2.911  -0.545   0.479  0.00  0.00    -0.033 A 
ATOM      2  C1  UNL d   1       2.042  -1.560   0.072  0.00  0.00     0.039 A 
ATOM      3  C2  UNL d   1       0.732  -1.251  -0.301  0.00  0.00    -0.080 A 
ATOM      4  C3  UNL d   1       0.305   0.073  -0.264  0.00  0.00     0.150 A 
ATOM      5  C4  UNL d   1       1.167   1.089   0.136  0.00  0.00    -0.007 A 
ATOM      6  C5  UNL d   1       2.474   0.779   0.510  0.00  0.00     0.039 A 
ENDROOT
BRANCH   4   7
ATOM      7  O   UNL d   1      -0.965   0.423  -0.615  0.00  0.00    -0.526 OA
ATOM      8  H5  UNL d   1      -1.455  -0.385  -0.842  0.00  0.00     0.418 HD
ENDBRANCH   4   7
TORSDOF 1
ENDMDL
