MODEL 1
REMARK minimizedAffinity -5.07654238
REMARK minimizedRMSD -1
REMARK  1 active torsions:
REMARK  status: ('A' for Active; 'I' for Inactive)
REMARK    1  A    between atoms: C3_4  and  O_7 
ROOT
ATOM      1  C   UNL d   1       3.481  -0.550   0.413  0.00  0.00    -0.033 A 
ATOM      2  C1  UNL d   1       3.138   0.798   0.296  0.00  0.00     0.039 A 
ATOM      3  C2  UNL d   1       1.833   1.162  -0.039  0.00  0.00    -0.080 A 
ATOM      4  C3  UNL d   1       0.880   0.169  -0.253  0.00  0.00     0.150 A 
ATOM      5  C4  UNL d   1       1.214  -1.176  -0.134  0.00  0.00    -0.007 A 
ATOM      6  C5  UNL d   1       2.519  -1.537   0.200  0.00  0.00     0.039 A 
ENDROOT
BRANCH   4   7
ATOM      7  O   UNL d   1      -0.405   0.475  -0.587  0.00  0.00    -0.526 OA
ATOM      8  H5  UNL d   1      -0.482   1.441  -0.661  0.00  0.00     0.418 HD
ENDBRANCH   4   7
TORSDOF 1
ENDMDL
