MODEL 1
REMARK minimizedAffinity -5.14507532
REMARK minimizedRMSD -1
REMARK  1 active torsions:
REMARK  status: ('A' for Active; 'I' for Inactive)
REMARK    1  A    between atoms: C3_4  and  O_7 
ROOT
ATOM      1  C   UNL d   1       3.835  -0.273   0.943  0.00  0.00    -0.033 A 
ATOM      2  C1  UNL d   1       3.686   1.020   0.438  0.00  0.00     0.039 A 
ATOM      3  C2  UNL d   1       2.447   1.443  -0.047  0.00  0.00    -0.080 A 
ATOM      4  C3  UNL d   1       1.366   0.565  -0.020  0.00  0.00     0.150 A 
ATOM      5  C4  UNL d   1       1.508  -0.723   0.486  0.00  0.00    -0.007 A 
ATOM      6  C5  UNL d   1       2.746  -1.144   0.969  0.00  0.00     0.039 A 
ENDROOT
BRANCH   4   7
ATOM      7  O   UNL d   1       0.139   0.930  -0.486  0.00  0.00    -0.526 OA
ATOM      8  H5  UNL d   1       0.198   1.837  -0.831  0.00  0.00     0.418 HD
ENDBRANCH   4   7
TORSDOF 1
ENDMDL
