MODEL 1
REMARK minimizedAffinity -2.6570816
REMARK minimizedRMSD -1
REMARK  0 active torsions:
REMARK  status: ('A' for Active; 'I' for Inactive)
ROOT
ATOM      1  C   UNL d   1       0.710   0.306  -1.817  0.00  0.00     0.172 C 
ATOM      2  N   UNL d   1       0.623   0.369  -3.258  0.00  0.00    -0.070 N 
ATOM      3  C1  UNL d   1       1.371   1.181  -4.068  0.00  0.00    -0.004 A 
ATOM      4  C2  UNL d   1       0.991   0.942  -5.371  0.00  0.00    -0.047 A 
ATOM      5  C3  UNL d   1      -0.021  -0.047  -5.343  0.00  0.00    -0.047 A 
ATOM      6  C4  UNL d   1      -0.229  -0.384  -4.022  0.00  0.00    -0.004 A 
ENDROOT
TORSDOF 0
ENDMDL
