MODEL 1
REMARK minimizedAffinity -1.61160016
REMARK minimizedRMSD -1
REMARK  0 active torsions:
REMARK  status: ('A' for Active; 'I' for Inactive)
ROOT
ATOM      1  C   UNL d   1       0.954  -0.307  -1.823  0.00  0.00     0.172 C 
ATOM      2  N   UNL d   1       0.817   0.041  -3.218  0.00  0.00    -0.070 N 
ATOM      3  C1  UNL d   1      -0.141  -0.440  -4.071  0.00  0.00    -0.004 A 
ATOM      4  C2  UNL d   1       0.069   0.133  -5.307  0.00  0.00    -0.047 A 
ATOM      5  C3  UNL d   1       1.192   0.987  -5.193  0.00  0.00    -0.047 A 
ATOM      6  C4  UNL d   1       1.635   0.911  -3.890  0.00  0.00    -0.004 A 
ENDROOT
TORSDOF 0
ENDMDL
