MODEL 1
REMARK minimizedAffinity -2.45773625
REMARK minimizedRMSD -1
REMARK  0 active torsions:
REMARK  status: ('A' for Active; 'I' for Inactive)
ROOT
ATOM      1  C   UNL d   1      -1.143  -0.383  -5.698  0.00  0.00     0.172 C 
ATOM      2  N   UNL d   1      -0.096   0.209  -4.900  0.00  0.00    -0.070 N 
ATOM      3  C1  UNL d   1       1.161   0.526  -5.341  0.00  0.00    -0.004 A 
ATOM      4  C2  UNL d   1       1.856   1.069  -4.281  0.00  0.00    -0.047 A 
ATOM      5  C3  UNL d   1       0.986   1.077  -3.165  0.00  0.00    -0.047 A 
ATOM      6  C4  UNL d   1      -0.215   0.540  -3.576  0.00  0.00    -0.004 A 
ENDROOT
TORSDOF 0
ENDMDL
