MODEL 1
REMARK minimizedAffinity -2.58236909
REMARK minimizedRMSD -1
REMARK  0 active torsions:
REMARK  status: ('A' for Active; 'I' for Inactive)
ROOT
ATOM      1  C   UNL d   1      -0.548   1.637   2.374  0.00  0.00     0.172 C 
ATOM      2  N   UNL d   1       0.162   0.773   1.460  0.00  0.00    -0.070 N 
ATOM      3  C1  UNL d   1       1.270   0.029   1.764  0.00  0.00    -0.004 A 
ATOM      4  C2  UNL d   1       1.643  -0.656   0.628  0.00  0.00    -0.047 A 
ATOM      5  C3  UNL d   1       0.728  -0.311  -0.395  0.00  0.00    -0.047 A 
ATOM      6  C4  UNL d   1      -0.178   0.576   0.148  0.00  0.00    -0.004 A 
ENDROOT
TORSDOF 0
ENDMDL
