MODEL 1
REMARK minimizedAffinity -2.19074774
REMARK minimizedRMSD -1
REMARK  0 active torsions:
REMARK  status: ('A' for Active; 'I' for Inactive)
ROOT
ATOM      1  C   UNL d   1      -0.813   1.567   2.998  0.00  0.00     0.172 C 
ATOM      2  N   UNL d   1      -0.234   0.846   1.888  0.00  0.00    -0.070 N 
ATOM      3  C1  UNL d   1      -0.885   0.497   0.735  0.00  0.00    -0.004 A 
ATOM      4  C2  UNL d   1       0.010  -0.176  -0.068  0.00  0.00    -0.047 A 
ATOM      5  C3  UNL d   1       1.241  -0.234   0.627  0.00  0.00    -0.047 A 
ATOM      6  C4  UNL d   1       1.062   0.406   1.835  0.00  0.00    -0.004 A 
ENDROOT
TORSDOF 0
ENDMDL
