MODEL 1
REMARK minimizedAffinity -1.45421076
REMARK minimizedRMSD -1
REMARK  0 active torsions:
REMARK  status: ('A' for Active; 'I' for Inactive)
ROOT
ATOM      1  C   UNL d   1      -1.862  -0.004   2.298  0.00  0.00     0.172 C 
ATOM      2  N   UNL d   1      -0.510   0.182   1.827  0.00  0.00    -0.070 N 
ATOM      3  C1  UNL d   1       0.362   1.144   2.263  0.00  0.00    -0.004 A 
ATOM      4  C2  UNL d   1       1.543   0.988   1.571  0.00  0.00    -0.047 A 
ATOM      5  C3  UNL d   1       1.376  -0.106   0.689  0.00  0.00    -0.047 A 
ATOM      6  C4  UNL d   1       0.096  -0.586   0.868  0.00  0.00    -0.004 A 
ENDROOT
TORSDOF 0
ENDMDL
