MODEL 1
REMARK minimizedAffinity -1.28278601
REMARK minimizedRMSD -1
REMARK  0 active torsions:
REMARK  status: ('A' for Active; 'I' for Inactive)
ROOT
ATOM      1  C   UNL d   1      -1.089  -0.516  -5.782  0.00  0.00     0.172 C 
ATOM      2  N   UNL d   1      -0.239   0.026  -4.749  0.00  0.00    -0.070 N 
ATOM      3  C1  UNL d   1      -0.590   0.207  -3.438  0.00  0.00    -0.004 A 
ATOM      4  C2  UNL d   1       0.495   0.745  -2.780  0.00  0.00    -0.047 A 
ATOM      5  C3  UNL d   1       1.534   0.893  -3.729  0.00  0.00    -0.047 A 
ATOM      6  C4  UNL d   1       1.053   0.441  -4.939  0.00  0.00    -0.004 A 
ENDROOT
TORSDOF 0
ENDMDL
