MODEL 1
REMARK minimizedAffinity -2.71684957
REMARK minimizedRMSD -1
REMARK  0 active torsions:
REMARK  status: ('A' for Active; 'I' for Inactive)
ROOT
ATOM      1  C   UNL d   1       1.484   1.049  -4.910  0.00  0.00     0.172 C 
ATOM      2  N   UNL d   1       0.345   0.169  -4.793  0.00  0.00    -0.070 N 
ATOM      3  C1  UNL d   1       0.094  -0.677  -3.746  0.00  0.00    -0.004 A 
ATOM      4  C2  UNL d   1      -1.085  -1.340  -4.013  0.00  0.00    -0.047 A 
ATOM      5  C3  UNL d   1      -1.558  -0.876  -5.263  0.00  0.00    -0.047 A 
ATOM      6  C4  UNL d   1      -0.654   0.057  -5.724  0.00  0.00    -0.004 A 
ENDROOT
TORSDOF 0
ENDMDL
