MODEL 1
REMARK minimizedAffinity 4.3800993
REMARK minimizedRMSD -1
REMARK  0 active torsions:
REMARK  status: ('A' for Active; 'I' for Inactive)
ROOT
ATOM      1  C1  BNZ d   1       2.464   1.839   0.624  0.00  0.00     0.000 A 
ATOM      2  C2  BNZ d   1       2.272   2.749   1.630  0.00  0.00     0.000 A 
ATOM      3  C3  BNZ d   1       2.192   2.345   2.933  0.00  0.00     0.000 A 
ATOM      4  C4  BNZ d   1       2.264   1.030   3.226  0.00  0.00     0.000 A 
ATOM      5  C5  BNZ d   1       2.449   0.100   2.222  0.00  0.00     0.000 A 
ATOM      6  C6  BNZ d   1       2.568   0.514   0.915  0.00  0.00     0.000 A 
ENDROOT
TORSDOF 0
ENDMDL
