MODEL 1
REMARK minimizedAffinity -2.61939812
REMARK minimizedRMSD -1
REMARK  0 active torsions:
REMARK  status: ('A' for Active; 'I' for Inactive)
ROOT
ATOM      1  C1  BNZ d   1       0.878   3.445  -0.596  0.00  0.00     0.000 A 
ATOM      2  C2  BNZ d   1       2.159   3.026  -0.838  0.00  0.00     0.000 A 
ATOM      3  C3  BNZ d   1       2.675   1.939  -0.189  0.00  0.00     0.000 A 
ATOM      4  C4  BNZ d   1       1.924   1.298   0.730  0.00  0.00     0.000 A 
ATOM      5  C5  BNZ d   1       0.634   1.714   0.992  0.00  0.00     0.000 A 
ATOM      6  C6  BNZ d   1       0.105   2.784   0.308  0.00  0.00     0.000 A 
ENDROOT
TORSDOF 0
ENDMDL
