MODEL 1
REMARK minimizedAffinity -0.698405862
REMARK minimizedRMSD -1
REMARK  0 active torsions:
REMARK  status: ('A' for Active; 'I' for Inactive)
ROOT
ATOM      1  C1  BNZ d   1       0.243  -2.942  -1.563  0.00  0.00     0.000 A 
ATOM      2  C2  BNZ d   1      -0.876  -2.153  -1.582  0.00  0.00     0.000 A 
ATOM      3  C3  BNZ d   1      -2.124  -2.706  -1.502  0.00  0.00     0.000 A 
ATOM      4  C4  BNZ d   1      -2.252  -4.048  -1.443  0.00  0.00     0.000 A 
ATOM      5  C5  BNZ d   1      -1.133  -4.857  -1.433  0.00  0.00     0.000 A 
ATOM      6  C6  BNZ d   1       0.122  -4.295  -1.474  0.00  0.00     0.000 A 
ENDROOT
TORSDOF 0
ENDMDL
