MODEL 1
REMARK minimizedAffinity 8.2022171
REMARK minimizedRMSD -1
REMARK  0 active torsions:
REMARK  status: ('A' for Active; 'I' for Inactive)
ROOT
ATOM      1  C1  BNZ d   1       2.459   1.104   2.125  0.00  0.00     0.000 A 
ATOM      2  C2  BNZ d   1       2.920  -0.148   1.818  0.00  0.00     0.000 A 
ATOM      3  C3  BNZ d   1       3.382  -0.436   0.564  0.00  0.00     0.000 A 
ATOM      4  C4  BNZ d   1       3.345   0.517  -0.391  0.00  0.00     0.000 A 
ATOM      5  C5  BNZ d   1       2.874   1.781  -0.099  0.00  0.00     0.000 A 
ATOM      6  C6  BNZ d   1       2.446   2.078   1.175  0.00  0.00     0.000 A 
ENDROOT
TORSDOF 0
ENDMDL
