MODEL 1
REMARK minimizedAffinity -0.464576721
REMARK minimizedRMSD -1
REMARK  0 active torsions:
REMARK  status: ('A' for Active; 'I' for Inactive)
ROOT
ATOM      1  C1  BNZ d   1       0.906  -1.177   1.569  0.00  0.00     0.000 A 
ATOM      2  C2  BNZ d   1       0.575   0.007   0.967  0.00  0.00     0.000 A 
ATOM      3  C3  BNZ d   1       1.464   1.045   0.927  0.00  0.00     0.000 A 
ATOM      4  C4  BNZ d   1       2.666   0.911   1.524  0.00  0.00     0.000 A 
ATOM      5  C5  BNZ d   1       3.011  -0.274   2.144  0.00  0.00     0.000 A 
ATOM      6  C6  BNZ d   1       2.128  -1.329   2.148  0.00  0.00     0.000 A 
ENDROOT
TORSDOF 0
ENDMDL
