MODEL 1
REMARK minimizedAffinity 1.29192424
REMARK minimizedRMSD -1
REMARK  0 active torsions:
REMARK  status: ('A' for Active; 'I' for Inactive)
ROOT
ATOM      1  C1  BNZ d   1       2.001   0.002  -0.234  0.00  0.00     0.000 A 
ATOM      2  C2  BNZ d   1       1.915  -1.166   0.476  0.00  0.00     0.000 A 
ATOM      3  C3  BNZ d   1       1.296  -1.201   1.694  0.00  0.00     0.000 A 
ATOM      4  C4  BNZ d   1       0.800  -0.062   2.218  0.00  0.00     0.000 A 
ATOM      5  C5  BNZ d   1       0.887   1.125   1.519  0.00  0.00     0.000 A 
ATOM      6  C6  BNZ d   1       1.476   1.149   0.276  0.00  0.00     0.000 A 
ENDROOT
TORSDOF 0
ENDMDL
