MODEL 1
REMARK minimizedAffinity 1.09370267
REMARK minimizedRMSD -1
REMARK  0 active torsions:
REMARK  status: ('A' for Active; 'I' for Inactive)
ROOT
ATOM      1  C1  BNZ d   1       1.151  -1.998   2.125  0.00  0.00     0.000 A 
ATOM      2  C2  BNZ d   1       1.302  -1.554   0.839  0.00  0.00     0.000 A 
ATOM      3  C3  BNZ d   1       1.526  -0.231   0.577  0.00  0.00     0.000 A 
ATOM      4  C4  BNZ d   1       1.558   0.651   1.597  0.00  0.00     0.000 A 
ATOM      5  C5  BNZ d   1       1.399   0.219   2.899  0.00  0.00     0.000 A 
ATOM      6  C6  BNZ d   1       1.213  -1.118   3.161  0.00  0.00     0.000 A 
ENDROOT
TORSDOF 0
ENDMDL
