MODEL 1
REMARK minimizedAffinity 1.09491181
REMARK minimizedRMSD -1
REMARK  0 active torsions:
REMARK  status: ('A' for Active; 'I' for Inactive)
ROOT
ATOM      1  C1  BNZ d   1       3.974  -2.262  -6.000  0.00  0.00     0.000 A 
ATOM      2  C2  BNZ d   1       3.280  -1.139  -5.633  0.00  0.00     0.000 A 
ATOM      3  C3  BNZ d   1       3.938   0.004  -5.274  0.00  0.00     0.000 A 
ATOM      4  C4  BNZ d   1       5.286   0.011  -5.243  0.00  0.00     0.000 A 
ATOM      5  C5  BNZ d   1       6.000  -1.115  -5.601  0.00  0.00     0.000 A 
ATOM      6  C6  BNZ d   1       5.335  -2.252  -6.000  0.00  0.00     0.000 A 
ENDROOT
TORSDOF 0
ENDMDL
