MODEL 1
REMARK minimizedAffinity -6.04047537
REMARK minimizedRMSD -1
REMARK  0 active torsions:
REMARK  status: ('A' for Active; 'I' for Inactive)
ROOT
ATOM      1  N1  IND d   1       1.680  -0.645   0.970  0.00  0.00    -0.196 N 
ATOM      2  C2  IND d   1       1.548  -1.514  -0.076  0.00  0.00     0.054 A 
ATOM      3  C3  IND d   1       0.274  -1.513  -0.530  0.00  0.00    -0.031 A 
ATOM      4  C4  IND d   1      -1.731  -0.089   0.228  0.00  0.00     0.051 A 
ATOM      5  C5  IND d   1      -2.109   0.822   1.174  0.00  0.00    -0.031 A 
ATOM      6  C6  IND d   1      -1.225   1.303   2.118  0.00  0.00     0.015 A 
ATOM      7  C7  IND d   1       0.080   0.897   2.143  0.00  0.00    -0.016 A 
ATOM      8  C8  IND d   1       0.465  -0.034   1.189  0.00  0.00    -0.047 A 
ATOM      9  C9  IND d   1      -0.439  -0.557   0.255  0.00  0.00    -0.096 A 
ATOM     10  HN1 IND d   1       2.401  -0.503   1.416  0.00  0.00     0.298 HD
ENDROOT
TORSDOF 0
ENDMDL
