MODEL 1
REMARK minimizedAffinity -0.540608764
REMARK minimizedRMSD -1
REMARK  0 active torsions:
REMARK  status: ('A' for Active; 'I' for Inactive)
ROOT
ATOM      1  N1  IND d   1       0.426   1.270  -2.878  0.00  0.00    -0.196 N 
ATOM      2  C2  IND d   1       0.541   0.160  -3.667  0.00  0.00     0.054 A 
ATOM      3  C3  IND d   1       0.692  -0.946  -2.903  0.00  0.00    -0.031 A 
ATOM      4  C4  IND d   1       0.677  -1.178  -0.340  0.00  0.00     0.051 A 
ATOM      5  C5  IND d   1       0.637  -0.438   0.809  0.00  0.00    -0.031 A 
ATOM      6  C6  IND d   1       0.520   0.937   0.787  0.00  0.00     0.015 A 
ATOM      7  C7  IND d   1       0.426   1.625  -0.390  0.00  0.00    -0.016 A 
ATOM      8  C8  IND d   1       0.473   0.877  -1.558  0.00  0.00    -0.047 A 
ATOM      9  C9  IND d   1       0.635  -0.514  -1.543  0.00  0.00    -0.096 A 
ATOM     10  HN1 IND d   1       0.339   2.078  -3.158  0.00  0.00     0.298 HD
ENDROOT
TORSDOF 0
ENDMDL
