MODEL 1
REMARK minimizedAffinity -5.27110815
REMARK minimizedRMSD -1
REMARK  0 active torsions:
REMARK  status: ('A' for Active; 'I' for Inactive)
ROOT
ATOM      1  N1  IND d   1       1.553   1.718  -2.810  0.00  0.00    -0.196 N 
ATOM      2  C2  IND d   1       1.728   0.702  -3.707  0.00  0.00     0.054 A 
ATOM      3  C3  IND d   1       1.310  -0.470  -3.178  0.00  0.00    -0.031 A 
ATOM      4  C4  IND d   1       0.211  -0.934  -0.897  0.00  0.00     0.051 A 
ATOM      5  C5  IND d   1      -0.124  -0.327   0.281  0.00  0.00    -0.031 A 
ATOM      6  C6  IND d   1       0.085   1.021   0.492  0.00  0.00     0.015 A 
ATOM      7  C7  IND d   1       0.628   1.817  -0.476  0.00  0.00    -0.016 A 
ATOM      8  C8  IND d   1       0.976   1.203  -1.670  0.00  0.00    -0.047 A 
ATOM      9  C9  IND d   1       0.806  -0.173  -1.875  0.00  0.00    -0.096 A 
ATOM     10  HN1 IND d   1       1.767   2.542  -2.936  0.00  0.00     0.298 HD
ENDROOT
TORSDOF 0
ENDMDL
