MODEL 1
REMARK minimizedAffinity 0.482441306
REMARK minimizedRMSD -1
REMARK  0 active torsions:
REMARK  status: ('A' for Active; 'I' for Inactive)
ROOT
ATOM      1  N1  IND d   1      -0.622   0.841  -1.910  0.00  0.00    -0.196 N 
ATOM      2  C2  IND d   1       0.720   0.600  -2.020  0.00  0.00     0.054 A 
ATOM      3  C3  IND d   1       1.255   0.353  -0.803  0.00  0.00    -0.031 A 
ATOM      4  C4  IND d   1       0.098   0.192   1.490  0.00  0.00     0.051 A 
ATOM      5  C5  IND d   1      -1.112   0.370   2.102  0.00  0.00    -0.031 A 
ATOM      6  C6  IND d   1      -2.243   0.718   1.392  0.00  0.00     0.015 A 
ATOM      7  C7  IND d   1      -2.209   0.891   0.038  0.00  0.00    -0.016 A 
ATOM      8  C8  IND d   1      -0.981   0.718  -0.586  0.00  0.00    -0.047 A 
ATOM      9  C9  IND d   1       0.179   0.406   0.135  0.00  0.00    -0.096 A 
ATOM     10  HN1 IND d   1      -1.152   1.035  -2.558  0.00  0.00     0.298 HD
ENDROOT
TORSDOF 0
ENDMDL
