MODEL 1
REMARK minimizedAffinity -0.132449344
REMARK minimizedRMSD -1
REMARK  0 active torsions:
REMARK  status: ('A' for Active; 'I' for Inactive)
ROOT
ATOM      1  N1  IND d   1       1.633  -0.861   1.806  0.00  0.00    -0.196 N 
ATOM      2  C2  IND d   1       2.047  -1.344   0.595  0.00  0.00     0.054 A 
ATOM      3  C3  IND d   1       1.135  -1.058  -0.361  0.00  0.00    -0.031 A 
ATOM      4  C4  IND d   1      -1.057   0.280  -0.184  0.00  0.00     0.051 A 
ATOM      5  C5  IND d   1      -1.875   0.891   0.724  0.00  0.00    -0.031 A 
ATOM      6  C6  IND d   1      -1.559   0.953   2.066  0.00  0.00     0.015 A 
ATOM      7  C7  IND d   1      -0.400   0.414   2.550  0.00  0.00    -0.016 A 
ATOM      8  C8  IND d   1       0.430  -0.214   1.632  0.00  0.00    -0.047 A 
ATOM      9  C9  IND d   1       0.093  -0.317   0.276  0.00  0.00    -0.096 A 
ATOM     10  HN1 IND d   1       2.055  -0.947   2.550  0.00  0.00     0.298 HD
ENDROOT
TORSDOF 0
ENDMDL
