MODEL 1
REMARK minimizedAffinity -5.99189091
REMARK minimizedRMSD -1
REMARK  0 active torsions:
REMARK  status: ('A' for Active; 'I' for Inactive)
ROOT
ATOM      1  N1  IND d   1       1.646  -0.548   1.612  0.00  0.00    -0.196 N 
ATOM      2  C2  IND d   1       1.678  -1.175   0.397  0.00  0.00     0.054 A 
ATOM      3  C3  IND d   1       0.508  -0.996  -0.256  0.00  0.00    -0.031 A 
ATOM      4  C4  IND d   1      -1.559   0.374   0.437  0.00  0.00     0.051 A 
ATOM      5  C5  IND d   1      -2.073   1.096   1.477  0.00  0.00    -0.031 A 
ATOM      6  C6  IND d   1      -1.359   1.314   2.637  0.00  0.00     0.015 A 
ATOM      7  C7  IND d   1      -0.093   0.825   2.797  0.00  0.00    -0.016 A 
ATOM      8  C8  IND d   1       0.430   0.085   1.746  0.00  0.00    -0.047 A 
ATOM      9  C9  IND d   1      -0.307  -0.175   0.583  0.00  0.00    -0.096 A 
ATOM     10  HN1 IND d   1       2.279  -0.548   2.194  0.00  0.00     0.298 HD
ENDROOT
TORSDOF 0
ENDMDL
