MODEL 1
REMARK minimizedAffinity -3.42938638
REMARK minimizedRMSD -1
REMARK  0 active torsions:
REMARK  status: ('A' for Active; 'I' for Inactive)
ROOT
ATOM      1  N1  IND d   1       1.480  -0.751   0.929  0.00  0.00    -0.196 N 
ATOM      2  C2  IND d   1       1.312  -1.172  -0.361  0.00  0.00     0.054 A 
ATOM      3  C3  IND d   1       0.153  -0.692  -0.866  0.00  0.00    -0.031 A 
ATOM      4  C4  IND d   1      -1.571   0.886   0.214  0.00  0.00     0.051 A 
ATOM      5  C5  IND d   1      -1.871   1.509   1.393  0.00  0.00    -0.031 A 
ATOM      6  C6  IND d   1      -1.051   1.412   2.498  0.00  0.00     0.015 A 
ATOM      7  C7  IND d   1       0.110   0.693   2.463  0.00  0.00    -0.016 A 
ATOM      8  C8  IND d   1       0.414   0.052   1.270  0.00  0.00    -0.047 A 
ATOM      9  C9  IND d   1      -0.435   0.113   0.158  0.00  0.00    -0.096 A 
ATOM     10  HN1 IND d   1       2.140  -0.955   1.441  0.00  0.00     0.298 HD
ENDROOT
TORSDOF 0
ENDMDL
