MODEL 1
REMARK minimizedAffinity -4.73496914
REMARK minimizedRMSD -1
REMARK  0 active torsions:
REMARK  status: ('A' for Active; 'I' for Inactive)
ROOT
ATOM      1  N1  IND d   1       1.726  -1.256   1.077  0.00  0.00    -0.196 N 
ATOM      2  C2  IND d   1       1.559  -1.980  -0.071  0.00  0.00     0.054 A 
ATOM      3  C3  IND d   1       0.442  -1.581  -0.720  0.00  0.00    -0.031 A 
ATOM      4  C4  IND d   1      -1.205   0.308  -0.133  0.00  0.00     0.051 A 
ATOM      5  C5  IND d   1      -1.490   1.225   0.840  0.00  0.00    -0.031 A 
ATOM      6  C6  IND d   1      -0.700   1.366   1.962  0.00  0.00     0.015 A 
ATOM      7  C7  IND d   1       0.415   0.600   2.149  0.00  0.00    -0.016 A 
ATOM      8  C8  IND d   1       0.704  -0.337   1.167  0.00  0.00    -0.047 A 
ATOM      9  C9  IND d   1      -0.118  -0.514   0.047  0.00  0.00    -0.096 A 
ATOM     10  HN1 IND d   1       2.362  -1.359   1.646  0.00  0.00     0.298 HD
ENDROOT
TORSDOF 0
ENDMDL
