MODEL 1
REMARK minimizedAffinity -4.72714853
REMARK minimizedRMSD -1
REMARK  0 active torsions:
REMARK  status: ('A' for Active; 'I' for Inactive)
ROOT
ATOM      1  N1  IND d   1      -1.694   0.510   2.587  0.00  0.00    -0.196 N 
ATOM      2  C2  IND d   1      -0.935   1.322   3.383  0.00  0.00     0.054 A 
ATOM      3  C3  IND d   1       0.177   1.720   2.725  0.00  0.00    -0.031 A 
ATOM      4  C4  IND d   1       0.903   1.242   0.302  0.00  0.00     0.051 A 
ATOM      5  C5  IND d   1       0.554   0.519  -0.804  0.00  0.00    -0.031 A 
ATOM      6  C6  IND d   1      -0.586  -0.257  -0.839  0.00  0.00     0.015 A 
ATOM      7  C7  IND d   1      -1.430  -0.330   0.233  0.00  0.00    -0.016 A 
ATOM      8  C8  IND d   1      -1.075   0.396   1.361  0.00  0.00    -0.047 A 
ATOM      9  C9  IND d   1       0.103   1.152   1.416  0.00  0.00    -0.096 A 
ATOM     10  HN1 IND d   1      -2.433   0.134   2.813  0.00  0.00     0.298 HD
ENDROOT
TORSDOF 0
ENDMDL
