MODEL 1
REMARK minimizedAffinity 8.06020927
REMARK minimizedRMSD -1
REMARK  0 active torsions:
REMARK  status: ('A' for Active; 'I' for Inactive)
ROOT
ATOM      1  C   UNL d   1       2.504  -5.427   2.370  0.00  0.00     0.078 C 
ATOM      2  C1  UNL d   1       1.942  -4.061   2.629  0.00  0.00    -0.077 A 
ATOM      3  C2  UNL d   1       1.182  -3.398   1.658  0.00  0.00    -0.001 A 
ATOM      4  C3  UNL d   1       0.674  -2.122   1.909  0.00  0.00     0.003 A 
ATOM      5  C4  UNL d   1       0.922  -1.499   3.130  0.00  0.00    -0.005 A 
ATOM      6  C5  UNL d   1       1.679  -2.150   4.102  0.00  0.00     0.003 A 
ATOM      7  C6  UNL d   1       2.188  -3.425   3.852  0.00  0.00    -0.001 A 
ENDROOT
TORSDOF 0
ENDMDL
