MODEL 1
REMARK minimizedAffinity 0.824687123
REMARK minimizedRMSD -1
REMARK  0 active torsions:
REMARK  status: ('A' for Active; 'I' for Inactive)
ROOT
ATOM      1  C   UNL d   1       3.040  -1.929  -3.494  0.00  0.00     0.078 C 
ATOM      2  C1  UNL d   1       3.953  -1.129  -4.374  0.00  0.00    -0.077 A 
ATOM      3  C2  UNL d   1       5.136  -1.683  -4.878  0.00  0.00    -0.001 A 
ATOM      4  C3  UNL d   1       5.982  -0.924  -5.688  0.00  0.00     0.003 A 
ATOM      5  C4  UNL d   1       5.654   0.394  -6.000  0.00  0.00    -0.005 A 
ATOM      6  C5  UNL d   1       4.481   0.955  -5.501  0.00  0.00     0.003 A 
ATOM      7  C6  UNL d   1       3.634   0.197  -4.691  0.00  0.00    -0.001 A 
ENDROOT
TORSDOF 0
ENDMDL
