MODEL 1
REMARK minimizedAffinity 4.33004856
REMARK minimizedRMSD -1
REMARK  0 active torsions:
REMARK  status: ('A' for Active; 'I' for Inactive)
ROOT
ATOM      1  C   UNL d   1       3.734  -1.169  -2.653  0.00  0.00     0.078 C 
ATOM      2  C1  UNL d   1       4.328  -0.428  -3.814  0.00  0.00    -0.077 A 
ATOM      3  C2  UNL d   1       3.775   0.780  -4.256  0.00  0.00    -0.001 A 
ATOM      4  C3  UNL d   1       4.332   1.455  -5.344  0.00  0.00     0.003 A 
ATOM      5  C4  UNL d   1       5.443   0.928  -6.000  0.00  0.00    -0.005 A 
ATOM      6  C5  UNL d   1       5.998  -0.275  -5.568  0.00  0.00     0.003 A 
ATOM      7  C6  UNL d   1       5.443  -0.951  -4.480  0.00  0.00    -0.001 A 
ENDROOT
TORSDOF 0
ENDMDL
