MODEL 1
REMARK minimizedAffinity 7.88283491
REMARK minimizedRMSD -1
REMARK  0 active torsions:
REMARK  status: ('A' for Active; 'I' for Inactive)
ROOT
ATOM      1  C   UNL d   1      -2.586   2.239   0.592  0.00  0.00     0.078 C 
ATOM      2  C1  UNL d   1      -3.038   1.984  -0.814  0.00  0.00    -0.077 A 
ATOM      3  C2  UNL d   1      -2.119   1.659  -1.820  0.00  0.00    -0.001 A 
ATOM      4  C3  UNL d   1      -2.553   1.434  -3.127  0.00  0.00     0.003 A 
ATOM      5  C4  UNL d   1      -3.907   1.531  -3.441  0.00  0.00    -0.005 A 
ATOM      6  C5  UNL d   1      -4.829   1.856  -2.448  0.00  0.00     0.003 A 
ATOM      7  C6  UNL d   1      -4.396   2.082  -1.140  0.00  0.00    -0.001 A 
ENDROOT
TORSDOF 0
ENDMDL
