MODEL 1
REMARK minimizedAffinity 4.52306461
REMARK minimizedRMSD -1
REMARK  0 active torsions:
REMARK  status: ('A' for Active; 'I' for Inactive)
ROOT
ATOM      1  C   UNL d   1       3.568  -0.306  -2.244  0.00  0.00     0.078 C 
ATOM      2  C1  UNL d   1       4.296  -0.238  -3.553  0.00  0.00    -0.077 A 
ATOM      3  C2  UNL d   1       5.322  -1.141  -3.856  0.00  0.00    -0.001 A 
ATOM      4  C3  UNL d   1       5.999  -1.060  -5.074  0.00  0.00     0.003 A 
ATOM      5  C4  UNL d   1       5.657  -0.076  -6.000  0.00  0.00    -0.005 A 
ATOM      6  C5  UNL d   1       4.638   0.829  -5.707  0.00  0.00     0.003 A 
ATOM      7  C6  UNL d   1       3.961   0.749  -4.489  0.00  0.00    -0.001 A 
ENDROOT
TORSDOF 0
ENDMDL
