MODEL 1
REMARK minimizedAffinity 9.74040985
REMARK minimizedRMSD -1
REMARK  0 active torsions:
REMARK  status: ('A' for Active; 'I' for Inactive)
ROOT
ATOM      1  C   UNL d   1      -2.245   1.318   0.569  0.00  0.00     0.078 C 
ATOM      2  C1  UNL d   1      -1.021   0.519   0.904  0.00  0.00    -0.077 A 
ATOM      3  C2  UNL d   1      -1.051  -0.881   0.900  0.00  0.00    -0.001 A 
ATOM      4  C3  UNL d   1       0.093  -1.613   1.223  0.00  0.00     0.003 A 
ATOM      5  C4  UNL d   1       1.275  -0.953   1.555  0.00  0.00    -0.005 A 
ATOM      6  C5  UNL d   1       1.313   0.440   1.564  0.00  0.00     0.003 A 
ATOM      7  C6  UNL d   1       0.170   1.173   1.241  0.00  0.00    -0.001 A 
ENDROOT
TORSDOF 0
ENDMDL
