MODEL 1
REMARK minimizedAffinity 6.91243601
REMARK minimizedRMSD -1
REMARK  0 active torsions:
REMARK  status: ('A' for Active; 'I' for Inactive)
ROOT
ATOM      1  C   UNL d   1       6.000  -1.244  -5.368  0.00  0.00     0.078 C 
ATOM      2  C1  UNL d   1       5.184  -0.009  -5.130  0.00  0.00    -0.077 A 
ATOM      3  C2  UNL d   1       5.261   1.086  -6.000  0.00  0.00    -0.001 A 
ATOM      4  C3  UNL d   1       4.503   2.233  -5.761  0.00  0.00     0.003 A 
ATOM      5  C4  UNL d   1       3.663   2.297  -4.651  0.00  0.00    -0.005 A 
ATOM      6  C5  UNL d   1       3.581   1.214  -3.778  0.00  0.00     0.003 A 
ATOM      7  C6  UNL d   1       4.338   0.066  -4.016  0.00  0.00    -0.001 A 
ENDROOT
TORSDOF 0
ENDMDL
