MODEL 1
REMARK minimizedAffinity -1.61197495
REMARK minimizedRMSD -1
REMARK  0 active torsions:
REMARK  status: ('A' for Active; 'I' for Inactive)
ROOT
ATOM      1  C   UNL d   1       3.001  -2.194  -3.134  0.00  0.00     0.078 C 
ATOM      2  C1  UNL d   1       3.564  -1.220  -4.125  0.00  0.00    -0.077 A 
ATOM      3  C2  UNL d   1       2.934   0.006  -4.370  0.00  0.00    -0.001 A 
ATOM      4  C3  UNL d   1       3.464   0.899  -5.303  0.00  0.00     0.003 A 
ATOM      5  C4  UNL d   1       4.627   0.574  -5.999  0.00  0.00    -0.005 A 
ATOM      6  C5  UNL d   1       5.260  -0.644  -5.764  0.00  0.00     0.003 A 
ATOM      7  C6  UNL d   1       4.731  -1.538  -4.832  0.00  0.00    -0.001 A 
ENDROOT
TORSDOF 0
ENDMDL
