MODEL 1
REMARK minimizedAffinity 10.2815514
REMARK minimizedRMSD -1
REMARK  0 active torsions:
REMARK  status: ('A' for Active; 'I' for Inactive)
ROOT
ATOM      1  C   UNL d   1       1.645  -0.727   1.383  0.00  0.00     0.078 C 
ATOM      2  C1  UNL d   1       2.231  -0.785   0.004  0.00  0.00    -0.077 A 
ATOM      3  C2  UNL d   1       1.414  -0.956  -1.120  0.00  0.00    -0.001 A 
ATOM      4  C3  UNL d   1       1.975  -1.018  -2.397  0.00  0.00     0.003 A 
ATOM      5  C4  UNL d   1       3.355  -0.912  -2.561  0.00  0.00    -0.005 A 
ATOM      6  C5  UNL d   1       4.176  -0.744  -1.448  0.00  0.00     0.003 A 
ATOM      7  C6  UNL d   1       3.617  -0.682  -0.171  0.00  0.00    -0.001 A 
ENDROOT
TORSDOF 0
ENDMDL
