MODEL 1
REMARK minimizedAffinity -0.996385992
REMARK minimizedRMSD -1
REMARK  0 active torsions:
REMARK  status: ('A' for Active; 'I' for Inactive)
ROOT
ATOM      1  C   UNL d   1       4.975  -2.593   3.767  0.00  0.00     0.078 C 
ATOM      2  C1  UNL d   1       3.554  -2.287   3.396  0.00  0.00    -0.077 A 
ATOM      3  C2  UNL d   1       2.492  -2.693   4.212  0.00  0.00    -0.001 A 
ATOM      4  C3  UNL d   1       1.174  -2.409   3.849  0.00  0.00     0.003 A 
ATOM      5  C4  UNL d   1       0.907  -1.720   2.667  0.00  0.00    -0.005 A 
ATOM      6  C5  UNL d   1       1.958  -1.314   1.847  0.00  0.00     0.003 A 
ATOM      7  C6  UNL d   1       3.276  -1.597   2.209  0.00  0.00    -0.001 A 
ENDROOT
TORSDOF 0
ENDMDL
