MODEL 1
REMARK minimizedAffinity -2.35981011
REMARK minimizedRMSD -1
REMARK  0 active torsions:
REMARK  status: ('A' for Active; 'I' for Inactive)
ROOT
ATOM      1  C   UNL d   1       4.756  -3.590   4.056  0.00  0.00     0.078 C 
ATOM      2  C1  UNL d   1       3.769  -2.800   3.249  0.00  0.00    -0.077 A 
ATOM      3  C2  UNL d   1       2.414  -2.767   3.599  0.00  0.00    -0.001 A 
ATOM      4  C3  UNL d   1       1.505  -2.035   2.833  0.00  0.00     0.003 A 
ATOM      5  C4  UNL d   1       1.941  -1.332   1.712  0.00  0.00    -0.005 A 
ATOM      6  C5  UNL d   1       3.288  -1.361   1.354  0.00  0.00     0.003 A 
ATOM      7  C6  UNL d   1       4.198  -2.092   2.119  0.00  0.00    -0.001 A 
ENDROOT
TORSDOF 0
ENDMDL
