MODEL 1
REMARK minimizedAffinity 7.74338961
REMARK minimizedRMSD -1
REMARK  0 active torsions:
REMARK  status: ('A' for Active; 'I' for Inactive)
ROOT
ATOM      1  C   UNL d   1       2.372  -2.643   3.001  0.00  0.00     0.078 C 
ATOM      2  C1  UNL d   1       3.630  -3.264   3.531  0.00  0.00    -0.077 A 
ATOM      3  C2  UNL d   1       3.644  -3.921   4.767  0.00  0.00    -0.001 A 
ATOM      4  C3  UNL d   1       4.824  -4.486   5.253  0.00  0.00     0.003 A 
ATOM      5  C4  UNL d   1       6.000  -4.398   4.510  0.00  0.00    -0.005 A 
ATOM      6  C5  UNL d   1       5.996  -3.743   3.279  0.00  0.00     0.003 A 
ATOM      7  C6  UNL d   1       4.817  -3.178   2.792  0.00  0.00    -0.001 A 
ENDROOT
TORSDOF 0
ENDMDL
