MODEL 1
REMARK minimizedAffinity -1.77778137
REMARK minimizedRMSD -1
REMARK  0 active torsions:
REMARK  status: ('A' for Active; 'I' for Inactive)
ROOT
ATOM      1  C   UNL d   1       3.294  -1.459  -3.308  0.00  0.00     0.078 C 
ATOM      2  C1  UNL d   1       4.103  -0.607  -4.239  0.00  0.00    -0.077 A 
ATOM      3  C2  UNL d   1       3.735   0.717  -4.507  0.00  0.00    -0.001 A 
ATOM      4  C3  UNL d   1       4.492   1.497  -5.384  0.00  0.00     0.003 A 
ATOM      5  C4  UNL d   1       5.621   0.960  -6.000  0.00  0.00    -0.005 A 
ATOM      6  C5  UNL d   1       5.993  -0.357  -5.741  0.00  0.00     0.003 A 
ATOM      7  C6  UNL d   1       5.238  -1.138  -4.865  0.00  0.00    -0.001 A 
ENDROOT
TORSDOF 0
ENDMDL
