MODEL 1
REMARK minimizedAffinity 12.9576454
REMARK minimizedRMSD -1
REMARK  0 active torsions:
REMARK  status: ('A' for Active; 'I' for Inactive)
ROOT
ATOM      1  C   UNL d   1      -2.922   1.974  -0.036  0.00  0.00     0.078 C 
ATOM      2  C1  UNL d   1      -3.748   2.186  -1.270  0.00  0.00    -0.077 A 
ATOM      3  C2  UNL d   1      -5.038   2.725  -1.191  0.00  0.00    -0.001 A 
ATOM      4  C3  UNL d   1      -5.799   2.908  -2.346  0.00  0.00     0.003 A 
ATOM      5  C4  UNL d   1      -5.279   2.553  -3.590  0.00  0.00    -0.005 A 
ATOM      6  C5  UNL d   1      -3.997   2.014  -3.678  0.00  0.00     0.003 A 
ATOM      7  C6  UNL d   1      -3.235   1.831  -2.524  0.00  0.00    -0.001 A 
ENDROOT
TORSDOF 0
ENDMDL
