MODEL 1
REMARK minimizedAffinity 16.6620941
REMARK minimizedRMSD -1
REMARK  0 active torsions:
REMARK  status: ('A' for Active; 'I' for Inactive)
ROOT
ATOM      1  C   UNL d   1       2.796  -1.480  -0.997  0.00  0.00     0.078 C 
ATOM      2  C1  UNL d   1       2.210  -1.223   0.360  0.00  0.00    -0.077 A 
ATOM      3  C2  UNL d   1       1.957   0.081   0.801  0.00  0.00    -0.001 A 
ATOM      4  C3  UNL d   1       1.421   0.306   2.070  0.00  0.00     0.003 A 
ATOM      5  C4  UNL d   1       1.134  -0.770   2.908  0.00  0.00    -0.005 A 
ATOM      6  C5  UNL d   1       1.385  -2.071   2.479  0.00  0.00     0.003 A 
ATOM      7  C6  UNL d   1       1.921  -2.297   1.210  0.00  0.00    -0.001 A 
ENDROOT
TORSDOF 0
ENDMDL
