MODEL 1
REMARK minimizedAffinity -3.89265823
REMARK minimizedRMSD -1
REMARK  0 active torsions:
REMARK  status: ('A' for Active; 'I' for Inactive)
ROOT
ATOM      1  C   UNL d   1      -0.650   3.217   0.671  0.00  0.00     0.172 C 
ATOM      2  N   UNL d   1      -1.601   3.999  -0.083  0.00  0.00    -0.070 N 
ATOM      3  C1  UNL d   1      -1.896   5.319   0.128  0.00  0.00    -0.004 A 
ATOM      4  C2  UNL d   1      -2.848   5.692  -0.797  0.00  0.00    -0.047 A 
ATOM      5  C3  UNL d   1      -3.136   4.556  -1.590  0.00  0.00    -0.047 A 
ATOM      6  C4  UNL d   1      -2.350   3.522  -1.127  0.00  0.00    -0.004 A 
ENDROOT
TORSDOF 0
ENDMDL
