MODEL 1
REMARK minimizedAffinity -3.62656665
REMARK minimizedRMSD -1
REMARK  0 active torsions:
REMARK  status: ('A' for Active; 'I' for Inactive)
ROOT
ATOM      1  C   UNL d   1      -0.817   5.037   1.753  0.00  0.00     0.172 C 
ATOM      2  N   UNL d   1       0.515   4.975   1.198  0.00  0.00    -0.070 N 
ATOM      3  C1  UNL d   1       0.865   4.349   0.032  0.00  0.00    -0.004 A 
ATOM      4  C2  UNL d   1       2.221   4.518  -0.146  0.00  0.00    -0.047 A 
ATOM      5  C3  UNL d   1       2.702   5.271   0.951  0.00  0.00    -0.047 A 
ATOM      6  C4  UNL d   1       1.625   5.540   1.768  0.00  0.00    -0.004 A 
ENDROOT
TORSDOF 0
ENDMDL
