MODEL 1
REMARK minimizedAffinity -2.38695717
REMARK minimizedRMSD -1
REMARK  0 active torsions:
REMARK  status: ('A' for Active; 'I' for Inactive)
ROOT
ATOM      1  C   UNL d   1       1.345   3.041   0.183  0.00  0.00     0.172 C 
ATOM      2  N   UNL d   1       0.697   1.759   0.041  0.00  0.00    -0.070 N 
ATOM      3  C1  UNL d   1       0.760   0.728   0.941  0.00  0.00    -0.004 A 
ATOM      4  C2  UNL d   1       0.011  -0.315   0.442  0.00  0.00    -0.047 A 
ATOM      5  C3  UNL d   1      -0.520   0.102  -0.802  0.00  0.00    -0.047 A 
ATOM      6  C4  UNL d   1      -0.080   1.390  -1.025  0.00  0.00    -0.004 A 
ENDROOT
TORSDOF 0
ENDMDL
