MODEL 1
REMARK minimizedAffinity -3.14189005
REMARK minimizedRMSD -1
REMARK  0 active torsions:
REMARK  status: ('A' for Active; 'I' for Inactive)
ROOT
ATOM      1  C   UNL d   1       1.015   3.100  -0.466  0.00  0.00     0.172 C 
ATOM      2  N   UNL d   1       0.279   1.918  -0.083  0.00  0.00    -0.070 N 
ATOM      3  C1  UNL d   1       0.792   0.652   0.002  0.00  0.00    -0.004 A 
ATOM      4  C2  UNL d   1      -0.225  -0.189   0.399  0.00  0.00    -0.047 A 
ATOM      5  C3  UNL d   1      -1.390   0.599   0.556  0.00  0.00    -0.047 A 
ATOM      6  C4  UNL d   1      -1.049   1.900   0.251  0.00  0.00    -0.004 A 
ENDROOT
TORSDOF 0
ENDMDL
