MODEL 1
REMARK minimizedAffinity -3.45946789
REMARK minimizedRMSD -1
REMARK  0 active torsions:
REMARK  status: ('A' for Active; 'I' for Inactive)
ROOT
ATOM      1  C   UNL d   1      -0.148  -0.636  -0.715  0.00  0.00     0.172 C 
ATOM      2  N   UNL d   1      -0.553   0.748  -0.632  0.00  0.00    -0.070 N 
ATOM      3  C1  UNL d   1       0.018   1.789  -1.313  0.00  0.00    -0.004 A 
ATOM      4  C2  UNL d   1      -0.652   2.941  -0.962  0.00  0.00    -0.047 A 
ATOM      5  C3  UNL d   1      -1.660   2.579  -0.037  0.00  0.00    -0.047 A 
ATOM      6  C4  UNL d   1      -1.577   1.216   0.149  0.00  0.00    -0.004 A 
ENDROOT
TORSDOF 0
ENDMDL
