MODEL 1
REMARK minimizedAffinity -1.55617785
REMARK minimizedRMSD -1
REMARK  0 active torsions:
REMARK  status: ('A' for Active; 'I' for Inactive)
ROOT
ATOM      1  C   UNL d   1      -1.273   4.458   2.156  0.00  0.00     0.172 C 
ATOM      2  N   UNL d   1       0.079   4.241   1.698  0.00  0.00    -0.070 N 
ATOM      3  C1  UNL d   1       1.203   4.821   2.223  0.00  0.00    -0.004 A 
ATOM      4  C2  UNL d   1       2.289   4.358   1.512  0.00  0.00    -0.047 A 
ATOM      5  C3  UNL d   1       1.800   3.469   0.524  0.00  0.00    -0.047 A 
ATOM      6  C4  UNL d   1       0.430   3.415   0.662  0.00  0.00    -0.004 A 
ENDROOT
TORSDOF 0
ENDMDL
