MODEL 1
REMARK minimizedAffinity -3.78756785
REMARK minimizedRMSD -1
REMARK  0 active torsions:
REMARK  status: ('A' for Active; 'I' for Inactive)
ROOT
ATOM      1  C   UNL d   1       2.540   3.778   0.963  0.00  0.00     0.172 C 
ATOM      2  N   UNL d   1       1.146   4.121   1.118  0.00  0.00    -0.070 N 
ATOM      3  C1  UNL d   1       0.642   5.031   2.009  0.00  0.00    -0.004 A 
ATOM      4  C2  UNL d   1      -0.725   5.069   1.845  0.00  0.00    -0.047 A 
ATOM      5  C3  UNL d   1      -1.055   4.151   0.820  0.00  0.00    -0.047 A 
ATOM      6  C4  UNL d   1       0.122   3.577   0.388  0.00  0.00    -0.004 A 
ENDROOT
TORSDOF 0
ENDMDL
