MODEL 1
REMARK minimizedAffinity -3.01899004
REMARK minimizedRMSD -1
REMARK  0 active torsions:
REMARK  status: ('A' for Active; 'I' for Inactive)
ROOT
ATOM      1  C   UNL d   1      -1.169   1.973  -0.038  0.00  0.00     0.172 C 
ATOM      2  N   UNL d   1      -0.676   0.657  -0.367  0.00  0.00    -0.070 N 
ATOM      3  C1  UNL d   1      -0.112   0.290  -1.560  0.00  0.00    -0.004 A 
ATOM      4  C2  UNL d   1       0.226  -1.043  -1.475  0.00  0.00    -0.047 A 
ATOM      5  C3  UNL d   1      -0.148  -1.494  -0.187  0.00  0.00    -0.047 A 
ATOM      6  C4  UNL d   1      -0.704  -0.421   0.478  0.00  0.00    -0.004 A 
ENDROOT
TORSDOF 0
ENDMDL
