MODEL 1
REMARK minimizedAffinity -2.58341503
REMARK minimizedRMSD -1
REMARK  0 active torsions:
REMARK  status: ('A' for Active; 'I' for Inactive)
ROOT
ATOM      1  C   UNL d   1      -1.885   1.892   0.160  0.00  0.00     0.172 C 
ATOM      2  N   UNL d   1      -0.998   0.964  -0.501  0.00  0.00    -0.070 N 
ATOM      3  C1  UNL d   1      -0.398   1.161  -1.715  0.00  0.00    -0.004 A 
ATOM      4  C2  UNL d   1       0.367   0.048  -1.993  0.00  0.00    -0.047 A 
ATOM      5  C3  UNL d   1       0.220  -0.849  -0.909  0.00  0.00    -0.047 A 
ATOM      6  C4  UNL d   1      -0.631  -0.257   0.001  0.00  0.00    -0.004 A 
ENDROOT
TORSDOF 0
ENDMDL
