MODEL 1
REMARK minimizedAffinity -1.59065449
REMARK minimizedRMSD -1
REMARK  0 active torsions:
REMARK  status: ('A' for Active; 'I' for Inactive)
ROOT
ATOM      1  C   UNL d   1      -0.946   2.469   0.253  0.00  0.00     0.172 C 
ATOM      2  N   UNL d   1      -0.626   1.137  -0.203  0.00  0.00    -0.070 N 
ATOM      3  C1  UNL d   1      -0.273   0.794  -1.481  0.00  0.00    -0.004 A 
ATOM      4  C2  UNL d   1      -0.048  -0.565  -1.506  0.00  0.00    -0.047 A 
ATOM      5  C3  UNL d   1      -0.274  -1.056  -0.198  0.00  0.00    -0.047 A 
ATOM      6  C4  UNL d   1      -0.630   0.019   0.588  0.00  0.00    -0.004 A 
ENDROOT
TORSDOF 0
ENDMDL
