MODEL 1
REMARK minimizedAffinity -3.01037264
REMARK minimizedRMSD -1
REMARK  0 active torsions:
REMARK  status: ('A' for Active; 'I' for Inactive)
ROOT
ATOM      1  C   UNL d   1       0.407  -0.964  -2.196  0.00  0.00     0.172 C 
ATOM      2  N   UNL d   1      -0.193  -0.266  -1.084  0.00  0.00    -0.070 N 
ATOM      3  C1  UNL d   1      -0.427   1.082  -1.019  0.00  0.00    -0.004 A 
ATOM      4  C2  UNL d   1      -1.010   1.351   0.200  0.00  0.00    -0.047 A 
ATOM      5  C3  UNL d   1      -1.130   0.123   0.893  0.00  0.00    -0.047 A 
ATOM      6  C4  UNL d   1      -0.617  -0.862   0.075  0.00  0.00    -0.004 A 
ENDROOT
TORSDOF 0
ENDMDL
