MODEL 1
REMARK minimizedAffinity -3.4508996
REMARK minimizedRMSD -1
REMARK  0 active torsions:
REMARK  status: ('A' for Active; 'I' for Inactive)
ROOT
ATOM      1  C   UNL d   1      -0.940  -2.397   0.154  0.00  0.00     0.172 C 
ATOM      2  N   UNL d   1      -0.818  -0.991  -0.155  0.00  0.00    -0.070 N 
ATOM      3  C1  UNL d   1      -0.200  -0.468  -1.259  0.00  0.00    -0.004 A 
ATOM      4  C2  UNL d   1      -0.300   0.905  -1.187  0.00  0.00    -0.047 A 
ATOM      5  C3  UNL d   1      -1.001   1.217   0.002  0.00  0.00    -0.047 A 
ATOM      6  C4  UNL d   1      -1.310   0.025   0.622  0.00  0.00    -0.004 A 
ENDROOT
TORSDOF 0
ENDMDL
