MODEL 1
REMARK minimizedAffinity -3.46584916
REMARK minimizedRMSD -1
REMARK  0 active torsions:
REMARK  status: ('A' for Active; 'I' for Inactive)
ROOT
ATOM      1  C   UNL d   1       0.185   1.434  -1.735  0.00  0.00     0.172 C 
ATOM      2  N   UNL d   1      -0.468   0.581  -0.770  0.00  0.00    -0.070 N 
ATOM      3  C1  UNL d   1      -0.289  -0.772  -0.650  0.00  0.00    -0.004 A 
ATOM      4  C2  UNL d   1      -1.085  -1.213   0.384  0.00  0.00    -0.047 A 
ATOM      5  C3  UNL d   1      -1.767  -0.087   0.904  0.00  0.00    -0.047 A 
ATOM      6  C4  UNL d   1      -1.366   1.010   0.171  0.00  0.00    -0.004 A 
ENDROOT
TORSDOF 0
ENDMDL
