MODEL 1
REMARK minimizedAffinity -2.04400873
REMARK minimizedRMSD -1
REMARK  0 active torsions:
REMARK  status: ('A' for Active; 'I' for Inactive)
ROOT
ATOM      1  C   UNL d   1      -1.308   2.237  -0.059  0.00  0.00     0.172 C 
ATOM      2  N   UNL d   1      -0.739   0.920  -0.222  0.00  0.00    -0.070 N 
ATOM      3  C1  UNL d   1       0.008   0.500  -1.290  0.00  0.00    -0.004 A 
ATOM      4  C2  UNL d   1       0.362  -0.813  -1.068  0.00  0.00    -0.047 A 
ATOM      5  C3  UNL d   1      -0.192  -1.196   0.176  0.00  0.00    -0.047 A 
ATOM      6  C4  UNL d   1      -0.869  -0.104   0.678  0.00  0.00    -0.004 A 
ENDROOT
TORSDOF 0
ENDMDL
