MODEL 1
REMARK minimizedAffinity -3.66022372
REMARK minimizedRMSD -1
REMARK  0 active torsions:
REMARK  status: ('A' for Active; 'I' for Inactive)
ROOT
ATOM      1  C   UNL d   1       2.425   3.843   0.815  0.00  0.00     0.172 C 
ATOM      2  N   UNL d   1       1.035   4.124   1.089  0.00  0.00    -0.070 N 
ATOM      3  C1  UNL d   1      -0.032   3.634   0.384  0.00  0.00    -0.004 A 
ATOM      4  C2  UNL d   1      -1.182   4.133   0.958  0.00  0.00    -0.047 A 
ATOM      5  C3  UNL d   1      -0.792   4.952   2.044  0.00  0.00    -0.047 A 
ATOM      6  C4  UNL d   1       0.586   4.928   2.102  0.00  0.00    -0.004 A 
ENDROOT
TORSDOF 0
ENDMDL
