MODEL 1
REMARK minimizedAffinity -2.08332753
REMARK minimizedRMSD -1
REMARK  0 active torsions:
REMARK  status: ('A' for Active; 'I' for Inactive)
ROOT
ATOM      1  C   UNL d   1      -1.096  -1.438   1.016  0.00  0.00     0.172 C 
ATOM      2  N   UNL d   1      -0.758  -0.594  -0.106  0.00  0.00    -0.070 N 
ATOM      3  C1  UNL d   1      -0.952   0.760  -0.174  0.00  0.00    -0.004 A 
ATOM      4  C2  UNL d   1      -0.500   1.190  -1.403  0.00  0.00    -0.047 A 
ATOM      5  C3  UNL d   1      -0.019   0.055  -2.098  0.00  0.00    -0.047 A 
ATOM      6  C4  UNL d   1      -0.191  -1.036  -1.272  0.00  0.00    -0.004 A 
ENDROOT
TORSDOF 0
ENDMDL
