MODEL 1
REMARK minimizedAffinity -2.90694809
REMARK minimizedRMSD -1
REMARK  0 active torsions:
REMARK  status: ('A' for Active; 'I' for Inactive)
ROOT
ATOM      1  C   UNL d   1      -0.950  -2.264   0.386  0.00  0.00     0.172 C 
ATOM      2  N   UNL d   1      -0.875  -0.826   0.494  0.00  0.00    -0.070 N 
ATOM      3  C1  UNL d   1      -1.875  -0.005   0.943  0.00  0.00    -0.004 A 
ATOM      4  C2  UNL d   1      -1.411   1.292   0.893  0.00  0.00    -0.047 A 
ATOM      5  C3  UNL d   1      -0.086   1.249   0.397  0.00  0.00    -0.047 A 
ATOM      6  C4  UNL d   1       0.220  -0.074   0.158  0.00  0.00    -0.004 A 
ENDROOT
TORSDOF 0
ENDMDL
