MODEL 1
REMARK minimizedAffinity -2.21544528
REMARK minimizedRMSD -1
REMARK  0 active torsions:
REMARK  status: ('A' for Active; 'I' for Inactive)
ROOT
ATOM      1  C   UNL d   1      -0.092  -0.599   1.511  0.00  0.00     0.172 C 
ATOM      2  N   UNL d   1      -0.043   0.448   0.517  0.00  0.00    -0.070 N 
ATOM      3  C1  UNL d   1       0.377   1.734   0.732  0.00  0.00    -0.004 A 
ATOM      4  C2  UNL d   1       0.272   2.416  -0.461  0.00  0.00    -0.047 A 
ATOM      5  C3  UNL d   1      -0.229   1.510  -1.425  0.00  0.00    -0.047 A 
ATOM      6  C4  UNL d   1      -0.416   0.299  -0.793  0.00  0.00    -0.004 A 
ENDROOT
TORSDOF 0
ENDMDL
