MODEL 1
REMARK minimizedAffinity 9.57859612
REMARK minimizedRMSD -1
REMARK  2 active torsions:
REMARK  status: ('A' for Active; 'I' for Inactive)
REMARK    1  A    between atoms: C1_2  and  C2_3 
REMARK    2  A    between atoms: C2_3  and  C3_4 
ROOT
ATOM      1  C3  UNL d   1       5.284   4.851  -1.523  0.00  0.00    -0.075 A 
ATOM      2  C4  UNL d   1       5.999   3.995  -0.673  0.00  0.00     0.002 A 
ATOM      3  C5  UNL d   1       5.906   4.134   0.713  0.00  0.00     0.002 A 
ATOM      4  C6  UNL d   1       5.107   5.133   1.264  0.00  0.00    -0.004 A 
ATOM      5  C7  UNL d   1       4.405   5.999   0.428  0.00  0.00     0.002 A 
ATOM      6  C8  UNL d   1       4.493   5.860  -0.959  0.00  0.00     0.002 A 
ENDROOT
BRANCH   1   7
ATOM      7  C2  UNL d   1       5.357   4.687  -3.023  0.00  0.00     0.056 C 
BRANCH   7   8
ATOM      8  C1  UNL d   1       4.290   3.753  -3.601  0.00  0.00     0.007 C 
ATOM      9  C   UNL d   1       4.530   3.398  -5.063  0.00  0.00     0.009 C 
ENDBRANCH   7   8
ENDBRANCH   1   7
TORSDOF 2
ENDMDL
