MODEL 1
REMARK minimizedAffinity 9.89385033
REMARK minimizedRMSD -1
REMARK  2 active torsions:
REMARK  status: ('A' for Active; 'I' for Inactive)
REMARK    1  A    between atoms: C1_2  and  C2_3 
REMARK    2  A    between atoms: C2_3  and  C3_4 
ROOT
ATOM      1  C3  UNL d   1       0.251   5.239  -2.995  0.00  0.00    -0.075 A 
ATOM      2  C4  UNL d   1      -0.368   5.797  -1.867  0.00  0.00     0.002 A 
ATOM      3  C5  UNL d   1      -1.748   5.999  -1.843  0.00  0.00     0.002 A 
ATOM      4  C6  UNL d   1      -2.524   5.658  -2.948  0.00  0.00    -0.004 A 
ATOM      5  C7  UNL d   1      -1.918   5.119  -4.081  0.00  0.00     0.002 A 
ATOM      6  C8  UNL d   1      -0.538   4.911  -4.106  0.00  0.00     0.002 A 
ENDROOT
BRANCH   1   7
ATOM      7  C2  UNL d   1       1.740   4.990  -3.016  0.00  0.00     0.056 C 
BRANCH   7   8
ATOM      8  C1  UNL d   1       2.128   3.561  -3.407  0.00  0.00     0.007 C 
ATOM      9  C   UNL d   1       1.835   2.539  -2.316  0.00  0.00     0.009 C 
ENDBRANCH   7   8
ENDBRANCH   1   7
TORSDOF 2
ENDMDL
