MODEL 1
REMARK minimizedAffinity 14.1400089
REMARK minimizedRMSD -1
REMARK  2 active torsions:
REMARK  status: ('A' for Active; 'I' for Inactive)
REMARK    1  A    between atoms: C1_2  and  C2_3 
REMARK    2  A    between atoms: C2_3  and  C3_4 
ROOT
ATOM      1  C3  UNL d   1       3.423   4.088  -2.582  0.00  0.00    -0.075 A 
ATOM      2  C4  UNL d   1       4.545   4.647  -1.953  0.00  0.00     0.002 A 
ATOM      3  C5  UNL d   1       5.809   4.540  -2.534  0.00  0.00     0.002 A 
ATOM      4  C6  UNL d   1       5.969   3.865  -3.742  0.00  0.00    -0.004 A 
ATOM      5  C7  UNL d   1       4.864   3.290  -4.366  0.00  0.00     0.002 A 
ATOM      6  C8  UNL d   1       3.598   3.400  -3.790  0.00  0.00     0.002 A 
ENDROOT
BRANCH   1   7
ATOM      7  C2  UNL d   1       2.048   4.226  -1.973  0.00  0.00     0.056 C 
BRANCH   7   8
ATOM      8  C1  UNL d   1       1.544   5.671  -1.892  0.00  0.00     0.007 C 
ATOM      9  C   UNL d   1       0.038   5.771  -1.690  0.00  0.00     0.009 C 
ENDBRANCH   7   8
ENDBRANCH   1   7
TORSDOF 2
ENDMDL
