MODEL 1
REMARK minimizedAffinity 10.391551
REMARK minimizedRMSD -1
REMARK  2 active torsions:
REMARK  status: ('A' for Active; 'I' for Inactive)
REMARK    1  A    between atoms: C1_2  and  C2_3 
REMARK    2  A    between atoms: C2_3  and  C3_4 
ROOT
ATOM      1  C3  UNL d   1       0.533   3.509  -3.015  0.00  0.00    -0.075 A 
ATOM      2  C4  UNL d   1       0.318   2.629  -1.944  0.00  0.00     0.002 A 
ATOM      3  C5  UNL d   1       1.352   1.820  -1.474  0.00  0.00     0.002 A 
ATOM      4  C6  UNL d   1       2.609   1.873  -2.072  0.00  0.00    -0.004 A 
ATOM      5  C7  UNL d   1       2.829   2.732  -3.147  0.00  0.00     0.002 A 
ATOM      6  C8  UNL d   1       1.797   3.545  -3.617  0.00  0.00     0.002 A 
ENDROOT
BRANCH   1   7
ATOM      7  C2  UNL d   1      -0.575   4.408  -3.510  0.00  0.00     0.056 C 
BRANCH   7   8
ATOM      8  C1  UNL d   1      -1.416   3.800  -4.637  0.00  0.00     0.007 C 
ATOM      9  C   UNL d   1      -1.656   4.761  -5.793  0.00  0.00     0.009 C 
ENDBRANCH   7   8
ENDBRANCH   1   7
TORSDOF 2
ENDMDL
