MODEL 1
REMARK minimizedAffinity 4.97123575
REMARK minimizedRMSD -1
REMARK  2 active torsions:
REMARK  status: ('A' for Active; 'I' for Inactive)
REMARK    1  A    between atoms: C1_2  and  C2_3 
REMARK    2  A    between atoms: C2_3  and  C3_4 
ROOT
ATOM      1  C3  UNL d   1      -3.995  -0.259   0.963  0.00  0.00    -0.075 A 
ATOM      2  C4  UNL d   1      -2.634  -0.163   1.288  0.00  0.00     0.002 A 
ATOM      3  C5  UNL d   1      -2.118  -0.849   2.388  0.00  0.00     0.002 A 
ATOM      4  C6  UNL d   1      -2.957  -1.630   3.181  0.00  0.00    -0.004 A 
ATOM      5  C7  UNL d   1      -4.313  -1.719   2.877  0.00  0.00     0.002 A 
ATOM      6  C8  UNL d   1      -4.831  -1.037   1.775  0.00  0.00     0.002 A 
ENDROOT
BRANCH   1   7
ATOM      7  C2  UNL d   1      -4.553   0.457  -0.243  0.00  0.00     0.056 C 
BRANCH   7   8
ATOM      8  C1  UNL d   1      -4.423  -0.330  -1.552  0.00  0.00     0.007 C 
ATOM      9  C   UNL d   1      -5.596  -0.116  -2.499  0.00  0.00     0.009 C 
ENDBRANCH   7   8
ENDBRANCH   1   7
TORSDOF 2
ENDMDL
