MODEL 1
REMARK minimizedAffinity 5.97262621
REMARK minimizedRMSD -1
REMARK  2 active torsions:
REMARK  status: ('A' for Active; 'I' for Inactive)
REMARK    1  A    between atoms: C1_2  and  C2_3 
REMARK    2  A    between atoms: C2_3  and  C3_4 
ROOT
ATOM      1  C3  UNL d   1       3.175   3.304  -3.083  0.00  0.00    -0.075 A 
ATOM      2  C4  UNL d   1       3.349   3.143  -4.465  0.00  0.00     0.002 A 
ATOM      3  C5  UNL d   1       4.408   3.770  -5.123  0.00  0.00     0.002 A 
ATOM      4  C6  UNL d   1       5.298   4.572  -4.411  0.00  0.00    -0.004 A 
ATOM      5  C7  UNL d   1       5.124   4.752  -3.041  0.00  0.00     0.002 A 
ATOM      6  C8  UNL d   1       4.069   4.123  -2.379  0.00  0.00     0.002 A 
ENDROOT
BRANCH   1   7
ATOM      7  C2  UNL d   1       2.049   2.605  -2.359  0.00  0.00     0.056 C 
BRANCH   7   8
ATOM      8  C1  UNL d   1       2.493   1.386  -1.545  0.00  0.00     0.007 C 
ATOM      9  C   UNL d   1       2.620   1.673  -0.054  0.00  0.00     0.009 C 
ENDBRANCH   7   8
ENDBRANCH   1   7
TORSDOF 2
ENDMDL
