MODEL 1
REMARK minimizedAffinity 11.7695913
REMARK minimizedRMSD -1
REMARK  2 active torsions:
REMARK  status: ('A' for Active; 'I' for Inactive)
REMARK    1  A    between atoms: C1_2  and  C2_3 
REMARK    2  A    between atoms: C2_3  and  C3_4 
ROOT
ATOM      1  C3  UNL d   1      -4.191   0.772   2.239  0.00  0.00    -0.075 A 
ATOM      2  C4  UNL d   1      -4.142  -0.352   1.401  0.00  0.00     0.002 A 
ATOM      3  C5  UNL d   1      -2.976  -1.112   1.303  0.00  0.00     0.002 A 
ATOM      4  C6  UNL d   1      -1.843  -0.752   2.030  0.00  0.00    -0.004 A 
ATOM      5  C7  UNL d   1      -1.876   0.372   2.852  0.00  0.00     0.002 A 
ATOM      6  C8  UNL d   1      -3.042   1.131   2.956  0.00  0.00     0.002 A 
ENDROOT
BRANCH   1   7
ATOM      7  C2  UNL d   1      -5.459   1.581   2.372  0.00  0.00     0.056 C 
BRANCH   7   8
ATOM      8  C1  UNL d   1      -5.885   1.838   3.822  0.00  0.00     0.007 C 
ATOM      9  C   UNL d   1      -5.992   3.319   4.162  0.00  0.00     0.009 C 
ENDBRANCH   7   8
ENDBRANCH   1   7
TORSDOF 2
ENDMDL
