MODEL 1
REMARK minimizedAffinity 11.805397
REMARK minimizedRMSD -1
REMARK  2 active torsions:
REMARK  status: ('A' for Active; 'I' for Inactive)
REMARK    1  A    between atoms: C1_2  and  C2_3 
REMARK    2  A    between atoms: C2_3  and  C3_4 
ROOT
ATOM      1  C3  UNL d   1      -3.596   0.706   2.669  0.00  0.00    -0.075 A 
ATOM      2  C4  UNL d   1      -3.636   1.251   3.960  0.00  0.00     0.002 A 
ATOM      3  C5  UNL d   1      -4.832   1.739   4.487  0.00  0.00     0.002 A 
ATOM      4  C6  UNL d   1      -5.999   1.697   3.728  0.00  0.00    -0.004 A 
ATOM      5  C7  UNL d   1      -5.969   1.172   2.438  0.00  0.00     0.002 A 
ATOM      6  C8  UNL d   1      -4.774   0.679   1.910  0.00  0.00     0.002 A 
ENDROOT
BRANCH   1   7
ATOM      7  C2  UNL d   1      -2.311   0.149   2.104  0.00  0.00     0.056 C 
BRANCH   7   8
ATOM      8  C1  UNL d   1      -1.427  -0.553   3.140  0.00  0.00     0.007 C 
ATOM      9  C   UNL d   1      -0.454  -1.549   2.522  0.00  0.00     0.009 C 
ENDBRANCH   7   8
ENDBRANCH   1   7
TORSDOF 2
ENDMDL
