MODEL 1
REMARK minimizedAffinity -1.76621246
REMARK minimizedRMSD -1
REMARK  2 active torsions:
REMARK  status: ('A' for Active; 'I' for Inactive)
REMARK    1  A    between atoms: C1_2  and  C2_3 
REMARK    2  A    between atoms: C2_3  and  C3_4 
ROOT
ATOM      1  C3  UNL d   1      -4.117   0.529   3.034  0.00  0.00    -0.075 A 
ATOM      2  C4  UNL d   1      -4.126  -0.358   1.948  0.00  0.00     0.002 A 
ATOM      3  C5  UNL d   1      -2.941  -0.944   1.503  0.00  0.00     0.002 A 
ATOM      4  C6  UNL d   1      -1.733  -0.643   2.129  0.00  0.00    -0.004 A 
ATOM      5  C7  UNL d   1      -1.710   0.250   3.198  0.00  0.00     0.002 A 
ATOM      6  C8  UNL d   1      -2.895   0.834   3.649  0.00  0.00     0.002 A 
ENDROOT
BRANCH   1   7
ATOM      7  C2  UNL d   1      -5.400   1.144   3.540  0.00  0.00     0.056 C 
BRANCH   7   8
ATOM      8  C1  UNL d   1      -5.790   0.699   4.954  0.00  0.00     0.007 C 
ATOM      9  C   UNL d   1      -5.603   1.791   5.999  0.00  0.00     0.009 C 
ENDBRANCH   7   8
ENDBRANCH   1   7
TORSDOF 2
ENDMDL
