MODEL 1
REMARK minimizedAffinity 12.1333799
REMARK minimizedRMSD -1
REMARK  2 active torsions:
REMARK  status: ('A' for Active; 'I' for Inactive)
REMARK    1  A    between atoms: C1_2  and  C2_3 
REMARK    2  A    between atoms: C2_3  and  C3_4 
ROOT
ATOM      1  C3  UNL d   1      -4.137   0.155   1.758  0.00  0.00    -0.075 A 
ATOM      2  C4  UNL d   1      -3.919   1.247   2.610  0.00  0.00     0.002 A 
ATOM      3  C5  UNL d   1      -2.723   1.364   3.319  0.00  0.00     0.002 A 
ATOM      4  C6  UNL d   1      -1.737   0.388   3.194  0.00  0.00    -0.004 A 
ATOM      5  C7  UNL d   1      -1.950  -0.710   2.364  0.00  0.00     0.002 A 
ATOM      6  C8  UNL d   1      -3.144  -0.827   1.649  0.00  0.00     0.002 A 
ENDROOT
BRANCH   1   7
ATOM      7  C2  UNL d   1      -5.417   0.037   0.965  0.00  0.00     0.056 C 
BRANCH   7   8
ATOM      8  C1  UNL d   1      -5.385   0.768  -0.382  0.00  0.00     0.007 C 
ATOM      9  C   UNL d   1      -5.618   2.267  -0.257  0.00  0.00     0.009 C 
ENDBRANCH   7   8
ENDBRANCH   1   7
TORSDOF 2
ENDMDL
