MODEL 1
REMARK minimizedAffinity 7.03001547
REMARK minimizedRMSD -1
REMARK  2 active torsions:
REMARK  status: ('A' for Active; 'I' for Inactive)
REMARK    1  A    between atoms: C1_2  and  C2_3 
REMARK    2  A    between atoms: C2_3  and  C3_4 
ROOT
ATOM      1  C3  UNL d   1       4.866   3.257   0.372  0.00  0.00    -0.075 A 
ATOM      2  C4  UNL d   1       4.032   2.916  -0.703  0.00  0.00     0.002 A 
ATOM      3  C5  UNL d   1       2.969   2.031  -0.521  0.00  0.00     0.002 A 
ATOM      4  C6  UNL d   1       2.733   1.469   0.732  0.00  0.00    -0.004 A 
ATOM      5  C7  UNL d   1       3.566   1.788   1.803  0.00  0.00     0.002 A 
ATOM      6  C8  UNL d   1       4.627   2.677   1.624  0.00  0.00     0.002 A 
ENDROOT
BRANCH   1   7
ATOM      7  C2  UNL d   1       6.000   4.238   0.188  0.00  0.00     0.056 C 
BRANCH   7   8
ATOM      8  C1  UNL d   1       5.655   5.429  -0.712  0.00  0.00     0.007 C 
ATOM      9  C   UNL d   1       5.997   5.193  -2.177  0.00  0.00     0.009 C 
ENDBRANCH   7   8
ENDBRANCH   1   7
TORSDOF 2
ENDMDL
