MODEL 1
REMARK minimizedAffinity 11.4507046
REMARK minimizedRMSD -1
REMARK  2 active torsions:
REMARK  status: ('A' for Active; 'I' for Inactive)
REMARK    1  A    between atoms: C1_2  and  C2_3 
REMARK    2  A    between atoms: C2_3  and  C3_4 
ROOT
ATOM      1  C3  UNL d   1       4.044   2.286   0.914  0.00  0.00    -0.075 A 
ATOM      2  C4  UNL d   1       4.063   3.078   2.071  0.00  0.00     0.002 A 
ATOM      3  C5  UNL d   1       5.033   4.067   2.237  0.00  0.00     0.002 A 
ATOM      4  C6  UNL d   1       6.000   4.270   1.254  0.00  0.00    -0.004 A 
ATOM      5  C7  UNL d   1       6.000   3.478   0.108  0.00  0.00     0.002 A 
ATOM      6  C8  UNL d   1       5.028   2.491  -0.062  0.00  0.00     0.002 A 
ENDROOT
BRANCH   1   7
ATOM      7  C2  UNL d   1       2.979   1.234   0.715  0.00  0.00     0.056 C 
BRANCH   7   8
ATOM      8  C1  UNL d   1       1.754   1.725  -0.063  0.00  0.00     0.007 C 
ATOM      9  C   UNL d   1       1.870   1.507  -1.566  0.00  0.00     0.009 C 
ENDBRANCH   7   8
ENDBRANCH   1   7
TORSDOF 2
ENDMDL
