MODEL 1
REMARK minimizedAffinity 12.2465086
REMARK minimizedRMSD -1
REMARK  2 active torsions:
REMARK  status: ('A' for Active; 'I' for Inactive)
REMARK    1  A    between atoms: C1_2  and  C2_3 
REMARK    2  A    between atoms: C2_3  and  C3_4 
ROOT
ATOM      1  C3  UNL d   1       3.026   4.239  -2.624  0.00  0.00    -0.075 A 
ATOM      2  C4  UNL d   1       2.120   5.310  -2.618  0.00  0.00     0.002 A 
ATOM      3  C5  UNL d   1       0.745   5.075  -2.594  0.00  0.00     0.002 A 
ATOM      4  C6  UNL d   1       0.259   3.770  -2.588  0.00  0.00    -0.004 A 
ATOM      5  C7  UNL d   1       1.149   2.698  -2.611  0.00  0.00     0.002 A 
ATOM      6  C8  UNL d   1       2.525   2.930  -2.630  0.00  0.00     0.002 A 
ENDROOT
BRANCH   1   7
ATOM      7  C2  UNL d   1       4.515   4.487  -2.619  0.00  0.00     0.056 C 
BRANCH   7   8
ATOM      8  C1  UNL d   1       4.951   5.653  -1.726  0.00  0.00     0.007 C 
ATOM      9  C   UNL d   1       6.000   5.260  -0.694  0.00  0.00     0.009 C 
ENDBRANCH   7   8
ENDBRANCH   1   7
TORSDOF 2
ENDMDL
