MODEL 1
REMARK minimizedAffinity -4.87865639
REMARK minimizedRMSD -1
REMARK  0 active torsions:
REMARK  status: ('A' for Active; 'I' for Inactive)
ROOT
ATOM      1  C   UNL d   1      -1.620  -2.455   1.013  0.00  0.00     0.124 A 
ATOM      2  C1  UNL d   1      -2.546  -1.889   0.149  0.00  0.00     0.062 A 
ATOM      3  C2  UNL d   1      -2.196  -0.790  -0.631  0.00  0.00     0.162 A 
ATOM      4  C3  UNL d   1      -0.913  -0.250  -0.549  0.00  0.00    -0.034 A 
ATOM      5  C4  UNL d   1       0.013  -0.824   0.324  0.00  0.00     0.162 A 
ATOM      6  C5  UNL d   1      -0.342  -1.923   1.100  0.00  0.00     0.062 A 
ATOM      7  F   UNL d   1       0.554  -2.468   1.936  0.00  0.00    -0.097 F 
ATOM      8  F1  UNL d   1       1.256  -0.330   0.427  0.00  0.00    -0.096 F 
ATOM      9  I   UNL d   1      -0.385   1.393  -1.712  0.00  0.00    -0.060 I 
ATOM     10  F2  UNL d   1      -3.112  -0.264  -1.458  0.00  0.00    -0.096 F 
ATOM     11  F3  UNL d   1      -3.783  -2.401   0.063  0.00  0.00    -0.097 F 
ATOM     12  F4  UNL d   1      -1.960  -3.512   1.763  0.00  0.00    -0.092 F 
ENDROOT
TORSDOF 0
ENDMDL
