MODEL 1
REMARK minimizedAffinity -5.2436223
REMARK minimizedRMSD -1
REMARK  0 active torsions:
REMARK  status: ('A' for Active; 'I' for Inactive)
ROOT
ATOM      1  C   UNL d   1      -2.905  -1.896   0.432  0.00  0.00     0.124 A 
ATOM      2  C1  UNL d   1      -2.853  -0.699  -0.270  0.00  0.00     0.062 A 
ATOM      3  C2  UNL d   1      -1.656   0.005  -0.364  0.00  0.00     0.162 A 
ATOM      4  C3  UNL d   1      -0.501  -0.486   0.243  0.00  0.00    -0.034 A 
ATOM      5  C4  UNL d   1      -0.561  -1.690   0.948  0.00  0.00     0.162 A 
ATOM      6  C5  UNL d   1      -1.760  -2.390   1.040  0.00  0.00     0.062 A 
ATOM      7  F   UNL d   1      -1.809  -3.545   1.718  0.00  0.00    -0.097 F 
ATOM      8  F1  UNL d   1       0.531  -2.191   1.544  0.00  0.00    -0.096 F 
ATOM      9  I   UNL d   1       1.291   0.564   0.104  0.00  0.00    -0.060 I 
ATOM     10  F2  UNL d   1      -1.635   1.158  -1.049  0.00  0.00    -0.096 F 
ATOM     11  F3  UNL d   1      -3.959  -0.219  -0.857  0.00  0.00    -0.097 F 
ATOM     12  F4  UNL d   1      -4.059  -2.571   0.522  0.00  0.00    -0.092 F 
ENDROOT
TORSDOF 0
ENDMDL
