MODEL 1
REMARK minimizedAffinity 9.50807381
REMARK minimizedRMSD -1
REMARK  0 active torsions:
REMARK  status: ('A' for Active; 'I' for Inactive)
ROOT
ATOM      1  C   UNL d   1       0.897   0.034   2.636  0.00  0.00     0.124 A 
ATOM      2  C1  UNL d   1       0.999   1.163   1.836  0.00  0.00     0.062 A 
ATOM      3  C2  UNL d   1       0.758   1.076   0.468  0.00  0.00     0.162 A 
ATOM      4  C3  UNL d   1       0.410  -0.146  -0.109  0.00  0.00    -0.034 A 
ATOM      5  C4  UNL d   1       0.310  -1.278   0.702  0.00  0.00     0.162 A 
ATOM      6  C5  UNL d   1       0.553  -1.185   2.069  0.00  0.00     0.062 A 
ATOM      7  F   UNL d   1       0.453  -2.278   2.841  0.00  0.00    -0.097 F 
ATOM      8  F1  UNL d   1      -0.022  -2.468   0.180  0.00  0.00    -0.096 F 
ATOM      9  I   UNL d   1       0.048  -0.280  -2.154  0.00  0.00    -0.060 I 
ATOM     10  F2  UNL d   1       0.864   2.183  -0.281  0.00  0.00    -0.096 F 
ATOM     11  F3  UNL d   1       1.332   2.342   2.382  0.00  0.00    -0.097 F 
ATOM     12  F4  UNL d   1       1.131   0.120   3.952  0.00  0.00    -0.092 F 
ENDROOT
TORSDOF 0
ENDMDL
