MODEL 1
REMARK minimizedAffinity -1.79042184
REMARK minimizedRMSD -1
REMARK  0 active torsions:
REMARK  status: ('A' for Active; 'I' for Inactive)
ROOT
ATOM      1  C   UNL d   1      -1.824  -2.283  -0.059  0.00  0.00     0.124 A 
ATOM      2  C1  UNL d   1      -1.808  -1.088  -0.765  0.00  0.00     0.062 A 
ATOM      3  C2  UNL d   1      -0.719  -0.227  -0.660  0.00  0.00     0.162 A 
ATOM      4  C3  UNL d   1       0.364  -0.559   0.154  0.00  0.00    -0.034 A 
ATOM      5  C4  UNL d   1       0.341  -1.762   0.862  0.00  0.00     0.162 A 
ATOM      6  C5  UNL d   1      -0.750  -2.619   0.753  0.00  0.00     0.062 A 
ATOM      7  F   UNL d   1      -0.763  -3.773   1.436  0.00  0.00    -0.097 F 
ATOM      8  F1  UNL d   1       1.366  -2.112   1.653  0.00  0.00    -0.096 F 
ATOM      9  I   UNL d   1       1.994   0.725   0.314  0.00  0.00    -0.060 I 
ATOM     10  F2  UNL d   1      -0.731   0.921  -1.353  0.00  0.00    -0.096 F 
ATOM     11  F3  UNL d   1      -2.845  -0.760  -1.549  0.00  0.00    -0.097 F 
ATOM     12  F4  UNL d   1      -2.873  -3.108  -0.161  0.00  0.00    -0.092 F 
ENDROOT
TORSDOF 0
ENDMDL
