MODEL 1
REMARK minimizedAffinity -3.82910228
REMARK minimizedRMSD -1
REMARK  0 active torsions:
REMARK  status: ('A' for Active; 'I' for Inactive)
ROOT
ATOM      1  C   UNL d   1      -2.802  -1.735   0.311  0.00  0.00     0.124 A 
ATOM      2  C1  UNL d   1      -2.707  -0.535  -0.381  0.00  0.00     0.062 A 
ATOM      3  C2  UNL d   1      -1.483   0.118  -0.485  0.00  0.00     0.162 A 
ATOM      4  C3  UNL d   1      -0.342  -0.427   0.104  0.00  0.00    -0.034 A 
ATOM      5  C4  UNL d   1      -0.445  -1.633   0.799  0.00  0.00     0.162 A 
ATOM      6  C5  UNL d   1      -1.671  -2.282   0.900  0.00  0.00     0.062 A 
ATOM      7  F   UNL d   1      -1.761  -3.441   1.570  0.00  0.00    -0.097 F 
ATOM      8  F1  UNL d   1       0.632  -2.185   1.377  0.00  0.00    -0.096 F 
ATOM      9  I   UNL d   1       1.491   0.547  -0.050  0.00  0.00    -0.060 I 
ATOM     10  F2  UNL d   1      -1.421   1.276  -1.160  0.00  0.00    -0.096 F 
ATOM     11  F3  UNL d   1      -3.799  -0.003  -0.950  0.00  0.00    -0.097 F 
ATOM     12  F4  UNL d   1      -3.982  -2.360   0.411  0.00  0.00    -0.092 F 
ENDROOT
TORSDOF 0
ENDMDL
