MODEL 1
REMARK minimizedAffinity 1.63260627
REMARK minimizedRMSD -1
REMARK  0 active torsions:
REMARK  status: ('A' for Active; 'I' for Inactive)
ROOT
ATOM      1  C   UNL d   1       2.706   2.088   0.909  0.00  0.00     0.124 A 
ATOM      2  C1  UNL d   1       2.677   1.352  -0.268  0.00  0.00     0.062 A 
ATOM      3  C2  UNL d   1       1.616   0.490  -0.528  0.00  0.00     0.162 A 
ATOM      4  C3  UNL d   1       0.575   0.358   0.390  0.00  0.00    -0.034 A 
ATOM      5  C4  UNL d   1       0.611   1.101   1.572  0.00  0.00     0.162 A 
ATOM      6  C5  UNL d   1       1.673   1.962   1.827  0.00  0.00     0.062 A 
ATOM      7  F   UNL d   1       1.700   2.672   2.964  0.00  0.00    -0.097 F 
ATOM      8  F1  UNL d   1      -0.374   0.999   2.476  0.00  0.00    -0.096 F 
ATOM      9  I   UNL d   1      -1.013  -0.931   0.005  0.00  0.00    -0.060 I 
ATOM     10  F2  UNL d   1       1.614  -0.209  -1.673  0.00  0.00    -0.096 F 
ATOM     11  F3  UNL d   1       3.674   1.472  -1.157  0.00  0.00    -0.097 F 
ATOM     12  F4  UNL d   1       3.728   2.917   1.157  0.00  0.00    -0.092 F 
ENDROOT
TORSDOF 0
ENDMDL
