MODEL 1
REMARK minimizedAffinity -0.283600658
REMARK minimizedRMSD -1
REMARK  0 active torsions:
REMARK  status: ('A' for Active; 'I' for Inactive)
ROOT
ATOM      1  C   UNL d   1      -1.841   0.076  -1.416  0.00  0.00     0.124 A 
ATOM      2  C1  UNL d   1      -0.930   1.105  -1.608  0.00  0.00     0.062 A 
ATOM      3  C2  UNL d   1       0.238   1.157  -0.852  0.00  0.00     0.162 A 
ATOM      4  C3  UNL d   1       0.502   0.174   0.102  0.00  0.00    -0.034 A 
ATOM      5  C4  UNL d   1      -0.419  -0.858   0.290  0.00  0.00     0.162 A 
ATOM      6  C5  UNL d   1      -1.585  -0.904  -0.468  0.00  0.00     0.062 A 
ATOM      7  F   UNL d   1      -2.463  -1.900  -0.281  0.00  0.00    -0.097 F 
ATOM      8  F1  UNL d   1      -0.196  -1.818   1.199  0.00  0.00    -0.096 F 
ATOM      9  I   UNL d   1       2.247   0.248   1.234  0.00  0.00    -0.060 I 
ATOM     10  F2  UNL d   1       1.100   2.163  -1.059  0.00  0.00    -0.096 F 
ATOM     11  F3  UNL d   1      -1.175   2.054  -2.523  0.00  0.00    -0.097 F 
ATOM     12  F4  UNL d   1      -2.964   0.029  -2.144  0.00  0.00    -0.092 F 
ENDROOT
TORSDOF 0
ENDMDL
