MODEL 1
REMARK minimizedAffinity -2.68074918
REMARK minimizedRMSD -1
REMARK  0 active torsions:
REMARK  status: ('A' for Active; 'I' for Inactive)
ROOT
ATOM      1  C   UNL d   1       0.208  -0.712   0.110  0.00  0.00     0.124 A 
ATOM      2  C1  UNL d   1       1.521  -0.697   0.559  0.00  0.00     0.062 A 
ATOM      3  C2  UNL d   1       2.161   0.512   0.811  0.00  0.00     0.162 A 
ATOM      4  C3  UNL d   1       1.489   1.719   0.615  0.00  0.00    -0.034 A 
ATOM      5  C4  UNL d   1       0.168   1.696   0.163  0.00  0.00     0.162 A 
ATOM      6  C5  UNL d   1      -0.467   0.484  -0.088  0.00  0.00     0.062 A 
ATOM      7  F   UNL d   1      -1.736   0.473  -0.521  0.00  0.00    -0.097 F 
ATOM      8  F1  UNL d   1      -0.508   2.838  -0.036  0.00  0.00    -0.096 F 
ATOM      9  I   UNL d   1       2.443   3.530   0.991  0.00  0.00    -0.060 I 
ATOM     10  F2  UNL d   1       3.431   0.496   1.244  0.00  0.00    -0.096 F 
ATOM     11  F3  UNL d   1       2.175  -1.852   0.749  0.00  0.00    -0.097 F 
ATOM     12  F4  UNL d   1      -0.406  -1.877  -0.133  0.00  0.00    -0.092 F 
ENDROOT
TORSDOF 0
ENDMDL
