MODEL 1
REMARK minimizedAffinity 5.51887417
REMARK minimizedRMSD -1
REMARK  0 active torsions:
REMARK  status: ('A' for Active; 'I' for Inactive)
ROOT
ATOM      1  C   UNL d   1       3.192   2.315   0.821  0.00  0.00     0.124 A 
ATOM      2  C1  UNL d   1       2.648   1.376  -0.045  0.00  0.00     0.062 A 
ATOM      3  C2  UNL d   1       1.782   0.399   0.436  0.00  0.00     0.162 A 
ATOM      4  C3  UNL d   1       1.454   0.355   1.791  0.00  0.00    -0.034 A 
ATOM      5  C4  UNL d   1       2.006   1.301   2.657  0.00  0.00     0.162 A 
ATOM      6  C5  UNL d   1       2.871   2.276   2.170  0.00  0.00     0.062 A 
ATOM      7  F   UNL d   1       3.396   3.182   3.009  0.00  0.00    -0.097 F 
ATOM      8  F1  UNL d   1       1.712   1.288   3.965  0.00  0.00    -0.096 F 
ATOM      9  I   UNL d   1       0.160  -1.106   2.515  0.00  0.00    -0.060 I 
ATOM     10  F2  UNL d   1       1.271  -0.495  -0.423  0.00  0.00    -0.096 F 
ATOM     11  F3  UNL d   1       2.958   1.411  -1.349  0.00  0.00    -0.097 F 
ATOM     12  F4  UNL d   1       4.026   3.254   0.355  0.00  0.00    -0.092 F 
ENDROOT
TORSDOF 0
ENDMDL
