MODEL 1
REMARK minimizedAffinity 1.15348518
REMARK minimizedRMSD -1
REMARK  0 active torsions:
REMARK  status: ('A' for Active; 'I' for Inactive)
ROOT
ATOM      1  C   UNL d   1      -2.275  -1.223  -0.501  0.00  0.00     0.124 A 
ATOM      2  C1  UNL d   1      -1.797  -0.582  -1.636  0.00  0.00     0.062 A 
ATOM      3  C2  UNL d   1      -0.556   0.049  -1.614  0.00  0.00     0.162 A 
ATOM      4  C3  UNL d   1       0.217   0.041  -0.453  0.00  0.00    -0.034 A 
ATOM      5  C4  UNL d   1      -0.271  -0.604   0.685  0.00  0.00     0.162 A 
ATOM      6  C5  UNL d   1      -1.511  -1.233   0.658  0.00  0.00     0.062 A 
ATOM      7  F   UNL d   1      -1.971  -1.851   1.755  0.00  0.00    -0.097 F 
ATOM      8  F1  UNL d   1       0.446  -0.630   1.818  0.00  0.00    -0.096 F 
ATOM      9  I   UNL d   1       2.072   0.983  -0.417  0.00  0.00    -0.060 I 
ATOM     10  F2  UNL d   1      -0.120   0.660  -2.726  0.00  0.00    -0.096 F 
ATOM     11  F3  UNL d   1      -2.533  -0.570  -2.757  0.00  0.00    -0.097 F 
ATOM     12  F4  UNL d   1      -3.469  -1.828  -0.525  0.00  0.00    -0.092 F 
ENDROOT
TORSDOF 0
ENDMDL
