MODEL 1
REMARK minimizedAffinity -0.755443513
REMARK minimizedRMSD -1
REMARK  0 active torsions:
REMARK  status: ('A' for Active; 'I' for Inactive)
ROOT
ATOM      1  C   UNL d   1      -1.844  -1.698  -0.112  0.00  0.00     0.124 A 
ATOM      2  C1  UNL d   1      -0.796  -2.170   0.666  0.00  0.00     0.062 A 
ATOM      3  C2  UNL d   1       0.386  -1.442   0.765  0.00  0.00     0.162 A 
ATOM      4  C3  UNL d   1       0.526  -0.232   0.086  0.00  0.00    -0.034 A 
ATOM      5  C4  UNL d   1      -0.532   0.236  -0.696  0.00  0.00     0.162 A 
ATOM      6  C5  UNL d   1      -1.711  -0.495  -0.792  0.00  0.00     0.062 A 
ATOM      7  F   UNL d   1      -2.722  -0.037  -1.545  0.00  0.00    -0.097 F 
ATOM      8  F1  UNL d   1      -0.430   1.396  -1.363  0.00  0.00    -0.096 F 
ATOM      9  I   UNL d   1       2.292   0.860   0.232  0.00  0.00    -0.060 I 
ATOM     10  F2  UNL d   1       1.382  -1.923   1.524  0.00  0.00    -0.096 F 
ATOM     11  F3  UNL d   1      -0.922  -3.332   1.323  0.00  0.00    -0.097 F 
ATOM     12  F4  UNL d   1      -2.980  -2.401  -0.207  0.00  0.00    -0.092 F 
ENDROOT
TORSDOF 0
ENDMDL
