MODEL 1
REMARK minimizedAffinity 3.0912261
REMARK minimizedRMSD -1
REMARK  0 active torsions:
REMARK  status: ('A' for Active; 'I' for Inactive)
ROOT
ATOM      1  C   UNL d   1      -0.955   0.814  -0.450  0.00  0.00     0.124 A 
ATOM      2  C1  UNL d   1      -0.137  -0.184   0.060  0.00  0.00     0.062 A 
ATOM      3  C2  UNL d   1       1.065   0.143   0.680  0.00  0.00     0.162 A 
ATOM      4  C3  UNL d   1       1.457   1.477   0.795  0.00  0.00    -0.034 A 
ATOM      5  C4  UNL d   1       0.630   2.476   0.278  0.00  0.00     0.162 A 
ATOM      6  C5  UNL d   1      -0.571   2.143  -0.340  0.00  0.00     0.062 A 
ATOM      7  F   UNL d   1      -1.359   3.110  -0.833  0.00  0.00    -0.097 F 
ATOM      8  F1  UNL d   1       0.976   3.769   0.371  0.00  0.00    -0.096 F 
ATOM      9  I   UNL d   1       3.254   1.972   1.721  0.00  0.00    -0.060 I 
ATOM     10  F2  UNL d   1       1.835  -0.842   1.164  0.00  0.00    -0.096 F 
ATOM     11  F3  UNL d   1      -0.505  -1.469  -0.045  0.00  0.00    -0.097 F 
ATOM     12  F4  UNL d   1      -2.111   0.496  -1.047  0.00  0.00    -0.092 F 
ENDROOT
TORSDOF 0
ENDMDL
