MODEL 1
REMARK minimizedAffinity -4.76926231
REMARK minimizedRMSD -1
REMARK  0 active torsions:
REMARK  status: ('A' for Active; 'I' for Inactive)
ROOT
ATOM      1  C   UNL d   1      -1.744  -0.050  -1.656  0.00  0.00     0.124 A 
ATOM      2  C1  UNL d   1      -1.866  -0.864  -0.538  0.00  0.00     0.062 A 
ATOM      3  C2  UNL d   1      -0.851  -0.903   0.413  0.00  0.00     0.162 A 
ATOM      4  C3  UNL d   1       0.295  -0.124   0.252  0.00  0.00    -0.034 A 
ATOM      5  C4  UNL d   1       0.411   0.691  -0.876  0.00  0.00     0.162 A 
ATOM      6  C5  UNL d   1      -0.606   0.726  -1.824  0.00  0.00     0.062 A 
ATOM      7  F   UNL d   1      -0.487   1.513  -2.903  0.00  0.00    -0.097 F 
ATOM      8  F1  UNL d   1       1.499   1.452  -1.062  0.00  0.00    -0.096 F 
ATOM      9  I   UNL d   1       1.816  -0.179   1.672  0.00  0.00    -0.060 I 
ATOM     10  F2  UNL d   1      -0.995  -1.698   1.483  0.00  0.00    -0.096 F 
ATOM     11  F3  UNL d   1      -2.964  -1.616  -0.375  0.00  0.00    -0.097 F 
ATOM     12  F4  UNL d   1      -2.722  -0.016  -2.571  0.00  0.00    -0.092 F 
ENDROOT
TORSDOF 0
ENDMDL
