MODEL 1
REMARK minimizedAffinity 1.33890247
REMARK minimizedRMSD -1
REMARK  0 active torsions:
REMARK  status: ('A' for Active; 'I' for Inactive)
ROOT
ATOM      1  C   UNL d   1      -1.415  -1.063  -0.051  0.00  0.00     0.124 A 
ATOM      2  C1  UNL d   1      -0.315  -1.451   0.701  0.00  0.00     0.062 A 
ATOM      3  C2  UNL d   1       0.713  -0.549   0.955  0.00  0.00     0.162 A 
ATOM      4  C3  UNL d   1       0.647   0.752   0.457  0.00  0.00    -0.034 A 
ATOM      5  C4  UNL d   1      -0.462   1.136  -0.300  0.00  0.00     0.162 A 
ATOM      6  C5  UNL d   1      -1.487   0.230  -0.551  0.00  0.00     0.062 A 
ATOM      7  F   UNL d   1      -2.549   0.607  -1.278  0.00  0.00    -0.097 F 
ATOM      8  F1  UNL d   1      -0.558   2.379  -0.794  0.00  0.00    -0.096 F 
ATOM      9  I   UNL d   1       2.183   2.105   0.834  0.00  0.00    -0.060 I 
ATOM     10  F2  UNL d   1       1.764  -0.951   1.685  0.00  0.00    -0.096 F 
ATOM     11  F3  UNL d   1      -0.242  -2.700   1.184  0.00  0.00    -0.097 F 
ATOM     12  F4  UNL d   1      -2.403  -1.934  -0.295  0.00  0.00    -0.092 F 
ENDROOT
TORSDOF 0
ENDMDL
