MODEL 1
REMARK minimizedAffinity 0.0311163403
REMARK minimizedRMSD -1
REMARK  2 active torsions:
REMARK  status: ('A' for Active; 'I' for Inactive)
REMARK    1  A    between atoms: C1_2  and  C2_3 
REMARK    2  A    between atoms: C2_3  and  C3_4 
ROOT
ATOM      1  C3  UNL d   1      -0.242  -0.176   0.183  0.00  0.00    -0.075 A 
ATOM      2  C4  UNL d   1       0.236  -1.494   0.214  0.00  0.00     0.002 A 
ATOM      3  C5  UNL d   1       1.607  -1.750   0.220  0.00  0.00     0.002 A 
ATOM      4  C6  UNL d   1       2.516  -0.695   0.185  0.00  0.00    -0.004 A 
ATOM      5  C7  UNL d   1       2.052   0.618   0.137  0.00  0.00     0.002 A 
ATOM      6  C8  UNL d   1       0.681   0.877   0.136  0.00  0.00     0.002 A 
ENDROOT
BRANCH   1   7
ATOM      7  C2  UNL d   1      -1.725   0.108   0.206  0.00  0.00     0.056 C 
BRANCH   7   8
ATOM      8  C1  UNL d   1      -2.294   0.343   1.610  0.00  0.00     0.007 C 
ATOM      9  C   UNL d   1      -3.764   0.740   1.603  0.00  0.00     0.009 C 
ENDBRANCH   7   8
ENDBRANCH   1   7
TORSDOF 2
ENDMDL
