MODEL 1
REMARK minimizedAffinity -0.242260709
REMARK minimizedRMSD -1
REMARK  2 active torsions:
REMARK  status: ('A' for Active; 'I' for Inactive)
REMARK    1  A    between atoms: C1_2  and  C2_3 
REMARK    2  A    between atoms: C2_3  and  C3_4 
ROOT
ATOM      1  C3  UNL d   1      -2.894   0.863   0.825  0.00  0.00    -0.075 A 
ATOM      2  C4  UNL d   1      -3.860   1.025   1.828  0.00  0.00     0.002 A 
ATOM      3  C5  UNL d   1      -5.183   0.640   1.607  0.00  0.00     0.002 A 
ATOM      4  C6  UNL d   1      -5.558   0.098   0.380  0.00  0.00    -0.004 A 
ATOM      5  C7  UNL d   1      -4.610  -0.053  -0.630  0.00  0.00     0.002 A 
ATOM      6  C8  UNL d   1      -3.285   0.328  -0.410  0.00  0.00     0.002 A 
ENDROOT
BRANCH   1   7
ATOM      7  C2  UNL d   1      -1.455   1.251   1.068  0.00  0.00     0.056 C 
BRANCH   7   8
ATOM      8  C1  UNL d   1      -0.442   0.413   0.280  0.00  0.00     0.007 C 
ATOM      9  C   UNL d   1       0.999   0.859   0.491  0.00  0.00     0.009 C 
ENDBRANCH   7   8
ENDBRANCH   1   7
TORSDOF 2
ENDMDL
