MODEL 1
REMARK minimizedAffinity -0.751465321
REMARK minimizedRMSD -1
REMARK  2 active torsions:
REMARK  status: ('A' for Active; 'I' for Inactive)
REMARK    1  A    between atoms: C1_2  and  C2_3 
REMARK    2  A    between atoms: C2_3  and  C3_4 
ROOT
ATOM      1  C3  UNL d   1      -1.790   0.335   0.694  0.00  0.00    -0.075 A 
ATOM      2  C4  UNL d   1      -3.013  -0.248   0.332  0.00  0.00     0.002 A 
ATOM      3  C5  UNL d   1      -4.205   0.186   0.913  0.00  0.00     0.002 A 
ATOM      4  C6  UNL d   1      -4.188   1.198   1.870  0.00  0.00    -0.004 A 
ATOM      5  C7  UNL d   1      -2.978   1.773   2.250  0.00  0.00     0.002 A 
ATOM      6  C8  UNL d   1      -1.784   1.344   1.667  0.00  0.00     0.002 A 
ENDROOT
BRANCH   1   7
ATOM      7  C2  UNL d   1      -0.501  -0.109   0.047  0.00  0.00     0.056 C 
BRANCH   7   8
ATOM      8  C1  UNL d   1       0.739   0.085   0.927  0.00  0.00     0.007 C 
ATOM      9  C   UNL d   1       1.735   1.081   0.350  0.00  0.00     0.009 C 
ENDBRANCH   7   8
ENDBRANCH   1   7
TORSDOF 2
ENDMDL
