MODEL 1
REMARK minimizedAffinity 2.17121553
REMARK minimizedRMSD -1
REMARK  2 active torsions:
REMARK  status: ('A' for Active; 'I' for Inactive)
REMARK    1  A    between atoms: C1_2  and  C2_3 
REMARK    2  A    between atoms: C2_3  and  C3_4 
ROOT
ATOM      1  C3  UNL d   1      -0.805  -0.300  -1.525  0.00  0.00    -0.075 A 
ATOM      2  C4  UNL d   1      -1.419   0.853  -2.037  0.00  0.00     0.002 A 
ATOM      3  C5  UNL d   1      -1.941   0.862  -3.331  0.00  0.00     0.002 A 
ATOM      4  C6  UNL d   1      -1.847  -0.274  -4.131  0.00  0.00    -0.004 A 
ATOM      5  C7  UNL d   1      -1.225  -1.419  -3.639  0.00  0.00     0.002 A 
ATOM      6  C8  UNL d   1      -0.706  -1.433  -2.343  0.00  0.00     0.002 A 
ENDROOT
BRANCH   1   7
ATOM      7  C2  UNL d   1      -0.265  -0.326  -0.116  0.00  0.00     0.056 C 
BRANCH   7   8
ATOM      8  C1  UNL d   1       0.937   0.598   0.109  0.00  0.00     0.007 C 
ATOM      9  C   UNL d   1       0.545   1.983   0.608  0.00  0.00     0.009 C 
ENDBRANCH   7   8
ENDBRANCH   1   7
TORSDOF 2
ENDMDL
