MODEL 1
REMARK minimizedAffinity -4.28892422
REMARK minimizedRMSD -1
REMARK  2 active torsions:
REMARK  status: ('A' for Active; 'I' for Inactive)
REMARK    1  A    between atoms: C1_2  and  C2_3 
REMARK    2  A    between atoms: C2_3  and  C3_4 
ROOT
ATOM      1  C3  UNL d   1       0.174   0.644   0.695  0.00  0.00    -0.075 A 
ATOM      2  C4  UNL d   1       0.941  -0.127   1.580  0.00  0.00     0.002 A 
ATOM      3  C5  UNL d   1       2.249   0.246   1.893  0.00  0.00     0.002 A 
ATOM      4  C6  UNL d   1       2.808   1.385   1.319  0.00  0.00    -0.004 A 
ATOM      5  C7  UNL d   1       2.060   2.149   0.425  0.00  0.00     0.002 A 
ATOM      6  C8  UNL d   1       0.750   1.781   0.114  0.00  0.00     0.002 A 
ENDROOT
BRANCH   1   7
ATOM      7  C2  UNL d   1      -1.252   0.262   0.375  0.00  0.00     0.056 C 
BRANCH   7   8
ATOM      8  C1  UNL d   1      -2.036  -0.283   1.574  0.00  0.00     0.007 C 
ATOM      9  C   UNL d   1      -3.162   0.639   2.024  0.00  0.00     0.009 C 
ENDBRANCH   7   8
ENDBRANCH   1   7
TORSDOF 2
ENDMDL
