MODEL 1
REMARK minimizedAffinity 3.84937906
REMARK minimizedRMSD -1
REMARK  2 active torsions:
REMARK  status: ('A' for Active; 'I' for Inactive)
REMARK    1  A    between atoms: C1_2  and  C2_3 
REMARK    2  A    between atoms: C2_3  and  C3_4 
ROOT
ATOM      1  C3  UNL d   1       0.085  -0.678  -0.741  0.00  0.00    -0.075 A 
ATOM      2  C4  UNL d   1      -0.271   0.089   0.377  0.00  0.00     0.002 A 
ATOM      3  C5  UNL d   1       0.698   0.501   1.292  0.00  0.00     0.002 A 
ATOM      4  C6  UNL d   1       2.032   0.144   1.107  0.00  0.00    -0.004 A 
ATOM      5  C7  UNL d   1       2.395  -0.633   0.008  0.00  0.00     0.002 A 
ATOM      6  C8  UNL d   1       1.428  -1.043  -0.911  0.00  0.00     0.002 A 
ENDROOT
BRANCH   1   7
ATOM      7  C2  UNL d   1      -0.955  -1.103  -1.750  0.00  0.00     0.056 C 
BRANCH   7   8
ATOM      8  C1  UNL d   1      -0.450  -1.117  -3.197  0.00  0.00     0.007 C 
ATOM      9  C   UNL d   1      -1.482  -0.613  -4.198  0.00  0.00     0.009 C 
ENDBRANCH   7   8
ENDBRANCH   1   7
TORSDOF 2
ENDMDL
