MODEL 1
REMARK minimizedAffinity -4.56660604
REMARK minimizedRMSD -1
REMARK  2 active torsions:
REMARK  status: ('A' for Active; 'I' for Inactive)
REMARK    1  A    between atoms: C1_2  and  C2_3 
REMARK    2  A    between atoms: C2_3  and  C3_4 
ROOT
ATOM      1  C3  UNL d   1      -1.631   2.372   0.349  0.00  0.00    -0.075 A 
ATOM      2  C4  UNL d   1      -1.838   1.057   0.790  0.00  0.00     0.002 A 
ATOM      3  C5  UNL d   1      -0.803   0.123   0.745  0.00  0.00     0.002 A 
ATOM      4  C6  UNL d   1       0.447   0.488   0.250  0.00  0.00    -0.004 A 
ATOM      5  C7  UNL d   1       0.660   1.787  -0.206  0.00  0.00     0.002 A 
ATOM      6  C8  UNL d   1      -0.373   2.725  -0.158  0.00  0.00     0.002 A 
ENDROOT
BRANCH   1   7
ATOM      7  C2  UNL d   1      -2.738   3.396   0.422  0.00  0.00     0.056 C 
BRANCH   7   8
ATOM      8  C1  UNL d   1      -2.248   4.847   0.417  0.00  0.00     0.007 C 
ATOM      9  C   UNL d   1      -3.344   5.850   0.082  0.00  0.00     0.009 C 
ENDBRANCH   7   8
ENDBRANCH   1   7
TORSDOF 2
ENDMDL
