MODEL 1
REMARK minimizedAffinity 3.88887262
REMARK minimizedRMSD -1
REMARK  0 active torsions:
REMARK  status: ('A' for Active; 'I' for Inactive)
ROOT
ATOM      1  C2' OXE d   1      -0.695   0.081  -1.045  0.00  0.00     0.078 C 
ATOM      2  C1' OXE d   1       1.537  -1.129   0.154  0.00  0.00     0.078 C 
ATOM      3  C1  OXE d   1       0.434  -0.635   1.057  0.00  0.00    -0.078 A 
ATOM      4  C2  OXE d   1      -0.633  -0.002   0.464  0.00  0.00    -0.078 A 
ATOM      5  C3  OXE d   1      -1.702   0.424   1.246  0.00  0.00     0.003 A 
ATOM      6  C4  OXE d   1      -1.632   0.352   2.643  0.00  0.00    -0.002 A 
ATOM      7  C5  OXE d   1      -0.537  -0.252   3.269  0.00  0.00    -0.002 A 
ATOM      8  C6  OXE d   1       0.483  -0.788   2.490  0.00  0.00     0.003 A 
ENDROOT
TORSDOF 0
ENDMDL
