MODEL 1
REMARK minimizedAffinity 0.0463801585
REMARK minimizedRMSD -1
REMARK  0 active torsions:
REMARK  status: ('A' for Active; 'I' for Inactive)
ROOT
ATOM      1  C2' OXE d   1      -0.242   0.630  -1.236  0.00  0.00     0.078 C 
ATOM      2  C1' OXE d   1       1.633  -1.454  -1.090  0.00  0.00     0.078 C 
ATOM      3  C1  OXE d   1       0.749  -1.218   0.109  0.00  0.00    -0.078 A 
ATOM      4  C2  OXE d   1      -0.134  -0.167   0.046  0.00  0.00    -0.078 A 
ATOM      5  C3  OXE d   1      -1.011   0.061   1.103  0.00  0.00     0.003 A 
ATOM      6  C4  OXE d   1      -0.897  -0.674   2.290  0.00  0.00    -0.002 A 
ATOM      7  C5  OXE d   1       0.022  -1.724   2.389  0.00  0.00    -0.002 A 
ATOM      8  C6  OXE d   1       0.821  -2.036   1.294  0.00  0.00     0.003 A 
ENDROOT
TORSDOF 0
ENDMDL
