MODEL 1
REMARK minimizedAffinity -4.28109789
REMARK minimizedRMSD -1
REMARK  0 active torsions:
REMARK  status: ('A' for Active; 'I' for Inactive)
ROOT
ATOM      1  C2' OXE d   1       1.817  -1.169  -1.307  0.00  0.00     0.078 C 
ATOM      2  C1' OXE d   1      -0.213   0.746  -1.609  0.00  0.00     0.078 C 
ATOM      3  C1  OXE d   1      -0.040   0.113  -0.251  0.00  0.00    -0.078 A 
ATOM      4  C2  OXE d   1       0.925  -0.857  -0.124  0.00  0.00    -0.078 A 
ATOM      5  C3  OXE d   1       1.163  -1.434   1.120  0.00  0.00     0.003 A 
ATOM      6  C4  OXE d   1       0.327  -1.148   2.206  0.00  0.00    -0.002 A 
ATOM      7  C5  OXE d   1      -0.687  -0.192   2.088  0.00  0.00    -0.002 A 
ATOM      8  C6  OXE d   1      -0.856   0.477   0.880  0.00  0.00     0.003 A 
ENDROOT
TORSDOF 0
ENDMDL
