MODEL 1
REMARK minimizedAffinity -1.52187145
REMARK minimizedRMSD -1
REMARK  0 active torsions:
REMARK  status: ('A' for Active; 'I' for Inactive)
ROOT
ATOM      1  C2' OXE d   1       2.679  -1.067  -0.545  0.00  0.00     0.078 C 
ATOM      2  C1' OXE d   1       1.483  -0.663   1.963  0.00  0.00     0.078 C 
ATOM      3  C1  OXE d   1       0.654  -0.383   0.734  0.00  0.00    -0.078 A 
ATOM      4  C2  OXE d   1       1.262  -0.539  -0.488  0.00  0.00    -0.078 A 
ATOM      5  C3  OXE d   1       0.526  -0.347  -1.654  0.00  0.00     0.003 A 
ATOM      6  C4  OXE d   1      -0.781   0.152  -1.593  0.00  0.00    -0.002 A 
ATOM      7  C5  OXE d   1      -1.406   0.355  -0.358  0.00  0.00    -0.002 A 
ATOM      8  C6  OXE d   1      -0.718   0.053   0.812  0.00  0.00     0.003 A 
ENDROOT
TORSDOF 0
ENDMDL
