MODEL 1
REMARK minimizedAffinity -3.49050236
REMARK minimizedRMSD -1
REMARK  0 active torsions:
REMARK  status: ('A' for Active; 'I' for Inactive)
ROOT
ATOM      1  C2' OXE d   1      -0.357   0.255  -1.329  0.00  0.00     0.078 C 
ATOM      2  C1' OXE d   1       2.131  -0.963  -0.879  0.00  0.00     0.078 C 
ATOM      3  C1  OXE d   1       1.223  -0.759   0.308  0.00  0.00    -0.078 A 
ATOM      4  C2  OXE d   1       0.027  -0.120   0.086  0.00  0.00    -0.078 A 
ATOM      5  C3  OXE d   1      -0.871   0.045   1.136  0.00  0.00     0.003 A 
ATOM      6  C4  OXE d   1      -0.504  -0.296   2.444  0.00  0.00    -0.002 A 
ATOM      7  C5  OXE d   1       0.726  -0.911   2.698  0.00  0.00    -0.002 A 
ATOM      8  C6  OXE d   1       1.582  -1.188   1.637  0.00  0.00     0.003 A 
ENDROOT
TORSDOF 0
ENDMDL
