MODEL 1
REMARK minimizedAffinity -4.75286293
REMARK minimizedRMSD -1
REMARK  0 active torsions:
REMARK  status: ('A' for Active; 'I' for Inactive)
ROOT
ATOM      1  C2' OXE d   1      -1.259   0.142   2.014  0.00  0.00     0.078 C 
ATOM      2  C1' OXE d   1       1.318  -0.586   2.858  0.00  0.00     0.078 C 
ATOM      3  C1  OXE d   1       1.010  -0.672   1.384  0.00  0.00    -0.078 A 
ATOM      4  C2  OXE d   1      -0.267  -0.358   0.986  0.00  0.00    -0.078 A 
ATOM      5  C3  OXE d   1      -0.589  -0.367  -0.369  0.00  0.00     0.003 A 
ATOM      6  C4  OXE d   1       0.330  -0.841  -1.313  0.00  0.00    -0.002 A 
ATOM      7  C5  OXE d   1       1.624  -1.203  -0.923  0.00  0.00    -0.002 A 
ATOM      8  C6  OXE d   1       1.993  -1.084   0.412  0.00  0.00     0.003 A 
ENDROOT
TORSDOF 0
ENDMDL
