MODEL 1
REMARK minimizedAffinity -0.00851688627
REMARK minimizedRMSD -1
REMARK  0 active torsions:
REMARK  status: ('A' for Active; 'I' for Inactive)
ROOT
ATOM      1  C2' OXE d   1      -2.930   0.470  -3.068  0.00  0.00     0.078 C 
ATOM      2  C1' OXE d   1      -4.726   2.594  -2.685  0.00  0.00     0.078 C 
ATOM      3  C1  OXE d   1      -3.262   2.927  -2.830  0.00  0.00    -0.078 A 
ATOM      4  C2  OXE d   1      -2.385   1.878  -2.970  0.00  0.00    -0.078 A 
ATOM      5  C3  OXE d   1      -1.030   2.133  -3.161  0.00  0.00     0.003 A 
ATOM      6  C4  OXE d   1      -0.533   3.438  -3.059  0.00  0.00    -0.002 A 
ATOM      7  C5  OXE d   1      -1.404   4.518  -2.877  0.00  0.00    -0.002 A 
ATOM      8  C6  OXE d   1      -2.773   4.284  -2.803  0.00  0.00     0.003 A 
ENDROOT
TORSDOF 0
ENDMDL
