MODEL 1
REMARK minimizedAffinity -2.45664048
REMARK minimizedRMSD -1
REMARK  0 active torsions:
REMARK  status: ('A' for Active; 'I' for Inactive)
ROOT
ATOM      1  C2' OXE d   1       2.979  -1.582  -0.740  0.00  0.00     0.078 C 
ATOM      2  C1' OXE d   1       2.061  -1.136   1.875  0.00  0.00     0.078 C 
ATOM      3  C1  OXE d   1       1.212  -0.630   0.735  0.00  0.00    -0.078 A 
ATOM      4  C2  OXE d   1       1.692  -0.812  -0.539  0.00  0.00    -0.078 A 
ATOM      5  C3  OXE d   1       0.922  -0.413  -1.629  0.00  0.00     0.003 A 
ATOM      6  C4  OXE d   1      -0.262   0.308  -1.434  0.00  0.00    -0.002 A 
ATOM      7  C5  OXE d   1      -0.749   0.538  -0.143  0.00  0.00    -0.002 A 
ATOM      8  C6  OXE d   1      -0.047   0.040   0.949  0.00  0.00     0.003 A 
ENDROOT
TORSDOF 0
ENDMDL
