MODEL 1
REMARK minimizedAffinity -1.58029425
REMARK minimizedRMSD -1
REMARK  0 active torsions:
REMARK  status: ('A' for Active; 'I' for Inactive)
ROOT
ATOM      1  C2' OXE d   1       0.732  -1.298   2.336  0.00  0.00     0.078 C 
ATOM      2  C1' OXE d   1       2.192  -1.319  -0.062  0.00  0.00     0.078 C 
ATOM      3  C1  OXE d   1       0.874  -0.586  -0.048  0.00  0.00    -0.078 A 
ATOM      4  C2  OXE d   1       0.144  -0.621   1.116  0.00  0.00    -0.078 A 
ATOM      5  C3  OXE d   1      -1.053   0.084   1.200  0.00  0.00     0.003 A 
ATOM      6  C4  OXE d   1      -1.595   0.699   0.065  0.00  0.00    -0.002 A 
ATOM      7  C5  OXE d   1      -0.886   0.713  -1.141  0.00  0.00    -0.002 A 
ATOM      8  C6  OXE d   1       0.366   0.112  -1.203  0.00  0.00     0.003 A 
ENDROOT
TORSDOF 0
ENDMDL
