MODEL 1
REMARK minimizedAffinity -2.28161311
REMARK minimizedRMSD -1
REMARK  0 active torsions:
REMARK  status: ('A' for Active; 'I' for Inactive)
ROOT
ATOM      1  C2' OXE d   1      -1.940   0.152   1.126  0.00  0.00     0.078 C 
ATOM      2  C1' OXE d   1      -0.216   0.916  -0.954  0.00  0.00     0.078 C 
ATOM      3  C1  OXE d   1       0.384   0.201   0.231  0.00  0.00    -0.078 A 
ATOM      4  C2  OXE d   1      -0.459  -0.127   1.265  0.00  0.00    -0.078 A 
ATOM      5  C3  OXE d   1       0.033  -0.836   2.358  0.00  0.00     0.003 A 
ATOM      6  C4  OXE d   1       1.406  -1.081   2.483  0.00  0.00    -0.002 A 
ATOM      7  C5  OXE d   1       2.288  -0.720   1.460  0.00  0.00    -0.002 A 
ATOM      8  C6  OXE d   1       1.789  -0.117   0.310  0.00  0.00     0.003 A 
ENDROOT
TORSDOF 0
ENDMDL
