MODEL 1
REMARK minimizedAffinity -4.7508769
REMARK minimizedRMSD -1
REMARK  0 active torsions:
REMARK  status: ('A' for Active; 'I' for Inactive)
ROOT
ATOM      1  C2' OXE d   1       1.454  -0.366   2.804  0.00  0.00     0.078 C 
ATOM      2  C1' OXE d   1      -1.335  -0.629   2.618  0.00  0.00     0.078 C 
ATOM      3  C1  OXE d   1      -0.595  -0.112   1.410  0.00  0.00    -0.078 A 
ATOM      4  C2  OXE d   1       0.764   0.058   1.525  0.00  0.00    -0.078 A 
ATOM      5  C3  OXE d   1       1.502   0.481   0.423  0.00  0.00     0.003 A 
ATOM      6  C4  OXE d   1       0.854   0.881  -0.752  0.00  0.00    -0.002 A 
ATOM      7  C5  OXE d   1      -0.533   0.754  -0.877  0.00  0.00    -0.002 A 
ATOM      8  C6  OXE d   1      -1.266   0.220   0.177  0.00  0.00     0.003 A 
ENDROOT
TORSDOF 0
ENDMDL
