MODEL 1
REMARK minimizedAffinity -3.8785491
REMARK minimizedRMSD -1
REMARK  0 active torsions:
REMARK  status: ('A' for Active; 'I' for Inactive)
ROOT
ATOM      1  C2' OXE d   1      -0.162   0.209  -1.256  0.00  0.00     0.078 C 
ATOM      2  C1' OXE d   1       2.272  -0.921  -0.433  0.00  0.00     0.078 C 
ATOM      3  C1  OXE d   1       1.208  -0.704   0.613  0.00  0.00    -0.078 A 
ATOM      4  C2  OXE d   1       0.037  -0.107   0.211  0.00  0.00    -0.078 A 
ATOM      5  C3  OXE d   1      -0.998   0.066   1.124  0.00  0.00     0.003 A 
ATOM      6  C4  OXE d   1      -0.802  -0.220   2.481  0.00  0.00    -0.002 A 
ATOM      7  C5  OXE d   1       0.397  -0.792   2.919  0.00  0.00    -0.002 A 
ATOM      8  C6  OXE d   1       1.394  -1.078   1.994  0.00  0.00     0.003 A 
ENDROOT
TORSDOF 0
ENDMDL
