MODEL 1
REMARK minimizedAffinity -5.20847893
REMARK minimizedRMSD -1
REMARK  1 active torsions:
REMARK  status: ('A' for Active; 'I' for Inactive)
REMARK    1  A    between atoms: C1_2  and  C2_3 
ROOT
ATOM      1  C2  UNL d   1       0.024   0.423  -0.283  0.00  0.00    -0.081 A 
ATOM      2  C3  UNL d   1      -0.164  -0.027   1.029  0.00  0.00     0.006 A 
ATOM      3  C4  UNL d   1      -0.046  -1.385   1.336  0.00  0.00     0.002 A 
ATOM      4  C5  UNL d   1       0.269  -2.313   0.338  0.00  0.00    -0.080 A 
ATOM      5  C6  UNL d   1       0.428  -3.769   0.659  0.00  0.00     0.076 C 
ATOM      6  C7  UNL d   1       0.440  -1.866  -0.977  0.00  0.00     0.002 A 
ATOM      7  C8  UNL d   1       0.321  -0.508  -1.284  0.00  0.00     0.006 A 
ENDROOT
BRANCH   1   8
ATOM      8  C1  UNL d   1      -0.038   1.894  -0.605  0.00  0.00     0.054 C 
ATOM      9  C   UNL d   1       1.078   2.661   0.089  0.00  0.00     0.018 C 
ENDBRANCH   1   8
TORSDOF 1
ENDMDL
