MODEL 1
REMARK minimizedAffinity -4.77611923
REMARK minimizedRMSD -1
REMARK  1 active torsions:
REMARK  status: ('A' for Active; 'I' for Inactive)
REMARK    1  A    between atoms: C1_2  and  C2_3 
ROOT
ATOM      1  C2  UNL d   1       0.019   0.143  -0.175  0.00  0.00    -0.081 A 
ATOM      2  C3  UNL d   1       0.372  -0.616  -1.298  0.00  0.00     0.006 A 
ATOM      3  C4  UNL d   1       0.328  -2.011  -1.252  0.00  0.00     0.002 A 
ATOM      4  C5  UNL d   1      -0.077  -2.671  -0.087  0.00  0.00    -0.080 A 
ATOM      5  C6  UNL d   1      -0.159  -4.167  -0.034  0.00  0.00     0.076 C 
ATOM      6  C7  UNL d   1      -0.413  -1.913   1.040  0.00  0.00     0.002 A 
ATOM      7  C8  UNL d   1      -0.368  -0.518   0.995  0.00  0.00     0.006 A 
ENDROOT
BRANCH   1   8
ATOM      8  C1  UNL d   1       0.004   1.649  -0.242  0.00  0.00     0.054 C 
ATOM      9  C   UNL d   1       1.325   2.237   0.233  0.00  0.00     0.018 C 
ENDBRANCH   1   8
TORSDOF 1
ENDMDL
