MODEL 1
REMARK minimizedAffinity -6.20948744
REMARK minimizedRMSD -1
REMARK  1 active torsions:
REMARK  status: ('A' for Active; 'I' for Inactive)
REMARK    1  A    between atoms: C1_2  and  C2_3 
ROOT
ATOM      1  C2  UNL d   1       0.254  -1.591  -0.927  0.00  0.00    -0.081 A 
ATOM      2  C3  UNL d   1       0.186  -2.567   0.075  0.00  0.00     0.006 A 
ATOM      3  C4  UNL d   1      -0.305  -2.247   1.343  0.00  0.00     0.002 A 
ATOM      4  C5  UNL d   1      -0.743  -0.950   1.628  0.00  0.00    -0.080 A 
ATOM      5  C6  UNL d   1      -1.300  -0.601   2.976  0.00  0.00     0.076 C 
ATOM      6  C7  UNL d   1      -0.658   0.030   0.633  0.00  0.00     0.002 A 
ATOM      7  C8  UNL d   1      -0.167  -0.289  -0.635  0.00  0.00     0.006 A 
ENDROOT
BRANCH   1   8
ATOM      8  C1  UNL d   1       0.723  -1.948  -2.315  0.00  0.00     0.054 C 
ATOM      9  C   UNL d   1      -0.118  -3.067  -2.912  0.00  0.00     0.018 C 
ENDBRANCH   1   8
TORSDOF 1
ENDMDL
