MODEL 1
REMARK minimizedAffinity -3.99238586
REMARK minimizedRMSD -1
REMARK  1 active torsions:
REMARK  status: ('A' for Active; 'I' for Inactive)
REMARK    1  A    between atoms: C1_2  and  C2_3 
ROOT
ATOM      1  C2  UNL d   1      -0.001   0.160  -0.512  0.00  0.00    -0.081 A 
ATOM      2  C3  UNL d   1       0.369  -0.439  -1.722  0.00  0.00     0.006 A 
ATOM      3  C4  UNL d   1       0.386  -1.831  -1.846  0.00  0.00     0.002 A 
ATOM      4  C5  UNL d   1       0.027  -2.644  -0.767  0.00  0.00    -0.080 A 
ATOM      5  C6  UNL d   1       0.011  -4.139  -0.897  0.00  0.00     0.076 C 
ATOM      6  C7  UNL d   1      -0.326  -2.046   0.447  0.00  0.00     0.002 A 
ATOM      7  C8  UNL d   1      -0.343  -0.655   0.573  0.00  0.00     0.006 A 
ENDROOT
BRANCH   1   8
ATOM      8  C1  UNL d   1      -0.083   1.661  -0.394  0.00  0.00     0.054 C 
ATOM      9  C   UNL d   1       1.269   2.262  -0.037  0.00  0.00     0.018 C 
ENDBRANCH   1   8
TORSDOF 1
ENDMDL
