MODEL 1
REMARK minimizedAffinity -5.18442345
REMARK minimizedRMSD -1
REMARK  1 active torsions:
REMARK  status: ('A' for Active; 'I' for Inactive)
REMARK    1  A    between atoms: C1_2  and  C2_3 
ROOT
ATOM      1  C2  UNL d   1      -0.796  -0.783   0.680  0.00  0.00    -0.081 A 
ATOM      2  C3  UNL d   1      -0.815  -2.183   0.692  0.00  0.00     0.006 A 
ATOM      3  C4  UNL d   1      -0.332  -2.907  -0.400  0.00  0.00     0.002 A 
ATOM      4  C5  UNL d   1       0.185  -2.244  -1.518  0.00  0.00    -0.080 A 
ATOM      5  C6  UNL d   1       0.735  -3.010  -2.685  0.00  0.00     0.076 C 
ATOM      6  C7  UNL d   1       0.188  -0.845  -1.538  0.00  0.00     0.002 A 
ATOM      7  C8  UNL d   1      -0.295  -0.121  -0.446  0.00  0.00     0.006 A 
ENDROOT
BRANCH   1   8
ATOM      8  C1  UNL d   1      -1.257   0.000   1.883  0.00  0.00     0.054 C 
ATOM      9  C   UNL d   1      -2.720   0.399   1.756  0.00  0.00     0.018 C 
ENDBRANCH   1   8
TORSDOF 1
ENDMDL
