MODEL 1
REMARK minimizedAffinity -4.32493353
REMARK minimizedRMSD -1
REMARK  1 active torsions:
REMARK  status: ('A' for Active; 'I' for Inactive)
REMARK    1  A    between atoms: C1_2  and  C2_3 
ROOT
ATOM      1  C2  UNL d   1       0.355  -2.458  -0.871  0.00  0.00    -0.081 A 
ATOM      2  C3  UNL d   1      -0.437  -2.879   0.206  0.00  0.00     0.006 A 
ATOM      3  C4  UNL d   1      -0.932  -1.952   1.125  0.00  0.00     0.002 A 
ATOM      4  C5  UNL d   1      -0.651  -0.589   0.981  0.00  0.00    -0.080 A 
ATOM      5  C6  UNL d   1      -1.202   0.420   1.944  0.00  0.00     0.076 C 
ATOM      6  C7  UNL d   1       0.154  -0.171  -0.085  0.00  0.00     0.002 A 
ATOM      7  C8  UNL d   1       0.650  -1.097  -1.004  0.00  0.00     0.006 A 
ENDROOT
BRANCH   1   8
ATOM      8  C1  UNL d   1       0.836  -3.448  -1.901  0.00  0.00     0.054 C 
ATOM      9  C   UNL d   1       1.351  -2.743  -3.147  0.00  0.00     0.018 C 
ENDBRANCH   1   8
TORSDOF 1
ENDMDL
