MODEL 1
REMARK minimizedAffinity -3.6835072
REMARK minimizedRMSD -1
REMARK  1 active torsions:
REMARK  status: ('A' for Active; 'I' for Inactive)
REMARK    1  A    between atoms: C1_2  and  C2_3 
ROOT
ATOM      1  C2  UNL d   1      -0.026   0.934   0.241  0.00  0.00    -0.081 A 
ATOM      2  C3  UNL d   1      -0.747   0.290   1.254  0.00  0.00     0.006 A 
ATOM      3  C4  UNL d   1      -0.875  -1.101   1.257  0.00  0.00     0.002 A 
ATOM      4  C5  UNL d   1      -0.279  -1.871   0.253  0.00  0.00    -0.080 A 
ATOM      5  C6  UNL d   1      -0.383  -3.367   0.262  0.00  0.00     0.076 C 
ATOM      6  C7  UNL d   1       0.427  -1.227  -0.768  0.00  0.00     0.002 A 
ATOM      7  C8  UNL d   1       0.555   0.164  -0.773  0.00  0.00     0.006 A 
ENDROOT
BRANCH   1   8
ATOM      8  C1  UNL d   1       0.169   2.429   0.270  0.00  0.00     0.054 C 
ATOM      9  C   UNL d   1       1.635   2.792   0.456  0.00  0.00     0.018 C 
ENDBRANCH   1   8
TORSDOF 1
ENDMDL
