MODEL 1
REMARK minimizedAffinity -4.75982237
REMARK minimizedRMSD -1
REMARK  0 active torsions:
REMARK  status: ('A' for Active; 'I' for Inactive)
ROOT
ATOM      1  N1  IND d   1       0.946  -0.343  -0.209  0.00  0.00    -0.196 N 
ATOM      2  C2  IND d   1      -0.385  -0.095  -0.399  0.00  0.00     0.054 A 
ATOM      3  C3  IND d   1      -0.707   1.129   0.077  0.00  0.00    -0.031 A 
ATOM      4  C4  IND d   1       0.810   2.932   1.114  0.00  0.00     0.051 A 
ATOM      5  C5  IND d   1       2.094   3.152   1.528  0.00  0.00    -0.031 A 
ATOM      6  C6  IND d   1       3.081   2.200   1.378  0.00  0.00     0.015 A 
ATOM      7  C7  IND d   1       2.823   0.991   0.796  0.00  0.00    -0.016 A 
ATOM      8  C8  IND d   1       1.519   0.762   0.381  0.00  0.00    -0.047 A 
ATOM      9  C9  IND d   1       0.503   1.708   0.569  0.00  0.00    -0.096 A 
ATOM     10  HN1 IND d   1       1.356  -1.068  -0.423  0.00  0.00     0.298 HD
ENDROOT
TORSDOF 0
ENDMDL
