MODEL 1
REMARK minimizedAffinity -6.22224426
REMARK minimizedRMSD -1
REMARK  0 active torsions:
REMARK  status: ('A' for Active; 'I' for Inactive)
ROOT
ATOM      1  N1  IND d   1       0.773  -0.740   0.620  0.00  0.00    -0.196 N 
ATOM      2  C2  IND d   1       0.766   0.292  -0.276  0.00  0.00     0.054 A 
ATOM      3  C3  IND d   1      -0.463   0.433  -0.822  0.00  0.00    -0.031 A 
ATOM      4  C4  IND d   1      -2.634  -0.854  -0.317  0.00  0.00     0.051 A 
ATOM      5  C5  IND d   1      -3.117  -1.912   0.401  0.00  0.00    -0.031 A 
ATOM      6  C6  IND d   1      -2.312  -2.646   1.248  0.00  0.00     0.015 A 
ATOM      7  C7  IND d   1      -0.991  -2.342   1.418  0.00  0.00    -0.016 A 
ATOM      8  C8  IND d   1      -0.496  -1.273   0.685  0.00  0.00    -0.047 A 
ATOM      9  C9  IND d   1      -1.298  -0.550  -0.208  0.00  0.00    -0.096 A 
ATOM     10  HN1 IND d   1       1.455  -1.012   1.067  0.00  0.00     0.298 HD
ENDROOT
TORSDOF 0
ENDMDL
