MODEL 1
REMARK minimizedAffinity -3.40845752
REMARK minimizedRMSD -1
REMARK  0 active torsions:
REMARK  status: ('A' for Active; 'I' for Inactive)
ROOT
ATOM      1  N1  IND d   1      -3.098  -0.794   0.353  0.00  0.00    -0.196 N 
ATOM      2  C2  IND d   1      -3.508  -1.402  -0.801  0.00  0.00     0.054 A 
ATOM      3  C3  IND d   1      -2.543  -1.323  -1.744  0.00  0.00    -0.031 A 
ATOM      4  C4  IND d   1      -0.173  -0.330  -1.578  0.00  0.00     0.051 A 
ATOM      5  C5  IND d   1       0.646   0.369  -0.737  0.00  0.00    -0.031 A 
ATOM      6  C6  IND d   1       0.251   0.721   0.538  0.00  0.00     0.015 A 
ATOM      7  C7  IND d   1      -0.978   0.376   1.024  0.00  0.00    -0.016 A 
ATOM      8  C8  IND d   1      -1.814  -0.328   0.170  0.00  0.00    -0.047 A 
ATOM      9  C9  IND d   1      -1.436  -0.652  -1.140  0.00  0.00    -0.096 A 
ATOM     10  HN1 IND d   1      -3.563  -0.715   1.071  0.00  0.00     0.298 HD
ENDROOT
TORSDOF 0
ENDMDL
