MODEL 1
REMARK minimizedAffinity -2.04294586
REMARK minimizedRMSD -1
REMARK  0 active torsions:
REMARK  status: ('A' for Active; 'I' for Inactive)
ROOT
ATOM      1  N1  IND d   1       1.036   0.372  -0.231  0.00  0.00    -0.196 N 
ATOM      2  C2  IND d   1       1.119   0.118   1.110  0.00  0.00     0.054 A 
ATOM      3  C3  IND d   1      -0.045  -0.400   1.563  0.00  0.00    -0.031 A 
ATOM      4  C4  IND d   1      -2.180  -1.011   0.261  0.00  0.00     0.051 A 
ATOM      5  C5  IND d   1      -2.745  -0.929  -0.980  0.00  0.00    -0.031 A 
ATOM      6  C6  IND d   1      -2.064  -0.402  -2.058  0.00  0.00     0.015 A 
ATOM      7  C7  IND d   1      -0.783   0.056  -1.936  0.00  0.00    -0.016 A 
ATOM      8  C8  IND d   1      -0.208  -0.019  -0.675  0.00  0.00    -0.047 A 
ATOM      9  C9  IND d   1      -0.910  -0.514   0.432  0.00  0.00    -0.096 A 
ATOM     10  HN1 IND d   1       1.657   0.717  -0.716  0.00  0.00     0.298 HD
ENDROOT
TORSDOF 0
ENDMDL
