MODEL 1
REMARK minimizedAffinity 3.50174856
REMARK minimizedRMSD -1
REMARK  0 active torsions:
REMARK  status: ('A' for Active; 'I' for Inactive)
ROOT
ATOM      1  N1  IND d   1      -0.487  -0.971   0.268  0.00  0.00    -0.196 N 
ATOM      2  C2  IND d   1       0.867  -1.125   0.383  0.00  0.00     0.054 A 
ATOM      3  C3  IND d   1       1.487  -0.685  -0.735  0.00  0.00    -0.031 A 
ATOM      4  C4  IND d   1       0.484   0.420  -2.834  0.00  0.00     0.051 A 
ATOM      5  C5  IND d   1      -0.710   0.741  -3.416  0.00  0.00    -0.031 A 
ATOM      6  C6  IND d   1      -1.915   0.506  -2.786  0.00  0.00     0.015 A 
ATOM      7  C7  IND d   1      -1.970  -0.051  -1.540  0.00  0.00    -0.016 A 
ATOM      8  C8  IND d   1      -0.760  -0.385  -0.949  0.00  0.00    -0.047 A 
ATOM      9  C9  IND d   1       0.464  -0.189  -1.601  0.00  0.00    -0.096 A 
ATOM     10  HN1 IND d   1      -1.069  -1.201   0.857  0.00  0.00     0.298 HD
ENDROOT
TORSDOF 0
ENDMDL
