MODEL 1
REMARK minimizedAffinity -1.92605686
REMARK minimizedRMSD -1
REMARK  0 active torsions:
REMARK  status: ('A' for Active; 'I' for Inactive)
ROOT
ATOM      1  N1  IND d   1       2.104  -0.241   0.205  0.00  0.00    -0.196 N 
ATOM      2  C2  IND d   1       1.127  -0.225  -0.751  0.00  0.00     0.054 A 
ATOM      3  C3  IND d   1       0.730   1.044  -0.996  0.00  0.00    -0.031 A 
ATOM      4  C4  IND d   1       1.619   3.254  -0.020  0.00  0.00     0.051 A 
ATOM      5  C5  IND d   1       2.485   3.747   0.916  0.00  0.00    -0.031 A 
ATOM      6  C6  IND d   1       3.286   2.919   1.675  0.00  0.00     0.015 A 
ATOM      7  C7  IND d   1       3.260   1.562   1.519  0.00  0.00    -0.016 A 
ATOM      8  C8  IND d   1       2.376   1.057   0.575  0.00  0.00    -0.047 A 
ATOM      9  C9  IND d   1       1.530   1.890  -0.169  0.00  0.00    -0.096 A 
ATOM     10  HN1 IND d   1       2.484  -0.944   0.521  0.00  0.00     0.298 HD
ENDROOT
TORSDOF 0
ENDMDL
