MODEL 1
REMARK minimizedAffinity -4.06997108
REMARK minimizedRMSD -1
REMARK  0 active torsions:
REMARK  status: ('A' for Active; 'I' for Inactive)
ROOT
ATOM      1  N1  IND d   1      -0.020  -2.307   1.396  0.00  0.00    -0.196 N 
ATOM      2  C2  IND d   1      -1.092  -3.138   1.572  0.00  0.00     0.054 A 
ATOM      3  C3  IND d   1      -2.107  -2.774   0.757  0.00  0.00    -0.031 A 
ATOM      4  C4  IND d   1      -2.194  -0.911  -1.017  0.00  0.00     0.051 A 
ATOM      5  C5  IND d   1      -1.470   0.135  -1.517  0.00  0.00    -0.031 A 
ATOM      6  C6  IND d   1      -0.199   0.424  -1.064  0.00  0.00     0.015 A 
ATOM      7  C7  IND d   1       0.402  -0.332  -0.098  0.00  0.00    -0.016 A 
ATOM      8  C8  IND d   1      -0.333  -1.390   0.417  0.00  0.00    -0.047 A 
ATOM      9  C9  IND d   1      -1.639  -1.663  -0.009  0.00  0.00    -0.096 A 
ATOM     10  HN1 IND d   1       0.723  -2.350   1.826  0.00  0.00     0.298 HD
ENDROOT
TORSDOF 0
ENDMDL
