MODEL 1
REMARK minimizedAffinity -5.45636511
REMARK minimizedRMSD -1
REMARK  0 active torsions:
REMARK  status: ('A' for Active; 'I' for Inactive)
ROOT
ATOM      1  N1  IND d   1      -0.209  -2.485   1.503  0.00  0.00    -0.196 N 
ATOM      2  C2  IND d   1      -1.392  -3.171   1.503  0.00  0.00     0.054 A 
ATOM      3  C3  IND d   1      -2.224  -2.675   0.560  0.00  0.00    -0.031 A 
ATOM      4  C4  IND d   1      -1.813  -0.809  -1.166  0.00  0.00     0.051 A 
ATOM      5  C5  IND d   1      -0.896   0.136  -1.532  0.00  0.00    -0.031 A 
ATOM      6  C6  IND d   1       0.322   0.256  -0.895  0.00  0.00     0.015 A 
ATOM      7  C7  IND d   1       0.675  -0.575   0.130  0.00  0.00    -0.016 A 
ATOM      8  C8  IND d   1      -0.256  -1.531   0.510  0.00  0.00    -0.047 A 
ATOM      9  C9  IND d   1      -1.511  -1.631  -0.105  0.00  0.00    -0.096 A 
ATOM     10  HN1 IND d   1       0.452  -2.626   2.033  0.00  0.00     0.298 HD
ENDROOT
TORSDOF 0
ENDMDL
