MODEL 1
REMARK minimizedAffinity -2.87433743
REMARK minimizedRMSD -1
REMARK  0 active torsions:
REMARK  status: ('A' for Active; 'I' for Inactive)
ROOT
ATOM      1  N1  IND d   1       0.925  -0.363   0.855  0.00  0.00    -0.196 N 
ATOM      2  C2  IND d   1       1.689   0.491   0.109  0.00  0.00     0.054 A 
ATOM      3  C3  IND d   1       0.969   0.989  -0.921  0.00  0.00    -0.031 A 
ATOM      4  C4  IND d   1      -1.509   0.619  -1.513  0.00  0.00     0.051 A 
ATOM      5  C5  IND d   1      -2.608  -0.107  -1.147  0.00  0.00    -0.031 A 
ATOM      6  C6  IND d   1      -2.585  -0.971  -0.071  0.00  0.00     0.015 A 
ATOM      7  C7  IND d   1      -1.461  -1.133   0.688  0.00  0.00    -0.016 A 
ATOM      8  C8  IND d   1      -0.342  -0.403   0.315  0.00  0.00    -0.047 A 
ATOM      9  C9  IND d   1      -0.346   0.443  -0.801  0.00  0.00    -0.096 A 
ATOM     10  HN1 IND d   1       1.191  -0.802   1.544  0.00  0.00     0.298 HD
ENDROOT
TORSDOF 0
ENDMDL
