MODEL 1
REMARK minimizedAffinity -6.33253336
REMARK minimizedRMSD -1
REMARK  0 active torsions:
REMARK  status: ('A' for Active; 'I' for Inactive)
ROOT
ATOM      1  N1  IND d   1       0.829  -1.527   1.206  0.00  0.00    -0.196 N 
ATOM      2  C2  IND d   1       1.529  -0.573   0.522  0.00  0.00     0.054 A 
ATOM      3  C3  IND d   1       0.713   0.091  -0.327  0.00  0.00    -0.031 A 
ATOM      4  C4  IND d   1      -1.825  -0.154  -0.683  0.00  0.00     0.051 A 
ATOM      5  C5  IND d   1      -2.896  -0.918  -0.312  0.00  0.00    -0.031 A 
ATOM      6  C6  IND d   1      -2.778  -1.943   0.604  0.00  0.00     0.015 A 
ATOM      7  C7  IND d   1      -1.582  -2.236   1.195  0.00  0.00    -0.016 A 
ATOM      8  C8  IND d   1      -0.491  -1.467   0.816  0.00  0.00    -0.047 A 
ATOM      9  C9  IND d   1      -0.595  -0.453  -0.145  0.00  0.00    -0.096 A 
ATOM     10  HN1 IND d   1       1.158  -2.073   1.783  0.00  0.00     0.298 HD
ENDROOT
TORSDOF 0
ENDMDL
