MODEL 1
REMARK minimizedAffinity 1.54235649
REMARK minimizedRMSD -1
REMARK  0 active torsions:
REMARK  status: ('A' for Active; 'I' for Inactive)
ROOT
ATOM      1  N1  IND d   1       0.894   0.523   1.604  0.00  0.00    -0.196 N 
ATOM      2  C2  IND d   1       0.655  -0.101   0.411  0.00  0.00     0.054 A 
ATOM      3  C3  IND d   1       1.327   0.518  -0.586  0.00  0.00    -0.031 A 
ATOM      4  C4  IND d   1       2.957   2.508  -0.471  0.00  0.00     0.051 A 
ATOM      5  C5  IND d   1       3.465   3.435   0.395  0.00  0.00    -0.031 A 
ATOM      6  C6  IND d   1       3.138   3.437   1.736  0.00  0.00     0.015 A 
ATOM      7  C7  IND d   1       2.295   2.501   2.265  0.00  0.00    -0.016 A 
ATOM      8  C8  IND d   1       1.772   1.562   1.387  0.00  0.00    -0.047 A 
ATOM      9  C9  IND d   1       2.067   1.581   0.018  0.00  0.00    -0.096 A 
ATOM     10  HN1 IND d   1       0.554   0.302   2.362  0.00  0.00     0.298 HD
ENDROOT
TORSDOF 0
ENDMDL
