MODEL 1
REMARK minimizedAffinity -2.96570253
REMARK minimizedRMSD -1
REMARK  0 active torsions:
REMARK  status: ('A' for Active; 'I' for Inactive)
ROOT
ATOM      1  N1  IND d   1       0.882  -0.040  -1.376  0.00  0.00    -0.196 N 
ATOM      2  C2  IND d   1       1.579   0.342  -0.264  0.00  0.00     0.054 A 
ATOM      3  C3  IND d   1       0.757   0.405   0.807  0.00  0.00    -0.031 A 
ATOM      4  C4  IND d   1      -1.745  -0.174   0.985  0.00  0.00     0.051 A 
ATOM      5  C5  IND d   1      -2.824  -0.535   0.228  0.00  0.00    -0.031 A 
ATOM      6  C6  IND d   1      -2.720  -0.756  -1.130  0.00  0.00     0.015 A 
ATOM      7  C7  IND d   1      -1.525  -0.636  -1.782  0.00  0.00    -0.016 A 
ATOM      8  C8  IND d   1      -0.429  -0.263  -1.017  0.00  0.00    -0.047 A 
ATOM      9  C9  IND d   1      -0.537   0.005   0.353  0.00  0.00    -0.096 A 
ATOM     10  HN1 IND d   1       1.208  -0.127  -2.167  0.00  0.00     0.298 HD
ENDROOT
TORSDOF 0
ENDMDL
