MODEL 1
REMARK minimizedAffinity -4.73054838
REMARK minimizedRMSD -1
REMARK  0 active torsions:
REMARK  status: ('A' for Active; 'I' for Inactive)
ROOT
ATOM      1  N1  IND d   1       0.911  -0.462   0.409  0.00  0.00    -0.196 N 
ATOM      2  C2  IND d   1       1.068   0.351  -0.678  0.00  0.00     0.054 A 
ATOM      3  C3  IND d   1      -0.082   0.418  -1.386  0.00  0.00    -0.031 A 
ATOM      4  C4  IND d   1      -2.373  -0.643  -0.886  0.00  0.00     0.051 A 
ATOM      5  C5  IND d   1      -2.999  -1.500  -0.025  0.00  0.00    -0.031 A 
ATOM      6  C6  IND d   1      -2.340  -2.064   1.049  0.00  0.00     0.015 A 
ATOM      7  C7  IND d   1      -1.029  -1.782   1.308  0.00  0.00    -0.016 A 
ATOM      8  C8  IND d   1      -0.389  -0.918   0.432  0.00  0.00    -0.047 A 
ATOM      9  C9  IND d   1      -1.040  -0.376  -0.684  0.00  0.00    -0.096 A 
ATOM     10  HN1 IND d   1       1.521  -0.657   0.983  0.00  0.00     0.298 HD
ENDROOT
TORSDOF 0
ENDMDL
