MODEL 1
REMARK minimizedAffinity 0.188069999
REMARK minimizedRMSD -1
REMARK  0 active torsions:
REMARK  status: ('A' for Active; 'I' for Inactive)
ROOT
ATOM      1  C1  BNZ d   1      -0.365   2.755   0.301  0.00  0.00     0.000 A 
ATOM      2  C2  BNZ d   1      -1.099   2.936  -0.840  0.00  0.00     0.000 A 
ATOM      3  C3  BNZ d   1      -0.544   3.520  -1.944  0.00  0.00     0.000 A 
ATOM      4  C4  BNZ d   1       0.731   3.957  -1.893  0.00  0.00     0.000 A 
ATOM      5  C5  BNZ d   1       1.481   3.790  -0.746  0.00  0.00     0.000 A 
ATOM      6  C6  BNZ d   1       0.931   3.167   0.351  0.00  0.00     0.000 A 
ENDROOT
TORSDOF 0
ENDMDL
