MODEL 1
REMARK minimizedAffinity 6.76901293
REMARK minimizedRMSD -1
REMARK  0 active torsions:
REMARK  status: ('A' for Active; 'I' for Inactive)
ROOT
ATOM      1  C1  BNZ d   1       0.675  -4.382  -3.426  0.00  0.00     0.000 A 
ATOM      2  C2  BNZ d   1       1.621  -5.104  -2.748  0.00  0.00     0.000 A 
ATOM      3  C3  BNZ d   1       1.735  -5.006  -1.389  0.00  0.00     0.000 A 
ATOM      4  C4  BNZ d   1       0.932  -4.158  -0.716  0.00  0.00     0.000 A 
ATOM      5  C5  BNZ d   1      -0.021  -3.417  -1.386  0.00  0.00     0.000 A 
ATOM      6  C6  BNZ d   1      -0.159  -3.547  -2.748  0.00  0.00     0.000 A 
ENDROOT
TORSDOF 0
ENDMDL
