MODEL 1
REMARK minimizedAffinity 9.13059616
REMARK minimizedRMSD -1
REMARK  0 active torsions:
REMARK  status: ('A' for Active; 'I' for Inactive)
ROOT
ATOM      1  C1  BNZ d   1       1.924  -2.464  -2.073  0.00  0.00     0.000 A 
ATOM      2  C2  BNZ d   1       1.199  -3.588  -2.367  0.00  0.00     0.000 A 
ATOM      3  C3  BNZ d   1       0.825  -4.457  -1.380  0.00  0.00     0.000 A 
ATOM      4  C4  BNZ d   1       1.210  -4.222  -0.109  0.00  0.00     0.000 A 
ATOM      5  C5  BNZ d   1       1.950  -3.098   0.201  0.00  0.00     0.000 A 
ATOM      6  C6  BNZ d   1       2.291  -2.205  -0.789  0.00  0.00     0.000 A 
ENDROOT
TORSDOF 0
ENDMDL
