MODEL 1
REMARK minimizedAffinity 6.9412632
REMARK minimizedRMSD -1
REMARK  0 active torsions:
REMARK  status: ('A' for Active; 'I' for Inactive)
ROOT
ATOM      1  C1  BNZ d   1       1.052  -3.811  -1.400  0.00  0.00     0.000 A 
ATOM      2  C2  BNZ d   1       1.826  -4.041  -0.293  0.00  0.00     0.000 A 
ATOM      3  C3  BNZ d   1       2.654  -3.070   0.196  0.00  0.00     0.000 A 
ATOM      4  C4  BNZ d   1       2.738  -1.886  -0.445  0.00  0.00     0.000 A 
ATOM      5  C5  BNZ d   1       1.971  -1.643  -1.568  0.00  0.00     0.000 A 
ATOM      6  C6  BNZ d   1       1.110  -2.609  -2.034  0.00  0.00     0.000 A 
ENDROOT
TORSDOF 0
ENDMDL
