MODEL 1
REMARK minimizedAffinity 4.99560928
REMARK minimizedRMSD -1
REMARK  0 active torsions:
REMARK  status: ('A' for Active; 'I' for Inactive)
ROOT
ATOM      1  C1  BNZ d   1       2.244  -2.611   3.760  0.00  0.00     0.000 A 
ATOM      2  C2  BNZ d   1       1.439  -1.503   3.769  0.00  0.00     0.000 A 
ATOM      3  C3  BNZ d   1       0.751  -1.147   4.896  0.00  0.00     0.000 A 
ATOM      4  C4  BNZ d   1       0.837  -1.921   5.997  0.00  0.00     0.000 A 
ATOM      5  C5  BNZ d   1       1.636  -3.046   6.000  0.00  0.00     0.000 A 
ATOM      6  C6  BNZ d   1       2.357  -3.380   4.877  0.00  0.00     0.000 A 
ENDROOT
TORSDOF 0
ENDMDL
