MODEL 1
REMARK minimizedAffinity 10.667757
REMARK minimizedRMSD -1
REMARK  0 active torsions:
REMARK  status: ('A' for Active; 'I' for Inactive)
ROOT
ATOM      1  C1  BNZ d   1      -4.462   3.053  -3.088  0.00  0.00     0.000 A 
ATOM      2  C2  BNZ d   1      -4.853   1.956  -3.808  0.00  0.00     0.000 A 
ATOM      3  C3  BNZ d   1      -4.288   1.677  -5.021  0.00  0.00     0.000 A 
ATOM      4  C4  BNZ d   1      -3.363   2.516  -5.530  0.00  0.00     0.000 A 
ATOM      5  C5  BNZ d   1      -2.965   3.631  -4.820  0.00  0.00     0.000 A 
ATOM      6  C6  BNZ d   1      -3.508   3.888  -3.582  0.00  0.00     0.000 A 
ENDROOT
TORSDOF 0
ENDMDL
