MODEL 1
REMARK minimizedAffinity 8.08863163
REMARK minimizedRMSD -1
REMARK  0 active torsions:
REMARK  status: ('A' for Active; 'I' for Inactive)
ROOT
ATOM      1  C1  BNZ d   1      -0.008   2.203   0.833  0.00  0.00     0.000 A 
ATOM      2  C2  BNZ d   1       1.255   2.456   0.369  0.00  0.00     0.000 A 
ATOM      3  C3  BNZ d   1       1.450   3.211  -0.754  0.00  0.00     0.000 A 
ATOM      4  C4  BNZ d   1       0.382   3.677  -1.433  0.00  0.00     0.000 A 
ATOM      5  C5  BNZ d   1      -0.898   3.422  -0.983  0.00  0.00     0.000 A 
ATOM      6  C6  BNZ d   1      -1.089   2.694   0.169  0.00  0.00     0.000 A 
ENDROOT
TORSDOF 0
ENDMDL
