MODEL 1
REMARK minimizedAffinity 7.6538558
REMARK minimizedRMSD -1
REMARK  0 active torsions:
REMARK  status: ('A' for Active; 'I' for Inactive)
ROOT
ATOM      1  C1  BNZ d   1       4.828  -1.219   0.412  0.00  0.00     0.000 A 
ATOM      2  C2  BNZ d   1       5.998  -1.896   0.193  0.00  0.00     0.000 A 
ATOM      3  C3  BNZ d   1       5.999  -3.248  -0.002  0.00  0.00     0.000 A 
ATOM      4  C4  BNZ d   1       4.836  -3.928   0.062  0.00  0.00     0.000 A 
ATOM      5  C5  BNZ d   1       3.649  -3.262   0.292  0.00  0.00     0.000 A 
ATOM      6  C6  BNZ d   1       3.647  -1.895   0.449  0.00  0.00     0.000 A 
ENDROOT
TORSDOF 0
ENDMDL
