MODEL 1
REMARK minimizedAffinity 6.83510113
REMARK minimizedRMSD -1
REMARK  0 active torsions:
REMARK  status: ('A' for Active; 'I' for Inactive)
ROOT
ATOM      1  C1  BNZ d   1       2.605  -1.233  -0.583  0.00  0.00     0.000 A 
ATOM      2  C2  BNZ d   1       1.685  -1.829  -1.404  0.00  0.00     0.000 A 
ATOM      3  C3  BNZ d   1       1.150  -3.046  -1.089  0.00  0.00     0.000 A 
ATOM      4  C4  BNZ d   1       1.564  -3.684   0.025  0.00  0.00     0.000 A 
ATOM      5  C5  BNZ d   1       2.498  -3.101   0.858  0.00  0.00     0.000 A 
ATOM      6  C6  BNZ d   1       3.006  -1.858   0.558  0.00  0.00     0.000 A 
ENDROOT
TORSDOF 0
ENDMDL
