MODEL 1
REMARK minimizedAffinity 8.18794727
REMARK minimizedRMSD -1
REMARK  0 active torsions:
REMARK  status: ('A' for Active; 'I' for Inactive)
ROOT
ATOM      1  C1  BNZ d   1       0.608  -4.352  -1.537  0.00  0.00     0.000 A 
ATOM      2  C2  BNZ d   1       1.570  -4.780  -0.661  0.00  0.00     0.000 A 
ATOM      3  C3  BNZ d   1       2.492  -3.907  -0.154  0.00  0.00     0.000 A 
ATOM      4  C4  BNZ d   1       2.477  -2.619  -0.554  0.00  0.00     0.000 A 
ATOM      5  C5  BNZ d   1       1.519  -2.175  -1.444  0.00  0.00     0.000 A 
ATOM      6  C6  BNZ d   1       0.568  -3.047  -1.922  0.00  0.00     0.000 A 
ENDROOT
TORSDOF 0
ENDMDL
