MODEL 1
REMARK minimizedAffinity 10.9247007
REMARK minimizedRMSD -1
REMARK  0 active torsions:
REMARK  status: ('A' for Active; 'I' for Inactive)
ROOT
ATOM      1  C1  BNZ d   1       2.749  -5.736  -0.892  0.00  0.00     0.000 A 
ATOM      2  C2  BNZ d   1       3.167  -4.470  -0.576  0.00  0.00     0.000 A 
ATOM      3  C3  BNZ d   1       2.266  -3.451  -0.434  0.00  0.00     0.000 A 
ATOM      4  C4  BNZ d   1       0.956  -3.690  -0.646  0.00  0.00     0.000 A 
ATOM      5  C5  BNZ d   1       0.521  -4.959  -0.974  0.00  0.00     0.000 A 
ATOM      6  C6  BNZ d   1       1.426  -5.990  -1.078  0.00  0.00     0.000 A 
ENDROOT
TORSDOF 0
ENDMDL
