MODEL 1
REMARK minimizedAffinity -2.32955289
REMARK minimizedRMSD -1
REMARK  0 active torsions:
REMARK  status: ('A' for Active; 'I' for Inactive)
ROOT
ATOM      1  O1  BZF d   1      -2.544  -1.032   4.467  0.00  0.00    -0.204 OA
ATOM      2  C2  BZF d   1      -3.444  -1.873   3.842  0.00  0.00     0.174 A 
ATOM      3  C3  BZF d   1      -3.750  -1.417   2.610  0.00  0.00    -0.012 A 
ATOM      4  C3A BZF d   1      -2.922  -0.266   2.419  0.00  0.00    -0.107 A 
ATOM      5  C4  BZF d   1      -2.758   0.611   1.385  0.00  0.00     0.055 A 
ATOM      6  C5  BZF d   1      -1.923   1.671   1.545  0.00  0.00    -0.016 A 
ATOM      7  C6  BZF d   1      -1.242   1.888   2.725  0.00  0.00     0.022 A 
ATOM      8  C7  BZF d   1      -1.369   1.043   3.777  0.00  0.00     0.029 A 
ATOM      9  C7A BZF d   1      -2.186  -0.048   3.607  0.00  0.00     0.058 A 
ENDROOT
TORSDOF 0
ENDMDL
