MODEL 1
REMARK minimizedAffinity -5.41132307
REMARK minimizedRMSD -1
REMARK  0 active torsions:
REMARK  status: ('A' for Active; 'I' for Inactive)
ROOT
ATOM      1  O1  BZF d   1      -3.949  -0.469   4.457  0.00  0.00    -0.204 OA
ATOM      2  C2  BZF d   1      -4.533  -1.492   3.735  0.00  0.00     0.174 A 
ATOM      3  C3  BZF d   1      -4.134  -1.456   2.447  0.00  0.00    -0.012 A 
ATOM      4  C3A BZF d   1      -3.175  -0.397   2.379  0.00  0.00    -0.107 A 
ATOM      5  C4  BZF d   1      -2.412   0.116   1.369  0.00  0.00     0.055 A 
ATOM      6  C5  BZF d   1      -1.630   1.199   1.617  0.00  0.00    -0.016 A 
ATOM      7  C6  BZF d   1      -1.590   1.797   2.860  0.00  0.00     0.022 A 
ATOM      8  C7  BZF d   1      -2.325   1.321   3.894  0.00  0.00     0.029 A 
ATOM      9  C7A BZF d   1      -3.091   0.206   3.656  0.00  0.00     0.058 A 
ENDROOT
TORSDOF 0
ENDMDL
