MODEL 1
REMARK minimizedAffinity -2.54765868
REMARK minimizedRMSD -1
REMARK  0 active torsions:
REMARK  status: ('A' for Active; 'I' for Inactive)
ROOT
ATOM      1  O1  BZF d   1      -5.191  -2.718   4.792  0.00  0.00    -0.204 OA
ATOM      2  C2  BZF d   1      -5.604  -3.420   3.676  0.00  0.00     0.174 A 
ATOM      3  C3  BZF d   1      -5.103  -2.868   2.552  0.00  0.00    -0.012 A 
ATOM      4  C3A BZF d   1      -4.254  -1.807   2.999  0.00  0.00    -0.107 A 
ATOM      5  C4  BZF d   1      -3.464  -0.901   2.352  0.00  0.00     0.055 A 
ATOM      6  C5  BZF d   1      -2.819   0.051   3.078  0.00  0.00    -0.016 A 
ATOM      7  C6  BZF d   1      -2.946   0.127   4.450  0.00  0.00     0.022 A 
ATOM      8  C7  BZF d   1      -3.715  -0.753   5.136  0.00  0.00     0.029 A 
ATOM      9  C7A BZF d   1      -4.341  -1.736   4.409  0.00  0.00     0.058 A 
ENDROOT
TORSDOF 0
ENDMDL
