MODEL 1
REMARK minimizedAffinity -2.30788445
REMARK minimizedRMSD -1
REMARK  0 active torsions:
REMARK  status: ('A' for Active; 'I' for Inactive)
ROOT
ATOM      1  O1  BZF d   1      -0.431  -1.118  -0.216  0.00  0.00    -0.204 OA
ATOM      2  C2  BZF d   1      -1.299  -0.066   0.003  0.00  0.00     0.174 A 
ATOM      3  C3  BZF d   1      -0.742   1.101  -0.381  0.00  0.00    -0.012 A 
ATOM      4  C3A BZF d   1       0.519   0.746  -0.956  0.00  0.00    -0.107 A 
ATOM      5  C4  BZF d   1       1.526   1.467  -1.530  0.00  0.00     0.055 A 
ATOM      6  C5  BZF d   1       2.657   0.826  -1.925  0.00  0.00    -0.016 A 
ATOM      7  C6  BZF d   1       2.816  -0.534  -1.756  0.00  0.00     0.022 A 
ATOM      8  C7  BZF d   1       1.843  -1.293  -1.196  0.00  0.00     0.029 A 
ATOM      9  C7A BZF d   1       0.686  -0.653  -0.826  0.00  0.00     0.058 A 
ENDROOT
TORSDOF 0
ENDMDL
