MODEL 1
REMARK minimizedAffinity 9.72491837
REMARK minimizedRMSD -1
REMARK  0 active torsions:
REMARK  status: ('A' for Active; 'I' for Inactive)
ROOT
ATOM      1  O1  BZF d   1      -2.075  -0.934  -0.806  0.00  0.00    -0.204 OA
ATOM      2  C2  BZF d   1      -2.490  -2.231  -1.041  0.00  0.00     0.174 A 
ATOM      3  C3  BZF d   1      -1.445  -3.014  -1.380  0.00  0.00    -0.012 A 
ATOM      4  C3A BZF d   1      -0.293  -2.173  -1.266  0.00  0.00    -0.107 A 
ATOM      5  C4  BZF d   1       1.043  -2.381  -1.457  0.00  0.00     0.055 A 
ATOM      6  C5  BZF d   1       1.899  -1.332  -1.335  0.00  0.00    -0.016 A 
ATOM      7  C6  BZF d   1       1.453  -0.063  -1.027  0.00  0.00     0.022 A 
ATOM      8  C7  BZF d   1       0.137   0.191  -0.824  0.00  0.00     0.029 A 
ATOM      9  C7A BZF d   1      -0.726  -0.874  -0.914  0.00  0.00     0.058 A 
ENDROOT
TORSDOF 0
ENDMDL
