MODEL 1
REMARK minimizedAffinity -3.50655794
REMARK minimizedRMSD -1
REMARK  0 active torsions:
REMARK  status: ('A' for Active; 'I' for Inactive)
ROOT
ATOM      1  O1  BZF d   1      -1.385  -0.534   0.051  0.00  0.00    -0.204 OA
ATOM      2  C2  BZF d   1      -1.672   0.807   0.220  0.00  0.00     0.174 A 
ATOM      3  C3  BZF d   1      -0.607   1.568  -0.103  0.00  0.00    -0.012 A 
ATOM      4  C3A BZF d   1       0.379   0.651  -0.585  0.00  0.00    -0.107 A 
ATOM      5  C4  BZF d   1       1.647   0.805  -1.070  0.00  0.00     0.055 A 
ATOM      6  C5  BZF d   1       2.371  -0.301  -1.388  0.00  0.00    -0.016 A 
ATOM      7  C6  BZF d   1       1.861  -1.573  -1.229  0.00  0.00     0.022 A 
ATOM      8  C7  BZF d   1       0.607  -1.775  -0.756  0.00  0.00     0.029 A 
ATOM      9  C7A BZF d   1      -0.139  -0.659  -0.465  0.00  0.00     0.058 A 
ENDROOT
TORSDOF 0
ENDMDL
