MODEL 1
REMARK minimizedAffinity 0.975823522
REMARK minimizedRMSD -1
REMARK  0 active torsions:
REMARK  status: ('A' for Active; 'I' for Inactive)
ROOT
ATOM      1  O1  BZF d   1       1.166  -1.788  -2.344  0.00  0.00    -0.204 OA
ATOM      2  C2  BZF d   1       0.295  -2.857  -2.441  0.00  0.00     0.174 A 
ATOM      3  C3  BZF d   1       0.508  -3.740  -1.444  0.00  0.00    -0.012 A 
ATOM      4  C3A BZF d   1       1.516  -3.143  -0.622  0.00  0.00    -0.107 A 
ATOM      5  C4  BZF d   1       2.139  -3.531   0.530  0.00  0.00     0.055 A 
ATOM      6  C5  BZF d   1       3.132  -2.754   1.038  0.00  0.00    -0.016 A 
ATOM      7  C6  BZF d   1       3.530  -1.588   0.418  0.00  0.00     0.022 A 
ATOM      8  C7  BZF d   1       2.938  -1.159  -0.724  0.00  0.00     0.029 A 
ATOM      9  C7A BZF d   1       1.913  -1.926  -1.222  0.00  0.00     0.058 A 
ENDROOT
TORSDOF 0
ENDMDL
