MODEL 1
REMARK minimizedAffinity -2.31903172
REMARK minimizedRMSD -1
REMARK  0 active torsions:
REMARK  status: ('A' for Active; 'I' for Inactive)
ROOT
ATOM      1  O1  BZF d   1      -0.335   0.249   0.841  0.00  0.00    -0.204 OA
ATOM      2  C2  BZF d   1      -0.548   1.604   0.679  0.00  0.00     0.174 A 
ATOM      3  C3  BZF d   1      -0.132   2.012  -0.537  0.00  0.00    -0.012 A 
ATOM      4  C3A BZF d   1       0.288   0.821  -1.210  0.00  0.00    -0.107 A 
ATOM      5  C4  BZF d   1       0.787   0.573  -2.457  0.00  0.00     0.055 A 
ATOM      6  C5  BZF d   1       1.166  -0.692  -2.777  0.00  0.00    -0.016 A 
ATOM      7  C6  BZF d   1       1.065  -1.731  -1.875  0.00  0.00     0.022 A 
ATOM      8  C7  BZF d   1       0.571  -1.535  -0.628  0.00  0.00     0.029 A 
ATOM      9  C7A BZF d   1       0.156  -0.264  -0.312  0.00  0.00     0.058 A 
ENDROOT
TORSDOF 0
ENDMDL
