MODEL 1
REMARK minimizedAffinity -3.9365356
REMARK minimizedRMSD -1
REMARK  0 active torsions:
REMARK  status: ('A' for Active; 'I' for Inactive)
ROOT
ATOM      1  O1  BZF d   1      -0.840  -0.731  -0.685  0.00  0.00    -0.204 OA
ATOM      2  C2  BZF d   1      -0.227  -1.969  -0.649  0.00  0.00     0.174 A 
ATOM      3  C3  BZF d   1       1.111  -1.838  -0.545  0.00  0.00    -0.012 A 
ATOM      4  C3A BZF d   1       1.343  -0.431  -0.422  0.00  0.00    -0.107 A 
ATOM      5  C4  BZF d   1       2.470   0.325  -0.270  0.00  0.00     0.055 A 
ATOM      6  C5  BZF d   1       2.359   1.679  -0.255  0.00  0.00    -0.016 A 
ATOM      7  C6  BZF d   1       1.140   2.310  -0.394  0.00  0.00     0.022 A 
ATOM      8  C7  BZF d   1      -0.006   1.602  -0.542  0.00  0.00     0.029 A 
ATOM      9  C7A BZF d   1       0.098   0.233  -0.524  0.00  0.00     0.058 A 
ENDROOT
TORSDOF 0
ENDMDL
