MODEL 1
REMARK minimizedAffinity 4.34850645
REMARK minimizedRMSD -1
REMARK  0 active torsions:
REMARK  status: ('A' for Active; 'I' for Inactive)
ROOT
ATOM      1  O1  BZF d   1      -3.945  -1.056   5.034  0.00  0.00    -0.204 OA
ATOM      2  C2  BZF d   1      -4.177  -2.341   4.582  0.00  0.00     0.174 A 
ATOM      3  C3  BZF d   1      -3.703  -2.500   3.329  0.00  0.00    -0.012 A 
ATOM      4  C3A BZF d   1      -3.058  -1.263   3.011  0.00  0.00    -0.107 A 
ATOM      5  C4  BZF d   1      -2.383  -0.812   1.913  0.00  0.00     0.055 A 
ATOM      6  C5  BZF d   1      -1.939   0.473   1.893  0.00  0.00    -0.016 A 
ATOM      7  C6  BZF d   1      -2.157   1.333   2.949  0.00  0.00     0.022 A 
ATOM      8  C7  BZF d   1      -2.817   0.929   4.061  0.00  0.00     0.029 A 
ATOM      9  C7A BZF d   1      -3.238  -0.378   4.099  0.00  0.00     0.058 A 
ENDROOT
TORSDOF 0
ENDMDL
