MODEL 1
REMARK minimizedAffinity -5.31266069
REMARK minimizedRMSD -1
REMARK  0 active torsions:
REMARK  status: ('A' for Active; 'I' for Inactive)
ROOT
ATOM      1  O1  BZF d   1      -0.948   1.334  -1.173  0.00  0.00    -0.204 OA
ATOM      2  C2  BZF d   1      -1.353   0.390  -0.249  0.00  0.00     0.174 A 
ATOM      3  C3  BZF d   1      -0.327  -0.417   0.089  0.00  0.00    -0.012 A 
ATOM      4  C3A BZF d   1       0.810   0.109  -0.601  0.00  0.00    -0.107 A 
ATOM      5  C4  BZF d   1       2.126  -0.252  -0.654  0.00  0.00     0.055 A 
ATOM      6  C5  BZF d   1       2.964   0.426  -1.481  0.00  0.00    -0.016 A 
ATOM      7  C6  BZF d   1       2.520   1.465  -2.272  0.00  0.00     0.022 A 
ATOM      8  C7  BZF d   1       1.224   1.863  -2.250  0.00  0.00     0.029 A 
ATOM      9  C7A BZF d   1       0.382   1.201  -1.391  0.00  0.00     0.058 A 
ENDROOT
TORSDOF 0
ENDMDL
