MODEL 1
REMARK minimizedAffinity 1.56812954
REMARK minimizedRMSD -1
REMARK  0 active torsions:
REMARK  status: ('A' for Active; 'I' for Inactive)
ROOT
ATOM      1  O1  BZF d   1      -1.229   2.016  -0.441  0.00  0.00    -0.204 OA
ATOM      2  C2  BZF d   1      -1.794   0.994  -1.179  0.00  0.00     0.174 A 
ATOM      3  C3  BZF d   1      -2.798   0.409  -0.496  0.00  0.00    -0.012 A 
ATOM      4  C3A BZF d   1      -2.926   1.169   0.710  0.00  0.00    -0.107 A 
ATOM      5  C4  BZF d   1      -3.761   1.087   1.787  0.00  0.00     0.055 A 
ATOM      6  C5  BZF d   1      -3.577   1.936   2.832  0.00  0.00    -0.016 A 
ATOM      7  C6  BZF d   1      -2.565   2.874   2.836  0.00  0.00     0.022 A 
ATOM      8  C7  BZF d   1      -1.715   2.996   1.787  0.00  0.00     0.029 A 
ATOM      9  C7A BZF d   1      -1.920   2.162   0.716  0.00  0.00     0.058 A 
ENDROOT
TORSDOF 0
ENDMDL
