MODEL 1
REMARK minimizedAffinity -1.75160372
REMARK minimizedRMSD -1
REMARK  0 active torsions:
REMARK  status: ('A' for Active; 'I' for Inactive)
ROOT
ATOM      1  O1  BZF d   1      -0.480   1.215  -0.855  0.00  0.00    -0.204 OA
ATOM      2  C2  BZF d   1      -0.755   0.148  -0.022  0.00  0.00     0.174 A 
ATOM      3  C3  BZF d   1       0.032  -0.906  -0.320  0.00  0.00    -0.012 A 
ATOM      4  C3A BZF d   1       0.913  -0.440  -1.347  0.00  0.00    -0.107 A 
ATOM      5  C4  BZF d   1       1.934  -1.021  -2.043  0.00  0.00     0.055 A 
ATOM      6  C5  BZF d   1       2.545  -0.315  -3.031  0.00  0.00    -0.016 A 
ATOM      7  C6  BZF d   1       2.159   0.970  -3.351  0.00  0.00     0.022 A 
ATOM      8  C7  BZF d   1       1.154   1.590  -2.685  0.00  0.00     0.029 A 
ATOM      9  C7A BZF d   1       0.557   0.891  -1.664  0.00  0.00     0.058 A 
ENDROOT
TORSDOF 0
ENDMDL
