MODEL 1
REMARK minimizedAffinity -0.855411708
REMARK minimizedRMSD -1
REMARK  0 active torsions:
REMARK  status: ('A' for Active; 'I' for Inactive)
ROOT
ATOM      1  O1  BZF d   1      -0.195   1.166   0.108  0.00  0.00    -0.204 OA
ATOM      2  C2  BZF d   1      -1.398   0.815   0.688  0.00  0.00     0.174 A 
ATOM      3  C3  BZF d   1      -1.653  -0.497   0.505  0.00  0.00    -0.012 A 
ATOM      4  C3A BZF d   1      -0.495  -1.017  -0.156  0.00  0.00    -0.107 A 
ATOM      5  C4  BZF d   1      -0.143  -2.262  -0.590  0.00  0.00     0.055 A 
ATOM      6  C5  BZF d   1       1.028  -2.420  -1.263  0.00  0.00    -0.016 A 
ATOM      7  C6  BZF d   1       1.865  -1.355  -1.523  0.00  0.00     0.022 A 
ATOM      8  C7  BZF d   1       1.560  -0.102  -1.107  0.00  0.00     0.029 A 
ATOM      9  C7A BZF d   1       0.394   0.055  -0.398  0.00  0.00     0.058 A 
ENDROOT
TORSDOF 0
ENDMDL
