MODEL 1
REMARK minimizedAffinity -2.05516982
REMARK minimizedRMSD -1
REMARK  0 active torsions:
REMARK  status: ('A' for Active; 'I' for Inactive)
ROOT
ATOM      1  O1  BZF d   1      -0.107   1.358  -0.278  0.00  0.00    -0.204 OA
ATOM      2  C2  BZF d   1      -1.340   0.920   0.167  0.00  0.00     0.174 A 
ATOM      3  C3  BZF d   1      -1.421  -0.424   0.103  0.00  0.00    -0.012 A 
ATOM      4  C3A BZF d   1      -0.128  -0.860  -0.327  0.00  0.00    -0.107 A 
ATOM      5  C4  BZF d   1       0.418  -2.090  -0.562  0.00  0.00     0.055 A 
ATOM      6  C5  BZF d   1       1.686  -2.168  -1.044  0.00  0.00    -0.016 A 
ATOM      7  C6  BZF d   1       2.434  -1.038  -1.306  0.00  0.00     0.022 A 
ATOM      8  C7  BZF d   1       1.937   0.203  -1.084  0.00  0.00     0.029 A 
ATOM      9  C7A BZF d   1       0.667   0.284  -0.566  0.00  0.00     0.058 A 
ENDROOT
TORSDOF 0
ENDMDL
