MODEL 1
REMARK minimizedAffinity -4.01175308
REMARK minimizedRMSD -1
REMARK  0 active torsions:
REMARK  status: ('A' for Active; 'I' for Inactive)
ROOT
ATOM      1  O1  BZF d   1      -0.870   1.760  -0.994  0.00  0.00    -0.204 OA
ATOM      2  C2  BZF d   1      -1.833   1.082  -0.271  0.00  0.00     0.174 A 
ATOM      3  C3  BZF d   1      -1.399  -0.150   0.065  0.00  0.00    -0.012 A 
ATOM      4  C3A BZF d   1      -0.049  -0.215  -0.403  0.00  0.00    -0.107 A 
ATOM      5  C4  BZF d   1       0.917  -1.179  -0.353  0.00  0.00     0.055 A 
ATOM      6  C5  BZF d   1       2.107  -0.954  -0.969  0.00  0.00    -0.016 A 
ATOM      7  C6  BZF d   1       2.363   0.220  -1.648  0.00  0.00     0.022 A 
ATOM      8  C7  BZF d   1       1.438   1.207  -1.720  0.00  0.00     0.029 A 
ATOM      9  C7A BZF d   1       0.246   0.996  -1.071  0.00  0.00     0.058 A 
ENDROOT
TORSDOF 0
ENDMDL
