MODEL 1
REMARK minimizedAffinity -0.674149632
REMARK minimizedRMSD -1
REMARK  0 active torsions:
REMARK  status: ('A' for Active; 'I' for Inactive)
ROOT
ATOM      1  C1  DEN d   1       5.955   2.378   4.924  0.00  0.00     0.130 A 
ATOM      2  C2  DEN d   1       5.893   1.262   3.984  0.00  0.00    -0.031 A 
ATOM      3  C3  DEN d   1       5.880   1.818   2.616  0.00  0.00     0.027 A 
ATOM      4  C4  DEN d   1       5.954   4.285   1.866  0.00  0.00     0.027 A 
ATOM      5  C5  DEN d   1       6.000   5.590   2.303  0.00  0.00    -0.003 A 
ATOM      6  C6  DEN d   1       5.999   5.915   3.634  0.00  0.00     0.001 A 
ATOM      7  C7  DEN d   1       5.998   4.919   4.576  0.00  0.00     0.017 A 
ATOM      8  C8  DEN d   1       5.944   3.601   4.142  0.00  0.00    -0.094 A 
ATOM      9  C9  DEN d   1       5.958   3.293   2.793  0.00  0.00    -0.072 A 
ENDROOT
TORSDOF 0
ENDMDL
