MODEL 1
REMARK minimizedAffinity -0.41647172
REMARK minimizedRMSD -1
REMARK  0 active torsions:
REMARK  status: ('A' for Active; 'I' for Inactive)
ROOT
ATOM      1  C1  DEN d   1       5.105   2.040   3.018  0.00  0.00     0.130 A 
ATOM      2  C2  DEN d   1       5.546   1.334   4.218  0.00  0.00    -0.031 A 
ATOM      3  C3  DEN d   1       5.976   2.342   5.208  0.00  0.00     0.027 A 
ATOM      4  C4  DEN d   1       5.996   4.913   5.002  0.00  0.00     0.027 A 
ATOM      5  C5  DEN d   1       5.724   5.974   4.167  0.00  0.00    -0.003 A 
ATOM      6  C6  DEN d   1       5.262   5.799   2.889  0.00  0.00     0.001 A 
ATOM      7  C7  DEN d   1       5.016   4.534   2.424  0.00  0.00     0.017 A 
ATOM      8  C8  DEN d   1       5.295   3.459   3.258  0.00  0.00    -0.094 A 
ATOM      9  C9  DEN d   1       5.749   3.657   4.550  0.00  0.00    -0.072 A 
ENDROOT
TORSDOF 0
ENDMDL
