MODEL 1
REMARK minimizedAffinity -3.05236626
REMARK minimizedRMSD -1
REMARK  0 active torsions:
REMARK  status: ('A' for Active; 'I' for Inactive)
ROOT
ATOM      1  C1  DEN d   1       5.860  -1.980   3.631  0.00  0.00     0.130 A 
ATOM      2  C2  DEN d   1       5.773  -2.765   4.860  0.00  0.00    -0.031 A 
ATOM      3  C3  DEN d   1       5.736  -1.826   5.999  0.00  0.00     0.027 A 
ATOM      4  C4  DEN d   1       5.799   0.753   5.980  0.00  0.00     0.027 A 
ATOM      5  C5  DEN d   1       5.883   1.867   5.175  0.00  0.00    -0.003 A 
ATOM      6  C6  DEN d   1       5.998   1.778   3.813  0.00  0.00     0.001 A 
ATOM      7  C7  DEN d   1       5.987   0.548   3.210  0.00  0.00     0.017 A 
ATOM      8  C8  DEN d   1       5.911  -0.581   4.016  0.00  0.00    -0.094 A 
ATOM      9  C9  DEN d   1       5.782  -0.469   5.390  0.00  0.00    -0.072 A 
ENDROOT
TORSDOF 0
ENDMDL
