MODEL 1
REMARK minimizedAffinity -1.24235404
REMARK minimizedRMSD -1
REMARK  0 active torsions:
REMARK  status: ('A' for Active; 'I' for Inactive)
ROOT
ATOM      1  C1  DEN d   1       5.958   1.550   5.333  0.00  0.00     0.130 A 
ATOM      2  C2  DEN d   1       5.897   0.609   4.218  0.00  0.00    -0.031 A 
ATOM      3  C3  DEN d   1       5.883   1.387   2.963  0.00  0.00     0.027 A 
ATOM      4  C4  DEN d   1       5.955   3.945   2.640  0.00  0.00     0.027 A 
ATOM      5  C5  DEN d   1       5.999   5.158   3.291  0.00  0.00    -0.003 A 
ATOM      6  C6  DEN d   1       5.998   5.254   4.658  0.00  0.00     0.001 A 
ATOM      7  C7  DEN d   1       5.998   4.114   5.418  0.00  0.00     0.017 A 
ATOM      8  C8  DEN d   1       5.946   2.888   4.769  0.00  0.00    -0.094 A 
ATOM      9  C9  DEN d   1       5.960   2.811   3.386  0.00  0.00    -0.072 A 
ENDROOT
TORSDOF 0
ENDMDL
