MODEL 1
REMARK minimizedAffinity 0.428572237
REMARK minimizedRMSD -1
REMARK  0 active torsions:
REMARK  status: ('A' for Active; 'I' for Inactive)
ROOT
ATOM      1  C1  DEN d   1       5.983   3.700   3.138  0.00  0.00     0.130 A 
ATOM      2  C2  DEN d   1       5.962   4.721   4.181  0.00  0.00    -0.031 A 
ATOM      3  C3  DEN d   1       5.958   4.037   5.490  0.00  0.00     0.027 A 
ATOM      4  C4  DEN d   1       5.987   1.509   6.000  0.00  0.00     0.027 A 
ATOM      5  C5  DEN d   1       5.996   0.251   5.439  0.00  0.00    -0.003 A 
ATOM      6  C6  DEN d   1       5.967   0.055   4.083  0.00  0.00     0.001 A 
ATOM      7  C7  DEN d   1       5.973   1.136   3.241  0.00  0.00     0.017 A 
ATOM      8  C8  DEN d   1       5.957   2.407   3.799  0.00  0.00    -0.094 A 
ATOM      9  C9  DEN d   1       5.999   2.584   5.172  0.00  0.00    -0.072 A 
ENDROOT
TORSDOF 0
ENDMDL
