MODEL 1
REMARK minimizedAffinity 4.19381046
REMARK minimizedRMSD -1
REMARK  0 active torsions:
REMARK  status: ('A' for Active; 'I' for Inactive)
ROOT
ATOM      1  C1  DEN d   1       5.995   2.426   5.543  0.00  0.00     0.130 A 
ATOM      2  C2  DEN d   1       5.961   1.280   4.639  0.00  0.00    -0.031 A 
ATOM      3  C3  DEN d   1       5.947   1.792   3.254  0.00  0.00     0.027 A 
ATOM      4  C4  DEN d   1       5.977   4.234   2.426  0.00  0.00     0.027 A 
ATOM      5  C5  DEN d   1       5.994   5.554   2.822  0.00  0.00    -0.003 A 
ATOM      6  C6  DEN d   1       5.978   5.920   4.142  0.00  0.00     0.001 A 
ATOM      7  C7  DEN d   1       5.990   4.956   5.114  0.00  0.00     0.017 A 
ATOM      8  C8  DEN d   1       5.965   3.623   4.723  0.00  0.00    -0.094 A 
ATOM      9  C9  DEN d   1       5.994   3.273   3.384  0.00  0.00    -0.072 A 
ENDROOT
TORSDOF 0
ENDMDL
