MODEL 1
REMARK minimizedAffinity -2.56693816
REMARK minimizedRMSD -1
REMARK  0 active torsions:
REMARK  status: ('A' for Active; 'I' for Inactive)
ROOT
ATOM      1  C1  DEN d   1       5.999   3.530   2.599  0.00  0.00     0.130 A 
ATOM      2  C2  DEN d   1       5.979   4.797   3.325  0.00  0.00    -0.031 A 
ATOM      3  C3  DEN d   1       5.965   4.495   4.770  0.00  0.00     0.027 A 
ATOM      4  C4  DEN d   1       5.978   2.200   5.948  0.00  0.00     0.027 A 
ATOM      5  C5  DEN d   1       5.983   0.837   5.751  0.00  0.00    -0.003 A 
ATOM      6  C6  DEN d   1       5.959   0.281   4.500  0.00  0.00     0.001 A 
ATOM      7  C7  DEN d   1       5.975   1.091   3.396  0.00  0.00     0.017 A 
ATOM      8  C8  DEN d   1       5.963   2.467   3.587  0.00  0.00    -0.094 A 
ATOM      9  C9  DEN d   1       6.000   3.010   4.860  0.00  0.00    -0.072 A 
ENDROOT
TORSDOF 0
ENDMDL
