MODEL 1
REMARK minimizedAffinity -0.982133269
REMARK minimizedRMSD -1
REMARK  0 active torsions:
REMARK  status: ('A' for Active; 'I' for Inactive)
ROOT
ATOM      1  C1  DEN d   1      -3.108   0.218   4.441  0.00  0.00     0.130 A 
ATOM      2  C2  DEN d   1      -2.585  -0.773   3.505  0.00  0.00    -0.031 A 
ATOM      3  C3  DEN d   1      -1.501  -0.140   2.728  0.00  0.00     0.027 A 
ATOM      4  C4  DEN d   1      -0.583   2.265   2.885  0.00  0.00     0.027 A 
ATOM      5  C5  DEN d   1      -0.718   3.478   3.523  0.00  0.00    -0.003 A 
ATOM      6  C6  DEN d   1      -1.673   3.698   4.481  0.00  0.00     0.001 A 
ATOM      7  C7  DEN d   1      -2.502   2.676   4.859  0.00  0.00     0.017 A 
ATOM      8  C8  DEN d   1      -2.378   1.452   4.215  0.00  0.00    -0.094 A 
ATOM      9  C9  DEN d   1      -1.398   1.246   3.258  0.00  0.00    -0.072 A 
ENDROOT
TORSDOF 0
ENDMDL
