MODEL 1
REMARK minimizedAffinity -3.42110729
REMARK minimizedRMSD -1
REMARK  0 active torsions:
REMARK  status: ('A' for Active; 'I' for Inactive)
ROOT
ATOM      1  C1  DEN d   1       5.977   4.037   2.299  0.00  0.00     0.130 A 
ATOM      2  C2  DEN d   1       5.999   5.275   3.073  0.00  0.00    -0.031 A 
ATOM      3  C3  DEN d   1       6.000   4.917   4.506  0.00  0.00     0.027 A 
ATOM      4  C4  DEN d   1       5.975   2.579   5.595  0.00  0.00     0.027 A 
ATOM      5  C5  DEN d   1       5.942   1.225   5.345  0.00  0.00    -0.003 A 
ATOM      6  C6  DEN d   1       5.886   0.718   4.074  0.00  0.00     0.001 A 
ATOM      7  C7  DEN d   1       5.905   1.570   3.002  0.00  0.00     0.017 A 
ATOM      8  C8  DEN d   1       5.930   2.937   3.246  0.00  0.00    -0.094 A 
ATOM      9  C9  DEN d   1       5.999   3.430   4.538  0.00  0.00    -0.072 A 
ENDROOT
TORSDOF 0
ENDMDL
