MODEL 1
REMARK minimizedAffinity -0.548085749
REMARK minimizedRMSD -1
REMARK  0 active torsions:
REMARK  status: ('A' for Active; 'I' for Inactive)
ROOT
ATOM      1  C1  DEN d   1       5.999   0.340   3.765  0.00  0.00     0.130 A 
ATOM      2  C2  DEN d   1       5.665   0.008   5.147  0.00  0.00    -0.031 A 
ATOM      3  C3  DEN d   1       5.245   1.250   5.827  0.00  0.00     0.027 A 
ATOM      4  C4  DEN d   1       5.075   3.642   4.876  0.00  0.00     0.027 A 
ATOM      5  C5  DEN d   1       5.265   4.420   3.756  0.00  0.00    -0.003 A 
ATOM      6  C6  DEN d   1       5.740   3.904   2.579  0.00  0.00     0.001 A 
ATOM      7  C7  DEN d   1       6.000   2.562   2.483  0.00  0.00     0.017 A 
ATOM      8  C8  DEN d   1       5.819   1.772   3.610  0.00  0.00    -0.094 A 
ATOM      9  C9  DEN d   1       5.326   2.311   4.787  0.00  0.00    -0.072 A 
ENDROOT
TORSDOF 0
ENDMDL
