MODEL 1
REMARK minimizedAffinity 0.581274986
REMARK minimizedRMSD -1
REMARK  0 active torsions:
REMARK  status: ('A' for Active; 'I' for Inactive)
ROOT
ATOM      1  C1  DEN d   1       5.948  -1.931   3.103  0.00  0.00     0.130 A 
ATOM      2  C2  DEN d   1       5.977  -2.964   4.135  0.00  0.00    -0.031 A 
ATOM      3  C3  DEN d   1       5.998  -2.295   5.451  0.00  0.00     0.027 A 
ATOM      4  C4  DEN d   1       5.983   0.228   5.988  0.00  0.00     0.027 A 
ATOM      5  C5  DEN d   1       5.973   1.492   5.442  0.00  0.00    -0.003 A 
ATOM      6  C6  DEN d   1       5.988   1.702   4.088  0.00  0.00     0.001 A 
ATOM      7  C7  DEN d   1       5.968   0.631   3.235  0.00  0.00     0.017 A 
ATOM      8  C8  DEN d   1       5.986  -0.646   3.778  0.00  0.00    -0.094 A 
ATOM      9  C9  DEN d   1       5.958  -0.838   5.149  0.00  0.00    -0.072 A 
ENDROOT
TORSDOF 0
ENDMDL
