MODEL 1
REMARK minimizedAffinity -2.54671645
REMARK minimizedRMSD -1
REMARK  0 active torsions:
REMARK  status: ('A' for Active; 'I' for Inactive)
ROOT
ATOM      1  C1  DEN d   1       6.000   2.486   2.675  0.00  0.00     0.130 A 
ATOM      2  C2  DEN d   1       5.995   3.746   3.414  0.00  0.00    -0.031 A 
ATOM      3  C3  DEN d   1       5.873   3.431   4.852  0.00  0.00     0.027 A 
ATOM      4  C4  DEN d   1       5.697   1.128   6.000  0.00  0.00     0.027 A 
ATOM      5  C5  DEN d   1       5.647  -0.231   5.786  0.00  0.00    -0.003 A 
ATOM      6  C6  DEN d   1       5.677  -0.775   4.529  0.00  0.00     0.001 A 
ATOM      7  C7  DEN d   1       5.804   0.044   3.439  0.00  0.00     0.017 A 
ATOM      8  C8  DEN d   1       5.848   1.417   3.646  0.00  0.00    -0.094 A 
ATOM      9  C9  DEN d   1       5.829   1.946   4.925  0.00  0.00    -0.072 A 
ENDROOT
TORSDOF 0
ENDMDL
