MODEL 1
REMARK minimizedAffinity -0.387920111
REMARK minimizedRMSD -1
REMARK  0 active torsions:
REMARK  status: ('A' for Active; 'I' for Inactive)
ROOT
ATOM      1  C1  DEN d   1       5.962   2.820   4.472  0.00  0.00     0.130 A 
ATOM      2  C2  DEN d   1       5.981   3.059   3.032  0.00  0.00    -0.031 A 
ATOM      3  C3  DEN d   1       5.992   1.749   2.351  0.00  0.00     0.027 A 
ATOM      4  C4  DEN d   1       5.977  -0.615   3.382  0.00  0.00     0.027 A 
ATOM      5  C5  DEN d   1       5.973  -1.325   4.563  0.00  0.00    -0.003 A 
ATOM      6  C6  DEN d   1       5.999  -0.708   5.786  0.00  0.00     0.001 A 
ATOM      7  C7  DEN d   1       5.985   0.660   5.857  0.00  0.00     0.017 A 
ATOM      8  C8  DEN d   1       5.996   1.382   4.671  0.00  0.00    -0.094 A 
ATOM      9  C9  DEN d   1       5.957   0.740   3.444  0.00  0.00    -0.072 A 
ENDROOT
TORSDOF 0
ENDMDL
