MODEL 1
REMARK minimizedAffinity 1.26818061
REMARK minimizedRMSD -1
REMARK  0 active torsions:
REMARK  status: ('A' for Active; 'I' for Inactive)
ROOT
ATOM      1  C1  DEN d   1       0.980  -3.575  -2.367  0.00  0.00     0.130 A 
ATOM      2  C2  DEN d   1       1.471  -3.542  -3.742  0.00  0.00    -0.031 A 
ATOM      3  C3  DEN d   1       1.682  -2.129  -4.117  0.00  0.00     0.027 A 
ATOM      4  C4  DEN d   1       1.304  -0.002  -2.709  0.00  0.00     0.027 A 
ATOM      5  C5  DEN d   1       0.884   0.476  -1.487  0.00  0.00    -0.003 A 
ATOM      6  C6  DEN d   1       0.438  -0.354  -0.493  0.00  0.00     0.001 A 
ATOM      7  C7  DEN d   1       0.445  -1.711  -0.687  0.00  0.00     0.017 A 
ATOM      8  C8  DEN d   1       0.859  -2.199  -1.919  0.00  0.00    -0.094 A 
ATOM      9  C9  DEN d   1       1.318  -1.344  -2.907  0.00  0.00    -0.072 A 
ENDROOT
TORSDOF 0
ENDMDL
