MODEL 1
REMARK minimizedAffinity 5.58767986
REMARK minimizedRMSD -1
REMARK  0 active torsions:
REMARK  status: ('A' for Active; 'I' for Inactive)
ROOT
ATOM      1  C   UNL d   1       2.654  -4.410   4.263  0.00  0.00     0.172 C 
ATOM      2  N   UNL d   1       2.440  -2.984   4.182  0.00  0.00    -0.070 N 
ATOM      3  C1  UNL d   1       2.411  -2.119   5.243  0.00  0.00    -0.004 A 
ATOM      4  C2  UNL d   1       2.183  -0.853   4.750  0.00  0.00    -0.047 A 
ATOM      5  C3  UNL d   1       2.070  -0.961   3.343  0.00  0.00    -0.047 A 
ATOM      6  C4  UNL d   1       2.233  -2.291   3.019  0.00  0.00    -0.004 A 
ENDROOT
TORSDOF 0
ENDMDL
