MODEL 1
REMARK minimizedAffinity 2.59911799
REMARK minimizedRMSD -1
REMARK  0 active torsions:
REMARK  status: ('A' for Active; 'I' for Inactive)
ROOT
ATOM      1  C   UNL d   1       4.635  -2.205   5.063  0.00  0.00     0.172 C 
ATOM      2  N   UNL d   1       3.518  -1.773   4.256  0.00  0.00    -0.070 N 
ATOM      3  C1  UNL d   1       3.460  -0.616   3.527  0.00  0.00    -0.004 A 
ATOM      4  C2  UNL d   1       2.233  -0.573   2.901  0.00  0.00    -0.047 A 
ATOM      5  C3  UNL d   1       1.529  -1.744   3.268  0.00  0.00    -0.047 A 
ATOM      6  C4  UNL d   1       2.347  -2.469   4.108  0.00  0.00    -0.004 A 
ENDROOT
TORSDOF 0
ENDMDL
