MODEL 1
REMARK minimizedAffinity 6.29268169
REMARK minimizedRMSD -1
REMARK  0 active torsions:
REMARK  status: ('A' for Active; 'I' for Inactive)
ROOT
ATOM      1  C   UNL d   1       5.855  -2.272   4.309  0.00  0.00     0.172 C 
ATOM      2  N   UNL d   1       4.467  -2.299   4.707  0.00  0.00    -0.070 N 
ATOM      3  C1  UNL d   1       4.007  -2.324   5.996  0.00  0.00    -0.004 A 
ATOM      4  C2  UNL d   1       2.630  -2.344   5.952  0.00  0.00    -0.047 A 
ATOM      5  C3  UNL d   1       2.249  -2.331   4.589  0.00  0.00    -0.047 A 
ATOM      6  C4  UNL d   1       3.406  -2.303   3.840  0.00  0.00    -0.004 A 
ENDROOT
TORSDOF 0
ENDMDL
