MODEL 1
REMARK minimizedAffinity 0.247665256
REMARK minimizedRMSD -1
REMARK  0 active torsions:
REMARK  status: ('A' for Active; 'I' for Inactive)
ROOT
ATOM      1  C   UNL d   1       0.539   4.318  -0.439  0.00  0.00     0.172 C 
ATOM      2  N   UNL d   1       1.429   3.290   0.046  0.00  0.00    -0.070 N 
ATOM      3  C1  UNL d   1       1.134   2.373   1.020  0.00  0.00    -0.004 A 
ATOM      4  C2  UNL d   1       2.240   1.570   1.193  0.00  0.00    -0.047 A 
ATOM      5  C3  UNL d   1       3.235   2.020   0.293  0.00  0.00    -0.047 A 
ATOM      6  C4  UNL d   1       2.706   3.085  -0.404  0.00  0.00    -0.004 A 
ENDROOT
TORSDOF 0
ENDMDL
