MODEL 1
REMARK minimizedAffinity -0.994955182
REMARK minimizedRMSD -1
REMARK  0 active torsions:
REMARK  status: ('A' for Active; 'I' for Inactive)
ROOT
ATOM      1  C   UNL d   1       2.807  -1.620   3.338  0.00  0.00     0.172 C 
ATOM      2  N   UNL d   1       3.927  -1.925   4.198  0.00  0.00    -0.070 N 
ATOM      3  C1  UNL d   1       3.862  -2.126   5.551  0.00  0.00    -0.004 A 
ATOM      4  C2  UNL d   1       5.138  -2.391   6.000  0.00  0.00    -0.047 A 
ATOM      5  C3  UNL d   1       5.999  -2.348   4.878  0.00  0.00    -0.047 A 
ATOM      6  C4  UNL d   1       5.223  -2.057   3.775  0.00  0.00    -0.004 A 
ENDROOT
TORSDOF 0
ENDMDL
