MODEL 1
REMARK minimizedAffinity 0.656231046
REMARK minimizedRMSD -1
REMARK  0 active torsions:
REMARK  status: ('A' for Active; 'I' for Inactive)
ROOT
ATOM      1  C   UNL d   1       2.397  -2.240   4.480  0.00  0.00     0.172 C 
ATOM      2  N   UNL d   1       3.783  -2.370   4.865  0.00  0.00    -0.070 N 
ATOM      3  C1  UNL d   1       4.243  -2.988   5.997  0.00  0.00    -0.004 A 
ATOM      4  C2  UNL d   1       5.618  -2.899   5.998  0.00  0.00    -0.047 A 
ATOM      5  C3  UNL d   1       5.998  -2.203   4.826  0.00  0.00    -0.047 A 
ATOM      6  C4  UNL d   1       4.842  -1.886   4.143  0.00  0.00    -0.004 A 
ENDROOT
TORSDOF 0
ENDMDL
