MODEL 1
REMARK minimizedAffinity -0.995209157
REMARK minimizedRMSD -1
REMARK  0 active torsions:
REMARK  status: ('A' for Active; 'I' for Inactive)
ROOT
ATOM      1  C   UNL d   1       2.460  -2.222   4.125  0.00  0.00     0.172 C 
ATOM      2  N   UNL d   1       3.794  -2.350   4.663  0.00  0.00    -0.070 N 
ATOM      3  C1  UNL d   1       4.122  -2.953   5.847  0.00  0.00    -0.004 A 
ATOM      4  C2  UNL d   1       5.489  -2.868   6.000  0.00  0.00    -0.047 A 
ATOM      5  C3  UNL d   1       6.000  -2.188   4.868  0.00  0.00    -0.047 A 
ATOM      6  C4  UNL d   1       4.928  -1.879   4.057  0.00  0.00    -0.004 A 
ENDROOT
TORSDOF 0
ENDMDL
