MODEL 1
REMARK minimizedAffinity 0.595789194
REMARK minimizedRMSD -1
REMARK  0 active torsions:
REMARK  status: ('A' for Active; 'I' for Inactive)
ROOT
ATOM      1  C   UNL d   1      -6.000  -1.121  -5.335  0.00  0.00     0.172 C 
ATOM      2  N   UNL d   1      -5.759   0.262  -4.997  0.00  0.00    -0.070 N 
ATOM      3  C1  UNL d   1      -6.000   0.839  -3.779  0.00  0.00    -0.004 A 
ATOM      4  C2  UNL d   1      -5.639   2.167  -3.862  0.00  0.00    -0.047 A 
ATOM      5  C3  UNL d   1      -5.166   2.395  -5.177  0.00  0.00    -0.047 A 
ATOM      6  C4  UNL d   1      -5.251   1.199  -5.857  0.00  0.00    -0.004 A 
ENDROOT
TORSDOF 0
ENDMDL
