MODEL 1
REMARK minimizedAffinity -1.72851145
REMARK minimizedRMSD -1
REMARK  0 active torsions:
REMARK  status: ('A' for Active; 'I' for Inactive)
ROOT
ATOM      1  C   UNL d   1       5.971  -2.358  -5.641  0.00  0.00     0.172 C 
ATOM      2  N   UNL d   1       5.655  -0.997  -5.272  0.00  0.00    -0.070 N 
ATOM      3  C1  UNL d   1       5.972   0.120  -5.998  0.00  0.00    -0.004 A 
ATOM      4  C2  UNL d   1       5.498   1.217  -5.311  0.00  0.00    -0.047 A 
ATOM      5  C3  UNL d   1       4.876   0.742  -4.132  0.00  0.00    -0.047 A 
ATOM      6  C4  UNL d   1       4.988  -0.632  -4.133  0.00  0.00    -0.004 A 
ENDROOT
TORSDOF 0
ENDMDL
