MODEL 1
REMARK minimizedAffinity 6.99722624
REMARK minimizedRMSD -1
REMARK  0 active torsions:
REMARK  status: ('A' for Active; 'I' for Inactive)
ROOT
ATOM      1  O1  BZF d   1      -0.649   0.914  -1.938  0.00  0.00    -0.204 OA
ATOM      2  C2  BZF d   1       0.688   0.710  -1.657  0.00  0.00     0.174 A 
ATOM      3  C3  BZF d   1       1.177   1.713  -0.900  0.00  0.00    -0.012 A 
ATOM      4  C3A BZF d   1       0.054   2.554  -0.618  0.00  0.00    -0.107 A 
ATOM      5  C4  BZF d   1      -0.101   3.703   0.102  0.00  0.00     0.055 A 
ATOM      6  C5  BZF d   1      -1.315   4.313   0.119  0.00  0.00    -0.016 A 
ATOM      7  C6  BZF d   1      -2.393   3.805  -0.576  0.00  0.00     0.022 A 
ATOM      8  C7  BZF d   1      -2.289   2.664  -1.300  0.00  0.00     0.029 A 
ATOM      9  C7A BZF d   1      -1.072   2.028  -1.293  0.00  0.00     0.058 A 
ENDROOT
TORSDOF 0
ENDMDL
