MODEL 1
REMARK minimizedAffinity -0.336275756
REMARK minimizedRMSD -1
REMARK  0 active torsions:
REMARK  status: ('A' for Active; 'I' for Inactive)
ROOT
ATOM      1  O1  BZF d   1      -0.522  -0.910  -0.631  0.00  0.00    -0.204 OA
ATOM      2  C2  BZF d   1      -0.818  -1.803   0.381  0.00  0.00     0.174 A 
ATOM      3  C3  BZF d   1      -0.565  -3.069  -0.008  0.00  0.00    -0.012 A 
ATOM      4  C3A BZF d   1       0.008  -2.954  -1.314  0.00  0.00    -0.107 A 
ATOM      5  C4  BZF d   1       0.482  -3.864  -2.215  0.00  0.00     0.055 A 
ATOM      6  C5  BZF d   1       0.907  -3.430  -3.431  0.00  0.00    -0.016 A 
ATOM      7  C6  BZF d   1       0.867  -2.096  -3.781  0.00  0.00     0.022 A 
ATOM      8  C7  BZF d   1       0.409  -1.156  -2.919  0.00  0.00     0.029 A 
ATOM      9  C7A BZF d   1       0.010  -1.587  -1.677  0.00  0.00     0.058 A 
ENDROOT
TORSDOF 0
ENDMDL
