MODEL 1
REMARK minimizedAffinity 0.651900947
REMARK minimizedRMSD -1
REMARK  0 active torsions:
REMARK  status: ('A' for Active; 'I' for Inactive)
ROOT
ATOM      1  O1  BZF d   1      -0.825  -2.461  -1.524  0.00  0.00    -0.204 OA
ATOM      2  C2  BZF d   1       0.038  -3.298  -2.206  0.00  0.00     0.174 A 
ATOM      3  C3  BZF d   1       0.821  -3.980  -1.345  0.00  0.00    -0.012 A 
ATOM      4  C3A BZF d   1       0.361  -3.610  -0.042  0.00  0.00    -0.107 A 
ATOM      5  C4  BZF d   1       0.733  -3.968   1.222  0.00  0.00     0.055 A 
ATOM      6  C5  BZF d   1       0.131  -3.369   2.282  0.00  0.00    -0.016 A 
ATOM      7  C6  BZF d   1      -0.843  -2.405   2.116  0.00  0.00     0.022 A 
ATOM      8  C7  BZF d   1      -1.249  -2.021   0.881  0.00  0.00     0.029 A 
ATOM      9  C7A BZF d   1      -0.665  -2.648  -0.192  0.00  0.00     0.058 A 
ENDROOT
TORSDOF 0
ENDMDL
