MODEL 1
REMARK minimizedAffinity 2.62649679
REMARK minimizedRMSD -1
REMARK  0 active torsions:
REMARK  status: ('A' for Active; 'I' for Inactive)
ROOT
ATOM      1  O1  BZF d   1      -0.673  -2.941   1.509  0.00  0.00    -0.204 OA
ATOM      2  C2  BZF d   1      -1.194  -2.261   2.593  0.00  0.00     0.174 A 
ATOM      3  C3  BZF d   1      -1.394  -0.962   2.291  0.00  0.00    -0.012 A 
ATOM      4  C3A BZF d   1      -1.058  -0.841   0.906  0.00  0.00    -0.107 A 
ATOM      5  C4  BZF d   1      -1.067   0.203   0.025  0.00  0.00     0.055 A 
ATOM      6  C5  BZF d   1      -0.610   0.004  -1.239  0.00  0.00    -0.016 A 
ATOM      7  C6  BZF d   1      -0.132  -1.222  -1.654  0.00  0.00     0.022 A 
ATOM      8  C7  BZF d   1      -0.108  -2.288  -0.818  0.00  0.00     0.029 A 
ATOM      9  C7A BZF d   1      -0.600  -2.099   0.450  0.00  0.00     0.058 A 
ENDROOT
TORSDOF 0
ENDMDL
