MODEL 1
REMARK minimizedAffinity -3.96384835
REMARK minimizedRMSD -1
REMARK  0 active torsions:
REMARK  status: ('A' for Active; 'I' for Inactive)
ROOT
ATOM      1  O1  BZF d   1      -0.368  -3.456   2.019  0.00  0.00    -0.204 OA
ATOM      2  C2  BZF d   1      -0.876  -2.256   2.480  0.00  0.00     0.174 A 
ATOM      3  C3  BZF d   1      -0.888  -1.333   1.497  0.00  0.00    -0.012 A 
ATOM      4  C3A BZF d   1      -0.440  -2.022   0.327  0.00  0.00    -0.107 A 
ATOM      5  C4  BZF d   1      -0.254  -1.644  -0.972  0.00  0.00     0.055 A 
ATOM      6  C5  BZF d   1       0.264  -2.540  -1.853  0.00  0.00    -0.016 A 
ATOM      7  C6  BZF d   1       0.612  -3.818  -1.468  0.00  0.00     0.022 A 
ATOM      8  C7  BZF d   1       0.441  -4.241  -0.192  0.00  0.00     0.029 A 
ATOM      9  C7A BZF d   1      -0.113  -3.349   0.693  0.00  0.00     0.058 A 
ENDROOT
TORSDOF 0
ENDMDL
