MODEL 1
REMARK minimizedAffinity 5.52002954
REMARK minimizedRMSD -1
REMARK  0 active torsions:
REMARK  status: ('A' for Active; 'I' for Inactive)
ROOT
ATOM      1  O1  BZF d   1       1.073  -2.256  -0.862  0.00  0.00    -0.204 OA
ATOM      2  C2  BZF d   1       0.013  -2.568  -1.690  0.00  0.00     0.174 A 
ATOM      3  C3  BZF d   1      -0.308  -1.518  -2.473  0.00  0.00    -0.012 A 
ATOM      4  C3A BZF d   1       0.669  -0.516  -2.177  0.00  0.00    -0.107 A 
ATOM      5  C4  BZF d   1       0.889   0.748  -2.646  0.00  0.00     0.055 A 
ATOM      6  C5  BZF d   1       1.885   1.492  -2.097  0.00  0.00    -0.016 A 
ATOM      7  C6  BZF d   1       2.674   1.007  -1.074  0.00  0.00     0.022 A 
ATOM      8  C7  BZF d   1       2.496  -0.242  -0.579  0.00  0.00     0.029 A 
ATOM      9  C7A BZF d   1       1.513  -1.008  -1.155  0.00  0.00     0.058 A 
ENDROOT
TORSDOF 0
ENDMDL
