MODEL 1
REMARK minimizedAffinity 6.30278778
REMARK minimizedRMSD -1
REMARK  0 active torsions:
REMARK  status: ('A' for Active; 'I' for Inactive)
ROOT
ATOM      1  O1  BZF d   1      -0.015  -3.061  -0.421  0.00  0.00    -0.204 OA
ATOM      2  C2  BZF d   1      -0.722  -3.209   0.757  0.00  0.00     0.174 A 
ATOM      3  C3  BZF d   1      -1.214  -2.025   1.172  0.00  0.00    -0.012 A 
ATOM      4  C3A BZF d   1      -0.867  -1.092   0.144  0.00  0.00    -0.107 A 
ATOM      5  C4  BZF d   1      -1.093   0.244  -0.027  0.00  0.00     0.055 A 
ATOM      6  C5  BZF d   1      -0.556   0.872  -1.106  0.00  0.00    -0.016 A 
ATOM      7  C6  BZF d   1       0.214   0.197  -2.030  0.00  0.00     0.022 A 
ATOM      8  C7  BZF d   1       0.461  -1.130  -1.906  0.00  0.00     0.029 A 
ATOM      9  C7A BZF d   1      -0.107  -1.774  -0.834  0.00  0.00     0.058 A 
ENDROOT
TORSDOF 0
ENDMDL
