MODEL 1
REMARK minimizedAffinity 10.5071764
REMARK minimizedRMSD -1
REMARK  0 active torsions:
REMARK  status: ('A' for Active; 'I' for Inactive)
ROOT
ATOM      1  O1  BZF d   1       1.516  -0.089  -3.063  0.00  0.00    -0.204 OA
ATOM      2  C2  BZF d   1       1.666   0.816  -2.030  0.00  0.00     0.174 A 
ATOM      3  C3  BZF d   1       1.074   0.362  -0.907  0.00  0.00    -0.012 A 
ATOM      4  C3A BZF d   1       0.599  -0.947  -1.235  0.00  0.00    -0.107 A 
ATOM      5  C4  BZF d   1      -0.062  -1.911  -0.527  0.00  0.00     0.055 A 
ATOM      6  C5  BZF d   1      -0.446  -3.049  -1.162  0.00  0.00    -0.016 A 
ATOM      7  C6  BZF d   1      -0.192  -3.255  -2.502  0.00  0.00     0.022 A 
ATOM      8  C7  BZF d   1       0.465  -2.330  -3.244  0.00  0.00     0.029 A 
ATOM      9  C7A BZF d   1       0.884  -1.193  -2.598  0.00  0.00     0.058 A 
ENDROOT
TORSDOF 0
ENDMDL
