MODEL 1
REMARK minimizedAffinity 8.33265114
REMARK minimizedRMSD -1
REMARK  0 active torsions:
REMARK  status: ('A' for Active; 'I' for Inactive)
ROOT
ATOM      1  O1  BZF d   1       0.668   0.024  -2.664  0.00  0.00    -0.204 OA
ATOM      2  C2  BZF d   1       0.927  -1.109  -3.411  0.00  0.00     0.174 A 
ATOM      3  C3  BZF d   1       2.099  -1.666  -3.043  0.00  0.00    -0.012 A 
ATOM      4  C3A BZF d   1       2.559  -0.881  -1.939  0.00  0.00    -0.107 A 
ATOM      5  C4  BZF d   1       3.660  -0.948  -1.134  0.00  0.00     0.055 A 
ATOM      6  C5  BZF d   1       3.850   0.014  -0.193  0.00  0.00    -0.016 A 
ATOM      7  C6  BZF d   1       2.963   1.059  -0.034  0.00  0.00     0.022 A 
ATOM      8  C7  BZF d   1       1.854   1.165  -0.806  0.00  0.00     0.029 A 
ATOM      9  C7A BZF d   1       1.643   0.176  -1.735  0.00  0.00     0.058 A 
ENDROOT
TORSDOF 0
ENDMDL
