MODEL 1
REMARK minimizedAffinity 8.4064827
REMARK minimizedRMSD -1
REMARK  0 active torsions:
REMARK  status: ('A' for Active; 'I' for Inactive)
ROOT
ATOM      1  O1  BZF d   1       1.844  -1.190  -3.877  0.00  0.00    -0.204 OA
ATOM      2  C2  BZF d   1       0.944  -2.068  -3.305  0.00  0.00     0.174 A 
ATOM      3  C3  BZF d   1       0.845  -1.855  -1.977  0.00  0.00    -0.012 A 
ATOM      4  C3A BZF d   1       1.670  -0.715  -1.716  0.00  0.00    -0.107 A 
ATOM      5  C4  BZF d   1       1.968  -0.011  -0.585  0.00  0.00     0.055 A 
ATOM      6  C5  BZF d   1       2.866   1.007  -0.658  0.00  0.00    -0.016 A 
ATOM      7  C6  BZF d   1       3.487   1.344  -1.843  0.00  0.00     0.022 A 
ATOM      8  C7  BZF d   1       3.219   0.677  -2.992  0.00  0.00     0.029 A 
ATOM      9  C7A BZF d   1       2.288  -0.330  -2.929  0.00  0.00     0.058 A 
ENDROOT
TORSDOF 0
ENDMDL
