MODEL 1
REMARK minimizedAffinity 11.2842875
REMARK minimizedRMSD -1
REMARK  0 active torsions:
REMARK  status: ('A' for Active; 'I' for Inactive)
ROOT
ATOM      1  O1  BZF d   1       1.587   0.266  -3.431  0.00  0.00    -0.204 OA
ATOM      2  C2  BZF d   1       1.900   1.006  -2.308  0.00  0.00     0.174 A 
ATOM      3  C3  BZF d   1       1.398   0.427  -1.198  0.00  0.00    -0.012 A 
ATOM      4  C3A BZF d   1       0.807  -0.796  -1.646  0.00  0.00    -0.107 A 
ATOM      5  C4  BZF d   1       0.161  -1.816  -1.008  0.00  0.00     0.055 A 
ATOM      6  C5  BZF d   1      -0.359  -2.832  -1.745  0.00  0.00    -0.016 A 
ATOM      7  C6  BZF d   1      -0.256  -2.858  -3.120  0.00  0.00     0.022 A 
ATOM      8  C7  BZF d   1       0.380  -1.872  -3.798  0.00  0.00     0.029 A 
ATOM      9  C7A BZF d   1       0.935  -0.860  -3.053  0.00  0.00     0.058 A 
ENDROOT
TORSDOF 0
ENDMDL
