MODEL 1
REMARK minimizedAffinity 2.07501554
REMARK minimizedRMSD -1
REMARK  0 active torsions:
REMARK  status: ('A' for Active; 'I' for Inactive)
ROOT
ATOM      1  O1  BZF d   1      -2.861  -0.894  -0.798  0.00  0.00    -0.204 OA
ATOM      2  C2  BZF d   1      -2.364   0.299  -0.309  0.00  0.00     0.174 A 
ATOM      3  C3  BZF d   1      -1.441   0.076   0.649  0.00  0.00    -0.012 A 
ATOM      4  C3A BZF d   1      -1.289  -1.346   0.701  0.00  0.00    -0.107 A 
ATOM      5  C4  BZF d   1      -0.504  -2.180   1.445  0.00  0.00     0.055 A 
ATOM      6  C5  BZF d   1      -0.649  -3.524   1.305  0.00  0.00    -0.016 A 
ATOM      7  C6  BZF d   1      -1.572  -4.067   0.436  0.00  0.00     0.022 A 
ATOM      8  C7  BZF d   1      -2.369  -3.281  -0.327  0.00  0.00     0.029 A 
ATOM      9  C7A BZF d   1      -2.202  -1.922  -0.212  0.00  0.00     0.058 A 
ENDROOT
TORSDOF 0
ENDMDL
