MODEL 1
REMARK minimizedAffinity 2.9660275
REMARK minimizedRMSD -1
REMARK  0 active torsions:
REMARK  status: ('A' for Active; 'I' for Inactive)
ROOT
ATOM      1  O1  BZF d   1      -3.045  -0.193  -0.595  0.00  0.00    -0.204 OA
ATOM      2  C2  BZF d   1      -1.941   0.636  -0.647  0.00  0.00     0.174 A 
ATOM      3  C3  BZF d   1      -0.885   0.066  -0.033  0.00  0.00    -0.012 A 
ATOM      4  C3A BZF d   1      -1.332  -1.238   0.352  0.00  0.00    -0.107 A 
ATOM      5  C4  BZF d   1      -0.731  -2.287   0.987  0.00  0.00     0.055 A 
ATOM      6  C5  BZF d   1      -1.467  -3.392   1.278  0.00  0.00    -0.016 A 
ATOM      7  C6  BZF d   1      -2.804  -3.480   0.953  0.00  0.00     0.022 A 
ATOM      8  C7  BZF d   1      -3.443  -2.467   0.318  0.00  0.00     0.029 A 
ATOM      9  C7A BZF d   1      -2.694  -1.362  -0.007  0.00  0.00     0.058 A 
ENDROOT
TORSDOF 0
ENDMDL
