MODEL 1
REMARK minimizedAffinity 1.25389063
REMARK minimizedRMSD -1
REMARK  0 active torsions:
REMARK  status: ('A' for Active; 'I' for Inactive)
ROOT
ATOM      1  O1  BZF d   1      -2.555   2.766  -1.521  0.00  0.00    -0.204 OA
ATOM      2  C2  BZF d   1      -1.692   2.089  -0.680  0.00  0.00     0.174 A 
ATOM      3  C3  BZF d   1      -1.471   2.794   0.448  0.00  0.00    -0.012 A 
ATOM      4  C3A BZF d   1      -2.316   3.944   0.344  0.00  0.00    -0.107 A 
ATOM      5  C4  BZF d   1      -2.554   5.011   1.162  0.00  0.00     0.055 A 
ATOM      6  C5  BZF d   1      -3.382   6.000   0.735  0.00  0.00    -0.016 A 
ATOM      7  C6  BZF d   1      -3.985   5.956  -0.505  0.00  0.00     0.022 A 
ATOM      8  C7  BZF d   1      -3.784   4.915  -1.350  0.00  0.00     0.029 A 
ATOM      9  C7A BZF d   1      -2.973   3.899  -0.907  0.00  0.00     0.058 A 
ENDROOT
TORSDOF 0
ENDMDL
