MODEL 1
REMARK minimizedAffinity 8.03044891
REMARK minimizedRMSD -1
REMARK  0 active torsions:
REMARK  status: ('A' for Active; 'I' for Inactive)
ROOT
ATOM      1  O1  BZF d   1       1.435  -0.450  -3.497  0.00  0.00    -0.204 OA
ATOM      2  C2  BZF d   1       1.565   0.621  -2.634  0.00  0.00     0.174 A 
ATOM      3  C3  BZF d   1       0.965   0.360  -1.454  0.00  0.00    -0.012 A 
ATOM      4  C3A BZF d   1       0.506  -0.991  -1.556  0.00  0.00    -0.107 A 
ATOM      5  C4  BZF d   1      -0.153  -1.826  -0.699  0.00  0.00     0.055 A 
ATOM      6  C5  BZF d   1      -0.519  -3.061  -1.131  0.00  0.00    -0.016 A 
ATOM      7  C6  BZF d   1      -0.247  -3.492  -2.413  0.00  0.00     0.022 A 
ATOM      8  C7  BZF d   1       0.409  -2.701  -3.297  0.00  0.00     0.029 A 
ATOM      9  C7A BZF d   1       0.809  -1.465  -2.853  0.00  0.00     0.058 A 
ENDROOT
TORSDOF 0
ENDMDL
