MODEL 1
REMARK minimizedAffinity 1.80472255
REMARK minimizedRMSD -1
REMARK  1 active torsions:
REMARK  status: ('A' for Active; 'I' for Inactive)
REMARK    1  A    between atoms: C1_2  and  C2_3 
ROOT
ATOM      1  C2  UNL d   1       0.388  -1.438  -0.489  0.00  0.00    -0.073 A 
ATOM      2  C3  UNL d   1      -0.067  -0.499  -1.422  0.00  0.00    -0.002 A 
ATOM      3  C4  UNL d   1      -0.289   0.825  -1.038  0.00  0.00     0.004 A 
ATOM      4  C5  UNL d   1      -0.052   1.224   0.277  0.00  0.00    -0.004 A 
ATOM      5  C6  UNL d   1       0.414   0.302   1.221  0.00  0.00    -0.075 A 
ATOM      6  C7  UNL d   1       0.671   0.715   2.640  0.00  0.00     0.076 C 
ATOM      7  C8  UNL d   1       0.632  -1.025   0.829  0.00  0.00     0.001 A 
ENDROOT
BRANCH   1   8
ATOM      8  C1  UNL d   1       0.635  -2.866  -0.900  0.00  0.00     0.053 C 
ATOM      9  C   UNL d   1      -0.649  -3.575  -1.302  0.00  0.00     0.018 C 
ENDBRANCH   1   8
TORSDOF 1
ENDMDL
