MODEL 1
REMARK minimizedAffinity -2.71030664
REMARK minimizedRMSD -1
REMARK  1 active torsions:
REMARK  status: ('A' for Active; 'I' for Inactive)
REMARK    1  A    between atoms: C1_2  and  C2_3 
ROOT
ATOM      1  C2  UNL d   1      -0.155   1.828  -0.527  0.00  0.00    -0.073 A 
ATOM      2  C3  UNL d   1      -0.276   2.150   0.829  0.00  0.00    -0.002 A 
ATOM      3  C4  UNL d   1      -0.204   1.151   1.800  0.00  0.00     0.004 A 
ATOM      4  C5  UNL d   1      -0.003  -0.178   1.427  0.00  0.00    -0.004 A 
ATOM      5  C6  UNL d   1       0.132  -0.518   0.077  0.00  0.00    -0.075 A 
ATOM      6  C7  UNL d   1       0.345  -1.944  -0.341  0.00  0.00     0.076 C 
ATOM      7  C8  UNL d   1       0.055   0.490  -0.893  0.00  0.00     0.001 A 
ENDROOT
BRANCH   1   8
ATOM      8  C1  UNL d   1      -0.226   2.904  -1.579  0.00  0.00     0.053 C 
ATOM      9  C   UNL d   1      -0.294   4.295  -0.968  0.00  0.00     0.018 C 
ENDBRANCH   1   8
TORSDOF 1
ENDMDL
