MODEL 1
REMARK minimizedAffinity -5.19364929
REMARK minimizedRMSD -1
REMARK  1 active torsions:
REMARK  status: ('A' for Active; 'I' for Inactive)
REMARK    1  A    between atoms: C1_2  and  C2_3 
ROOT
ATOM      1  C2  UNL d   1       0.071   0.048  -0.184  0.00  0.00    -0.073 A 
ATOM      2  C3  UNL d   1      -0.043  -0.047   1.207  0.00  0.00    -0.002 A 
ATOM      3  C4  UNL d   1      -0.302   1.091   1.973  0.00  0.00     0.004 A 
ATOM      4  C5  UNL d   1      -0.457   2.332   1.355  0.00  0.00    -0.004 A 
ATOM      5  C6  UNL d   1      -0.358   2.445  -0.035  0.00  0.00    -0.075 A 
ATOM      6  C7  UNL d   1      -0.519   3.773  -0.715  0.00  0.00     0.076 C 
ATOM      7  C8  UNL d   1      -0.094   1.299  -0.797  0.00  0.00     0.001 A 
ENDROOT
BRANCH   1   8
ATOM      8  C1  UNL d   1       0.345  -1.179  -1.015  0.00  0.00     0.053 C 
ATOM      9  C   UNL d   1      -0.764  -2.211  -0.890  0.00  0.00     0.018 C 
ENDBRANCH   1   8
TORSDOF 1
ENDMDL
