MODEL 1
REMARK minimizedAffinity -3.72568798
REMARK minimizedRMSD -1
REMARK  1 active torsions:
REMARK  status: ('A' for Active; 'I' for Inactive)
REMARK    1  A    between atoms: C1_2  and  C2_3 
ROOT
ATOM      1  C2  UNL d   1       0.423  -0.531  -0.485  0.00  0.00    -0.073 A 
ATOM      2  C3  UNL d   1       0.448  -0.433   0.911  0.00  0.00    -0.002 A 
ATOM      3  C4  UNL d   1       0.119   0.769   1.539  0.00  0.00     0.004 A 
ATOM      4  C5  UNL d   1      -0.245   1.881   0.781  0.00  0.00    -0.004 A 
ATOM      5  C6  UNL d   1      -0.288   1.799  -0.615  0.00  0.00    -0.075 A 
ATOM      6  C7  UNL d   1      -0.675   2.987  -1.446  0.00  0.00     0.076 C 
ATOM      7  C8  UNL d   1       0.047   0.590  -1.239  0.00  0.00     0.001 A 
ENDROOT
BRANCH   1   8
ATOM      8  C1  UNL d   1       0.772  -1.828  -1.167  0.00  0.00     0.053 C 
ATOM      9  C   UNL d   1      -0.403  -2.395  -1.948  0.00  0.00     0.018 C 
ENDBRANCH   1   8
TORSDOF 1
ENDMDL
