MODEL 1
REMARK minimizedAffinity 3.46490884
REMARK minimizedRMSD -1
REMARK  0 active torsions:
REMARK  status: ('A' for Active; 'I' for Inactive)
ROOT
ATOM      1  C   UNL d   1      -5.742   2.236  -1.143  0.00  0.00     0.023 A 
ATOM      2  C1  UNL d   1      -5.266   0.986  -0.748  0.00  0.00     0.003 A 
ATOM      3  C2  UNL d   1      -3.946   0.845  -0.314  0.00  0.00     0.048 A 
ATOM      4  C3  UNL d   1      -3.108   1.959  -0.277  0.00  0.00     0.023 A 
ATOM      5  C4  UNL d   1      -3.581   3.212  -0.671  0.00  0.00     0.048 A 
ATOM      6  C5  UNL d   1      -4.901   3.348  -1.105  0.00  0.00     0.003 A 
ATOM      7  I   UNL d   1      -1.144   1.753   0.368  0.00  0.00    -0.146 I 
ENDROOT
TORSDOF 0
ENDMDL
