MODEL 1
REMARK minimizedAffinity 12.8807707
REMARK minimizedRMSD -1
REMARK  0 active torsions:
REMARK  status: ('A' for Active; 'I' for Inactive)
ROOT
ATOM      1  C   UNL d   1       3.635  -0.134  -0.620  0.00  0.00     0.023 A 
ATOM      2  C1  UNL d   1       3.628  -0.564  -1.947  0.00  0.00     0.003 A 
ATOM      3  C2  UNL d   1       2.852  -1.663  -2.322  0.00  0.00     0.048 A 
ATOM      4  C3  UNL d   1       2.084  -2.326  -1.365  0.00  0.00     0.023 A 
ATOM      5  C4  UNL d   1       2.087  -1.898  -0.037  0.00  0.00     0.048 A 
ATOM      6  C5  UNL d   1       2.865  -0.800   0.334  0.00  0.00     0.003 A 
ATOM      7  I   UNL d   1       0.928  -3.961  -1.921  0.00  0.00    -0.146 I 
ENDROOT
TORSDOF 0
ENDMDL
