MODEL 1
REMARK minimizedAffinity 9.89956474
REMARK minimizedRMSD -1
REMARK  0 active torsions:
REMARK  status: ('A' for Active; 'I' for Inactive)
ROOT
ATOM      1  C   UNL d   1       0.956  -4.867  -3.232  0.00  0.00     0.023 A 
ATOM      2  C1  UNL d   1       0.778  -4.665  -1.863  0.00  0.00     0.003 A 
ATOM      3  C2  UNL d   1       1.408  -3.594  -1.226  0.00  0.00     0.048 A 
ATOM      4  C3  UNL d   1       2.215  -2.729  -1.964  0.00  0.00     0.023 A 
ATOM      5  C4  UNL d   1       2.396  -2.927  -3.334  0.00  0.00     0.048 A 
ATOM      6  C5  UNL d   1       1.765  -4.000  -3.966  0.00  0.00     0.003 A 
ATOM      7  I   UNL d   1       3.154  -1.134  -1.019  0.00  0.00    -0.146 I 
ENDROOT
TORSDOF 0
ENDMDL
