MODEL 1
REMARK minimizedAffinity 6.58642054
REMARK minimizedRMSD -1
REMARK  0 active torsions:
REMARK  status: ('A' for Active; 'I' for Inactive)
ROOT
ATOM      1  C   UNL d   1       3.371  -0.756   0.133  0.00  0.00     0.023 A 
ATOM      2  C1  UNL d   1       2.603  -1.657   0.872  0.00  0.00     0.003 A 
ATOM      3  C2  UNL d   1       1.866  -2.647   0.220  0.00  0.00     0.048 A 
ATOM      4  C3  UNL d   1       1.903  -2.733  -1.171  0.00  0.00     0.023 A 
ATOM      5  C4  UNL d   1       2.670  -1.835  -1.915  0.00  0.00     0.048 A 
ATOM      6  C5  UNL d   1       3.405  -0.846  -1.258  0.00  0.00     0.003 A 
ATOM      7  I   UNL d   1       0.807  -4.208  -2.144  0.00  0.00    -0.146 I 
ENDROOT
TORSDOF 0
ENDMDL
