MODEL 1
REMARK minimizedAffinity 4.98408127
REMARK minimizedRMSD -1
REMARK  0 active torsions:
REMARK  status: ('A' for Active; 'I' for Inactive)
ROOT
ATOM      1  C   UNL d   1      -1.493  -6.000  -0.211  0.00  0.00     0.023 A 
ATOM      2  C1  UNL d   1      -1.517  -6.000  -1.605  0.00  0.00     0.003 A 
ATOM      3  C2  UNL d   1      -0.622  -5.202  -2.321  0.00  0.00     0.048 A 
ATOM      4  C3  UNL d   1       0.297  -4.408  -1.635  0.00  0.00     0.023 A 
ATOM      5  C4  UNL d   1       0.325  -4.405  -0.239  0.00  0.00     0.048 A 
ATOM      6  C5  UNL d   1      -0.573  -5.204   0.472  0.00  0.00     0.003 A 
ATOM      7  I   UNL d   1       1.631  -3.220  -2.697  0.00  0.00    -0.146 I 
ENDROOT
TORSDOF 0
ENDMDL
