MODEL 1
REMARK minimizedAffinity 18.5921917
REMARK minimizedRMSD -1
REMARK  0 active torsions:
REMARK  status: ('A' for Active; 'I' for Inactive)
ROOT
ATOM      1  C   UNL d   1       3.982   0.935   0.215  0.00  0.00     0.023 A 
ATOM      2  C1  UNL d   1       5.103   0.993  -0.613  0.00  0.00     0.003 A 
ATOM      3  C2  UNL d   1       5.163   0.205  -1.765  0.00  0.00     0.048 A 
ATOM      4  C3  UNL d   1       4.099  -0.638  -2.083  0.00  0.00     0.023 A 
ATOM      5  C4  UNL d   1       2.974  -0.698  -1.258  0.00  0.00     0.048 A 
ATOM      6  C5  UNL d   1       2.919   0.091  -0.107  0.00  0.00     0.003 A 
ATOM      7  I   UNL d   1       4.186  -1.811  -3.796  0.00  0.00    -0.146 I 
ENDROOT
TORSDOF 0
ENDMDL
