MODEL 1
REMARK minimizedAffinity 12.8880949
REMARK minimizedRMSD -1
REMARK  0 active torsions:
REMARK  status: ('A' for Active; 'I' for Inactive)
ROOT
ATOM      1  C   UNL d   1      -2.489   1.112   1.272  0.00  0.00     0.023 A 
ATOM      2  C1  UNL d   1      -2.234   2.430   1.654  0.00  0.00     0.003 A 
ATOM      3  C2  UNL d   1      -3.240   3.193   2.249  0.00  0.00     0.048 A 
ATOM      4  C3  UNL d   1      -4.499   2.632   2.461  0.00  0.00     0.023 A 
ATOM      5  C4  UNL d   1      -4.759   1.314   2.082  0.00  0.00     0.048 A 
ATOM      6  C5  UNL d   1      -3.749   0.555   1.486  0.00  0.00     0.003 A 
ATOM      7  I   UNL d   1      -5.999   3.766   3.347  0.00  0.00    -0.146 I 
ENDROOT
TORSDOF 0
ENDMDL
