MODEL 1
REMARK minimizedAffinity -4.52381134
REMARK minimizedRMSD -1
REMARK  0 active torsions:
REMARK  status: ('A' for Active; 'I' for Inactive)
ROOT
ATOM      1  C4' PXY d   1       1.065  -0.513  -2.395  0.00  0.00     0.077 C 
ATOM      2  C1' PXY d   1      -0.544  -0.082   3.141  0.00  0.00     0.077 C 
ATOM      3  C1  PXY d   1      -0.113  -0.186   1.691  0.00  0.00    -0.082 A 
ATOM      4  C2  PXY d   1      -0.976  -0.605   0.780  0.00  0.00     0.003 A 
ATOM      5  C3  PXY d   1      -0.594  -0.735  -0.530  0.00  0.00     0.003 A 
ATOM      6  C4  PXY d   1       0.670  -0.383  -0.921  0.00  0.00    -0.082 A 
ATOM      7  C5  PXY d   1       1.554   0.055   0.000  0.00  0.00     0.003 A 
ATOM      8  C6  PXY d   1       1.159   0.141   1.332  0.00  0.00     0.003 A 
ENDROOT
TORSDOF 0
ENDMDL
