MODEL 1
REMARK minimizedAffinity -4.42254114
REMARK minimizedRMSD -1
REMARK  0 active torsions:
REMARK  status: ('A' for Active; 'I' for Inactive)
ROOT
ATOM      1  C4' PXY d   1      -1.440  -0.340   4.254  0.00  0.00     0.077 C 
ATOM      2  C1' PXY d   1       0.510  -0.578  -1.182  0.00  0.00     0.077 C 
ATOM      3  C1  PXY d   1       0.008  -0.524   0.247  0.00  0.00    -0.082 A 
ATOM      4  C2  PXY d   1      -1.248  -0.183   0.487  0.00  0.00     0.003 A 
ATOM      5  C3  PXY d   1      -1.710  -0.098   1.775  0.00  0.00     0.003 A 
ATOM      6  C4  PXY d   1      -0.893  -0.417   2.827  0.00  0.00    -0.082 A 
ATOM      7  C5  PXY d   1       0.387  -0.776   2.590  0.00  0.00     0.003 A 
ATOM      8  C6  PXY d   1       0.848  -0.816   1.277  0.00  0.00     0.003 A 
ENDROOT
TORSDOF 0
ENDMDL
