MODEL 1
REMARK minimizedAffinity -3.10347176
REMARK minimizedRMSD -1
REMARK  0 active torsions:
REMARK  status: ('A' for Active; 'I' for Inactive)
ROOT
ATOM      1  C4' PXY d   1       0.621   0.048  -1.412  0.00  0.00     0.077 C 
ATOM      2  C1' PXY d   1      -1.815  -0.862   3.750  0.00  0.00     0.077 C 
ATOM      3  C1  PXY d   1      -1.180  -0.611   2.397  0.00  0.00    -0.082 A 
ATOM      4  C2  PXY d   1      -1.014  -1.618   1.555  0.00  0.00     0.003 A 
ATOM      5  C3  PXY d   1      -0.412  -1.414   0.340  0.00  0.00     0.003 A 
ATOM      6  C4  PXY d   1      -0.024  -0.157  -0.039  0.00  0.00    -0.082 A 
ATOM      7  C5  PXY d   1      -0.200   0.878   0.810  0.00  0.00     0.003 A 
ATOM      8  C6  PXY d   1      -0.775   0.643   2.055  0.00  0.00     0.003 A 
ENDROOT
TORSDOF 0
ENDMDL
