MODEL 1
REMARK minimizedAffinity -2.60629702
REMARK minimizedRMSD -1
REMARK  0 active torsions:
REMARK  status: ('A' for Active; 'I' for Inactive)
ROOT
ATOM      1  C4' PXY d   1       0.472  -0.578  -2.315  0.00  0.00     0.077 C 
ATOM      2  C1' PXY d   1      -0.470  -0.521   3.388  0.00  0.00     0.077 C 
ATOM      3  C1  PXY d   1      -0.234  -0.542   1.891  0.00  0.00    -0.082 A 
ATOM      4  C2  PXY d   1       0.995  -0.405   1.420  0.00  0.00     0.003 A 
ATOM      5  C3  PXY d   1       1.222  -0.390   0.068  0.00  0.00     0.003 A 
ATOM      6  C4  PXY d   1       0.188  -0.571  -0.810  0.00  0.00    -0.082 A 
ATOM      7  C5  PXY d   1      -1.068  -0.723  -0.338  0.00  0.00     0.003 A 
ATOM      8  C6  PXY d   1      -1.283  -0.694   1.037  0.00  0.00     0.003 A 
ENDROOT
TORSDOF 0
ENDMDL
