MODEL 1
REMARK minimizedAffinity -5.19776106
REMARK minimizedRMSD -1
REMARK  0 active torsions:
REMARK  status: ('A' for Active; 'I' for Inactive)
ROOT
ATOM      1  C4' PXY d   1       0.734  -1.543  -2.603  0.00  0.00     0.077 C 
ATOM      2  C1' PXY d   1      -0.064  -0.015   2.914  0.00  0.00     0.077 C 
ATOM      3  C1  PXY d   1       0.132  -0.415   1.465  0.00  0.00    -0.082 A 
ATOM      4  C2  PXY d   1       1.182  -1.144   1.124  0.00  0.00     0.003 A 
ATOM      5  C3  PXY d   1       1.393  -1.487  -0.187  0.00  0.00     0.003 A 
ATOM      6  C4  PXY d   1       0.490  -1.125  -1.151  0.00  0.00    -0.082 A 
ATOM      7  C5  PXY d   1      -0.589  -0.390  -0.810  0.00  0.00     0.003 A 
ATOM      8  C6  PXY d   1      -0.763  -0.017   0.520  0.00  0.00     0.003 A 
ENDROOT
TORSDOF 0
ENDMDL
