MODEL 1
REMARK minimizedAffinity -3.46453524
REMARK minimizedRMSD -1
REMARK  0 active torsions:
REMARK  status: ('A' for Active; 'I' for Inactive)
ROOT
ATOM      1  C4' PXY d   1      -2.789  -0.995   0.749  0.00  0.00     0.077 C 
ATOM      2  C1' PXY d   1       2.463   1.396   1.077  0.00  0.00     0.077 C 
ATOM      3  C1  PXY d   1       1.089   0.761   1.000  0.00  0.00    -0.082 A 
ATOM      4  C2  PXY d   1       0.373   0.883  -0.106  0.00  0.00     0.003 A 
ATOM      5  C3  PXY d   1      -0.885   0.341  -0.180  0.00  0.00     0.003 A 
ATOM      6  C4  PXY d   1      -1.393  -0.378   0.868  0.00  0.00    -0.082 A 
ATOM      7  C5  PXY d   1      -0.664  -0.516   1.996  0.00  0.00     0.003 A 
ATOM      8  C6  PXY d   1       0.594   0.076   2.067  0.00  0.00     0.003 A 
ENDROOT
TORSDOF 0
ENDMDL
