MODEL 1
REMARK minimizedAffinity -6.01324368
REMARK minimizedRMSD -1
REMARK  0 active torsions:
REMARK  status: ('A' for Active; 'I' for Inactive)
ROOT
ATOM      1  C4' PXY d   1      -1.674  -0.554   3.917  0.00  0.00     0.077 C 
ATOM      2  C1' PXY d   1       0.553   0.746  -1.257  0.00  0.00     0.077 C 
ATOM      3  C1  PXY d   1      -0.019   0.401   0.104  0.00  0.00    -0.082 A 
ATOM      4  C2  PXY d   1      -1.322   0.212   0.236  0.00  0.00     0.003 A 
ATOM      5  C3  PXY d   1      -1.861  -0.070   1.466  0.00  0.00     0.003 A 
ATOM      6  C4  PXY d   1      -1.051  -0.213   2.560  0.00  0.00    -0.082 A 
ATOM      7  C5  PXY d   1       0.281  -0.032   2.431  0.00  0.00     0.003 A 
ATOM      8  C6  PXY d   1       0.803   0.294   1.182  0.00  0.00     0.003 A 
ENDROOT
TORSDOF 0
ENDMDL
