MODEL 1
REMARK minimizedAffinity -3.96645617
REMARK minimizedRMSD -1
REMARK  0 active torsions:
REMARK  status: ('A' for Active; 'I' for Inactive)
ROOT
ATOM      1  C4' PXY d   1       0.071   0.758   2.542  0.00  0.00     0.077 C 
ATOM      2  C1' PXY d   1       0.593  -0.601  -3.052  0.00  0.00     0.077 C 
ATOM      3  C1  PXY d   1       0.465  -0.253  -1.582  0.00  0.00    -0.082 A 
ATOM      4  C2  PXY d   1      -0.668   0.254  -1.126  0.00  0.00     0.003 A 
ATOM      5  C3  PXY d   1      -0.790   0.604   0.194  0.00  0.00     0.003 A 
ATOM      6  C4  PXY d   1       0.242   0.383   1.067  0.00  0.00    -0.082 A 
ATOM      7  C5  PXY d   1       1.398  -0.144   0.611  0.00  0.00     0.003 A 
ATOM      8  C6  PXY d   1       1.515  -0.454  -0.740  0.00  0.00     0.003 A 
ENDROOT
TORSDOF 0
ENDMDL
