MODEL 1
REMARK minimizedAffinity -5.04879761
REMARK minimizedRMSD -1
REMARK  0 active torsions:
REMARK  status: ('A' for Active; 'I' for Inactive)
ROOT
ATOM      1  C4' PXY d   1       0.665   0.729  -1.240  0.00  0.00     0.077 C 
ATOM      2  C1' PXY d   1      -2.119  -0.629   3.640  0.00  0.00     0.077 C 
ATOM      3  C1  PXY d   1      -1.378  -0.273   2.367  0.00  0.00    -0.082 A 
ATOM      4  C2  PXY d   1      -2.008   0.378   1.403  0.00  0.00     0.003 A 
ATOM      5  C3  PXY d   1      -1.362   0.679   0.232  0.00  0.00     0.003 A 
ATOM      6  C4  PXY d   1      -0.042   0.358   0.067  0.00  0.00    -0.082 A 
ATOM      7  C5  PXY d   1       0.612  -0.297   1.050  0.00  0.00     0.003 A 
ATOM      8  C6  PXY d   1      -0.074  -0.630   2.215  0.00  0.00     0.003 A 
ENDROOT
TORSDOF 0
ENDMDL
