MODEL 1
REMARK minimizedAffinity -3.76199603
REMARK minimizedRMSD -1
REMARK  0 active torsions:
REMARK  status: ('A' for Active; 'I' for Inactive)
ROOT
ATOM      1  C4' PXY d   1      -1.033  -1.528   3.242  0.00  0.00     0.077 C 
ATOM      2  C1' PXY d   1      -0.309   1.686  -1.508  0.00  0.00     0.077 C 
ATOM      3  C1  PXY d   1      -0.512   0.843  -0.264  0.00  0.00    -0.082 A 
ATOM      4  C2  PXY d   1       0.376   0.898   0.715  0.00  0.00     0.003 A 
ATOM      5  C3  PXY d   1       0.225   0.118   1.833  0.00  0.00     0.003 A 
ATOM      6  C4  PXY d   1      -0.874  -0.687   1.973  0.00  0.00    -0.082 A 
ATOM      7  C5  PXY d   1      -1.790  -0.740   0.983  0.00  0.00     0.003 A 
ATOM      8  C6  PXY d   1      -1.597   0.028  -0.162  0.00  0.00     0.003 A 
ENDROOT
TORSDOF 0
ENDMDL
