MODEL 1
REMARK minimizedAffinity -5.04120493
REMARK minimizedRMSD -1
REMARK  0 active torsions:
REMARK  status: ('A' for Active; 'I' for Inactive)
ROOT
ATOM      1  C4' PXY d   1       0.420   0.710  -1.309  0.00  0.00     0.077 C 
ATOM      2  C1' PXY d   1      -1.578  -0.710   3.926  0.00  0.00     0.077 C 
ATOM      3  C1  PXY d   1      -1.064  -0.344   2.548  0.00  0.00    -0.082 A 
ATOM      4  C2  PXY d   1       0.225  -0.100   2.373  0.00  0.00     0.003 A 
ATOM      5  C3  PXY d   1       0.701   0.264   1.140  0.00  0.00     0.003 A 
ATOM      6  C4  PXY d   1      -0.141   0.327   0.063  0.00  0.00    -0.082 A 
ATOM      7  C5  PXY d   1      -1.456   0.070   0.230  0.00  0.00     0.003 A 
ATOM      8  C6  PXY d   1      -1.926  -0.257   1.499  0.00  0.00     0.003 A 
ENDROOT
TORSDOF 0
ENDMDL
