MODEL 1
REMARK minimizedAffinity 3.17216825
REMARK minimizedRMSD -1
REMARK  0 active torsions:
REMARK  status: ('A' for Active; 'I' for Inactive)
ROOT
ATOM      1  C4' PXY d   1      -1.572  -0.059   4.209  0.00  0.00     0.077 C 
ATOM      2  C1' PXY d   1       2.238   1.441   0.128  0.00  0.00     0.077 C 
ATOM      3  C1  PXY d   1       1.248   1.051   1.208  0.00  0.00    -0.082 A 
ATOM      4  C2  PXY d   1       0.280   0.193   0.928  0.00  0.00     0.003 A 
ATOM      5  C3  PXY d   1      -0.644  -0.146   1.883  0.00  0.00     0.003 A 
ATOM      6  C4  PXY d   1      -0.544   0.357   3.153  0.00  0.00    -0.082 A 
ATOM      7  C5  PXY d   1       0.447   1.224   3.449  0.00  0.00     0.003 A 
ATOM      8  C6  PXY d   1       1.350   1.588   2.454  0.00  0.00     0.003 A 
ENDROOT
TORSDOF 0
ENDMDL
