MODEL 1
REMARK minimizedAffinity -2.43850136
REMARK minimizedRMSD -1
REMARK  0 active torsions:
REMARK  status: ('A' for Active; 'I' for Inactive)
ROOT
ATOM      1  C4' PXY d   1      -1.569  -1.438   3.169  0.00  0.00     0.077 C 
ATOM      2  C1' PXY d   1       0.709   0.830  -1.635  0.00  0.00     0.077 C 
ATOM      3  C1  PXY d   1       0.121   0.242  -0.368  0.00  0.00    -0.082 A 
ATOM      4  C2  PXY d   1      -0.593  -0.870  -0.434  0.00  0.00     0.003 A 
ATOM      5  C3  PXY d   1      -1.160  -1.399   0.697  0.00  0.00     0.003 A 
ATOM      6  C4  PXY d   1      -0.948  -0.813   1.917  0.00  0.00    -0.082 A 
ATOM      7  C5  PXY d   1      -0.212   0.316   1.993  0.00  0.00     0.003 A 
ATOM      8  C6  PXY d   1       0.320   0.859   0.828  0.00  0.00     0.003 A 
ENDROOT
TORSDOF 0
ENDMDL
