MODEL 1
REMARK minimizedAffinity -3.52074909
REMARK minimizedRMSD -1
REMARK  0 active torsions:
REMARK  status: ('A' for Active; 'I' for Inactive)
ROOT
ATOM      1  C4' PXY d   1       0.619  -1.013  -2.886  0.00  0.00     0.077 C 
ATOM      2  C1' PXY d   1       0.062   0.554   2.651  0.00  0.00     0.077 C 
ATOM      3  C1  PXY d   1       0.204   0.155   1.195  0.00  0.00    -0.082 A 
ATOM      4  C2  PXY d   1       0.096  -1.118   0.852  0.00  0.00     0.003 A 
ATOM      5  C3  PXY d   1       0.254  -1.500  -0.455  0.00  0.00     0.003 A 
ATOM      6  C4  PXY d   1       0.473  -0.563  -1.429  0.00  0.00    -0.082 A 
ATOM      7  C5  PXY d   1       0.574   0.739  -1.089  0.00  0.00     0.003 A 
ATOM      8  C6  PXY d   1       0.452   1.102   0.249  0.00  0.00     0.003 A 
ENDROOT
TORSDOF 0
ENDMDL
