MODEL 1
REMARK minimizedAffinity 4.70902205
REMARK minimizedRMSD -1
REMARK  0 active torsions:
REMARK  status: ('A' for Active; 'I' for Inactive)
ROOT
ATOM      1  C4' PXY d   1      -3.915  -1.265   0.479  0.00  0.00     0.077 C 
ATOM      2  C1' PXY d   1       1.242   1.068  -0.694  0.00  0.00     0.077 C 
ATOM      3  C1  PXY d   1      -0.105   0.445  -0.385  0.00  0.00    -0.082 A 
ATOM      4  C2  PXY d   1      -1.207   0.997  -0.865  0.00  0.00     0.003 A 
ATOM      5  C3  PXY d   1      -2.436   0.465  -0.568  0.00  0.00     0.003 A 
ATOM      6  C4  PXY d   1      -2.533  -0.675   0.184  0.00  0.00    -0.082 A 
ATOM      7  C5  PXY d   1      -1.413  -1.251   0.669  0.00  0.00     0.003 A 
ATOM      8  C6  PXY d   1      -0.178  -0.671   0.390  0.00  0.00     0.003 A 
ENDROOT
TORSDOF 0
ENDMDL
