MODEL 1
REMARK minimizedAffinity -3.7268908
REMARK minimizedRMSD -1
REMARK  0 active torsions:
REMARK  status: ('A' for Active; 'I' for Inactive)
ROOT
ATOM      1  C4' PXY d   1       0.345   0.376  -2.001  0.00  0.00     0.077 C 
ATOM      2  C1' PXY d   1      -1.234  -0.306   3.518  0.00  0.00     0.077 C 
ATOM      3  C1  PXY d   1      -0.812  -0.118   2.074  0.00  0.00    -0.082 A 
ATOM      4  C2  PXY d   1      -1.642  -0.455   1.100  0.00  0.00     0.003 A 
ATOM      5  C3  PXY d   1      -1.263  -0.321  -0.211  0.00  0.00     0.003 A 
ATOM      6  C4  PXY d   1      -0.043   0.212  -0.529  0.00  0.00    -0.082 A 
ATOM      7  C5  PXY d   1       0.805   0.569   0.459  0.00  0.00     0.003 A 
ATOM      8  C6  PXY d   1       0.418   0.387   1.783  0.00  0.00     0.003 A 
ENDROOT
TORSDOF 0
ENDMDL
