MODEL 1
REMARK minimizedAffinity 0.392056763
REMARK minimizedRMSD -1
REMARK  0 active torsions:
REMARK  status: ('A' for Active; 'I' for Inactive)
ROOT
ATOM      1  C4' PXY d   1       0.298   1.052   3.561  0.00  0.00     0.077 C 
ATOM      2  C1' PXY d   1      -1.954   0.120  -1.681  0.00  0.00     0.077 C 
ATOM      3  C1  PXY d   1      -1.353   0.358  -0.310  0.00  0.00    -0.082 A 
ATOM      4  C2  PXY d   1      -2.146   0.627   0.715  0.00  0.00     0.003 A 
ATOM      5  C3  PXY d   1      -1.617   0.876   1.955  0.00  0.00     0.003 A 
ATOM      6  C4  PXY d   1      -0.266   0.796   2.160  0.00  0.00    -0.082 A 
ATOM      7  C5  PXY d   1       0.549   0.511   1.123  0.00  0.00     0.003 A 
ATOM      8  C6  PXY d   1      -0.005   0.302  -0.137  0.00  0.00     0.003 A 
ENDROOT
TORSDOF 0
ENDMDL
