MODEL 1
REMARK minimizedAffinity -0.351929814
REMARK minimizedRMSD -1
REMARK  0 active torsions:
REMARK  status: ('A' for Active; 'I' for Inactive)
ROOT
ATOM      1  C4' PXY d   1      -0.989  -1.009   3.729  0.00  0.00     0.077 C 
ATOM      2  C1' PXY d   1       0.753   0.961  -1.418  0.00  0.00     0.077 C 
ATOM      3  C1  PXY d   1       0.308   0.446  -0.064  0.00  0.00    -0.082 A 
ATOM      4  C2  PXY d   1      -0.717  -0.387   0.015  0.00  0.00     0.003 A 
ATOM      5  C3  PXY d   1      -1.153  -0.837   1.235  0.00  0.00     0.003 A 
ATOM      6  C4  PXY d   1      -0.499  -0.472   2.382  0.00  0.00    -0.082 A 
ATOM      7  C5  PXY d   1       0.554   0.370   2.309  0.00  0.00     0.003 A 
ATOM      8  C6  PXY d   1       0.955   0.847   1.064  0.00  0.00     0.003 A 
ENDROOT
TORSDOF 0
ENDMDL
