MODEL 1
REMARK minimizedAffinity -2.476408
REMARK minimizedRMSD -1
REMARK  0 active torsions:
REMARK  status: ('A' for Active; 'I' for Inactive)
ROOT
ATOM      1  C4' PXY d   1      -0.982  -0.925   3.708  0.00  0.00     0.077 C 
ATOM      2  C1' PXY d   1       0.355   0.332  -1.774  0.00  0.00     0.077 C 
ATOM      3  C1  PXY d   1       0.017   0.002  -0.333  0.00  0.00    -0.082 A 
ATOM      4  C2  PXY d   1      -1.138  -0.576  -0.048  0.00  0.00     0.003 A 
ATOM      5  C3  PXY d   1      -1.474  -0.852   1.252  0.00  0.00     0.003 A 
ATOM      6  C4  PXY d   1      -0.595  -0.582   2.267  0.00  0.00    -0.082 A 
ATOM      7  C5  PXY d   1       0.591  -0.002   1.983  0.00  0.00     0.003 A 
ATOM      8  C6  PXY d   1       0.895   0.308   0.661  0.00  0.00     0.003 A 
ENDROOT
TORSDOF 0
ENDMDL
