MODEL 1
REMARK minimizedAffinity -3.29071331
REMARK minimizedRMSD -1
REMARK  0 active torsions:
REMARK  status: ('A' for Active; 'I' for Inactive)
ROOT
ATOM      1  C4' PXY d   1      -0.631  -0.998   3.657  0.00  0.00     0.077 C 
ATOM      2  C1' PXY d   1       0.300   0.543  -1.836  0.00  0.00     0.077 C 
ATOM      3  C1  PXY d   1       0.068   0.141  -0.393  0.00  0.00    -0.082 A 
ATOM      4  C2  PXY d   1      -0.959  -0.635  -0.086  0.00  0.00     0.003 A 
ATOM      5  C3  PXY d   1      -1.201  -0.982   1.218  0.00  0.00     0.003 A 
ATOM      6  C4  PXY d   1      -0.353  -0.575   2.212  0.00  0.00    -0.082 A 
ATOM      7  C5  PXY d   1       0.703   0.208   1.907  0.00  0.00     0.003 A 
ATOM      8  C6  PXY d   1       0.908   0.584   0.582  0.00  0.00     0.003 A 
ENDROOT
TORSDOF 0
ENDMDL
