MODEL 1
REMARK minimizedAffinity -0.478864193
REMARK minimizedRMSD -1
REMARK  2 active torsions:
REMARK  status: ('A' for Active; 'I' for Inactive)
REMARK    1  A    between atoms: C2'_3  and  C1'_4 
REMARK    2  A    between atoms: C1'_4  and  C1_5 
ROOT
ATOM      1  C1  I4B d   1       1.437  -3.330  -0.200  0.00  0.00    -0.075 A 
ATOM      2  C2  I4B d   1       0.264  -3.284  -0.912  0.00  0.00     0.003 A 
ATOM      3  C3  I4B d   1      -0.819  -2.498  -0.452  0.00  0.00     0.002 A 
ATOM      4  C4  I4B d   1      -0.706  -1.818   0.744  0.00  0.00    -0.004 A 
ATOM      5  C5  I4B d   1       0.492  -1.847   1.453  0.00  0.00     0.002 A 
ATOM      6  C6  I4B d   1       1.574  -2.598   0.972  0.00  0.00     0.003 A 
ENDROOT
BRANCH   1   7
ATOM      7  C1' I4B d   1       2.549  -4.197  -0.699  0.00  0.00     0.060 C 
BRANCH   7   8
ATOM      8  C2' I4B d   1       3.639  -4.208   0.353  0.00  0.00    -0.013 C 
ATOM      9  C4' I4B d   1       4.395  -5.511   0.342  0.00  0.00     0.013 C 
ATOM     10  C3' I4B d   1       4.553  -3.050   0.085  0.00  0.00     0.013 C 
ENDBRANCH   7   8
ENDBRANCH   1   7
TORSDOF 2
ENDMDL
