MODEL 1
REMARK minimizedAffinity -2.08660412
REMARK minimizedRMSD -1
REMARK  2 active torsions:
REMARK  status: ('A' for Active; 'I' for Inactive)
REMARK    1  A    between atoms: C2'_3  and  C1'_4 
REMARK    2  A    between atoms: C1'_4  and  C1_5 
ROOT
ATOM      1  C1  I4B d   1      -0.698  -1.000   1.201  0.00  0.00    -0.075 A 
ATOM      2  C2  I4B d   1       0.420  -0.324   1.621  0.00  0.00     0.003 A 
ATOM      3  C3  I4B d   1       1.705  -0.739   1.196  0.00  0.00     0.002 A 
ATOM      4  C4  I4B d   1       1.829  -1.858   0.398  0.00  0.00    -0.004 A 
ATOM      5  C5  I4B d   1       0.692  -2.528  -0.046  0.00  0.00     0.002 A 
ATOM      6  C6  I4B d   1      -0.580  -2.090   0.348  0.00  0.00     0.003 A 
ENDROOT
BRANCH   1   7
ATOM      7  C1' I4B d   1      -2.038  -0.554   1.696  0.00  0.00     0.060 C 
BRANCH   7   8
ATOM      8  C2' I4B d   1      -2.354   0.779   1.050  0.00  0.00    -0.013 C 
ATOM      9  C4' I4B d   1      -3.713   0.763   0.402  0.00  0.00     0.013 C 
ATOM     10  C3' I4B d   1      -2.272   1.838   2.110  0.00  0.00     0.013 C 
ENDBRANCH   7   8
ENDBRANCH   1   7
TORSDOF 2
ENDMDL
