MODEL 1
REMARK minimizedAffinity -2.30204082
REMARK minimizedRMSD -1
REMARK  2 active torsions:
REMARK  status: ('A' for Active; 'I' for Inactive)
REMARK    1  A    between atoms: C2'_3  and  C1'_4 
REMARK    2  A    between atoms: C1'_4  and  C1_5 
ROOT
ATOM      1  C1  I4B d   1       0.871  -1.847  -0.094  0.00  0.00    -0.075 A 
ATOM      2  C2  I4B d   1       0.789  -3.213  -0.197  0.00  0.00     0.003 A 
ATOM      3  C3  I4B d   1       1.967  -3.999  -0.212  0.00  0.00     0.002 A 
ATOM      4  C4  I4B d   1       3.198  -3.378  -0.173  0.00  0.00    -0.004 A 
ATOM      5  C5  I4B d   1       3.280  -1.995  -0.046  0.00  0.00     0.002 A 
ATOM      6  C6  I4B d   1       2.109  -1.225   0.006  0.00  0.00     0.003 A 
ENDROOT
BRANCH   1   7
ATOM      7  C1' I4B d   1      -0.391  -1.045  -0.114  0.00  0.00     0.060 C 
BRANCH   7   8
ATOM      8  C2' I4B d   1      -1.105  -1.266   1.204  0.00  0.00    -0.013 C 
ATOM      9  C4' I4B d   1      -1.743  -2.629   1.258  0.00  0.00     0.013 C 
ATOM     10  C3' I4B d   1      -0.105  -1.092   2.308  0.00  0.00     0.013 C 
ENDBRANCH   7   8
ENDBRANCH   1   7
TORSDOF 2
ENDMDL
