MODEL 1
REMARK minimizedAffinity -1.69567013
REMARK minimizedRMSD -1
REMARK  2 active torsions:
REMARK  status: ('A' for Active; 'I' for Inactive)
REMARK    1  A    between atoms: C2'_3  and  C1'_4 
REMARK    2  A    between atoms: C1'_4  and  C1_5 
ROOT
ATOM      1  C1  I4B d   1       1.579  -1.014   0.271  0.00  0.00    -0.075 A 
ATOM      2  C2  I4B d   1       1.536  -2.366   0.037  0.00  0.00     0.003 A 
ATOM      3  C3  I4B d   1       0.350  -3.095   0.291  0.00  0.00     0.002 A 
ATOM      4  C4  I4B d   1      -0.747  -2.447   0.822  0.00  0.00    -0.004 A 
ATOM      5  C5  I4B d   1      -0.709  -1.073   1.037  0.00  0.00     0.002 A 
ATOM      6  C6  I4B d   1       0.457  -0.349   0.749  0.00  0.00     0.003 A 
ENDROOT
BRANCH   1   7
ATOM      7  C1' I4B d   1       2.859  -0.280   0.024  0.00  0.00     0.060 C 
BRANCH   7   8
ATOM      8  C2' I4B d   1       3.794  -0.568   1.181  0.00  0.00    -0.013 C 
ATOM      9  C4' I4B d   1       5.208  -0.767   0.703  0.00  0.00     0.013 C 
ATOM     10  C3' I4B d   1       3.704   0.578   2.144  0.00  0.00     0.013 C 
ENDBRANCH   7   8
ENDBRANCH   1   7
TORSDOF 2
ENDMDL
