MODEL 1
REMARK minimizedAffinity 6.78990221
REMARK minimizedRMSD -1
REMARK  2 active torsions:
REMARK  status: ('A' for Active; 'I' for Inactive)
REMARK    1  A    between atoms: C2'_3  and  C1'_4 
REMARK    2  A    between atoms: C1'_4  and  C1_5 
ROOT
ATOM      1  C1  I4B d   1       0.077  -1.987   1.026  0.00  0.00    -0.075 A 
ATOM      2  C2  I4B d   1      -0.798  -3.012   0.770  0.00  0.00     0.003 A 
ATOM      3  C3  I4B d   1      -0.509  -3.962  -0.240  0.00  0.00     0.002 A 
ATOM      4  C4  I4B d   1       0.635  -3.820  -0.998  0.00  0.00    -0.004 A 
ATOM      5  C5  I4B d   1       1.533  -2.793  -0.722  0.00  0.00     0.002 A 
ATOM      6  C6  I4B d   1       1.259  -1.877   0.305  0.00  0.00     0.003 A 
ENDROOT
BRANCH   1   7
ATOM      7  C1' I4B d   1      -0.276  -0.983   2.077  0.00  0.00     0.060 C 
BRANCH   7   8
ATOM      8  C2' I4B d   1       0.757  -1.081   3.182  0.00  0.00    -0.013 C 
ATOM      9  C4' I4B d   1       2.016  -0.338   2.819  0.00  0.00     0.013 C 
ATOM     10  C3' I4B d   1       0.146  -0.531   4.436  0.00  0.00     0.013 C 
ENDBRANCH   7   8
ENDBRANCH   1   7
TORSDOF 2
ENDMDL
