MODEL 1
REMARK minimizedAffinity 0.333652884
REMARK minimizedRMSD -1
REMARK  2 active torsions:
REMARK  status: ('A' for Active; 'I' for Inactive)
REMARK    1  A    between atoms: C2'_3  and  C1'_4 
REMARK    2  A    between atoms: C1'_4  and  C1_5 
ROOT
ATOM      1  C1  I4B d   1       1.361  -2.491  -0.046  0.00  0.00    -0.075 A 
ATOM      2  C2  I4B d   1       0.033  -2.714   0.217  0.00  0.00     0.003 A 
ATOM      3  C3  I4B d   1      -0.743  -1.720   0.861  0.00  0.00     0.002 A 
ATOM      4  C4  I4B d   1      -0.143  -0.546   1.267  0.00  0.00    -0.004 A 
ATOM      5  C5  I4B d   1       1.199  -0.312   0.979  0.00  0.00     0.002 A 
ATOM      6  C6  I4B d   1       1.953  -1.285   0.307  0.00  0.00     0.003 A 
ENDROOT
BRANCH   1   7
ATOM      7  C1' I4B d   1       2.159  -3.575  -0.698  0.00  0.00     0.060 C 
BRANCH   7   8
ATOM      8  C2' I4B d   1       3.421  -3.780   0.115  0.00  0.00    -0.013 C 
ATOM      9  C4' I4B d   1       4.090  -5.083  -0.235  0.00  0.00     0.013 C 
ATOM     10  C3' I4B d   1       4.332  -2.617  -0.145  0.00  0.00     0.013 C 
ENDBRANCH   7   8
ENDBRANCH   1   7
TORSDOF 2
ENDMDL
