MODEL 1
REMARK minimizedAffinity 1.73698258
REMARK minimizedRMSD -1
REMARK  2 active torsions:
REMARK  status: ('A' for Active; 'I' for Inactive)
REMARK    1  A    between atoms: C2'_3  and  C1'_4 
REMARK    2  A    between atoms: C1'_4  and  C1_5 
ROOT
ATOM      1  C1  I4B d   1       3.464  -4.386  -0.273  0.00  0.00    -0.075 A 
ATOM      2  C2  I4B d   1       3.637  -5.605   0.333  0.00  0.00     0.003 A 
ATOM      3  C3  I4B d   1       4.917  -5.999   0.791  0.00  0.00     0.002 A 
ATOM      4  C4  I4B d   1       6.000  -5.170   0.579  0.00  0.00    -0.004 A 
ATOM      5  C5  I4B d   1       5.819  -3.924  -0.015  0.00  0.00     0.002 A 
ATOM      6  C6  I4B d   1       4.541  -3.524  -0.433  0.00  0.00     0.003 A 
ENDROOT
BRANCH   1   7
ATOM      7  C1' I4B d   1       2.104  -4.017  -0.775  0.00  0.00     0.060 C 
BRANCH   7   8
ATOM      8  C2' I4B d   1       1.401  -3.236   0.316  0.00  0.00    -0.013 C 
ATOM      9  C4' I4B d   1       2.121  -1.947   0.616  0.00  0.00     0.013 C 
ATOM     10  C3' I4B d   1      -0.007  -2.978  -0.133  0.00  0.00     0.013 C 
ENDBRANCH   7   8
ENDBRANCH   1   7
TORSDOF 2
ENDMDL
