MODEL 1
REMARK minimizedAffinity 1.66514862
REMARK minimizedRMSD -1
REMARK  2 active torsions:
REMARK  status: ('A' for Active; 'I' for Inactive)
REMARK    1  A    between atoms: C2'_3  and  C1'_4 
REMARK    2  A    between atoms: C1'_4  and  C1_5 
ROOT
ATOM      1  C1  I4B d   1      -0.066  -1.252   1.463  0.00  0.00    -0.075 A 
ATOM      2  C2  I4B d   1       1.202  -0.894   1.078  0.00  0.00     0.003 A 
ATOM      3  C3  I4B d   1       1.989  -1.782   0.304  0.00  0.00     0.002 A 
ATOM      4  C4  I4B d   1       1.490  -3.027  -0.018  0.00  0.00    -0.004 A 
ATOM      5  C5  I4B d   1       0.196  -3.379   0.353  0.00  0.00     0.002 A 
ATOM      6  C6  I4B d   1      -0.593  -2.481   1.088  0.00  0.00     0.003 A 
ENDROOT
BRANCH   1   7
ATOM      7  C1' I4B d   1      -0.857  -0.304   2.308  0.00  0.00     0.060 C 
BRANCH   7   8
ATOM      8  C2' I4B d   1      -0.162  -0.184   3.649  0.00  0.00    -0.013 C 
ATOM      9  C4' I4B d   1      -1.142   0.154   4.742  0.00  0.00     0.013 C 
ATOM     10  C3' I4B d   1       0.534  -1.482   3.928  0.00  0.00     0.013 C 
ENDBRANCH   7   8
ENDBRANCH   1   7
TORSDOF 2
ENDMDL
