MODEL 1
REMARK minimizedAffinity -1.75328314
REMARK minimizedRMSD -1
REMARK  2 active torsions:
REMARK  status: ('A' for Active; 'I' for Inactive)
REMARK    1  A    between atoms: C2'_3  and  C1'_4 
REMARK    2  A    between atoms: C1'_4  and  C1_5 
ROOT
ATOM      1  C1  I4B d   1       1.446  -2.281   0.174  0.00  0.00    -0.075 A 
ATOM      2  C2  I4B d   1       1.394  -3.650   0.257  0.00  0.00     0.003 A 
ATOM      3  C3  I4B d   1       2.586  -4.413   0.204  0.00  0.00     0.002 A 
ATOM      4  C4  I4B d   1       3.795  -3.774   0.016  0.00  0.00    -0.004 A 
ATOM      5  C5  I4B d   1       3.847  -2.384  -0.045  0.00  0.00     0.002 A 
ATOM      6  C6  I4B d   1       2.667  -1.632   0.047  0.00  0.00     0.003 A 
ENDROOT
BRANCH   1   7
ATOM      7  C1' I4B d   1       0.165  -1.509   0.201  0.00  0.00     0.060 C 
BRANCH   7   8
ATOM      8  C2' I4B d   1       0.423  -0.204   0.927  0.00  0.00    -0.013 C 
ATOM      9  C4' I4B d   1      -0.868   0.490   1.275  0.00  0.00     0.013 C 
ATOM     10  C3' I4B d   1       1.223  -0.508   2.158  0.00  0.00     0.013 C 
ENDBRANCH   7   8
ENDBRANCH   1   7
TORSDOF 2
ENDMDL
