MODEL 1
REMARK minimizedAffinity 3.64402127
REMARK minimizedRMSD -1
REMARK  2 active torsions:
REMARK  status: ('A' for Active; 'I' for Inactive)
REMARK    1  A    between atoms: C2'_3  and  C1'_4 
REMARK    2  A    between atoms: C1'_4  and  C1_5 
ROOT
ATOM      1  C1  I4B d   1       2.952  -4.490   0.368  0.00  0.00    -0.075 A 
ATOM      2  C2  I4B d   1       1.585  -4.532   0.256  0.00  0.00     0.003 A 
ATOM      3  C3  I4B d   1       0.838  -3.332   0.179  0.00  0.00     0.002 A 
ATOM      4  C4  I4B d   1       1.490  -2.119   0.267  0.00  0.00    -0.004 A 
ATOM      5  C5  I4B d   1       2.879  -2.078   0.357  0.00  0.00     0.002 A 
ATOM      6  C6  I4B d   1       3.616  -3.270   0.395  0.00  0.00     0.003 A 
ENDROOT
BRANCH   1   7
ATOM      7  C1' I4B d   1       3.706  -5.776   0.481  0.00  0.00     0.060 C 
BRANCH   7   8
ATOM      8  C2' I4B d   1       5.165  -5.443   0.720  0.00  0.00    -0.013 C 
ATOM      9  C4' I4B d   1       5.643  -5.999   2.036  0.00  0.00     0.013 C 
ATOM     10  C3' I4B d   1       5.961  -5.999  -0.423  0.00  0.00     0.013 C 
ENDBRANCH   7   8
ENDBRANCH   1   7
TORSDOF 2
ENDMDL
