MODEL 1
REMARK minimizedAffinity -4.89028215
REMARK minimizedRMSD -1
REMARK  1 active torsions:
REMARK  status: ('A' for Active; 'I' for Inactive)
REMARK    1  A    between atoms: C1_2  and  C2_3 
ROOT
ATOM      1  C2  UNL d   1       0.524  -0.060   0.225  0.00  0.00    -0.077 A 
ATOM      2  C3  UNL d   1      -0.594  -0.892   0.379  0.00  0.00     0.002 A 
ATOM      3  C4  UNL d   1      -1.166  -1.080   1.638  0.00  0.00     0.002 A 
ATOM      4  C5  UNL d   1      -0.631  -0.437   2.752  0.00  0.00    -0.004 A 
ATOM      5  C6  UNL d   1       0.482   0.391   2.610  0.00  0.00     0.002 A 
ATOM      6  C7  UNL d   1       1.056   0.580   1.352  0.00  0.00     0.002 A 
ENDROOT
BRANCH   1   7
ATOM      7  C1  UNL d   1       1.113   0.184  -1.140  0.00  0.00     0.055 C 
ATOM      8  C   UNL d   1       0.653  -0.870  -2.137  0.00  0.00     0.019 C 
ENDBRANCH   1   7
TORSDOF 1
ENDMDL
