MODEL 1
REMARK minimizedAffinity -4.85037851
REMARK minimizedRMSD -1
REMARK  1 active torsions:
REMARK  status: ('A' for Active; 'I' for Inactive)
REMARK    1  A    between atoms: C1_2  and  C2_3 
ROOT
ATOM      1  C2  UNL d   1      -0.136  -0.370   0.696  0.00  0.00    -0.077 A 
ATOM      2  C3  UNL d   1      -1.436  -0.117   1.153  0.00  0.00     0.002 A 
ATOM      3  C4  UNL d   1      -1.746  -0.244   2.509  0.00  0.00     0.002 A 
ATOM      4  C5  UNL d   1      -0.759  -0.620   3.418  0.00  0.00    -0.004 A 
ATOM      5  C6  UNL d   1       0.537  -0.876   2.973  0.00  0.00     0.002 A 
ATOM      6  C7  UNL d   1       0.848  -0.751   1.618  0.00  0.00     0.002 A 
ENDROOT
BRANCH   1   7
ATOM      7  C1  UNL d   1       0.212  -0.186  -0.758  0.00  0.00     0.055 C 
ATOM      8  C   UNL d   1       0.341  -1.525  -1.470  0.00  0.00     0.019 C 
ENDBRANCH   1   7
TORSDOF 1
ENDMDL
