MODEL 1
REMARK minimizedAffinity -4.098773
REMARK minimizedRMSD -1
REMARK  1 active torsions:
REMARK  status: ('A' for Active; 'I' for Inactive)
REMARK    1  A    between atoms: C1_2  and  C2_3 
ROOT
ATOM      1  C2  UNL d   1      -0.745   0.237   0.745  0.00  0.00    -0.077 A 
ATOM      2  C3  UNL d   1      -1.352  -0.971   1.116  0.00  0.00     0.002 A 
ATOM      3  C4  UNL d   1      -1.164  -1.491   2.398  0.00  0.00     0.002 A 
ATOM      4  C5  UNL d   1      -0.372  -0.809   3.320  0.00  0.00    -0.004 A 
ATOM      5  C6  UNL d   1       0.238   0.392   2.959  0.00  0.00     0.002 A 
ATOM      6  C7  UNL d   1       0.052   0.913   1.678  0.00  0.00     0.002 A 
ENDROOT
BRANCH   1   7
ATOM      7  C1  UNL d   1      -0.987   0.824  -0.621  0.00  0.00     0.055 C 
ATOM      8  C   UNL d   1      -2.471   1.045  -0.874  0.00  0.00     0.019 C 
ENDBRANCH   1   7
TORSDOF 1
ENDMDL
