MODEL 1
REMARK minimizedAffinity -4.96319723
REMARK minimizedRMSD -1
REMARK  1 active torsions:
REMARK  status: ('A' for Active; 'I' for Inactive)
REMARK    1  A    between atoms: C1_2  and  C2_3 
ROOT
ATOM      1  C2  UNL d   1      -0.237   0.208   0.392  0.00  0.00    -0.077 A 
ATOM      2  C3  UNL d   1       0.490  -0.496   1.363  0.00  0.00     0.002 A 
ATOM      3  C4  UNL d   1      -0.114  -0.867   2.566  0.00  0.00     0.002 A 
ATOM      4  C5  UNL d   1      -1.447  -0.543   2.807  0.00  0.00    -0.004 A 
ATOM      5  C6  UNL d   1      -2.178   0.158   1.849  0.00  0.00     0.002 A 
ATOM      6  C7  UNL d   1      -1.576   0.531   0.647  0.00  0.00     0.002 A 
ENDROOT
BRANCH   1   7
ATOM      7  C1  UNL d   1       0.398   0.566  -0.926  0.00  0.00     0.055 C 
ATOM      8  C   UNL d   1       0.513  -0.649  -1.834  0.00  0.00     0.019 C 
ENDBRANCH   1   7
TORSDOF 1
ENDMDL
