MODEL 1
REMARK minimizedAffinity 2.87972546
REMARK minimizedRMSD -1
REMARK  1 active torsions:
REMARK  status: ('A' for Active; 'I' for Inactive)
REMARK    1  A    between atoms: C1_2  and  C2_3 
ROOT
ATOM      1  C2  UNL d   1       0.286   0.889   2.441  0.00  0.00    -0.077 A 
ATOM      2  C3  UNL d   1       1.391   1.706   2.165  0.00  0.00     0.002 A 
ATOM      3  C4  UNL d   1       2.073   1.585   0.952  0.00  0.00     0.002 A 
ATOM      4  C5  UNL d   1       1.655   0.653   0.006  0.00  0.00    -0.004 A 
ATOM      5  C6  UNL d   1       0.558  -0.166   0.271  0.00  0.00     0.002 A 
ATOM      6  C7  UNL d   1      -0.124  -0.048   1.483  0.00  0.00     0.002 A 
ENDROOT
BRANCH   1   7
ATOM      7  C1  UNL d   1      -0.481   1.051   3.727  0.00  0.00     0.055 C 
ATOM      8  C   UNL d   1      -1.348  -0.167   4.012  0.00  0.00     0.019 C 
ENDBRANCH   1   7
TORSDOF 1
ENDMDL
