MODEL 1
REMARK minimizedAffinity -4.29828501
REMARK minimizedRMSD -1
REMARK  1 active torsions:
REMARK  status: ('A' for Active; 'I' for Inactive)
REMARK    1  A    between atoms: C1_2  and  C2_3 
ROOT
ATOM      1  C2  UNL d   1      -0.958  -0.301   1.147  0.00  0.00    -0.077 A 
ATOM      2  C3  UNL d   1       0.328  -0.144   0.609  0.00  0.00     0.002 A 
ATOM      3  C4  UNL d   1       0.503   0.457  -0.639  0.00  0.00     0.002 A 
ATOM      4  C5  UNL d   1      -0.602   0.910  -1.357  0.00  0.00    -0.004 A 
ATOM      5  C6  UNL d   1      -1.884   0.757  -0.832  0.00  0.00     0.002 A 
ATOM      6  C7  UNL d   1      -2.061   0.156   0.415  0.00  0.00     0.002 A 
ENDROOT
BRANCH   1   7
ATOM      7  C1  UNL d   1      -1.145  -0.904   2.514  0.00  0.00     0.055 C 
ATOM      8  C   UNL d   1      -0.823   0.101   3.611  0.00  0.00     0.019 C 
ENDBRANCH   1   7
TORSDOF 1
ENDMDL
