MODEL 1
REMARK minimizedAffinity -1.64715302
REMARK minimizedRMSD -1
REMARK  1 active torsions:
REMARK  status: ('A' for Active; 'I' for Inactive)
REMARK    1  A    between atoms: C1_2  and  C2_3 
ROOT
ATOM      1  C2  UNL d   1       0.105   0.072   0.607  0.00  0.00    -0.077 A 
ATOM      2  C3  UNL d   1      -0.621  -1.101   0.854  0.00  0.00     0.002 A 
ATOM      3  C4  UNL d   1      -0.933  -1.477   2.162  0.00  0.00     0.002 A 
ATOM      4  C5  UNL d   1      -0.527  -0.683   3.232  0.00  0.00    -0.004 A 
ATOM      5  C6  UNL d   1       0.198   0.485   2.997  0.00  0.00     0.002 A 
ATOM      6  C7  UNL d   1       0.512   0.861   1.691  0.00  0.00     0.002 A 
ENDROOT
BRANCH   1   7
ATOM      7  C1  UNL d   1       0.401   0.505  -0.805  0.00  0.00     0.055 C 
ATOM      8  C   UNL d   1       0.881  -0.664  -1.653  0.00  0.00     0.019 C 
ENDBRANCH   1   7
TORSDOF 1
ENDMDL
