MODEL 1
REMARK minimizedAffinity -2.7184248
REMARK minimizedRMSD -1
REMARK  1 active torsions:
REMARK  status: ('A' for Active; 'I' for Inactive)
REMARK    1  A    between atoms: C1_2  and  C2_3 
ROOT
ATOM      1  C2  UNL d   1       0.457  -0.534   0.438  0.00  0.00    -0.077 A 
ATOM      2  C3  UNL d   1      -0.233   0.663   0.198  0.00  0.00     0.002 A 
ATOM      3  C4  UNL d   1      -1.100   1.184   1.160  0.00  0.00     0.002 A 
ATOM      4  C5  UNL d   1      -1.281   0.518   2.370  0.00  0.00    -0.004 A 
ATOM      5  C6  UNL d   1      -0.602  -0.674   2.618  0.00  0.00     0.002 A 
ATOM      6  C7  UNL d   1       0.264  -1.197   1.657  0.00  0.00     0.002 A 
ENDROOT
BRANCH   1   7
ATOM      7  C1  UNL d   1       1.430  -1.072  -0.578  0.00  0.00     0.055 C 
ATOM      8  C   UNL d   1       0.780  -2.126  -1.462  0.00  0.00     0.019 C 
ENDBRANCH   1   7
TORSDOF 1
ENDMDL
