MODEL 1
REMARK minimizedAffinity -1.73878312
REMARK minimizedRMSD -1
REMARK  1 active torsions:
REMARK  status: ('A' for Active; 'I' for Inactive)
REMARK    1  A    between atoms: C1_2  and  C2_3 
ROOT
ATOM      1  C2  UNL d   1       0.139  -1.664  -1.262  0.00  0.00    -0.077 A 
ATOM      2  C3  UNL d   1       0.917  -0.527  -1.003  0.00  0.00     0.002 A 
ATOM      3  C4  UNL d   1       0.620   0.298   0.084  0.00  0.00     0.002 A 
ATOM      4  C5  UNL d   1      -0.450  -0.008   0.922  0.00  0.00    -0.004 A 
ATOM      5  C6  UNL d   1      -1.231  -1.135   0.671  0.00  0.00     0.002 A 
ATOM      6  C7  UNL d   1      -0.937  -1.960  -0.416  0.00  0.00     0.002 A 
ENDROOT
BRANCH   1   7
ATOM      7  C1  UNL d   1       0.487  -2.582  -2.405  0.00  0.00     0.055 C 
ATOM      8  C   UNL d   1       0.014  -4.003  -2.137  0.00  0.00     0.019 C 
ENDBRANCH   1   7
TORSDOF 1
ENDMDL
