MODEL 1
REMARK minimizedAffinity -4.31306028
REMARK minimizedRMSD -1
REMARK  1 active torsions:
REMARK  status: ('A' for Active; 'I' for Inactive)
REMARK    1  A    between atoms: C1_2  and  C2_3 
ROOT
ATOM      1  C2  UNL d   1       0.333  -0.965  -0.492  0.00  0.00    -0.077 A 
ATOM      2  C3  UNL d   1      -0.486  -1.502  -1.494  0.00  0.00     0.002 A 
ATOM      3  C4  UNL d   1      -0.068  -2.614  -2.228  0.00  0.00     0.002 A 
ATOM      4  C5  UNL d   1       1.168  -3.200  -1.964  0.00  0.00    -0.004 A 
ATOM      5  C6  UNL d   1       1.991  -2.672  -0.970  0.00  0.00     0.002 A 
ATOM      6  C7  UNL d   1       1.575  -1.560  -0.237  0.00  0.00     0.002 A 
ENDROOT
BRANCH   1   7
ATOM      7  C1  UNL d   1      -0.138   0.204   0.334  0.00  0.00     0.055 C 
ATOM      8  C   UNL d   1      -0.573  -0.240   1.724  0.00  0.00     0.019 C 
ENDBRANCH   1   7
TORSDOF 1
ENDMDL
