MODEL 1
REMARK minimizedAffinity -1.70923316
REMARK minimizedRMSD -1
REMARK  1 active torsions:
REMARK  status: ('A' for Active; 'I' for Inactive)
REMARK    1  A    between atoms: C1_2  and  C2_3 
ROOT
ATOM      1  C2  UNL d   1      -0.516   1.062   1.003  0.00  0.00    -0.077 A 
ATOM      2  C3  UNL d   1      -0.223  -0.274   1.310  0.00  0.00     0.002 A 
ATOM      3  C4  UNL d   1       0.529  -1.053   0.428  0.00  0.00     0.002 A 
ATOM      4  C5  UNL d   1       0.999  -0.503  -0.763  0.00  0.00    -0.004 A 
ATOM      5  C6  UNL d   1       0.711   0.824  -1.078  0.00  0.00     0.002 A 
ATOM      6  C7  UNL d   1      -0.042   1.604  -0.199  0.00  0.00     0.002 A 
ENDROOT
BRANCH   1   7
ATOM      7  C1  UNL d   1      -1.286   1.918   1.975  0.00  0.00     0.055 C 
ATOM      8  C   UNL d   1      -0.498   2.145   3.257  0.00  0.00     0.019 C 
ENDBRANCH   1   7
TORSDOF 1
ENDMDL
