MODEL 1
REMARK minimizedAffinity -4.1762495
REMARK minimizedRMSD -1
REMARK  1 active torsions:
REMARK  status: ('A' for Active; 'I' for Inactive)
REMARK    1  A    between atoms: C1_2  and  C2_3 
ROOT
ATOM      1  C2  UNL d   1       0.493   0.209   0.361  0.00  0.00    -0.077 A 
ATOM      2  C3  UNL d   1      -0.128   1.466   0.347  0.00  0.00     0.002 A 
ATOM      3  C4  UNL d   1      -1.048   1.810   1.340  0.00  0.00     0.002 A 
ATOM      4  C5  UNL d   1      -1.352   0.904   2.354  0.00  0.00    -0.004 A 
ATOM      5  C6  UNL d   1      -0.741  -0.349   2.375  0.00  0.00     0.002 A 
ATOM      6  C7  UNL d   1       0.178  -0.694   1.383  0.00  0.00     0.002 A 
ENDROOT
BRANCH   1   7
ATOM      7  C1  UNL d   1       1.522  -0.145  -0.681  0.00  0.00     0.055 C 
ATOM      8  C   UNL d   1       1.430  -1.612  -1.074  0.00  0.00     0.019 C 
ENDBRANCH   1   7
TORSDOF 1
ENDMDL
