MODEL 1
REMARK minimizedAffinity -4.29194784
REMARK minimizedRMSD -1
REMARK  1 active torsions:
REMARK  status: ('A' for Active; 'I' for Inactive)
REMARK    1  A    between atoms: C1_2  and  C2_3 
ROOT
ATOM      1  C2  UNL d   1      -0.605  -0.200   0.711  0.00  0.00    -0.077 A 
ATOM      2  C3  UNL d   1      -1.505  -0.984  -0.023  0.00  0.00     0.002 A 
ATOM      3  C4  UNL d   1      -1.079  -1.669  -1.163  0.00  0.00     0.002 A 
ATOM      4  C5  UNL d   1       0.248  -1.580  -1.575  0.00  0.00    -0.004 A 
ATOM      5  C6  UNL d   1       1.151  -0.801  -0.853  0.00  0.00     0.002 A 
ATOM      6  C7  UNL d   1       0.727  -0.115   0.285  0.00  0.00     0.002 A 
ENDROOT
BRANCH   1   7
ATOM      7  C1  UNL d   1      -1.050   0.500   1.968  0.00  0.00     0.055 C 
ATOM      8  C   UNL d   1      -1.353   1.968   1.706  0.00  0.00     0.019 C 
ENDBRANCH   1   7
TORSDOF 1
ENDMDL
