MODEL 1
REMARK minimizedAffinity -3.79757667
REMARK minimizedRMSD -1
REMARK  1 active torsions:
REMARK  status: ('A' for Active; 'I' for Inactive)
REMARK    1  A    between atoms: C1_2  and  C2_3 
ROOT
ATOM      1  C2  UNL d   1       0.136  -0.861  -0.851  0.00  0.00    -0.077 A 
ATOM      2  C3  UNL d   1      -0.494  -1.175   0.362  0.00  0.00     0.002 A 
ATOM      3  C4  UNL d   1      -0.812  -0.166   1.274  0.00  0.00     0.002 A 
ATOM      4  C5  UNL d   1      -0.507   1.161   0.982  0.00  0.00    -0.004 A 
ATOM      5  C6  UNL d   1       0.121   1.483  -0.221  0.00  0.00     0.002 A 
ATOM      6  C7  UNL d   1       0.440   0.476  -1.133  0.00  0.00     0.002 A 
ENDROOT
BRANCH   1   7
ATOM      7  C1  UNL d   1       0.434  -1.942  -1.857  0.00  0.00     0.055 C 
ATOM      8  C   UNL d   1       1.210  -3.088  -1.225  0.00  0.00     0.019 C 
ENDBRANCH   1   7
TORSDOF 1
ENDMDL
