MODEL 1
REMARK minimizedAffinity -0.850893915
REMARK minimizedRMSD -1
REMARK  1 active torsions:
REMARK  status: ('A' for Active; 'I' for Inactive)
REMARK    1  A    between atoms: C1_2  and  C2_3 
ROOT
ATOM      1  C2  UNL d   1       0.734  -1.528  -1.431  0.00  0.00    -0.077 A 
ATOM      2  C3  UNL d   1       0.195  -1.916  -2.665  0.00  0.00     0.002 A 
ATOM      3  C4  UNL d   1       0.392  -3.211  -3.147  0.00  0.00     0.002 A 
ATOM      4  C5  UNL d   1       1.126  -4.130  -2.399  0.00  0.00    -0.004 A 
ATOM      5  C6  UNL d   1       1.668  -3.754  -1.171  0.00  0.00     0.002 A 
ATOM      6  C7  UNL d   1       1.472  -2.459  -0.689  0.00  0.00     0.002 A 
ENDROOT
BRANCH   1   7
ATOM      7  C1  UNL d   1       0.480  -0.147  -0.887  0.00  0.00     0.055 C 
ATOM      8  C   UNL d   1      -0.567  -0.170   0.218  0.00  0.00     0.019 C 
ENDBRANCH   1   7
TORSDOF 1
ENDMDL
