MODEL 1
REMARK minimizedAffinity -4.38222647
REMARK minimizedRMSD -1
REMARK  1 active torsions:
REMARK  status: ('A' for Active; 'I' for Inactive)
REMARK    1  A    between atoms: C1_2  and  C2_3 
ROOT
ATOM      1  C2  UNL d   1       0.089  -1.009  -0.962  0.00  0.00    -0.077 A 
ATOM      2  C3  UNL d   1      -1.027  -1.536  -1.627  0.00  0.00     0.002 A 
ATOM      3  C4  UNL d   1      -0.939  -2.758  -2.295  0.00  0.00     0.002 A 
ATOM      4  C5  UNL d   1       0.261  -3.466  -2.303  0.00  0.00    -0.004 A 
ATOM      5  C6  UNL d   1       1.377  -2.950  -1.646  0.00  0.00     0.002 A 
ATOM      6  C7  UNL d   1       1.292  -1.727  -0.978  0.00  0.00     0.002 A 
ENDROOT
BRANCH   1   7
ATOM      7  C1  UNL d   1      -0.017   0.285  -0.199  0.00  0.00     0.055 C 
ATOM      8  C   UNL d   1      -0.399   0.041   1.254  0.00  0.00     0.019 C 
ENDBRANCH   1   7
TORSDOF 1
ENDMDL
