MODEL 1
REMARK minimizedAffinity -3.3614068
REMARK minimizedRMSD -1
REMARK  1 active torsions:
REMARK  status: ('A' for Active; 'I' for Inactive)
REMARK    1  A    between atoms: C1_2  and  C2_3 
ROOT
ATOM      1  C2  UNL d   1       0.058  -1.591  -1.095  0.00  0.00    -0.077 A 
ATOM      2  C3  UNL d   1      -0.953  -1.911  -0.179  0.00  0.00     0.002 A 
ATOM      3  C4  UNL d   1      -1.376  -0.972   0.764  0.00  0.00     0.002 A 
ATOM      4  C5  UNL d   1      -0.795   0.294   0.796  0.00  0.00    -0.004 A 
ATOM      5  C6  UNL d   1       0.213   0.622  -0.110  0.00  0.00     0.002 A 
ATOM      6  C7  UNL d   1       0.637  -0.317  -1.052  0.00  0.00     0.002 A 
ENDROOT
BRANCH   1   7
ATOM      7  C1  UNL d   1       0.481  -2.587  -2.144  0.00  0.00     0.055 C 
ATOM      8  C   UNL d   1      -0.069  -3.974  -1.845  0.00  0.00     0.019 C 
ENDBRANCH   1   7
TORSDOF 1
ENDMDL
