MODEL 1
REMARK minimizedAffinity -3.81187797
REMARK minimizedRMSD -1
REMARK  1 active torsions:
REMARK  status: ('A' for Active; 'I' for Inactive)
REMARK    1  A    between atoms: C1_2  and  C2_3 
ROOT
ATOM      1  C2  UNL d   1       0.585   0.084   0.091  0.00  0.00    -0.077 A 
ATOM      2  C3  UNL d   1       0.687   1.275  -0.642  0.00  0.00     0.002 A 
ATOM      3  C4  UNL d   1      -0.084   2.386  -0.296  0.00  0.00     0.002 A 
ATOM      4  C5  UNL d   1      -0.959   2.319   0.786  0.00  0.00    -0.004 A 
ATOM      5  C6  UNL d   1      -1.069   1.139   1.520  0.00  0.00     0.002 A 
ATOM      6  C7  UNL d   1      -0.300   0.027   1.175  0.00  0.00     0.002 A 
ENDROOT
BRANCH   1   7
ATOM      7  C1  UNL d   1       1.452  -1.100  -0.250  0.00  0.00     0.055 C 
ATOM      8  C   UNL d   1       0.794  -1.983  -1.300  0.00  0.00     0.019 C 
ENDBRANCH   1   7
TORSDOF 1
ENDMDL
