MODEL 1
REMARK minimizedAffinity -4.62793636
REMARK minimizedRMSD -1
REMARK  1 active torsions:
REMARK  status: ('A' for Active; 'I' for Inactive)
REMARK    1  A    between atoms: C1_2  and  C2_3 
ROOT
ATOM      1  C2  UNL d   1       0.258   0.103   0.085  0.00  0.00    -0.077 A 
ATOM      2  C3  UNL d   1      -0.049   1.468  -0.013  0.00  0.00     0.002 A 
ATOM      3  C4  UNL d   1      -0.831   2.088   0.963  0.00  0.00     0.002 A 
ATOM      4  C5  UNL d   1      -1.309   1.354   2.046  0.00  0.00    -0.004 A 
ATOM      5  C6  UNL d   1      -1.011  -0.004   2.152  0.00  0.00     0.002 A 
ATOM      6  C7  UNL d   1      -0.231  -0.626   1.177  0.00  0.00     0.002 A 
ENDROOT
BRANCH   1   7
ATOM      7  C1  UNL d   1       1.142  -0.556  -0.940  0.00  0.00     0.055 C 
ATOM      8  C   UNL d   1       0.417  -1.692  -1.647  0.00  0.00     0.019 C 
ENDBRANCH   1   7
TORSDOF 1
ENDMDL
