MODEL 1
REMARK minimizedAffinity -3.21960759
REMARK minimizedRMSD -1
REMARK  1 active torsions:
REMARK  status: ('A' for Active; 'I' for Inactive)
REMARK    1  A    between atoms: C1_2  and  C2_3 
ROOT
ATOM      1  C2  UNL d   1      -0.182  -0.019   0.907  0.00  0.00    -0.077 A 
ATOM      2  C3  UNL d   1      -1.159  -0.511   0.030  0.00  0.00     0.002 A 
ATOM      3  C4  UNL d   1      -0.788  -1.120  -1.171  0.00  0.00     0.002 A 
ATOM      4  C5  UNL d   1       0.559  -1.246  -1.503  0.00  0.00    -0.004 A 
ATOM      5  C6  UNL d   1       1.538  -0.758  -0.638  0.00  0.00     0.002 A 
ATOM      6  C7  UNL d   1       1.169  -0.148   0.562  0.00  0.00     0.002 A 
ENDROOT
BRANCH   1   7
ATOM      7  C1  UNL d   1      -0.578   0.593   2.225  0.00  0.00     0.055 C 
ATOM      8  C   UNL d   1      -0.848   2.084   2.084  0.00  0.00     0.019 C 
ENDBRANCH   1   7
TORSDOF 1
ENDMDL
