MODEL 1
REMARK minimizedAffinity 1.08718669
REMARK minimizedRMSD -1
REMARK  2 active torsions:
REMARK  status: ('A' for Active; 'I' for Inactive)
REMARK    1  A    between atoms: C2'_3  and  C1'_4 
REMARK    2  A    between atoms: C1'_4  and  C1_5 
ROOT
ATOM      1  C1  I4B d   1      -1.735   0.424   1.776  0.00  0.00    -0.075 A 
ATOM      2  C2  I4B d   1      -1.381  -0.448   0.776  0.00  0.00     0.003 A 
ATOM      3  C3  I4B d   1      -1.997  -0.360  -0.496  0.00  0.00     0.002 A 
ATOM      4  C4  I4B d   1      -2.990   0.575  -0.708  0.00  0.00    -0.004 A 
ATOM      5  C5  I4B d   1      -3.331   1.472   0.300  0.00  0.00     0.002 A 
ATOM      6  C6  I4B d   1      -2.691   1.404   1.547  0.00  0.00     0.003 A 
ENDROOT
BRANCH   1   7
ATOM      7  C1' I4B d   1      -1.088   0.281   3.118  0.00  0.00     0.060 C 
BRANCH   7   8
ATOM      8  C2' I4B d   1      -2.076   0.754   4.165  0.00  0.00    -0.013 C 
ATOM      9  C4' I4B d   1      -2.793  -0.408   4.801  0.00  0.00     0.013 C 
ATOM     10  C3' I4B d   1      -1.322   1.550   5.187  0.00  0.00     0.013 C 
ENDBRANCH   7   8
ENDBRANCH   1   7
TORSDOF 2
ENDMDL
