MODEL 1
REMARK minimizedAffinity 6.85356092
REMARK minimizedRMSD -1
REMARK  2 active torsions:
REMARK  status: ('A' for Active; 'I' for Inactive)
REMARK    1  A    between atoms: C2'_3  and  C1'_4 
REMARK    2  A    between atoms: C1'_4  and  C1_5 
ROOT
ATOM      1  C1  I4B d   1      -1.695   0.445   2.122  0.00  0.00    -0.075 A 
ATOM      2  C2  I4B d   1      -2.065   1.475   1.295  0.00  0.00     0.003 A 
ATOM      3  C3  I4B d   1      -3.122   1.301   0.368  0.00  0.00     0.002 A 
ATOM      4  C4  I4B d   1      -3.743   0.073   0.269  0.00  0.00    -0.004 A 
ATOM      5  C5  I4B d   1      -3.382  -0.963   1.124  0.00  0.00     0.002 A 
ATOM      6  C6  I4B d   1      -2.360  -0.773   2.066  0.00  0.00     0.003 A 
ENDROOT
BRANCH   1   7
ATOM      7  C1' I4B d   1      -0.553   0.652   3.066  0.00  0.00     0.060 C 
BRANCH   7   8
ATOM      8  C2' I4B d   1       0.441  -0.470   2.849  0.00  0.00    -0.013 C 
ATOM      9  C4' I4B d   1       1.438  -0.116   1.777  0.00  0.00     0.013 C 
ATOM     10  C3' I4B d   1       1.125  -0.741   4.156  0.00  0.00     0.013 C 
ENDBRANCH   7   8
ENDBRANCH   1   7
TORSDOF 2
ENDMDL
