MODEL 1
REMARK minimizedAffinity 1.57896686
REMARK minimizedRMSD -1
REMARK  2 active torsions:
REMARK  status: ('A' for Active; 'I' for Inactive)
REMARK    1  A    between atoms: C2'_3  and  C1'_4 
REMARK    2  A    between atoms: C1'_4  and  C1_5 
ROOT
ATOM      1  C1  I4B d   1       0.973  -3.274  -3.770  0.00  0.00    -0.075 A 
ATOM      2  C2  I4B d   1      -0.306  -3.174  -4.258  0.00  0.00     0.003 A 
ATOM      3  C3  I4B d   1      -1.209  -4.256  -4.119  0.00  0.00     0.002 A 
ATOM      4  C4  I4B d   1      -0.778  -5.430  -3.535  0.00  0.00    -0.004 A 
ATOM      5  C5  I4B d   1       0.513  -5.521  -3.021  0.00  0.00     0.002 A 
ATOM      6  C6  I4B d   1       1.390  -4.432  -3.128  0.00  0.00     0.003 A 
ENDROOT
BRANCH   1   7
ATOM      7  C1' I4B d   1       1.910  -2.124  -3.963  0.00  0.00     0.060 C 
BRANCH   7   8
ATOM      8  C2' I4B d   1       1.543  -1.049  -2.960  0.00  0.00    -0.013 C 
ATOM      9  C4' I4B d   1       1.783  -1.516  -1.549  0.00  0.00     0.013 C 
ATOM     10  C3' I4B d   1       2.355   0.172  -3.272  0.00  0.00     0.013 C 
ENDBRANCH   7   8
ENDBRANCH   1   7
TORSDOF 2
ENDMDL
