MODEL 1
REMARK minimizedAffinity 8.07536983
REMARK minimizedRMSD -1
REMARK  2 active torsions:
REMARK  status: ('A' for Active; 'I' for Inactive)
REMARK    1  A    between atoms: C2'_3  and  C1'_4 
REMARK    2  A    between atoms: C1'_4  and  C1_5 
ROOT
ATOM      1  C1  I4B d   1      -0.458  -3.663  -5.151  0.00  0.00    -0.075 A 
ATOM      2  C2  I4B d   1       0.213  -4.679  -4.517  0.00  0.00     0.003 A 
ATOM      3  C3  I4B d   1      -0.461  -5.878  -4.180  0.00  0.00     0.002 A 
ATOM      4  C4  I4B d   1      -1.810  -5.997  -4.448  0.00  0.00    -0.004 A 
ATOM      5  C5  I4B d   1      -2.483  -4.976  -5.111  0.00  0.00     0.002 A 
ATOM      6  C6  I4B d   1      -1.801  -3.806  -5.476  0.00  0.00     0.003 A 
ENDROOT
BRANCH   1   7
ATOM      7  C1' I4B d   1       0.277  -2.398  -5.463  0.00  0.00     0.060 C 
BRANCH   7   8
ATOM      8  C2' I4B d   1      -0.424  -1.263  -4.745  0.00  0.00    -0.013 C 
ATOM      9  C4' I4B d   1      -0.751  -1.636  -3.323  0.00  0.00     0.013 C 
ATOM     10  C3' I4B d   1       0.471  -0.060  -4.797  0.00  0.00     0.013 C 
ENDBRANCH   7   8
ENDBRANCH   1   7
TORSDOF 2
ENDMDL
