MODEL 1
REMARK minimizedAffinity 2.96864629
REMARK minimizedRMSD -1
REMARK  2 active torsions:
REMARK  status: ('A' for Active; 'I' for Inactive)
REMARK    1  A    between atoms: C2'_3  and  C1'_4 
REMARK    2  A    between atoms: C1'_4  and  C1_5 
ROOT
ATOM      1  C1  I4B d   1      -0.552  -3.565  -4.833  0.00  0.00    -0.075 A 
ATOM      2  C2  I4B d   1      -0.515  -2.741  -5.930  0.00  0.00     0.003 A 
ATOM      3  C3  I4B d   1      -0.306  -1.349  -5.769  0.00  0.00     0.002 A 
ATOM      4  C4  I4B d   1      -0.190  -0.822  -4.499  0.00  0.00    -0.004 A 
ATOM      5  C5  I4B d   1      -0.204  -1.662  -3.390  0.00  0.00     0.002 A 
ATOM      6  C6  I4B d   1      -0.374  -3.044  -3.558  0.00  0.00     0.003 A 
ENDROOT
BRANCH   1   7
ATOM      7  C1' I4B d   1      -0.807  -5.025  -5.037  0.00  0.00     0.060 C 
BRANCH   7   8
ATOM      8  C2' I4B d   1      -2.263  -5.293  -4.713  0.00  0.00    -0.013 C 
ATOM      9  C4' I4B d   1      -2.516  -5.211  -3.230  0.00  0.00     0.013 C 
ATOM     10  C3' I4B d   1      -3.095  -4.296  -5.461  0.00  0.00     0.013 C 
ENDBRANCH   7   8
ENDBRANCH   1   7
TORSDOF 2
ENDMDL
