MODEL 1
REMARK minimizedAffinity 4.29853392
REMARK minimizedRMSD -1
REMARK  2 active torsions:
REMARK  status: ('A' for Active; 'I' for Inactive)
REMARK    1  A    between atoms: C2'_3  and  C1'_4 
REMARK    2  A    between atoms: C1'_4  and  C1_5 
ROOT
ATOM      1  C1  I4B d   1      -3.006   0.604   0.582  0.00  0.00    -0.075 A 
ATOM      2  C2  I4B d   1      -2.629   1.114   1.799  0.00  0.00     0.003 A 
ATOM      3  C3  I4B d   1      -2.100   0.260   2.797  0.00  0.00     0.002 A 
ATOM      4  C4  I4B d   1      -2.014  -1.096   2.556  0.00  0.00    -0.004 A 
ATOM      5  C5  I4B d   1      -2.376  -1.608   1.313  0.00  0.00     0.002 A 
ATOM      6  C6  I4B d   1      -2.863  -0.752   0.315  0.00  0.00     0.003 A 
ENDROOT
BRANCH   1   7
ATOM      7  C1' I4B d   1      -3.591   1.529  -0.438  0.00  0.00     0.060 C 
BRANCH   7   8
ATOM      8  C2' I4B d   1      -4.959   0.999  -0.818  0.00  0.00    -0.013 C 
ATOM      9  C4' I4B d   1      -6.000   2.086  -0.758  0.00  0.00     0.013 C 
ATOM     10  C3' I4B d   1      -4.862   0.417  -2.197  0.00  0.00     0.013 C 
ENDBRANCH   7   8
ENDBRANCH   1   7
TORSDOF 2
ENDMDL
