MODEL 1
REMARK minimizedAffinity 3.38666248
REMARK minimizedRMSD -1
REMARK  2 active torsions:
REMARK  status: ('A' for Active; 'I' for Inactive)
REMARK    1  A    between atoms: C2'_3  and  C1'_4 
REMARK    2  A    between atoms: C1'_4  and  C1_5 
ROOT
ATOM      1  C1  I4B d   1      -1.008  -3.589  -3.267  0.00  0.00    -0.075 A 
ATOM      2  C2  I4B d   1      -2.211  -4.138  -3.635  0.00  0.00     0.003 A 
ATOM      3  C3  I4B d   1      -2.297  -4.959  -4.786  0.00  0.00     0.002 A 
ATOM      4  C4  I4B d   1      -1.174  -5.161  -5.562  0.00  0.00    -0.004 A 
ATOM      5  C5  I4B d   1       0.050  -4.622  -5.174  0.00  0.00     0.002 A 
ATOM      6  C6  I4B d   1       0.136  -3.841  -4.013  0.00  0.00     0.003 A 
ENDROOT
BRANCH   1   7
ATOM      7  C1' I4B d   1      -0.960  -2.700  -2.065  0.00  0.00     0.060 C 
BRANCH   7   8
ATOM      8  C2' I4B d   1      -2.376  -2.528  -1.554  0.00  0.00    -0.013 C 
ATOM      9  C4' I4B d   1      -2.395  -2.296  -0.066  0.00  0.00     0.013 C 
ATOM     10  C3' I4B d   1      -2.996  -1.377  -2.289  0.00  0.00     0.013 C 
ENDBRANCH   7   8
ENDBRANCH   1   7
TORSDOF 2
ENDMDL
