MODEL 1
REMARK minimizedAffinity -2.05594444
REMARK minimizedRMSD -1
REMARK  0 active torsions:
REMARK  status: ('A' for Active; 'I' for Inactive)
ROOT
ATOM      1  C   UNL d   1       0.038   2.188   0.163  0.00  0.00     0.020 A 
ATOM      2  C1  UNL d   1      -0.017   1.130   1.070  0.00  0.00     0.020 A 
ATOM      3  C2  UNL d   1      -0.145  -0.181   0.607  0.00  0.00     0.034 A 
ATOM      4  C3  UNL d   1      -0.219  -0.437  -0.767  0.00  0.00     0.017 A 
ATOM      5  C4  UNL d   1      -0.163   0.625  -1.677  0.00  0.00     0.017 A 
ATOM      6  C5  UNL d   1      -0.034   1.936  -1.207  0.00  0.00     0.034 A 
ATOM      7 Cl   UNL d   1      -0.247   0.387  -3.387  0.00  0.00    -0.070 Cl
ATOM      8 Cl1  UNL d   1      -0.376  -2.083  -1.270  0.00  0.00    -0.070 Cl
ENDROOT
TORSDOF 0
ENDMDL
