MODEL 1
REMARK minimizedAffinity -2.19816732
REMARK minimizedRMSD -1
REMARK  0 active torsions:
REMARK  status: ('A' for Active; 'I' for Inactive)
ROOT
ATOM      1  C   UNL d   1       0.234  -0.134   1.014  0.00  0.00     0.020 A 
ATOM      2  C1  UNL d   1      -0.018   1.153   0.538  0.00  0.00     0.020 A 
ATOM      3  C2  UNL d   1      -0.267   1.359  -0.820  0.00  0.00     0.034 A 
ATOM      4  C3  UNL d   1      -0.264   0.277  -1.708  0.00  0.00     0.017 A 
ATOM      5  C4  UNL d   1      -0.012  -1.014  -1.230  0.00  0.00     0.017 A 
ATOM      6  C5  UNL d   1       0.237  -1.214   0.131  0.00  0.00     0.034 A 
ATOM      7 Cl   UNL d   1       0.008  -2.398  -2.265  0.00  0.00    -0.070 Cl
ATOM      8 Cl1  UNL d   1      -0.580   0.606  -3.375  0.00  0.00    -0.070 Cl
ENDROOT
TORSDOF 0
ENDMDL
