MODEL 1
REMARK minimizedAffinity -3.12481856
REMARK minimizedRMSD -1
REMARK  0 active torsions:
REMARK  status: ('A' for Active; 'I' for Inactive)
ROOT
ATOM      1  C   UNL d   1      -1.300   0.323  -0.884  0.00  0.00     0.020 A 
ATOM      2  C1  UNL d   1      -1.791   1.587  -0.558  0.00  0.00     0.020 A 
ATOM      3  C2  UNL d   1      -1.275   2.275   0.542  0.00  0.00     0.034 A 
ATOM      4  C3  UNL d   1      -0.264   1.699   1.321  0.00  0.00     0.017 A 
ATOM      5  C4  UNL d   1       0.229   0.431   0.993  0.00  0.00     0.017 A 
ATOM      6  C5  UNL d   1      -0.292  -0.253  -0.110  0.00  0.00     0.034 A 
ATOM      7 Cl   UNL d   1       1.476  -0.343   1.906  0.00  0.00    -0.070 Cl
ATOM      8 Cl1  UNL d   1       0.328   2.607   2.667  0.00  0.00    -0.070 Cl
ENDROOT
TORSDOF 0
ENDMDL
