MODEL 1
REMARK minimizedAffinity -2.32722878
REMARK minimizedRMSD -1
REMARK  0 active torsions:
REMARK  status: ('A' for Active; 'I' for Inactive)
ROOT
ATOM      1  C   UNL d   1      -0.514   2.785   1.471  0.00  0.00     0.020 A 
ATOM      2  C1  UNL d   1      -0.232   1.554   2.063  0.00  0.00     0.020 A 
ATOM      3  C2  UNL d   1      -0.043   0.423   1.266  0.00  0.00     0.034 A 
ATOM      4  C3  UNL d   1      -0.136   0.520  -0.127  0.00  0.00     0.017 A 
ATOM      5  C4  UNL d   1      -0.419   1.756  -0.720  0.00  0.00     0.017 A 
ATOM      6  C5  UNL d   1      -0.607   2.885   0.083  0.00  0.00     0.034 A 
ATOM      7 Cl   UNL d   1      -0.549   1.954  -2.432  0.00  0.00    -0.070 Cl
ATOM      8 Cl1  UNL d   1       0.109  -0.919  -1.051  0.00  0.00    -0.070 Cl
ENDROOT
TORSDOF 0
ENDMDL
