MODEL 1
REMARK minimizedAffinity -2.37958527
REMARK minimizedRMSD -1
REMARK  0 active torsions:
REMARK  status: ('A' for Active; 'I' for Inactive)
ROOT
ATOM      1  C   UNL d   1       0.435  -6.000  -0.752  0.00  0.00     0.020 A 
ATOM      2  C1  UNL d   1       1.524  -5.419  -0.102  0.00  0.00     0.020 A 
ATOM      3  C2  UNL d   1       1.614  -4.029   0.003  0.00  0.00     0.034 A 
ATOM      4  C3  UNL d   1       0.614  -3.216  -0.542  0.00  0.00     0.017 A 
ATOM      5  C4  UNL d   1      -0.479  -3.800  -1.193  0.00  0.00     0.017 A 
ATOM      6  C5  UNL d   1      -0.564  -5.191  -1.296  0.00  0.00     0.034 A 
ATOM      7 Cl   UNL d   1      -1.752  -2.861  -1.890  0.00  0.00    -0.070 Cl
ATOM      8 Cl1  UNL d   1       0.790  -1.505  -0.374  0.00  0.00    -0.070 Cl
ENDROOT
TORSDOF 0
ENDMDL
