MODEL 1
REMARK minimizedAffinity -1.15572333
REMARK minimizedRMSD -1
REMARK  0 active torsions:
REMARK  status: ('A' for Active; 'I' for Inactive)
ROOT
ATOM      1  C   UNL d   1       1.638  -0.415  -0.159  0.00  0.00     0.020 A 
ATOM      2  C1  UNL d   1       1.504  -0.201   1.212  0.00  0.00     0.020 A 
ATOM      3  C2  UNL d   1       0.588   0.741   1.686  0.00  0.00     0.034 A 
ATOM      4  C3  UNL d   1      -0.196   1.474   0.787  0.00  0.00     0.017 A 
ATOM      5  C4  UNL d   1      -0.060   1.258  -0.589  0.00  0.00     0.017 A 
ATOM      6  C5  UNL d   1       0.858   0.314  -1.058  0.00  0.00     0.034 A 
ATOM      7 Cl   UNL d   1      -0.993   2.124  -1.759  0.00  0.00    -0.070 Cl
ATOM      8 Cl1  UNL d   1      -1.308   2.622   1.443  0.00  0.00    -0.070 Cl
ENDROOT
TORSDOF 0
ENDMDL
