MODEL 1
REMARK minimizedAffinity -3.15783072
REMARK minimizedRMSD -1
REMARK  0 active torsions:
REMARK  status: ('A' for Active; 'I' for Inactive)
ROOT
ATOM      1  C   UNL d   1      -1.705   2.522  -0.090  0.00  0.00     0.020 A 
ATOM      2  C1  UNL d   1      -1.352   2.053   1.174  0.00  0.00     0.020 A 
ATOM      3  C2  UNL d   1      -0.304   1.140   1.312  0.00  0.00     0.034 A 
ATOM      4  C3  UNL d   1       0.394   0.693   0.184  0.00  0.00     0.017 A 
ATOM      5  C4  UNL d   1       0.038   1.165  -1.085  0.00  0.00     0.017 A 
ATOM      6  C5  UNL d   1      -1.011   2.079  -1.217  0.00  0.00     0.034 A 
ATOM      7 Cl   UNL d   1       0.853   0.660  -2.523  0.00  0.00    -0.070 Cl
ATOM      8 Cl1  UNL d   1       1.678  -0.436   0.429  0.00  0.00    -0.070 Cl
ENDROOT
TORSDOF 0
ENDMDL
