MODEL 1
REMARK minimizedAffinity 6.32239437
REMARK minimizedRMSD -1
REMARK  0 active torsions:
REMARK  status: ('A' for Active; 'I' for Inactive)
ROOT
ATOM      1  C   UNL d   1       5.586   2.149  -2.966  0.00  0.00     0.078 C 
ATOM      2  C1  UNL d   1       4.560   1.550  -2.050  0.00  0.00    -0.077 A 
ATOM      3  C2  UNL d   1       4.515   1.895  -0.694  0.00  0.00    -0.001 A 
ATOM      4  C3  UNL d   1       3.561   1.323   0.148  0.00  0.00     0.003 A 
ATOM      5  C4  UNL d   1       2.645   0.401  -0.356  0.00  0.00    -0.005 A 
ATOM      6  C5  UNL d   1       2.684   0.050  -1.704  0.00  0.00     0.003 A 
ATOM      7  C6  UNL d   1       3.637   0.621  -2.548  0.00  0.00    -0.001 A 
ENDROOT
TORSDOF 0
ENDMDL
