MODEL 1
REMARK minimizedAffinity 11.858242
REMARK minimizedRMSD -1
REMARK  0 active torsions:
REMARK  status: ('A' for Active; 'I' for Inactive)
ROOT
ATOM      1  C   UNL d   1       2.470   0.338  -0.842  0.00  0.00     0.078 C 
ATOM      2  C1  UNL d   1       3.692   0.994  -1.412  0.00  0.00    -0.077 A 
ATOM      3  C2  UNL d   1       3.993   0.895  -2.776  0.00  0.00    -0.001 A 
ATOM      4  C3  UNL d   1       5.140   1.502  -3.291  0.00  0.00     0.003 A 
ATOM      5  C4  UNL d   1       5.995   2.211  -2.450  0.00  0.00    -0.005 A 
ATOM      6  C5  UNL d   1       5.705   2.312  -1.091  0.00  0.00     0.003 A 
ATOM      7  C6  UNL d   1       4.559   1.706  -0.573  0.00  0.00    -0.001 A 
ENDROOT
TORSDOF 0
ENDMDL
