MODEL 1
REMARK minimizedAffinity 3.25935197
REMARK minimizedRMSD -1
REMARK  0 active torsions:
REMARK  status: ('A' for Active; 'I' for Inactive)
ROOT
ATOM      1  C   UNL d   1       6.000   2.093  -2.320  0.00  0.00     0.078 C 
ATOM      2  C1  UNL d   1       4.915   1.358  -1.591  0.00  0.00    -0.077 A 
ATOM      3  C2  UNL d   1       4.788   1.454  -0.200  0.00  0.00    -0.001 A 
ATOM      4  C3  UNL d   1       3.780   0.757   0.467  0.00  0.00     0.003 A 
ATOM      5  C4  UNL d   1       2.890  -0.042  -0.249  0.00  0.00    -0.005 A 
ATOM      6  C5  UNL d   1       3.009  -0.145  -1.634  0.00  0.00     0.003 A 
ATOM      7  C6  UNL d   1       4.018   0.551  -2.302  0.00  0.00    -0.001 A 
ENDROOT
TORSDOF 0
ENDMDL
