MODEL 1
REMARK minimizedAffinity 7.49278402
REMARK minimizedRMSD -1
REMARK  0 active torsions:
REMARK  status: ('A' for Active; 'I' for Inactive)
ROOT
ATOM      1  C   UNL d   1      -2.290   0.525  -1.502  0.00  0.00     0.078 C 
ATOM      2  C1  UNL d   1      -3.583   0.510  -0.743  0.00  0.00    -0.077 A 
ATOM      3  C2  UNL d   1      -4.619  -0.362  -1.100  0.00  0.00    -0.001 A 
ATOM      4  C3  UNL d   1      -5.821  -0.359  -0.390  0.00  0.00     0.003 A 
ATOM      5  C4  UNL d   1      -5.999   0.515   0.680  0.00  0.00    -0.005 A 
ATOM      6  C5  UNL d   1      -4.975   1.388   1.041  0.00  0.00     0.003 A 
ATOM      7  C6  UNL d   1      -3.772   1.386   0.333  0.00  0.00    -0.001 A 
ENDROOT
TORSDOF 0
ENDMDL
