MODEL 1
REMARK minimizedAffinity 5.56415033
REMARK minimizedRMSD -1
REMARK  0 active torsions:
REMARK  status: ('A' for Active; 'I' for Inactive)
ROOT
ATOM      1  C   UNL d   1      -2.388  -5.998  -3.594  0.00  0.00     0.078 C 
ATOM      2  C1  UNL d   1      -2.754  -4.783  -4.393  0.00  0.00    -0.077 A 
ATOM      3  C2  UNL d   1      -3.884  -4.776  -5.219  0.00  0.00    -0.001 A 
ATOM      4  C3  UNL d   1      -4.207  -3.642  -5.965  0.00  0.00     0.003 A 
ATOM      5  C4  UNL d   1      -3.404  -2.505  -5.893  0.00  0.00    -0.005 A 
ATOM      6  C5  UNL d   1      -2.276  -2.503  -5.076  0.00  0.00     0.003 A 
ATOM      7  C6  UNL d   1      -1.951  -3.637  -4.329  0.00  0.00    -0.001 A 
ENDROOT
TORSDOF 0
ENDMDL
