MODEL 1
REMARK minimizedAffinity 7.31063986
REMARK minimizedRMSD -1
REMARK  0 active torsions:
REMARK  status: ('A' for Active; 'I' for Inactive)
ROOT
ATOM      1  C   UNL d   1       3.436  -0.356   1.876  0.00  0.00     0.078 C 
ATOM      2  C1  UNL d   1       3.549   0.036   0.433  0.00  0.00    -0.077 A 
ATOM      3  C2  UNL d   1       4.579   0.876  -0.008  0.00  0.00    -0.001 A 
ATOM      4  C3  UNL d   1       4.666   1.240  -1.353  0.00  0.00     0.003 A 
ATOM      5  C4  UNL d   1       3.727   0.769  -2.268  0.00  0.00    -0.005 A 
ATOM      6  C5  UNL d   1       2.697  -0.066  -1.838  0.00  0.00     0.003 A 
ATOM      7  C6  UNL d   1       2.608  -0.431  -0.494  0.00  0.00    -0.001 A 
ENDROOT
TORSDOF 0
ENDMDL
