MODEL 1
REMARK minimizedAffinity 9.44057655
REMARK minimizedRMSD -1
REMARK  0 active torsions:
REMARK  status: ('A' for Active; 'I' for Inactive)
ROOT
ATOM      1  C   UNL d   1      -5.625   4.854   3.541  0.00  0.00     0.078 C 
ATOM      2  C1  UNL d   1      -4.978   4.810   2.189  0.00  0.00    -0.077 A 
ATOM      3  C2  UNL d   1      -4.596   3.593   1.612  0.00  0.00    -0.001 A 
ATOM      4  C3  UNL d   1      -3.986   3.567   0.357  0.00  0.00     0.003 A 
ATOM      5  C4  UNL d   1      -3.751   4.756  -0.331  0.00  0.00    -0.005 A 
ATOM      6  C5  UNL d   1      -4.125   5.972   0.236  0.00  0.00     0.003 A 
ATOM      7  C6  UNL d   1      -4.736   6.000   1.491  0.00  0.00    -0.001 A 
ENDROOT
TORSDOF 0
ENDMDL
