MODEL 1
REMARK minimizedAffinity 1.24162591
REMARK minimizedRMSD -1
REMARK  0 active torsions:
REMARK  status: ('A' for Active; 'I' for Inactive)
ROOT
ATOM      1  C   UNL d   1       4.915   4.898   3.764  0.00  0.00     0.078 C 
ATOM      2  C1  UNL d   1       3.492   5.090   3.333  0.00  0.00    -0.077 A 
ATOM      3  C2  UNL d   1       3.180   5.814   2.176  0.00  0.00    -0.001 A 
ATOM      4  C3  UNL d   1       1.850   5.992   1.792  0.00  0.00     0.003 A 
ATOM      5  C4  UNL d   1       0.821   5.450   2.560  0.00  0.00    -0.005 A 
ATOM      6  C5  UNL d   1       1.122   4.730   3.714  0.00  0.00     0.003 A 
ATOM      7  C6  UNL d   1       2.451   4.550   4.100  0.00  0.00    -0.001 A 
ENDROOT
TORSDOF 0
ENDMDL
