MODEL 1
REMARK minimizedAffinity -1.74867439
REMARK minimizedRMSD -1
REMARK  0 active torsions:
REMARK  status: ('A' for Active; 'I' for Inactive)
ROOT
ATOM      1  C   UNL d   1      -3.347  -0.780  -4.962  0.00  0.00     0.078 C 
ATOM      2  C1  UNL d   1      -2.764  -2.080  -4.496  0.00  0.00    -0.077 A 
ATOM      3  C2  UNL d   1      -3.265  -3.303  -4.958  0.00  0.00    -0.001 A 
ATOM      4  C3  UNL d   1      -2.718  -4.506  -4.508  0.00  0.00     0.003 A 
ATOM      5  C4  UNL d   1      -1.669  -4.498  -3.591  0.00  0.00    -0.005 A 
ATOM      6  C5  UNL d   1      -1.165  -3.286  -3.123  0.00  0.00     0.003 A 
ATOM      7  C6  UNL d   1      -1.711  -2.082  -3.573  0.00  0.00    -0.001 A 
ENDROOT
TORSDOF 0
ENDMDL
