MODEL 1
REMARK minimizedAffinity 10.7676868
REMARK minimizedRMSD -1
REMARK  0 active torsions:
REMARK  status: ('A' for Active; 'I' for Inactive)
ROOT
ATOM      1  C   UNL d   1      -2.637   0.576  -0.359  0.00  0.00     0.078 C 
ATOM      2  C1  UNL d   1      -3.816  -0.027  -1.062  0.00  0.00    -0.077 A 
ATOM      3  C2  UNL d   1      -4.912  -0.516  -0.341  0.00  0.00    -0.001 A 
ATOM      4  C3  UNL d   1      -5.999  -1.084  -1.008  0.00  0.00     0.003 A 
ATOM      5  C4  UNL d   1      -6.000  -1.170  -2.399  0.00  0.00    -0.005 A 
ATOM      6  C5  UNL d   1      -4.912  -0.688  -3.124  0.00  0.00     0.003 A 
ATOM      7  C6  UNL d   1      -3.824  -0.120  -2.459  0.00  0.00    -0.001 A 
ENDROOT
TORSDOF 0
ENDMDL
