MODEL 1
REMARK minimizedAffinity 8.40233803
REMARK minimizedRMSD -1
REMARK  0 active torsions:
REMARK  status: ('A' for Active; 'I' for Inactive)
ROOT
ATOM      1  C   UNL d   1       5.925   2.746  -2.092  0.00  0.00     0.078 C 
ATOM      2  C1  UNL d   1       4.906   1.981  -1.301  0.00  0.00    -0.077 A 
ATOM      3  C2  UNL d   1       4.859   2.072   0.095  0.00  0.00    -0.001 A 
ATOM      4  C3  UNL d   1       3.912   1.347   0.819  0.00  0.00     0.003 A 
ATOM      5  C4  UNL d   1       3.004   0.523   0.155  0.00  0.00    -0.005 A 
ATOM      6  C5  UNL d   1       3.044   0.424  -1.234  0.00  0.00     0.003 A 
ATOM      7  C6  UNL d   1       3.991   1.149  -1.960  0.00  0.00    -0.001 A 
ENDROOT
TORSDOF 0
ENDMDL
