MODEL 1
REMARK minimizedAffinity 1.69067299
REMARK minimizedRMSD -1
REMARK  0 active torsions:
REMARK  status: ('A' for Active; 'I' for Inactive)
ROOT
ATOM      1  C   UNL d   1      -1.050  -3.170  -2.238  0.00  0.00    -0.002 A 
ATOM      2  C1  UNL d   1       0.257  -2.863  -2.590  0.00  0.00     0.010 A 
ATOM      3  C2  UNL d   1       0.968  -1.882  -1.896  0.00  0.00     0.041 A 
ATOM      4  C3  UNL d   1       0.338  -1.210  -0.830  0.00  0.00    -0.075 A 
ATOM      5  S   UNL d   1       1.013   0.028   0.163  0.00  0.00     0.015 SA
ATOM      6  C4  UNL d   1      -0.417   0.177   1.078  0.00  0.00     0.022 A 
ATOM      7  C5  UNL d   1      -1.396  -0.688   0.650  0.00  0.00     0.026 A 
ATOM      8  C6  UNL d   1      -0.977  -1.502  -0.456  0.00  0.00    -0.082 A 
ATOM      9  C7  UNL d   1      -1.671  -2.501  -1.180  0.00  0.00     0.045 A 
ENDROOT
TORSDOF 0
ENDMDL
