MODEL 1
REMARK minimizedAffinity 0.0474641845
REMARK minimizedRMSD -1
REMARK  0 active torsions:
REMARK  status: ('A' for Active; 'I' for Inactive)
ROOT
ATOM      1  C   UNL d   1      -1.490  -3.061  -2.691  0.00  0.00    -0.002 A 
ATOM      2  C1  UNL d   1      -0.172  -3.487  -2.616  0.00  0.00     0.010 A 
ATOM      3  C2  UNL d   1       0.739  -2.836  -1.782  0.00  0.00     0.041 A 
ATOM      4  C3  UNL d   1       0.297  -1.739  -1.015  0.00  0.00    -0.075 A 
ATOM      5  S   UNL d   1       1.234  -0.789   0.076  0.00  0.00     0.015 SA
ATOM      6  C4  UNL d   1      -0.094   0.205   0.469  0.00  0.00     0.022 A 
ATOM      7  C5  UNL d   1      -1.233  -0.165  -0.208  0.00  0.00     0.026 A 
ATOM      8  C6  UNL d   1      -1.026  -1.292  -1.074  0.00  0.00    -0.082 A 
ATOM      9  C7  UNL d   1      -1.925  -1.973  -1.930  0.00  0.00     0.045 A 
ENDROOT
TORSDOF 0
ENDMDL
