MODEL 1
REMARK minimizedAffinity -0.623999357
REMARK minimizedRMSD -1
REMARK  0 active torsions:
REMARK  status: ('A' for Active; 'I' for Inactive)
ROOT
ATOM      1  C   UNL d   1       1.172   3.313   1.652  0.00  0.00    -0.002 A 
ATOM      2  C1  UNL d   1       2.401   2.676   1.551  0.00  0.00     0.010 A 
ATOM      3  C2  UNL d   1       2.488   1.375   1.053  0.00  0.00     0.041 A 
ATOM      4  C3  UNL d   1       1.308   0.718   0.652  0.00  0.00    -0.075 A 
ATOM      5  S   UNL d   1       1.173  -0.876   0.011  0.00  0.00     0.015 SA
ATOM      6  C4  UNL d   1      -0.520  -0.750  -0.146  0.00  0.00     0.022 A 
ATOM      7  C5  UNL d   1      -0.987   0.472   0.276  0.00  0.00     0.026 A 
ATOM      8  C6  UNL d   1       0.059   1.339   0.742  0.00  0.00    -0.082 A 
ATOM      9  C7  UNL d   1       0.003   2.658   1.253  0.00  0.00     0.045 A 
ENDROOT
TORSDOF 0
ENDMDL
