MODEL 1
REMARK minimizedAffinity -1.33712041
REMARK minimizedRMSD -1
REMARK  0 active torsions:
REMARK  status: ('A' for Active; 'I' for Inactive)
ROOT
ATOM      1  C   UNL d   1       1.940   2.852   1.452  0.00  0.00    -0.002 A 
ATOM      2  C1  UNL d   1       2.769   1.779   1.155  0.00  0.00     0.010 A 
ATOM      3  C2  UNL d   1       2.231   0.563   0.730  0.00  0.00     0.041 A 
ATOM      4  C3  UNL d   1       0.833   0.443   0.603  0.00  0.00    -0.075 A 
ATOM      5  S   UNL d   1      -0.050  -0.949   0.098  0.00  0.00     0.015 SA
ATOM      6  C4  UNL d   1      -1.547  -0.152   0.263  0.00  0.00     0.022 A 
ATOM      7  C5  UNL d   1      -1.396   1.146   0.692  0.00  0.00     0.026 A 
ATOM      8  C6  UNL d   1      -0.022   1.510   0.895  0.00  0.00    -0.082 A 
ATOM      9  C7  UNL d   1       0.554   2.729   1.325  0.00  0.00     0.045 A 
ENDROOT
TORSDOF 0
ENDMDL
