MODEL 1
REMARK minimizedAffinity -1.19876468
REMARK minimizedRMSD -1
REMARK  0 active torsions:
REMARK  status: ('A' for Active; 'I' for Inactive)
ROOT
ATOM      1  C   UNL d   1       0.446   3.548   1.259  0.00  0.00    -0.002 A 
ATOM      2  C1  UNL d   1       1.727   3.014   1.264  0.00  0.00     0.010 A 
ATOM      3  C2  UNL d   1       1.944   1.685   0.895  0.00  0.00     0.041 A 
ATOM      4  C3  UNL d   1       0.842   0.894   0.518  0.00  0.00    -0.075 A 
ATOM      5  S   UNL d   1       0.868  -0.759   0.027  0.00  0.00     0.015 SA
ATOM      6  C4  UNL d   1      -0.821  -0.796  -0.200  0.00  0.00     0.022 A 
ATOM      7  C5  UNL d   1      -1.406   0.415   0.087  0.00  0.00     0.026 A 
ATOM      8  C6  UNL d   1      -0.458   1.409   0.504  0.00  0.00    -0.082 A 
ATOM      9  C7  UNL d   1      -0.645   2.760   0.884  0.00  0.00     0.045 A 
ENDROOT
TORSDOF 0
ENDMDL
