MODEL 1
REMARK minimizedAffinity 0.964972913
REMARK minimizedRMSD -1
REMARK  0 active torsions:
REMARK  status: ('A' for Active; 'I' for Inactive)
ROOT
ATOM      1  C   UNL d   1      -0.597   2.504  -0.614  0.00  0.00    -0.002 A 
ATOM      2  C1  UNL d   1      -1.549   2.639   0.386  0.00  0.00     0.010 A 
ATOM      3  C2  UNL d   1      -1.859   1.564   1.222  0.00  0.00     0.041 A 
ATOM      4  C3  UNL d   1      -1.187   0.339   1.034  0.00  0.00    -0.075 A 
ATOM      5  S   UNL d   1      -1.401  -1.113   1.938  0.00  0.00     0.015 SA
ATOM      6  C4  UNL d   1      -0.234  -1.946   1.018  0.00  0.00     0.022 A 
ATOM      7  C5  UNL d   1       0.316  -1.151   0.041  0.00  0.00     0.026 A 
ATOM      8  C6  UNL d   1      -0.224   0.180   0.034  0.00  0.00    -0.082 A 
ATOM      9  C7  UNL d   1       0.067   1.288  -0.797  0.00  0.00     0.045 A 
ENDROOT
TORSDOF 0
ENDMDL
