MODEL 1
REMARK minimizedAffinity -0.08829166
REMARK minimizedRMSD -1
REMARK  0 active torsions:
REMARK  status: ('A' for Active; 'I' for Inactive)
ROOT
ATOM      1  C   UNL d   1      -0.750   2.984   0.876  0.00  0.00    -0.002 A 
ATOM      2  C1  UNL d   1      -1.794   2.069   0.902  0.00  0.00     0.010 A 
ATOM      3  C2  UNL d   1      -1.540   0.699   0.808  0.00  0.00     0.041 A 
ATOM      4  C3  UNL d   1      -0.207   0.260   0.688  0.00  0.00    -0.075 A 
ATOM      5  S   UNL d   1       0.343  -1.369   0.560  0.00  0.00     0.015 SA
ATOM      6  C4  UNL d   1       1.976  -0.890   0.469  0.00  0.00     0.022 A 
ATOM      7  C5  UNL d   1       2.116   0.476   0.533  0.00  0.00     0.026 A 
ATOM      8  C6  UNL d   1       0.861   1.161   0.661  0.00  0.00    -0.082 A 
ATOM      9  C7  UNL d   1       0.571   2.544   0.758  0.00  0.00     0.045 A 
ENDROOT
TORSDOF 0
ENDMDL
