MODEL 1
REMARK minimizedAffinity 0.259461999
REMARK minimizedRMSD -1
REMARK  0 active torsions:
REMARK  status: ('A' for Active; 'I' for Inactive)
ROOT
ATOM      1  N1  IND d   1       3.081   3.326  -3.570  0.00  0.00    -0.196 N 
ATOM      2  C2  IND d   1       1.971   4.120  -3.490  0.00  0.00     0.054 A 
ATOM      3  C3  IND d   1       2.156   5.260  -4.191  0.00  0.00    -0.031 A 
ATOM      4  C4  IND d   1       4.164   5.988  -5.629  0.00  0.00     0.051 A 
ATOM      5  C5  IND d   1       5.431   5.613  -5.979  0.00  0.00    -0.031 A 
ATOM      6  C6  IND d   1       5.989   4.431  -5.537  0.00  0.00     0.015 A 
ATOM      7  C7  IND d   1       5.295   3.571  -4.734  0.00  0.00    -0.016 A 
ATOM      8  C8  IND d   1       4.011   3.952  -4.371  0.00  0.00    -0.047 A 
ATOM      9  C9  IND d   1       3.454   5.171  -4.782  0.00  0.00    -0.096 A 
ATOM     10  HN1 IND d   1       3.182   2.564  -3.184  0.00  0.00     0.298 HD
ENDROOT
TORSDOF 0
ENDMDL
