MODEL 1
REMARK minimizedAffinity 7.2829113
REMARK minimizedRMSD -1
REMARK  0 active torsions:
REMARK  status: ('A' for Active; 'I' for Inactive)
ROOT
ATOM      1  N1  IND d   1      -2.759  -3.906  -1.663  0.00  0.00    -0.196 N 
ATOM      2  C2  IND d   1      -2.011  -5.044  -1.778  0.00  0.00     0.054 A 
ATOM      3  C3  IND d   1      -2.647  -5.949  -2.556  0.00  0.00    -0.031 A 
ATOM      4  C4  IND d   1      -4.877  -5.734  -3.824  0.00  0.00     0.051 A 
ATOM      5  C5  IND d   1      -5.942  -4.894  -3.996  0.00  0.00    -0.031 A 
ATOM      6  C6  IND d   1      -5.999  -3.656  -3.390  0.00  0.00     0.015 A 
ATOM      7  C7  IND d   1      -4.985  -3.204  -2.594  0.00  0.00    -0.016 A 
ATOM      8  C8  IND d   1      -3.906  -4.058  -2.410  0.00  0.00    -0.047 A 
ATOM      9  C9  IND d   1      -3.861  -5.332  -2.989  0.00  0.00    -0.096 A 
ATOM     10  HN1 IND d   1      -2.548  -3.212  -1.200  0.00  0.00     0.298 HD
ENDROOT
TORSDOF 0
ENDMDL
