MODEL 1
REMARK minimizedAffinity 5.5813055
REMARK minimizedRMSD -1
REMARK  0 active torsions:
REMARK  status: ('A' for Active; 'I' for Inactive)
ROOT
ATOM      1  N1  IND d   1       3.126  -0.469   0.113  0.00  0.00    -0.196 N 
ATOM      2  C2  IND d   1       3.752   0.187  -0.911  0.00  0.00     0.054 A 
ATOM      3  C3  IND d   1       3.400   1.492  -0.918  0.00  0.00    -0.031 A 
ATOM      4  C4  IND d   1       1.893   2.789   0.717  0.00  0.00     0.051 A 
ATOM      5  C5  IND d   1       1.068   2.613   1.792  0.00  0.00    -0.031 A 
ATOM      6  C6  IND d   1       0.884   1.376   2.375  0.00  0.00     0.015 A 
ATOM      7  C7  IND d   1       1.532   0.266   1.911  0.00  0.00    -0.016 A 
ATOM      8  C8  IND d   1       2.365   0.440   0.815  0.00  0.00    -0.047 A 
ATOM      9  C9  IND d   1       2.522   1.685   0.192  0.00  0.00    -0.096 A 
ATOM     10  HN1 IND d   1       3.196  -1.307   0.288  0.00  0.00     0.298 HD
ENDROOT
TORSDOF 0
ENDMDL
