MODEL 1
REMARK minimizedAffinity 13.4905233
REMARK minimizedRMSD -1
REMARK  0 active torsions:
REMARK  status: ('A' for Active; 'I' for Inactive)
ROOT
ATOM      1  N1  IND d   1       0.127   4.150   1.072  0.00  0.00    -0.196 N 
ATOM      2  C2  IND d   1       1.359   4.106   0.483  0.00  0.00     0.054 A 
ATOM      3  C3  IND d   1       1.985   2.947   0.786  0.00  0.00    -0.031 A 
ATOM      4  C4  IND d   1       1.133   0.936   2.148  0.00  0.00     0.051 A 
ATOM      5  C5  IND d   1       0.080   0.523   2.916  0.00  0.00    -0.031 A 
ATOM      6  C6  IND d   1      -1.034   1.313   3.111  0.00  0.00     0.015 A 
ATOM      7  C7  IND d   1      -1.143   2.546   2.533  0.00  0.00    -0.016 A 
ATOM      8  C8  IND d   1      -0.073   2.971   1.757  0.00  0.00    -0.047 A 
ATOM      9  C9  IND d   1       1.079   2.192   1.591  0.00  0.00    -0.096 A 
ATOM     10  HN1 IND d   1      -0.430   4.803   1.023  0.00  0.00     0.298 HD
ENDROOT
TORSDOF 0
ENDMDL
