MODEL 1
REMARK minimizedAffinity 8.87858486
REMARK minimizedRMSD -1
REMARK  0 active torsions:
REMARK  status: ('A' for Active; 'I' for Inactive)
ROOT
ATOM      1  N1  IND d   1      -0.535   1.081  -2.818  0.00  0.00    -0.196 N 
ATOM      2  C2  IND d   1      -0.281   2.416  -2.964  0.00  0.00     0.054 A 
ATOM      3  C3  IND d   1       0.666   2.813  -2.085  0.00  0.00    -0.031 A 
ATOM      4  C4  IND d   1       2.009   1.420  -0.386  0.00  0.00     0.051 A 
ATOM      5  C5  IND d   1       2.105   0.162   0.138  0.00  0.00    -0.031 A 
ATOM      6  C6  IND d   1       1.312  -0.876  -0.307  0.00  0.00     0.015 A 
ATOM      7  C7  IND d   1       0.397  -0.696  -1.305  0.00  0.00    -0.016 A 
ATOM      8  C8  IND d   1       0.292   0.582  -1.835  0.00  0.00    -0.047 A 
ATOM      9  C9  IND d   1       1.064   1.649  -1.358  0.00  0.00    -0.096 A 
ATOM     10  HN1 IND d   1      -1.113   0.628  -3.265  0.00  0.00     0.298 HD
ENDROOT
TORSDOF 0
ENDMDL
