MODEL 1
REMARK minimizedAffinity 3.53617597
REMARK minimizedRMSD -1
REMARK  0 active torsions:
REMARK  status: ('A' for Active; 'I' for Inactive)
ROOT
ATOM      1  N1  IND d   1      -2.962  -4.634  -2.271  0.00  0.00    -0.196 N 
ATOM      2  C2  IND d   1      -2.278  -5.749  -2.667  0.00  0.00     0.054 A 
ATOM      3  C3  IND d   1      -1.068  -5.798  -2.064  0.00  0.00    -0.031 A 
ATOM      4  C4  IND d   1      -0.047  -4.208  -0.316  0.00  0.00     0.051 A 
ATOM      5  C5  IND d   1      -0.280  -3.028   0.333  0.00  0.00    -0.031 A 
ATOM      6  C6  IND d   1      -1.443  -2.309   0.145  0.00  0.00     0.015 A 
ATOM      7  C7  IND d   1      -2.426  -2.752  -0.693  0.00  0.00    -0.016 A 
ATOM      8  C8  IND d   1      -2.191  -3.947  -1.359  0.00  0.00    -0.047 A 
ATOM      9  C9  IND d   1      -0.994  -4.659  -1.205  0.00  0.00    -0.096 A 
ATOM     10  HN1 IND d   1      -3.743  -4.401  -2.545  0.00  0.00     0.298 HD
ENDROOT
TORSDOF 0
ENDMDL
