MODEL 1
REMARK minimizedAffinity 8.83546257
REMARK minimizedRMSD -1
REMARK  0 active torsions:
REMARK  status: ('A' for Active; 'I' for Inactive)
ROOT
ATOM      1  N1  IND d   1       1.664  -0.799   0.049  0.00  0.00    -0.196 N 
ATOM      2  C2  IND d   1       2.339  -0.625  -1.127  0.00  0.00     0.054 A 
ATOM      3  C3  IND d   1       2.730   0.662  -1.259  0.00  0.00    -0.031 A 
ATOM      4  C4  IND d   1       2.459   2.630   0.378  0.00  0.00     0.051 A 
ATOM      5  C5  IND d   1       1.879   2.969   1.568  0.00  0.00    -0.031 A 
ATOM      6  C6  IND d   1       1.185   2.051   2.329  0.00  0.00     0.015 A 
ATOM      7  C7  IND d   1       1.056   0.750   1.933  0.00  0.00    -0.016 A 
ATOM      8  C8  IND d   1       1.638   0.403   0.721  0.00  0.00    -0.047 A 
ATOM      9  C9  IND d   1       2.306   1.342  -0.076  0.00  0.00    -0.096 A 
ATOM     10  HN1 IND d   1       1.315  -1.535   0.323  0.00  0.00     0.298 HD
ENDROOT
TORSDOF 0
ENDMDL
