MODEL 1
REMARK minimizedAffinity 5.74592543
REMARK minimizedRMSD -1
REMARK  0 active torsions:
REMARK  status: ('A' for Active; 'I' for Inactive)
ROOT
ATOM      1  N1  IND d   1       3.134   0.111  -0.154  0.00  0.00    -0.196 N 
ATOM      2  C2  IND d   1       3.581   1.385   0.056  0.00  0.00     0.054 A 
ATOM      3  C3  IND d   1       2.890   2.258  -0.712  0.00  0.00    -0.031 A 
ATOM      4  C4  IND d   1       0.918   1.827  -2.309  0.00  0.00     0.051 A 
ATOM      5  C5  IND d   1       0.178   0.818  -2.859  0.00  0.00    -0.031 A 
ATOM      6  C6  IND d   1       0.388  -0.505  -2.526  0.00  0.00     0.015 A 
ATOM      7  C7  IND d   1       1.342  -0.868  -1.619  0.00  0.00    -0.016 A 
ATOM      8  C8  IND d   1       2.100   0.153  -1.064  0.00  0.00    -0.047 A 
ATOM      9  C9  IND d   1       1.921   1.493  -1.429  0.00  0.00    -0.096 A 
ATOM     10  HN1 IND d   1       3.445  -0.598   0.220  0.00  0.00     0.298 HD
ENDROOT
TORSDOF 0
ENDMDL
