MODEL 1
REMARK minimizedAffinity 0.629675269
REMARK minimizedRMSD -1
REMARK  0 active torsions:
REMARK  status: ('A' for Active; 'I' for Inactive)
ROOT
ATOM      1  N1  IND d   1       1.783   1.969   0.807  0.00  0.00    -0.196 N 
ATOM      2  C2  IND d   1       1.100   2.594   1.813  0.00  0.00     0.054 A 
ATOM      3  C3  IND d   1       0.288   1.717   2.446  0.00  0.00    -0.031 A 
ATOM      4  C4  IND d   1      -0.004  -0.811   2.062  0.00  0.00     0.051 A 
ATOM      5  C5  IND d   1       0.379  -1.826   1.231  0.00  0.00    -0.031 A 
ATOM      6  C6  IND d   1       1.270  -1.624   0.196  0.00  0.00     0.015 A 
ATOM      7  C7  IND d   1       1.822  -0.397  -0.039  0.00  0.00    -0.016 A 
ATOM      8  C8  IND d   1       1.430   0.637   0.799  0.00  0.00    -0.047 A 
ATOM      9  C9  IND d   1       0.493   0.448   1.823  0.00  0.00    -0.096 A 
ATOM     10  HN1 IND d   1       2.339   2.345   0.270  0.00  0.00     0.298 HD
ENDROOT
TORSDOF 0
ENDMDL
