MODEL 1
REMARK minimizedAffinity 7.99172544
REMARK minimizedRMSD -1
REMARK  0 active torsions:
REMARK  status: ('A' for Active; 'I' for Inactive)
ROOT
ATOM      1  N1  IND d   1       2.230  -0.607  -1.228  0.00  0.00    -0.196 N 
ATOM      2  C2  IND d   1       3.233   0.248  -0.868  0.00  0.00     0.054 A 
ATOM      3  C3  IND d   1       3.083   1.439  -1.491  0.00  0.00    -0.031 A 
ATOM      4  C4  IND d   1       1.206   2.235  -3.063  0.00  0.00     0.051 A 
ATOM      5  C5  IND d   1       0.088   1.796  -3.715  0.00  0.00    -0.031 A 
ATOM      6  C6  IND d   1      -0.385   0.509  -3.566  0.00  0.00     0.015 A 
ATOM      7  C7  IND d   1       0.240  -0.389  -2.747  0.00  0.00    -0.016 A 
ATOM      8  C8  IND d   1       1.380   0.051  -2.089  0.00  0.00    -0.047 A 
ATOM      9  C9  IND d   1       1.888   1.344  -2.270  0.00  0.00    -0.096 A 
ATOM     10  HN1 IND d   1       2.144  -1.420  -0.961  0.00  0.00     0.298 HD
ENDROOT
TORSDOF 0
ENDMDL
