MODEL 1
REMARK minimizedAffinity 15.4810858
REMARK minimizedRMSD -1
REMARK  0 active torsions:
REMARK  status: ('A' for Active; 'I' for Inactive)
ROOT
ATOM      1  N1  IND d   1      -2.623   2.697   2.368  0.00  0.00    -0.196 N 
ATOM      2  C2  IND d   1      -3.257   1.552   2.763  0.00  0.00     0.054 A 
ATOM      3  C3  IND d   1      -2.398   0.508   2.745  0.00  0.00    -0.031 A 
ATOM      4  C4  IND d   1       0.118   0.471   2.202  0.00  0.00     0.051 A 
ATOM      5  C5  IND d   1       1.135   1.266   1.754  0.00  0.00    -0.031 A 
ATOM      6  C6  IND d   1       0.949   2.607   1.485  0.00  0.00     0.015 A 
ATOM      7  C7  IND d   1      -0.265   3.207   1.666  0.00  0.00    -0.016 A 
ATOM      8  C8  IND d   1      -1.302   2.401   2.114  0.00  0.00    -0.047 A 
ATOM      9  C9  IND d   1      -1.129   1.031   2.348  0.00  0.00    -0.096 A 
ATOM     10  HN1 IND d   1      -2.988   3.472   2.292  0.00  0.00     0.298 HD
ENDROOT
TORSDOF 0
ENDMDL
