MODEL 1
REMARK minimizedAffinity 5.73094702
REMARK minimizedRMSD -1
REMARK  0 active torsions:
REMARK  status: ('A' for Active; 'I' for Inactive)
ROOT
ATOM      1  N1  IND d   1       2.095   1.932   1.555  0.00  0.00    -0.196 N 
ATOM      2  C2  IND d   1       2.742   2.330   0.418  0.00  0.00     0.054 A 
ATOM      3  C3  IND d   1       2.379   1.553  -0.627  0.00  0.00    -0.031 A 
ATOM      4  C4  IND d   1       0.662  -0.363  -0.721  0.00  0.00     0.051 A 
ATOM      5  C5  IND d   1      -0.158  -1.115   0.073  0.00  0.00    -0.031 A 
ATOM      6  C6  IND d   1      -0.273  -0.884   1.428  0.00  0.00     0.015 A 
ATOM      7  C7  IND d   1       0.422   0.121   2.041  0.00  0.00    -0.016 A 
ATOM      8  C8  IND d   1       1.261   0.882   1.239  0.00  0.00    -0.047 A 
ATOM      9  C9  IND d   1       1.414   0.624  -0.129  0.00  0.00    -0.096 A 
ATOM     10  HN1 IND d   1       2.192   2.278   2.335  0.00  0.00     0.298 HD
ENDROOT
TORSDOF 0
ENDMDL
