MODEL 1
REMARK minimizedAffinity 5.61795998
REMARK minimizedRMSD -1
REMARK  0 active torsions:
REMARK  status: ('A' for Active; 'I' for Inactive)
ROOT
ATOM      1  N1  IND d   1       0.463  -0.592   0.402  0.00  0.00    -0.196 N 
ATOM      2  C2  IND d   1       1.760  -0.671  -0.024  0.00  0.00     0.054 A 
ATOM      3  C3  IND d   1       2.481   0.360   0.470  0.00  0.00    -0.031 A 
ATOM      4  C4  IND d   1       1.763   2.235   2.081  0.00  0.00     0.051 A 
ATOM      5  C5  IND d   1       0.667   2.747   2.717  0.00  0.00    -0.031 A 
ATOM      6  C6  IND d   1      -0.577   2.159   2.614  0.00  0.00     0.015 A 
ATOM      7  C7  IND d   1      -0.770   1.025   1.877  0.00  0.00    -0.016 A 
ATOM      8  C8  IND d   1       0.339   0.506   1.224  0.00  0.00    -0.047 A 
ATOM      9  C9  IND d   1       1.595   1.123   1.290  0.00  0.00    -0.096 A 
ATOM     10  HN1 IND d   1      -0.168  -1.137   0.192  0.00  0.00     0.298 HD
ENDROOT
TORSDOF 0
ENDMDL
