MODEL 1
REMARK minimizedAffinity 5.53421783
REMARK minimizedRMSD -1
REMARK  0 active torsions:
REMARK  status: ('A' for Active; 'I' for Inactive)
ROOT
ATOM      1  N1  IND d   1       0.295   1.244  -3.894  0.00  0.00    -0.196 N 
ATOM      2  C2  IND d   1      -0.456   2.319  -3.507  0.00  0.00     0.054 A 
ATOM      3  C3  IND d   1      -0.598   2.332  -2.162  0.00  0.00    -0.031 A 
ATOM      4  C4  IND d   1       0.398   0.747  -0.395  0.00  0.00     0.051 A 
ATOM      5  C5  IND d   1       1.122  -0.405  -0.268  0.00  0.00    -0.031 A 
ATOM      6  C6  IND d   1       1.619  -1.079  -1.365  0.00  0.00     0.015 A 
ATOM      7  C7  IND d   1       1.420  -0.617  -2.635  0.00  0.00    -0.016 A 
ATOM      8  C8  IND d   1       0.680   0.549  -2.769  0.00  0.00    -0.047 A 
ATOM      9  C9  IND d   1       0.136   1.214  -1.662  0.00  0.00    -0.096 A 
ATOM     10  HN1 IND d   1       0.493   1.036  -4.705  0.00  0.00     0.298 HD
ENDROOT
TORSDOF 0
ENDMDL
