MODEL 1
REMARK minimizedAffinity 7.99209929
REMARK minimizedRMSD -1
REMARK  0 active torsions:
REMARK  status: ('A' for Active; 'I' for Inactive)
ROOT
ATOM      1  N1  IND d   1       0.028   0.833  -3.558  0.00  0.00    -0.196 N 
ATOM      2  C2  IND d   1      -0.689  -0.331  -3.581  0.00  0.00     0.054 A 
ATOM      3  C3  IND d   1      -0.352  -1.111  -2.529  0.00  0.00    -0.031 A 
ATOM      4  C4  IND d   1       1.275  -0.634  -0.593  0.00  0.00     0.051 A 
ATOM      5  C5  IND d   1       2.191   0.282  -0.156  0.00  0.00    -0.031 A 
ATOM      6  C6  IND d   1       2.436   1.453  -0.844  0.00  0.00     0.015 A 
ATOM      7  C7  IND d   1       1.763   1.758  -1.993  0.00  0.00    -0.016 A 
ATOM      8  C8  IND d   1       0.837   0.828  -2.443  0.00  0.00    -0.047 A 
ATOM      9  C9  IND d   1       0.615  -0.382  -1.772  0.00  0.00    -0.096 A 
ATOM     10  HN1 IND d   1      -0.018   1.462  -4.142  0.00  0.00     0.298 HD
ENDROOT
TORSDOF 0
ENDMDL
