MODEL 1
REMARK minimizedAffinity 2.72924852
REMARK minimizedRMSD -1
REMARK  0 active torsions:
REMARK  status: ('A' for Active; 'I' for Inactive)
ROOT
ATOM      1  N1  IND d   1       3.576   0.507   0.015  0.00  0.00    -0.196 N 
ATOM      2  C2  IND d   1       2.892  -0.048  -1.031  0.00  0.00     0.054 A 
ATOM      3  C3  IND d   1       1.561   0.002  -0.801  0.00  0.00    -0.031 A 
ATOM      4  C4  IND d   1       0.280   1.042   1.176  0.00  0.00     0.051 A 
ATOM      5  C5  IND d   1       0.473   1.634   2.392  0.00  0.00    -0.031 A 
ATOM      6  C6  IND d   1       1.735   1.888   2.887  0.00  0.00     0.015 A 
ATOM      7  C7  IND d   1       2.857   1.569   2.176  0.00  0.00    -0.016 A 
ATOM      8  C8  IND d   1       2.665   0.961   0.943  0.00  0.00    -0.047 A 
ATOM      9  C9  IND d   1       1.387   0.662   0.454  0.00  0.00    -0.096 A 
ATOM     10  HN1 IND d   1       4.432   0.563   0.081  0.00  0.00     0.298 HD
ENDROOT
TORSDOF 0
ENDMDL
