MODEL 1
REMARK minimizedAffinity -2.63911915
REMARK minimizedRMSD -1
REMARK  0 active torsions:
REMARK  status: ('A' for Active; 'I' for Inactive)
ROOT
ATOM      1  C1  BNZ d   1       1.872  -1.691   0.684  0.00  0.00     0.000 A 
ATOM      2  C2  BNZ d   1       1.373  -0.457   1.006  0.00  0.00     0.000 A 
ATOM      3  C3  BNZ d   1       0.025  -0.233   1.035  0.00  0.00     0.000 A 
ATOM      4  C4  BNZ d   1      -0.820  -1.230   0.704  0.00  0.00     0.000 A 
ATOM      5  C5  BNZ d   1      -0.333  -2.477   0.368  0.00  0.00     0.000 A 
ATOM      6  C6  BNZ d   1       1.023  -2.710   0.378  0.00  0.00     0.000 A 
ENDROOT
TORSDOF 0
ENDMDL
