MODEL 1
REMARK minimizedAffinity -5.20836449
REMARK minimizedRMSD -1
REMARK  0 active torsions:
REMARK  status: ('A' for Active; 'I' for Inactive)
ROOT
ATOM      1  C1  BNZ d   1       0.337  -0.627   0.702  0.00  0.00     0.000 A 
ATOM      2  C2  BNZ d   1      -0.339  -1.779   0.400  0.00  0.00     0.000 A 
ATOM      3  C3  BNZ d   1       0.334  -2.949   0.187  0.00  0.00     0.000 A 
ATOM      4  C4  BNZ d   1       1.682  -2.958   0.235  0.00  0.00     0.000 A 
ATOM      5  C5  BNZ d   1       2.378  -1.802   0.529  0.00  0.00     0.000 A 
ATOM      6  C6  BNZ d   1       1.695  -0.634   0.782  0.00  0.00     0.000 A 
ENDROOT
TORSDOF 0
ENDMDL
