MODEL 1
REMARK minimizedAffinity 4.23369741
REMARK minimizedRMSD -1
REMARK  0 active torsions:
REMARK  status: ('A' for Active; 'I' for Inactive)
ROOT
ATOM      1  C1  BNZ d   1      -1.042  -0.452   0.773  0.00  0.00     0.000 A 
ATOM      2  C2  BNZ d   1       0.004   0.044   1.504  0.00  0.00     0.000 A 
ATOM      3  C3  BNZ d   1       1.216  -0.589   1.511  0.00  0.00     0.000 A 
ATOM      4  C4  BNZ d   1       1.368  -1.736   0.818  0.00  0.00     0.000 A 
ATOM      5  C5  BNZ d   1       0.320  -2.253   0.083  0.00  0.00     0.000 A 
ATOM      6  C6  BNZ d   1      -0.887  -1.593   0.048  0.00  0.00     0.000 A 
ENDROOT
TORSDOF 0
ENDMDL
