MODEL 1
REMARK minimizedAffinity -2.6238544
REMARK minimizedRMSD -1
REMARK  0 active torsions:
REMARK  status: ('A' for Active; 'I' for Inactive)
ROOT
ATOM      1  C1  BNZ d   1       0.965  -3.562   0.186  0.00  0.00     0.000 A 
ATOM      2  C2  BNZ d   1       0.016  -2.582   0.315  0.00  0.00     0.000 A 
ATOM      3  C3  BNZ d   1       0.375  -1.265   0.388  0.00  0.00     0.000 A 
ATOM      4  C4  BNZ d   1       1.682  -0.933   0.371  0.00  0.00     0.000 A 
ATOM      5  C5  BNZ d   1       2.651  -1.909   0.250  0.00  0.00     0.000 A 
ATOM      6  C6  BNZ d   1       2.284  -3.230   0.138  0.00  0.00     0.000 A 
ENDROOT
TORSDOF 0
ENDMDL
