MODEL 1
REMARK minimizedAffinity 0.333473325
REMARK minimizedRMSD -1
REMARK  0 active torsions:
REMARK  status: ('A' for Active; 'I' for Inactive)
ROOT
ATOM      1  C1  BNZ d   1       1.191  -2.886   0.476  0.00  0.00     0.000 A 
ATOM      2  C2  BNZ d   1      -0.147  -2.641   0.632  0.00  0.00     0.000 A 
ATOM      3  C3  BNZ d   1      -0.591  -1.413   1.036  0.00  0.00     0.000 A 
ATOM      4  C4  BNZ d   1       0.304  -0.445   1.322  0.00  0.00     0.000 A 
ATOM      5  C5  BNZ d   1       1.657  -0.680   1.180  0.00  0.00     0.000 A 
ATOM      6  C6  BNZ d   1       2.098  -1.905   0.735  0.00  0.00     0.000 A 
ENDROOT
TORSDOF 0
ENDMDL
