MODEL 1
REMARK minimizedAffinity -2.70865226
REMARK minimizedRMSD -1
REMARK  0 active torsions:
REMARK  status: ('A' for Active; 'I' for Inactive)
ROOT
ATOM      1  C1  BNZ d   1       1.299  -1.162  -0.313  0.00  0.00     0.000 A 
ATOM      2  C2  BNZ d   1       0.035  -1.469   0.116  0.00  0.00     0.000 A 
ATOM      3  C3  BNZ d   1      -0.518  -0.819   1.184  0.00  0.00     0.000 A 
ATOM      4  C4  BNZ d   1       0.207   0.105   1.846  0.00  0.00     0.000 A 
ATOM      5  C5  BNZ d   1       1.487   0.418   1.431  0.00  0.00     0.000 A 
ATOM      6  C6  BNZ d   1       2.026  -0.209   0.332  0.00  0.00     0.000 A 
ENDROOT
TORSDOF 0
ENDMDL
