MODEL 1
REMARK minimizedAffinity -3.22658277
REMARK minimizedRMSD -1
REMARK  0 active torsions:
REMARK  status: ('A' for Active; 'I' for Inactive)
ROOT
ATOM      1  C1  BNZ d   1       2.114  -2.503  -0.118  0.00  0.00     0.000 A 
ATOM      2  C2  BNZ d   1       1.823  -1.179   0.080  0.00  0.00     0.000 A 
ATOM      3  C3  BNZ d   1       0.660  -0.802   0.691  0.00  0.00     0.000 A 
ATOM      4  C4  BNZ d   1      -0.228  -1.746   1.067  0.00  0.00     0.000 A 
ATOM      5  C5  BNZ d   1       0.047  -3.084   0.866  0.00  0.00     0.000 A 
ATOM      6  C6  BNZ d   1       1.236  -3.461   0.286  0.00  0.00     0.000 A 
ENDROOT
TORSDOF 0
ENDMDL
