MODEL 1
REMARK minimizedAffinity -3.09208059
REMARK minimizedRMSD -1
REMARK  0 active torsions:
REMARK  status: ('A' for Active; 'I' for Inactive)
ROOT
ATOM      1  C1  BNZ d   1       0.087   0.276   1.375  0.00  0.00     0.000 A 
ATOM      2  C2  BNZ d   1      -0.479  -0.624   0.512  0.00  0.00     0.000 A 
ATOM      3  C3  BNZ d   1       0.301  -1.430  -0.268  0.00  0.00     0.000 A 
ATOM      4  C4  BNZ d   1       1.643  -1.308  -0.215  0.00  0.00     0.000 A 
ATOM      5  C5  BNZ d   1       2.229  -0.399   0.644  0.00  0.00     0.000 A 
ATOM      6  C6  BNZ d   1       1.441   0.384   1.456  0.00  0.00     0.000 A 
ENDROOT
TORSDOF 0
ENDMDL
