MODEL 1
REMARK minimizedAffinity -0.902525008
REMARK minimizedRMSD -1
REMARK  0 active torsions:
REMARK  status: ('A' for Active; 'I' for Inactive)
ROOT
ATOM      1  C1  BNZ d   1      -0.700  -0.126   1.038  0.00  0.00     0.000 A 
ATOM      2  C2  BNZ d   1       0.604  -0.139   1.455  0.00  0.00     0.000 A 
ATOM      3  C3  BNZ d   1       1.432  -1.177   1.131  0.00  0.00     0.000 A 
ATOM      4  C4  BNZ d   1       0.944  -2.219   0.426  0.00  0.00     0.000 A 
ATOM      5  C5  BNZ d   1      -0.371  -2.225   0.007  0.00  0.00     0.000 A 
ATOM      6  C6  BNZ d   1      -1.191  -1.159   0.301  0.00  0.00     0.000 A 
ENDROOT
TORSDOF 0
ENDMDL
