MODEL 1
REMARK minimizedAffinity -5.09276199
REMARK minimizedRMSD -1
REMARK  0 active torsions:
REMARK  status: ('A' for Active; 'I' for Inactive)
ROOT
ATOM      1  C1  BNZ d   1       0.410  -2.445   0.427  0.00  0.00     0.000 A 
ATOM      2  C2  BNZ d   1       1.326  -3.440   0.211  0.00  0.00     0.000 A 
ATOM      3  C3  BNZ d   1       2.665  -3.168   0.195  0.00  0.00     0.000 A 
ATOM      4  C4  BNZ d   1       3.085  -1.897   0.356  0.00  0.00     0.000 A 
ATOM      5  C5  BNZ d   1       2.174  -0.881   0.565  0.00  0.00     0.000 A 
ATOM      6  C6  BNZ d   1       0.829  -1.164   0.619  0.00  0.00     0.000 A 
ENDROOT
TORSDOF 0
ENDMDL
