MODEL 1
REMARK minimizedAffinity -2.36666727
REMARK minimizedRMSD -1
REMARK  0 active torsions:
REMARK  status: ('A' for Active; 'I' for Inactive)
ROOT
ATOM      1  C1  BNZ d   1       1.267  -3.363   0.151  0.00  0.00     0.000 A 
ATOM      2  C2  BNZ d   1      -0.036  -2.955   0.257  0.00  0.00     0.000 A 
ATOM      3  C3  BNZ d   1      -0.343  -1.641   0.473  0.00  0.00     0.000 A 
ATOM      4  C4  BNZ d   1       0.653  -0.744   0.622  0.00  0.00     0.000 A 
ATOM      5  C5  BNZ d   1       1.972  -1.140   0.527  0.00  0.00     0.000 A 
ATOM      6  C6  BNZ d   1       2.276  -2.457   0.270  0.00  0.00     0.000 A 
ENDROOT
TORSDOF 0
ENDMDL
