MODEL 1
REMARK minimizedAffinity -3.01098967
REMARK minimizedRMSD -1
REMARK  0 active torsions:
REMARK  status: ('A' for Active; 'I' for Inactive)
ROOT
ATOM      1  C1  BNZ d   1      -0.057  -0.119   1.749  0.00  0.00     0.000 A 
ATOM      2  C2  BNZ d   1       1.015  -0.798   1.233  0.00  0.00     0.000 A 
ATOM      3  C3  BNZ d   1       0.832  -1.848   0.378  0.00  0.00     0.000 A 
ATOM      4  C4  BNZ d   1      -0.421  -2.244   0.072  0.00  0.00     0.000 A 
ATOM      5  C5  BNZ d   1      -1.512  -1.575   0.591  0.00  0.00     0.000 A 
ATOM      6  C6  BNZ d   1      -1.323  -0.494   1.421  0.00  0.00     0.000 A 
ENDROOT
TORSDOF 0
ENDMDL
