MODEL 1
REMARK minimizedAffinity -5.46548176
REMARK minimizedRMSD -1
REMARK  0 active torsions:
REMARK  status: ('A' for Active; 'I' for Inactive)
ROOT
ATOM      1  C1  BNZ d   1       0.254  -0.893   0.915  0.00  0.00     0.000 A 
ATOM      2  C2  BNZ d   1       1.598  -0.643   0.826  0.00  0.00     0.000 A 
ATOM      3  C3  BNZ d   1       2.466  -1.618   0.424  0.00  0.00     0.000 A 
ATOM      4  C4  BNZ d   1       1.997  -2.852   0.150  0.00  0.00     0.000 A 
ATOM      5  C5  BNZ d   1       0.646  -3.123   0.243  0.00  0.00     0.000 A 
ATOM      6  C6  BNZ d   1      -0.230  -2.128   0.611  0.00  0.00     0.000 A 
ENDROOT
TORSDOF 0
ENDMDL
