MODEL 1
REMARK minimizedAffinity 1.98707068
REMARK minimizedRMSD -1
REMARK  0 active torsions:
REMARK  status: ('A' for Active; 'I' for Inactive)
ROOT
ATOM      1  C1  BNZ d   1      -2.450   2.095   4.140  0.00  0.00     0.000 A 
ATOM      2  C2  BNZ d   1      -3.470   3.009   4.146  0.00  0.00     0.000 A 
ATOM      3  C3  BNZ d   1      -4.458   2.949   5.089  0.00  0.00     0.000 A 
ATOM      4  C4  BNZ d   1      -4.447   1.954   5.999  0.00  0.00     0.000 A 
ATOM      5  C5  BNZ d   1      -3.431   1.019   6.000  0.00  0.00     0.000 A 
ATOM      6  C6  BNZ d   1      -2.417   1.105   5.073  0.00  0.00     0.000 A 
ENDROOT
TORSDOF 0
ENDMDL
