MODEL 1
REMARK minimizedAffinity 0.0712767839
REMARK minimizedRMSD -1
REMARK  0 active torsions:
REMARK  status: ('A' for Active; 'I' for Inactive)
ROOT
ATOM      1  C   UNL d   1      -1.749   2.195   0.752  0.00  0.00     0.020 A 
ATOM      2  C1  UNL d   1      -0.916   2.595   1.796  0.00  0.00     0.020 A 
ATOM      3  C2  UNL d   1       0.191   1.817   2.142  0.00  0.00     0.034 A 
ATOM      4  C3  UNL d   1       0.468   0.636   1.444  0.00  0.00     0.017 A 
ATOM      5  C4  UNL d   1      -0.369   0.236   0.397  0.00  0.00     0.017 A 
ATOM      6  C5  UNL d   1      -1.476   1.018   0.054  0.00  0.00     0.034 A 
ATOM      7 Cl   UNL d   1      -0.093  -1.209  -0.511  0.00  0.00    -0.070 Cl
ATOM      8 Cl1  UNL d   1       1.854  -0.276   1.926  0.00  0.00    -0.070 Cl
ENDROOT
TORSDOF 0
ENDMDL
