MODEL 1
REMARK minimizedAffinity -3.21626282
REMARK minimizedRMSD -1
REMARK  0 active torsions:
REMARK  status: ('A' for Active; 'I' for Inactive)
ROOT
ATOM      1  C   UNL d   1      -0.573  -0.158   2.075  0.00  0.00     0.020 A 
ATOM      2  C1  UNL d   1       0.089   1.008   1.693  0.00  0.00     0.020 A 
ATOM      3  C2  UNL d   1       0.512   1.170   0.372  0.00  0.00     0.034 A 
ATOM      4  C3  UNL d   1       0.273   0.165  -0.572  0.00  0.00     0.017 A 
ATOM      5  C4  UNL d   1      -0.392  -1.005  -0.188  0.00  0.00     0.017 A 
ATOM      6  C5  UNL d   1      -0.813  -1.163   1.136  0.00  0.00     0.034 A 
ATOM      7 Cl   UNL d   1      -0.724  -2.290  -1.296  0.00  0.00    -0.070 Cl
ATOM      8 Cl1  UNL d   1       0.823   0.433  -2.188  0.00  0.00    -0.070 Cl
ENDROOT
TORSDOF 0
ENDMDL
