MODEL 1
REMARK minimizedAffinity -1.15512419
REMARK minimizedRMSD -1
REMARK  0 active torsions:
REMARK  status: ('A' for Active; 'I' for Inactive)
ROOT
ATOM      1  C   UNL d   1      -0.757  -3.820  -0.718  0.00  0.00     0.020 A 
ATOM      2  C1  UNL d   1      -0.877  -3.516  -2.074  0.00  0.00     0.020 A 
ATOM      3  C2  UNL d   1      -0.562  -2.236  -2.533  0.00  0.00     0.034 A 
ATOM      4  C3  UNL d   1      -0.126  -1.254  -1.636  0.00  0.00     0.017 A 
ATOM      5  C4  UNL d   1      -0.005  -1.559  -0.276  0.00  0.00     0.017 A 
ATOM      6  C5  UNL d   1      -0.322  -2.843   0.179  0.00  0.00     0.034 A 
ATOM      7 Cl   UNL d   1       0.527  -0.401   0.891  0.00  0.00    -0.070 Cl
ATOM      8 Cl1  UNL d   1       0.247   0.308  -2.274  0.00  0.00    -0.070 Cl
ENDROOT
TORSDOF 0
ENDMDL
