MODEL 1
REMARK minimizedAffinity 4.80793524
REMARK minimizedRMSD -1
REMARK  0 active torsions:
REMARK  status: ('A' for Active; 'I' for Inactive)
ROOT
ATOM      1  C   UNL d   1       3.429  -5.123  -3.451  0.00  0.00     0.020 A 
ATOM      2  C1  UNL d   1       4.470  -4.511  -4.148  0.00  0.00     0.020 A 
ATOM      3  C2  UNL d   1       5.251  -3.537  -3.524  0.00  0.00     0.034 A 
ATOM      4  C3  UNL d   1       4.993  -3.171  -2.197  0.00  0.00     0.017 A 
ATOM      5  C4  UNL d   1       3.948  -3.786  -1.498  0.00  0.00     0.017 A 
ATOM      6  C5  UNL d   1       3.169  -4.761  -2.128  0.00  0.00     0.034 A 
ATOM      7 Cl   UNL d   1       3.569  -3.387   0.141  0.00  0.00    -0.070 Cl
ATOM      8 Cl1  UNL d   1       5.999  -1.959  -1.488  0.00  0.00    -0.070 Cl
ENDROOT
TORSDOF 0
ENDMDL
