MODEL 1
REMARK minimizedAffinity 1.81772029
REMARK minimizedRMSD -1
REMARK  0 active torsions:
REMARK  status: ('A' for Active; 'I' for Inactive)
ROOT
ATOM      1  C   UNL d   1      -1.139  -3.703  -1.523  0.00  0.00     0.020 A 
ATOM      2  C1  UNL d   1      -1.583  -4.065  -2.794  0.00  0.00     0.020 A 
ATOM      3  C2  UNL d   1      -1.236  -3.290  -3.902  0.00  0.00     0.034 A 
ATOM      4  C3  UNL d   1      -0.442  -2.148  -3.741  0.00  0.00     0.017 A 
ATOM      5  C4  UNL d   1       0.004  -1.786  -2.465  0.00  0.00     0.017 A 
ATOM      6  C5  UNL d   1      -0.347  -2.566  -1.359  0.00  0.00     0.034 A 
ATOM      7 Cl   UNL d   1       0.986  -0.391  -2.188  0.00  0.00    -0.070 Cl
ATOM      8 Cl1  UNL d   1      -0.051  -1.236  -5.156  0.00  0.00    -0.070 Cl
ENDROOT
TORSDOF 0
ENDMDL
