MODEL 1
REMARK minimizedAffinity -1.03405118
REMARK minimizedRMSD -1
REMARK  0 active torsions:
REMARK  status: ('A' for Active; 'I' for Inactive)
ROOT
ATOM      1  C   UNL d   1      -0.240   2.027   2.386  0.00  0.00     0.020 A 
ATOM      2  C1  UNL d   1       0.053   1.791   1.044  0.00  0.00     0.020 A 
ATOM      3  C2  UNL d   1       0.603   0.569   0.653  0.00  0.00     0.034 A 
ATOM      4  C3  UNL d   1       0.862  -0.423   1.607  0.00  0.00     0.017 A 
ATOM      5  C4  UNL d   1       0.567  -0.185   2.954  0.00  0.00     0.017 A 
ATOM      6  C5  UNL d   1       0.016   1.041   3.339  0.00  0.00     0.034 A 
ATOM      7 Cl   UNL d   1       0.859  -1.360   4.188  0.00  0.00    -0.070 Cl
ATOM      8 Cl1  UNL d   1       1.543  -1.911   1.053  0.00  0.00    -0.070 Cl
ENDROOT
TORSDOF 0
ENDMDL
