MODEL 1
REMARK minimizedAffinity 7.50817299
REMARK minimizedRMSD -1
REMARK  0 active torsions:
REMARK  status: ('A' for Active; 'I' for Inactive)
ROOT
ATOM      1  O1  BZF d   1       0.898   2.988   0.229  0.00  0.00    -0.204 OA
ATOM      2  C2  BZF d   1       2.194   2.538   0.391  0.00  0.00     0.174 A 
ATOM      3  C3  BZF d   1       2.323   1.859   1.549  0.00  0.00    -0.012 A 
ATOM      4  C3A BZF d   1       1.005   1.806   2.104  0.00  0.00    -0.107 A 
ATOM      5  C4  BZF d   1       0.486   1.252   3.238  0.00  0.00     0.055 A 
ATOM      6  C5  BZF d   1      -0.829   1.443   3.524  0.00  0.00    -0.016 A 
ATOM      7  C6  BZF d   1      -1.650   2.187   2.702  0.00  0.00     0.022 A 
ATOM      8  C7  BZF d   1      -1.181   2.752   1.563  0.00  0.00     0.029 A 
ATOM      9  C7A BZF d   1       0.139   2.533   1.254  0.00  0.00     0.058 A 
ENDROOT
TORSDOF 0
ENDMDL
