MODEL 1
REMARK minimizedAffinity 1.74517953
REMARK minimizedRMSD -1
REMARK  0 active torsions:
REMARK  status: ('A' for Active; 'I' for Inactive)
ROOT
ATOM      1  O1  BZF d   1       3.512  -2.486  -0.052  0.00  0.00    -0.204 OA
ATOM      2  C2  BZF d   1       2.199  -2.854   0.168  0.00  0.00     0.174 A 
ATOM      3  C3  BZF d   1       1.392  -1.773   0.166  0.00  0.00    -0.012 A 
ATOM      4  C3A BZF d   1       2.242  -0.670  -0.162  0.00  0.00    -0.107 A 
ATOM      5  C4  BZF d   1       2.022   0.667  -0.332  0.00  0.00     0.055 A 
ATOM      6  C5  BZF d   1       3.079   1.485  -0.576  0.00  0.00    -0.016 A 
ATOM      7  C6  BZF d   1       4.369   1.001  -0.653  0.00  0.00     0.022 A 
ATOM      8  C7  BZF d   1       4.636  -0.319  -0.497  0.00  0.00     0.029 A 
ATOM      9  C7A BZF d   1       3.566  -1.152  -0.282  0.00  0.00     0.058 A 
ENDROOT
TORSDOF 0
ENDMDL
