MODEL 1
REMARK minimizedAffinity 4.92546654
REMARK minimizedRMSD -1
REMARK  0 active torsions:
REMARK  status: ('A' for Active; 'I' for Inactive)
ROOT
ATOM      1  O1  BZF d   1       0.661   0.522   1.727  0.00  0.00    -0.204 OA
ATOM      2  C2  BZF d   1       0.818   1.744   1.103  0.00  0.00     0.174 A 
ATOM      3  C3  BZF d   1       1.671   1.645   0.063  0.00  0.00    -0.012 A 
ATOM      4  C3A BZF d   1       2.000   0.255  -0.022  0.00  0.00    -0.107 A 
ATOM      5  C4  BZF d   1       2.792  -0.472  -0.864  0.00  0.00     0.055 A 
ATOM      6  C5  BZF d   1       2.958  -1.801  -0.631  0.00  0.00    -0.016 A 
ATOM      7  C6  BZF d   1       2.352  -2.433   0.435  0.00  0.00     0.022 A 
ATOM      8  C7  BZF d   1       1.553  -1.754   1.294  0.00  0.00     0.029 A 
ATOM      9  C7A BZF d   1       1.357  -0.418   1.042  0.00  0.00     0.058 A 
ENDROOT
TORSDOF 0
ENDMDL
