MODEL 1
REMARK minimizedAffinity 5.80928373
REMARK minimizedRMSD -1
REMARK  0 active torsions:
REMARK  status: ('A' for Active; 'I' for Inactive)
ROOT
ATOM      1  O1  BZF d   1       5.241  -1.953   2.450  0.00  0.00    -0.204 OA
ATOM      2  C2  BZF d   1       5.899  -0.738   2.434  0.00  0.00     0.174 A 
ATOM      3  C3  BZF d   1       5.308   0.116   1.574  0.00  0.00    -0.012 A 
ATOM      4  C3A BZF d   1       4.156  -0.579   1.086  0.00  0.00    -0.107 A 
ATOM      5  C4  BZF d   1       3.159  -0.247   0.215  0.00  0.00     0.055 A 
ATOM      6  C5  BZF d   1       2.222  -1.178  -0.103  0.00  0.00    -0.016 A 
ATOM      7  C6  BZF d   1       2.255  -2.451   0.427  0.00  0.00     0.022 A 
ATOM      8  C7  BZF d   1       3.221  -2.826   1.300  0.00  0.00     0.029 A 
ATOM      9  C7A BZF d   1       4.151  -1.876   1.649  0.00  0.00     0.058 A 
ENDROOT
TORSDOF 0
ENDMDL
