MODEL 1
REMARK minimizedAffinity -1.59657967
REMARK minimizedRMSD -1
REMARK  0 active torsions:
REMARK  status: ('A' for Active; 'I' for Inactive)
ROOT
ATOM      1  O1  BZF d   1      -0.199   1.128  -0.604  0.00  0.00    -0.204 OA
ATOM      2  C2  BZF d   1       0.589   2.006   0.116  0.00  0.00     0.174 A 
ATOM      3  C3  BZF d   1       1.599   1.352   0.725  0.00  0.00    -0.012 A 
ATOM      4  C3A BZF d   1       1.486  -0.006   0.289  0.00  0.00    -0.107 A 
ATOM      5  C4  BZF d   1       2.211  -1.136   0.538  0.00  0.00     0.055 A 
ATOM      6  C5  BZF d   1       1.793  -2.318   0.015  0.00  0.00    -0.016 A 
ATOM      7  C6  BZF d   1       0.653  -2.408  -0.757  0.00  0.00     0.022 A 
ATOM      8  C7  BZF d   1      -0.097  -1.314  -1.035  0.00  0.00     0.029 A 
ATOM      9  C7A BZF d   1       0.342  -0.112  -0.535  0.00  0.00     0.058 A 
ENDROOT
TORSDOF 0
ENDMDL
