MODEL 1
REMARK minimizedAffinity 5.31050444
REMARK minimizedRMSD -1
REMARK  0 active torsions:
REMARK  status: ('A' for Active; 'I' for Inactive)
ROOT
ATOM      1  O1  BZF d   1       1.361   2.959  -0.106  0.00  0.00    -0.204 OA
ATOM      2  C2  BZF d   1       0.113   2.473  -0.447  0.00  0.00     0.174 A 
ATOM      3  C3  BZF d   1       0.137   1.130  -0.560  0.00  0.00    -0.012 A 
ATOM      4  C3A BZF d   1       1.462   0.744  -0.181  0.00  0.00    -0.107 A 
ATOM      5  C4  BZF d   1       2.095  -0.462  -0.076  0.00  0.00     0.055 A 
ATOM      6  C5  BZF d   1       3.414  -0.489   0.250  0.00  0.00    -0.016 A 
ATOM      7  C6  BZF d   1       4.131   0.668   0.471  0.00  0.00     0.022 A 
ATOM      8  C7  BZF d   1       3.545   1.887   0.384  0.00  0.00     0.029 A 
ATOM      9  C7A BZF d   1       2.205   1.917   0.087  0.00  0.00     0.058 A 
ENDROOT
TORSDOF 0
ENDMDL
