MODEL 1
REMARK minimizedAffinity -2.15245581
REMARK minimizedRMSD -1
REMARK  0 active torsions:
REMARK  status: ('A' for Active; 'I' for Inactive)
ROOT
ATOM      1  O1  BZF d   1       0.112   1.406   1.137  0.00  0.00    -0.204 OA
ATOM      2  C2  BZF d   1       0.579   0.679   0.059  0.00  0.00     0.174 A 
ATOM      3  C3  BZF d   1      -0.432   0.033  -0.556  0.00  0.00    -0.012 A 
ATOM      4  C3A BZF d   1      -1.617   0.451   0.128  0.00  0.00    -0.107 A 
ATOM      5  C4  BZF d   1      -2.943   0.165  -0.030  0.00  0.00     0.055 A 
ATOM      6  C5  BZF d   1      -3.840   0.681   0.851  0.00  0.00    -0.016 A 
ATOM      7  C6  BZF d   1      -3.446   1.482   1.903  0.00  0.00     0.022 A 
ATOM      8  C7  BZF d   1      -2.143   1.797   2.098  0.00  0.00     0.029 A 
ATOM      9  C7A BZF d   1      -1.238   1.304   1.190  0.00  0.00     0.058 A 
ENDROOT
TORSDOF 0
ENDMDL
