MODEL 1
REMARK minimizedAffinity -2.21610355
REMARK minimizedRMSD -1
REMARK  1 active torsions:
REMARK  status: ('A' for Active; 'I' for Inactive)
REMARK    1  A    between atoms: N_2  and  C1_3 
ROOT
ATOM      1  C1  UNL d   1       0.023   0.345  -0.300  0.00  0.00     0.143 A 
ATOM      2  C2  UNL d   1       1.051   0.124   0.622  0.00  0.00    -0.057 A 
ATOM      3  C3  UNL d   1       0.791   0.051   1.996  0.00  0.00     0.033 A 
ATOM      4  C4  UNL d   1      -0.503   0.226   2.475  0.00  0.00    -0.042 A 
ATOM      5  C5  UNL d   1      -1.537   0.471   1.579  0.00  0.00     0.033 A 
ATOM      6  C6  UNL d   1      -1.272   0.537   0.208  0.00  0.00    -0.057 A 
ENDROOT
BRANCH   1   7
ATOM      7  N   UNL d   1       0.232   0.526  -1.669  0.00  0.00    -0.732 N 
ATOM      8  C   UNL d   1       0.820  -0.525  -2.471  0.00  0.00     0.284 C 
ATOM      9  H3  UNL d   1      -0.543   1.009  -2.120  0.00  0.00     0.395 HD
ENDBRANCH   1   7
TORSDOF 1
ENDMDL
