MODEL 1
REMARK minimizedAffinity -4.65240765
REMARK minimizedRMSD -1
REMARK  1 active torsions:
REMARK  status: ('A' for Active; 'I' for Inactive)
REMARK    1  A    between atoms: N_2  and  C1_3 
ROOT
ATOM      1  C1  UNL d   1      -0.725   0.237   1.447  0.00  0.00     0.143 A 
ATOM      2  C2  UNL d   1      -0.620  -0.099   2.801  0.00  0.00    -0.057 A 
ATOM      3  C3  UNL d   1      -1.713   0.027   3.667  0.00  0.00     0.033 A 
ATOM      4  C4  UNL d   1      -2.926   0.520   3.199  0.00  0.00    -0.042 A 
ATOM      5  C5  UNL d   1      -3.047   0.883   1.862  0.00  0.00     0.033 A 
ATOM      6  C6  UNL d   1      -1.954   0.749   1.001  0.00  0.00    -0.057 A 
ENDROOT
BRANCH   1   7
ATOM      7  N   UNL d   1       0.352   0.227   0.557  0.00  0.00    -0.732 N 
ATOM      8  C   UNL d   1       0.243   0.862  -0.739  0.00  0.00     0.284 C 
ATOM      9  H3  UNL d   1       1.242   0.385   1.024  0.00  0.00     0.395 HD
ENDBRANCH   1   7
TORSDOF 1
ENDMDL
