MODEL 1
REMARK minimizedAffinity -2.81260633
REMARK minimizedRMSD -1
REMARK  1 active torsions:
REMARK  status: ('A' for Active; 'I' for Inactive)
REMARK    1  A    between atoms: N_2  and  C1_3 
ROOT
ATOM      1  C1  UNL d   1      -0.015   0.381  -0.105  0.00  0.00     0.143 A 
ATOM      2  C2  UNL d   1       0.851   0.296   0.991  0.00  0.00    -0.057 A 
ATOM      3  C3  UNL d   1       0.366   0.338   2.304  0.00  0.00     0.033 A 
ATOM      4  C4  UNL d   1      -0.994   0.495   2.545  0.00  0.00    -0.042 A 
ATOM      5  C5  UNL d   1      -1.871   0.608   1.471  0.00  0.00     0.033 A 
ATOM      6  C6  UNL d   1      -1.381   0.558   0.162  0.00  0.00    -0.057 A 
ENDROOT
BRANCH   1   7
ATOM      7  N   UNL d   1       0.415   0.445  -1.433  0.00  0.00    -0.732 N 
ATOM      8  C   UNL d   1       0.820  -0.754  -2.135  0.00  0.00     0.284 C 
ATOM      9  H3  UNL d   1      -0.144   1.085  -1.992  0.00  0.00     0.395 HD
ENDBRANCH   1   7
TORSDOF 1
ENDMDL
