MODEL 1
REMARK minimizedAffinity -3.59212971
REMARK minimizedRMSD -1
REMARK  1 active torsions:
REMARK  status: ('A' for Active; 'I' for Inactive)
REMARK    1  A    between atoms: N_2  and  C1_3 
ROOT
ATOM      1  C1  UNL d   1       0.190   0.079   0.908  0.00  0.00     0.143 A 
ATOM      2  C2  UNL d   1      -0.918  -0.535   0.315  0.00  0.00    -0.057 A 
ATOM      3  C3  UNL d   1      -1.981  -1.018   1.088  0.00  0.00     0.033 A 
ATOM      4  C4  UNL d   1      -1.940  -0.921   2.475  0.00  0.00    -0.042 A 
ATOM      5  C5  UNL d   1      -0.837  -0.337   3.088  0.00  0.00     0.033 A 
ATOM      6  C6  UNL d   1       0.218   0.149   2.310  0.00  0.00    -0.057 A 
ENDROOT
BRANCH   1   7
ATOM      7  N   UNL d   1       1.323   0.490   0.201  0.00  0.00    -0.732 N 
ATOM      8  C   UNL d   1       2.499   0.959   0.901  0.00  0.00     0.284 C 
ATOM      9  H3  UNL d   1       1.525  -0.113  -0.594  0.00  0.00     0.395 HD
ENDBRANCH   1   7
TORSDOF 1
ENDMDL
