MODEL 1
REMARK minimizedAffinity 1.24052215
REMARK minimizedRMSD -1
REMARK  1 active torsions:
REMARK  status: ('A' for Active; 'I' for Inactive)
REMARK    1  A    between atoms: N_2  and  C1_3 
ROOT
ATOM      1  C1  UNL d   1      -0.203  -0.005  -0.933  0.00  0.00     0.143 A 
ATOM      2  C2  UNL d   1      -1.425   0.598  -0.614  0.00  0.00    -0.057 A 
ATOM      3  C3  UNL d   1      -2.183   0.169   0.482  0.00  0.00     0.033 A 
ATOM      4  C4  UNL d   1      -1.745  -0.895   1.264  0.00  0.00    -0.042 A 
ATOM      5  C5  UNL d   1      -0.547  -1.527   0.950  0.00  0.00     0.033 A 
ATOM      6  C6  UNL d   1       0.209  -1.089  -0.141  0.00  0.00    -0.057 A 
ENDROOT
BRANCH   1   7
ATOM      7  N   UNL d   1       0.548   0.311  -2.067  0.00  0.00    -0.732 N 
ATOM      8  C   UNL d   1       1.208  -0.728  -2.828  0.00  0.00     0.284 C 
ATOM      9  H3  UNL d   1       0.106   1.027  -2.639  0.00  0.00     0.395 HD
ENDBRANCH   1   7
TORSDOF 1
ENDMDL
