MODEL 1
REMARK minimizedAffinity -2.23950052
REMARK minimizedRMSD -1
REMARK  1 active torsions:
REMARK  status: ('A' for Active; 'I' for Inactive)
REMARK    1  A    between atoms: N_2  and  C1_3 
ROOT
ATOM      1  C1  UNL d   1       0.197  -0.170   0.213  0.00  0.00     0.143 A 
ATOM      2  C2  UNL d   1      -0.995   0.313  -0.337  0.00  0.00    -0.057 A 
ATOM      3  C3  UNL d   1      -1.123   0.530  -1.715  0.00  0.00     0.033 A 
ATOM      4  C4  UNL d   1      -0.048   0.293  -2.565  0.00  0.00    -0.042 A 
ATOM      5  C5  UNL d   1       1.155  -0.164  -2.036  0.00  0.00     0.033 A 
ATOM      6  C6  UNL d   1       1.274  -0.384  -0.661  0.00  0.00    -0.057 A 
ENDROOT
BRANCH   1   7
ATOM      7  N   UNL d   1       0.418  -0.313   1.585  0.00  0.00    -0.732 N 
ATOM      8  C   UNL d   1      -0.570   0.137   2.542  0.00  0.00     0.284 C 
ATOM      9  H3  UNL d   1       0.847  -1.205   1.819  0.00  0.00     0.395 HD
ENDBRANCH   1   7
TORSDOF 1
ENDMDL
