MODEL 1
REMARK minimizedAffinity -2.09560037
REMARK minimizedRMSD -1
REMARK  1 active torsions:
REMARK  status: ('A' for Active; 'I' for Inactive)
REMARK    1  A    between atoms: N_2  and  C1_3 
ROOT
ATOM      1  C1  UNL d   1      -1.154   0.442   0.765  0.00  0.00     0.143 A 
ATOM      2  C2  UNL d   1      -0.604   0.374   2.049  0.00  0.00    -0.057 A 
ATOM      3  C3  UNL d   1       0.722  -0.029   2.250  0.00  0.00     0.033 A 
ATOM      4  C4  UNL d   1       1.514  -0.399   1.169  0.00  0.00    -0.042 A 
ATOM      5  C5  UNL d   1       0.981  -0.362  -0.115  0.00  0.00     0.033 A 
ATOM      6  C6  UNL d   1      -0.342   0.047  -0.310  0.00  0.00    -0.057 A 
ENDROOT
BRANCH   1   7
ATOM      7  N   UNL d   1      -2.495   0.740   0.508  0.00  0.00    -0.732 N 
ATOM      8  C   UNL d   1      -3.001   0.752  -0.848  0.00  0.00     0.284 C 
ATOM      9  H3  UNL d   1      -3.124   0.311   1.183  0.00  0.00     0.395 HD
ENDBRANCH   1   7
TORSDOF 1
ENDMDL
