MODEL 1
REMARK minimizedAffinity -2.92156816
REMARK minimizedRMSD -1
REMARK  1 active torsions:
REMARK  status: ('A' for Active; 'I' for Inactive)
REMARK    1  A    between atoms: N_2  and  C1_3 
ROOT
ATOM      1  C1  UNL d   1       0.370  -0.039  -0.487  0.00  0.00     0.143 A 
ATOM      2  C2  UNL d   1      -0.418  -0.464   0.588  0.00  0.00    -0.057 A 
ATOM      3  C3  UNL d   1      -0.039  -0.206   1.911  0.00  0.00     0.033 A 
ATOM      4  C4  UNL d   1       1.153   0.458   2.183  0.00  0.00    -0.042 A 
ATOM      5  C5  UNL d   1       1.964   0.866   1.130  0.00  0.00     0.033 A 
ATOM      6  C6  UNL d   1       1.577   0.612  -0.189  0.00  0.00    -0.057 A 
ENDROOT
BRANCH   1   7
ATOM      7  N   UNL d   1       0.097  -0.351  -1.822  0.00  0.00    -0.732 N 
ATOM      8  C   UNL d   1       1.111  -0.954  -2.660  0.00  0.00     0.284 C 
ATOM      9  H3  UNL d   1      -0.833  -0.745  -1.946  0.00  0.00     0.395 HD
ENDBRANCH   1   7
TORSDOF 1
ENDMDL
