MODEL 1
REMARK minimizedAffinity -2.40107989
REMARK minimizedRMSD -1
REMARK  1 active torsions:
REMARK  status: ('A' for Active; 'I' for Inactive)
REMARK    1  A    between atoms: N_2  and  C1_3 
ROOT
ATOM      1  C1  UNL d   1       0.335   0.088  -0.473  0.00  0.00     0.143 A 
ATOM      2  C2  UNL d   1       1.113   0.020   0.688  0.00  0.00    -0.057 A 
ATOM      3  C3  UNL d   1       0.533   0.114   1.958  0.00  0.00     0.033 A 
ATOM      4  C4  UNL d   1      -0.839   0.306   2.090  0.00  0.00    -0.042 A 
ATOM      5  C5  UNL d   1      -1.629   0.401   0.950  0.00  0.00     0.033 A 
ATOM      6  C6  UNL d   1      -1.044   0.300  -0.316  0.00  0.00    -0.057 A 
ENDROOT
BRANCH   1   7
ATOM      7  N   UNL d   1       0.865   0.100  -1.765  0.00  0.00    -0.732 N 
ATOM      8  C   UNL d   1       1.007  -1.129  -2.515  0.00  0.00     0.284 C 
ATOM      9  H3  UNL d   1       0.527   0.886  -2.316  0.00  0.00     0.395 HD
ENDBRANCH   1   7
TORSDOF 1
ENDMDL
