MODEL 1
REMARK minimizedAffinity -2.59716082
REMARK minimizedRMSD -1
REMARK  1 active torsions:
REMARK  status: ('A' for Active; 'I' for Inactive)
REMARK    1  A    between atoms: N_2  and  C1_3 
ROOT
ATOM      1  C1  UNL d   1       0.611  -0.264  -1.256  0.00  0.00     0.143 A 
ATOM      2  C2  UNL d   1       1.451  -0.240  -0.137  0.00  0.00    -0.057 A 
ATOM      3  C3  UNL d   1       0.948   0.020   1.143  0.00  0.00     0.033 A 
ATOM      4  C4  UNL d   1      -0.405   0.288   1.325  0.00  0.00    -0.042 A 
ATOM      5  C5  UNL d   1      -1.254   0.294   0.224  0.00  0.00     0.033 A 
ATOM      6  C6  UNL d   1      -0.747   0.028  -1.051  0.00  0.00    -0.057 A 
ENDROOT
BRANCH   1   7
ATOM      7  N   UNL d   1       1.066  -0.418  -2.567  0.00  0.00    -0.732 N 
ATOM      8  C   UNL d   1       1.198  -1.735  -3.152  0.00  0.00     0.284 C 
ATOM      9  H3  UNL d   1       0.677   0.280  -3.198  0.00  0.00     0.395 HD
ENDBRANCH   1   7
TORSDOF 1
ENDMDL
