MODEL 1
REMARK minimizedAffinity 9.29305935
REMARK minimizedRMSD -1
REMARK  0 active torsions:
REMARK  status: ('A' for Active; 'I' for Inactive)
ROOT
ATOM      1  C4' PXY d   1      -0.051   3.728  -5.879  0.00  0.00     0.077 C 
ATOM      2  C1' PXY d   1       5.398   5.659  -5.940  0.00  0.00     0.077 C 
ATOM      3  C1  PXY d   1       3.973   5.141  -5.929  0.00  0.00    -0.082 A 
ATOM      4  C2  PXY d   1       2.965   5.999  -5.943  0.00  0.00     0.003 A 
ATOM      5  C3  PXY d   1       1.671   5.548  -5.901  0.00  0.00     0.003 A 
ATOM      6  C4  PXY d   1       1.404   4.206  -5.898  0.00  0.00    -0.082 A 
ATOM      7  C5  PXY d   1       2.426   3.324  -5.895  0.00  0.00     0.003 A 
ATOM      8  C6  PXY d   1       3.734   3.802  -5.896  0.00  0.00     0.003 A 
ENDROOT
TORSDOF 0
ENDMDL
