MODEL 1
REMARK minimizedAffinity -0.33948648
REMARK minimizedRMSD -1
REMARK  0 active torsions:
REMARK  status: ('A' for Active; 'I' for Inactive)
ROOT
ATOM      1  C4' PXY d   1       3.847   0.319   2.243  0.00  0.00     0.077 C 
ATOM      2  C1' PXY d   1       4.436   3.860  -2.288  0.00  0.00     0.077 C 
ATOM      3  C1  PXY d   1       4.276   2.941  -1.093  0.00  0.00    -0.082 A 
ATOM      4  C2  PXY d   1       5.109   1.926  -0.932  0.00  0.00     0.003 A 
ATOM      5  C3  PXY d   1       4.959   1.066   0.126  0.00  0.00     0.003 A 
ATOM      6  C4  PXY d   1       3.977   1.278   1.056  0.00  0.00    -0.082 A 
ATOM      7  C5  PXY d   1       3.129   2.317   0.905  0.00  0.00     0.003 A 
ATOM      8  C6  PXY d   1       3.273   3.155  -0.198  0.00  0.00     0.003 A 
ENDROOT
TORSDOF 0
ENDMDL
