MODEL 1
REMARK minimizedAffinity 8.34747601
REMARK minimizedRMSD -1
REMARK  0 active torsions:
REMARK  status: ('A' for Active; 'I' for Inactive)
ROOT
ATOM      1  C4' PXY d   1      -1.211  -1.212   2.600  0.00  0.00     0.077 C 
ATOM      2  C1' PXY d   1      -2.038  -2.085  -3.054  0.00  0.00     0.077 C 
ATOM      3  C1  PXY d   1      -1.813  -1.866  -1.571  0.00  0.00    -0.082 A 
ATOM      4  C2  PXY d   1      -2.738  -1.250  -0.853  0.00  0.00     0.003 A 
ATOM      5  C3  PXY d   1      -2.537  -1.016   0.483  0.00  0.00     0.003 A 
ATOM      6  C4  PXY d   1      -1.400  -1.463   1.102  0.00  0.00    -0.082 A 
ATOM      7  C5  PXY d   1      -0.456  -2.102   0.378  0.00  0.00     0.003 A 
ATOM      8  C6  PXY d   1      -0.661  -2.294  -0.985  0.00  0.00     0.003 A 
ENDROOT
TORSDOF 0
ENDMDL
