MODEL 1
REMARK minimizedAffinity 0.0862190127
REMARK minimizedRMSD -1
REMARK  0 active torsions:
REMARK  status: ('A' for Active; 'I' for Inactive)
ROOT
ATOM      1  C4' PXY d   1       4.610   6.000  -6.000  0.00  0.00     0.077 C 
ATOM      2  C1' PXY d   1       0.021   4.035  -3.085  0.00  0.00     0.077 C 
ATOM      3  C1  PXY d   1       1.220   4.545  -3.860  0.00  0.00    -0.082 A 
ATOM      4  C2  PXY d   1       2.341   4.833  -3.217  0.00  0.00     0.003 A 
ATOM      5  C3  PXY d   1       3.424   5.325  -3.899  0.00  0.00     0.003 A 
ATOM      6  C4  PXY d   1       3.378   5.474  -5.259  0.00  0.00    -0.082 A 
ATOM      7  C5  PXY d   1       2.242   5.172  -5.923  0.00  0.00     0.003 A 
ATOM      8  C6  PXY d   1       1.140   4.713  -5.208  0.00  0.00     0.003 A 
ENDROOT
TORSDOF 0
ENDMDL
