MODEL 1
REMARK minimizedAffinity -1.82532394
REMARK minimizedRMSD -1
REMARK  0 active torsions:
REMARK  status: ('A' for Active; 'I' for Inactive)
ROOT
ATOM      1  C4' PXY d   1      -2.595  -1.894   0.250  0.00  0.00     0.077 C 
ATOM      2  C1' PXY d   1      -2.733  -3.749  -5.223  0.00  0.00     0.077 C 
ATOM      3  C1  PXY d   1      -2.708  -3.269  -3.785  0.00  0.00    -0.082 A 
ATOM      4  C2  PXY d   1      -2.057  -2.159  -3.477  0.00  0.00     0.003 A 
ATOM      5  C3  PXY d   1      -1.997  -1.728  -2.177  0.00  0.00     0.003 A 
ATOM      6  C4  PXY d   1      -2.655  -2.411  -1.190  0.00  0.00    -0.082 A 
ATOM      7  C5  PXY d   1      -3.330  -3.538  -1.497  0.00  0.00     0.003 A 
ATOM      8  C6  PXY d   1      -3.345  -3.982  -2.817  0.00  0.00     0.003 A 
ENDROOT
TORSDOF 0
ENDMDL
