MODEL 1
REMARK minimizedAffinity 17.3755131
REMARK minimizedRMSD -1
REMARK  0 active torsions:
REMARK  status: ('A' for Active; 'I' for Inactive)
ROOT
ATOM      1  C4' PXY d   1      -2.266  -1.487  -0.471  0.00  0.00     0.077 C 
ATOM      2  C1' PXY d   1      -2.233  -3.175  -6.000  0.00  0.00     0.077 C 
ATOM      3  C1  PXY d   1      -2.230  -2.728  -4.551  0.00  0.00    -0.082 A 
ATOM      4  C2  PXY d   1      -3.022  -3.329  -3.679  0.00  0.00     0.003 A 
ATOM      5  C3  PXY d   1      -3.055  -2.916  -2.372  0.00  0.00     0.003 A 
ATOM      6  C4  PXY d   1      -2.229  -1.912  -1.942  0.00  0.00    -0.082 A 
ATOM      7  C5  PXY d   1      -1.410  -1.301  -2.823  0.00  0.00     0.003 A 
ATOM      8  C6  PXY d   1      -1.421  -1.708  -4.154  0.00  0.00     0.003 A 
ENDROOT
TORSDOF 0
ENDMDL
