MODEL 1
REMARK minimizedAffinity 6.09628534
REMARK minimizedRMSD -1
REMARK  0 active torsions:
REMARK  status: ('A' for Active; 'I' for Inactive)
ROOT
ATOM      1  C4' PXY d   1       0.147   6.000  -2.898  0.00  0.00     0.077 C 
ATOM      2  C1' PXY d   1       3.911   2.895  -5.998  0.00  0.00     0.077 C 
ATOM      3  C1  PXY d   1       2.932   3.719  -5.185  0.00  0.00    -0.082 A 
ATOM      4  C2  PXY d   1       2.011   3.110  -4.457  0.00  0.00     0.003 A 
ATOM      5  C3  PXY d   1       1.098   3.840  -3.741  0.00  0.00     0.003 A 
ATOM      6  C4  PXY d   1       1.162   5.208  -3.728  0.00  0.00    -0.082 A 
ATOM      7  C5  PXY d   1       2.106   5.837  -4.459  0.00  0.00     0.003 A 
ATOM      8  C6  PXY d   1       2.997   5.078  -5.212  0.00  0.00     0.003 A 
ENDROOT
TORSDOF 0
ENDMDL
