MODEL 1
REMARK minimizedAffinity 2.58439302
REMARK minimizedRMSD -1
REMARK  0 active torsions:
REMARK  status: ('A' for Active; 'I' for Inactive)
ROOT
ATOM      1  C4' PXY d   1      -1.915  -1.567  -0.794  0.00  0.00     0.077 C 
ATOM      2  C1' PXY d   1      -2.978  -3.844  -6.000  0.00  0.00     0.077 C 
ATOM      3  C1  PXY d   1      -2.689  -3.240  -4.640  0.00  0.00    -0.082 A 
ATOM      4  C2  PXY d   1      -3.069  -3.880  -3.546  0.00  0.00     0.003 A 
ATOM      5  C3  PXY d   1      -2.845  -3.333  -2.309  0.00  0.00     0.003 A 
ATOM      6  C4  PXY d   1      -2.177  -2.144  -2.188  0.00  0.00    -0.082 A 
ATOM      7  C5  PXY d   1      -1.777  -1.490  -3.299  0.00  0.00     0.003 A 
ATOM      8  C6  PXY d   1      -2.051  -2.042  -4.547  0.00  0.00     0.003 A 
ENDROOT
TORSDOF 0
ENDMDL
