MODEL 1
REMARK minimizedAffinity 6.61144161
REMARK minimizedRMSD -1
REMARK  0 active torsions:
REMARK  status: ('A' for Active; 'I' for Inactive)
ROOT
ATOM      1  C4' PXY d   1      -0.004  -2.260  -1.313  0.00  0.00     0.077 C 
ATOM      2  C1' PXY d   1      -3.014  -3.808  -5.999  0.00  0.00     0.077 C 
ATOM      3  C1  PXY d   1      -2.214  -3.400  -4.777  0.00  0.00    -0.082 A 
ATOM      4  C2  PXY d   1      -2.581  -3.831  -3.581  0.00  0.00     0.003 A 
ATOM      5  C3  PXY d   1      -1.888  -3.446  -2.463  0.00  0.00     0.003 A 
ATOM      6  C4  PXY d   1      -0.776  -2.655  -2.575  0.00  0.00    -0.082 A 
ATOM      7  C5  PXY d   1      -0.389  -2.220  -3.793  0.00  0.00     0.003 A 
ATOM      8  C6  PXY d   1      -1.131  -2.589  -4.912  0.00  0.00     0.003 A 
ENDROOT
TORSDOF 0
ENDMDL
