MODEL 1
REMARK minimizedAffinity 6.43007326
REMARK minimizedRMSD -1
REMARK  0 active torsions:
REMARK  status: ('A' for Active; 'I' for Inactive)
ROOT
ATOM      1  C4' PXY d   1       4.038  -0.446   0.977  0.00  0.00     0.077 C 
ATOM      2  C1' PXY d   1       0.039  -0.199   5.143  0.00  0.00     0.077 C 
ATOM      3  C1  PXY d   1       1.098  -0.263   4.060  0.00  0.00    -0.082 A 
ATOM      4  C2  PXY d   1       0.814   0.171   2.842  0.00  0.00     0.003 A 
ATOM      5  C3  PXY d   1       1.749   0.090   1.842  0.00  0.00     0.003 A 
ATOM      6  C4  PXY d   1       3.004  -0.391   2.104  0.00  0.00    -0.082 A 
ATOM      7  C5  PXY d   1       3.304  -0.826   3.347  0.00  0.00     0.003 A 
ATOM      8  C6  PXY d   1       2.328  -0.774   4.338  0.00  0.00     0.003 A 
ENDROOT
TORSDOF 0
ENDMDL
