MODEL 1
REMARK minimizedAffinity 11.1683598
REMARK minimizedRMSD -1
REMARK  0 active torsions:
REMARK  status: ('A' for Active; 'I' for Inactive)
ROOT
ATOM      1  C4' PXY d   1       5.480   1.123  -1.897  0.00  0.00     0.077 C 
ATOM      2  C1' PXY d   1       1.881   3.029  -6.000  0.00  0.00     0.077 C 
ATOM      3  C1  PXY d   1       2.824   2.541  -4.918  0.00  0.00    -0.082 A 
ATOM      4  C2  PXY d   1       3.645   1.534  -5.171  0.00  0.00     0.003 A 
ATOM      5  C3  PXY d   1       4.482   1.059  -4.195  0.00  0.00     0.003 A 
ATOM      6  C4  PXY d   1       4.517   1.655  -2.962  0.00  0.00    -0.082 A 
ATOM      7  C5  PXY d   1       3.690   2.689  -2.700  0.00  0.00     0.003 A 
ATOM      8  C6  PXY d   1       2.819   3.130  -3.692  0.00  0.00     0.003 A 
ENDROOT
TORSDOF 0
ENDMDL
