MODEL 1
REMARK minimizedAffinity 7.0916028
REMARK minimizedRMSD -1
REMARK  0 active torsions:
REMARK  status: ('A' for Active; 'I' for Inactive)
ROOT
ATOM      1  C4' PXY d   1      -2.226  -0.606   3.028  0.00  0.00     0.077 C 
ATOM      2  C1' PXY d   1      -0.009  -5.376   0.630  0.00  0.00     0.077 C 
ATOM      3  C1  PXY d   1      -0.599  -4.132   1.266  0.00  0.00    -0.082 A 
ATOM      4  C2  PXY d   1      -0.497  -2.969   0.644  0.00  0.00     0.003 A 
ATOM      5  C3  PXY d   1      -0.997  -1.829   1.219  0.00  0.00     0.003 A 
ATOM      6  C4  PXY d   1      -1.654  -1.889   2.419  0.00  0.00    -0.082 A 
ATOM      7  C5  PXY d   1      -1.771  -3.074   3.055  0.00  0.00     0.003 A 
ATOM      8  C6  PXY d   1      -1.221  -4.213   2.473  0.00  0.00     0.003 A 
ENDROOT
TORSDOF 0
ENDMDL
