MODEL 1
REMARK minimizedAffinity 5.54178476
REMARK minimizedRMSD -1
REMARK  0 active torsions:
REMARK  status: ('A' for Active; 'I' for Inactive)
ROOT
ATOM      1  C4' PXY d   1      -1.503  -1.862   2.775  0.00  0.00     0.077 C 
ATOM      2  C1' PXY d   1      -1.651  -2.635  -2.952  0.00  0.00     0.077 C 
ATOM      3  C1  PXY d   1      -1.601  -2.440  -1.449  0.00  0.00    -0.082 A 
ATOM      4  C2  PXY d   1      -2.713  -2.159  -0.789  0.00  0.00     0.003 A 
ATOM      5  C3  PXY d   1      -2.681  -1.948   0.565  0.00  0.00     0.003 A 
ATOM      6  C4  PXY d   1      -1.507  -2.077   1.259  0.00  0.00    -0.082 A 
ATOM      7  C5  PXY d   1      -0.371  -2.373   0.594  0.00  0.00     0.003 A 
ATOM      8  C6  PXY d   1      -0.417  -2.543  -0.787  0.00  0.00     0.003 A 
ENDROOT
TORSDOF 0
ENDMDL
