MODEL 1
REMARK minimizedAffinity -0.468063474
REMARK minimizedRMSD -1
REMARK  0 active torsions:
REMARK  status: ('A' for Active; 'I' for Inactive)
ROOT
ATOM      1  C4' PXY d   1      -1.083  -2.071  -1.301  0.00  0.00     0.077 C 
ATOM      2  C1' PXY d   1      -5.815  -5.373  -0.949  0.00  0.00     0.077 C 
ATOM      3  C1  PXY d   1      -4.581  -4.497  -1.036  0.00  0.00    -0.082 A 
ATOM      4  C2  PXY d   1      -3.649  -4.767  -1.935  0.00  0.00     0.003 A 
ATOM      5  C3  PXY d   1      -2.511  -4.005  -2.006  0.00  0.00     0.003 A 
ATOM      6  C4  PXY d   1      -2.351  -2.922  -1.184  0.00  0.00    -0.082 A 
ATOM      7  C5  PXY d   1      -3.302  -2.633  -0.271  0.00  0.00     0.003 A 
ATOM      8  C6  PXY d   1      -4.430  -3.444  -0.187  0.00  0.00     0.003 A 
ENDROOT
TORSDOF 0
ENDMDL
