MODEL 1
REMARK minimizedAffinity 11.3866625
REMARK minimizedRMSD -1
REMARK  0 active torsions:
REMARK  status: ('A' for Active; 'I' for Inactive)
ROOT
ATOM      1  C4' PXY d   1      -1.028  -2.650  -0.364  0.00  0.00     0.077 C 
ATOM      2  C1' PXY d   1       0.405   1.126   3.772  0.00  0.00     0.077 C 
ATOM      3  C1  PXY d   1       0.022   0.129   2.696  0.00  0.00    -0.082 A 
ATOM      4  C2  PXY d   1       0.800  -0.022   1.637  0.00  0.00     0.003 A 
ATOM      5  C3  PXY d   1       0.453  -0.895   0.639  0.00  0.00     0.003 A 
ATOM      6  C4  PXY d   1      -0.676  -1.662   0.751  0.00  0.00    -0.082 A 
ATOM      7  C5  PXY d   1      -1.470  -1.522   1.834  0.00  0.00     0.003 A 
ATOM      8  C6  PXY d   1      -1.121  -0.600   2.816  0.00  0.00     0.003 A 
ENDROOT
TORSDOF 0
ENDMDL
