MODEL 1
REMARK minimizedAffinity 4.43718004
REMARK minimizedRMSD -1
REMARK  0 active torsions:
REMARK  status: ('A' for Active; 'I' for Inactive)
ROOT
ATOM      1  C4' PXY d   1       1.101   6.000  -5.025  0.00  0.00     0.077 C 
ATOM      2  C1' PXY d   1       3.706   0.932  -5.998  0.00  0.00     0.077 C 
ATOM      3  C1  PXY d   1       3.032   2.264  -5.734  0.00  0.00    -0.082 A 
ATOM      4  C2  PXY d   1       1.743   2.409  -5.999  0.00  0.00     0.003 A 
ATOM      5  C3  PXY d   1       1.125   3.616  -5.796  0.00  0.00     0.003 A 
ATOM      6  C4  PXY d   1       1.821   4.670  -5.267  0.00  0.00    -0.082 A 
ATOM      7  C5  PXY d   1       3.133   4.527  -4.984  0.00  0.00     0.003 A 
ATOM      8  C6  PXY d   1       3.751   3.306  -5.236  0.00  0.00     0.003 A 
ENDROOT
TORSDOF 0
ENDMDL
