MODEL 1
REMARK minimizedAffinity 20.9553642
REMARK minimizedRMSD -1
REMARK  0 active torsions:
REMARK  status: ('A' for Active; 'I' for Inactive)
ROOT
ATOM      1  C4' PXY d   1      -1.019  -1.886  -0.552  0.00  0.00     0.077 C 
ATOM      2  C1' PXY d   1      -2.761  -2.726  -6.000  0.00  0.00     0.077 C 
ATOM      3  C1  PXY d   1      -2.317  -2.505  -4.568  0.00  0.00    -0.082 A 
ATOM      4  C2  PXY d   1      -1.113  -2.012  -4.325  0.00  0.00     0.003 A 
ATOM      5  C3  PXY d   1      -0.683  -1.836  -3.035  0.00  0.00     0.003 A 
ATOM      6  C4  PXY d   1      -1.514  -2.117  -1.983  0.00  0.00    -0.082 A 
ATOM      7  C5  PXY d   1      -2.747  -2.610  -2.223  0.00  0.00     0.003 A 
ATOM      8  C6  PXY d   1      -3.149  -2.821  -3.539  0.00  0.00     0.003 A 
ENDROOT
TORSDOF 0
ENDMDL
