MODEL 1
REMARK minimizedAffinity 4.44122648
REMARK minimizedRMSD -1
REMARK  0 active torsions:
REMARK  status: ('A' for Active; 'I' for Inactive)
ROOT
ATOM      1  C4' PXY d   1      -2.909  -3.395  -5.999  0.00  0.00     0.077 C 
ATOM      2  C1' PXY d   1      -2.992  -1.770  -0.452  0.00  0.00     0.077 C 
ATOM      3  C1  PXY d   1      -2.979  -2.204  -1.904  0.00  0.00    -0.082 A 
ATOM      4  C2  PXY d   1      -1.891  -2.018  -2.634  0.00  0.00     0.003 A 
ATOM      5  C3  PXY d   1      -1.874  -2.377  -3.957  0.00  0.00     0.003 A 
ATOM      6  C4  PXY d   1      -2.964  -2.980  -4.526  0.00  0.00    -0.082 A 
ATOM      7  C5  PXY d   1      -4.074  -3.183  -3.785  0.00  0.00     0.003 A 
ATOM      8  C6  PXY d   1      -4.085  -2.775  -2.455  0.00  0.00     0.003 A 
ENDROOT
TORSDOF 0
ENDMDL
