MODEL 1
REMARK minimizedAffinity 2.15797043
REMARK minimizedRMSD -1
REMARK  0 active torsions:
REMARK  status: ('A' for Active; 'I' for Inactive)
ROOT
ATOM      1  C4' PXY d   1       1.770   5.999  -6.000  0.00  0.00     0.077 C 
ATOM      2  C1' PXY d   1       5.707   3.072  -2.942  0.00  0.00     0.077 C 
ATOM      3  C1  PXY d   1       4.680   3.835  -3.755  0.00  0.00    -0.082 A 
ATOM      4  C2  PXY d   1       4.086   4.894  -3.230  0.00  0.00     0.003 A 
ATOM      5  C3  PXY d   1       3.131   5.577  -3.939  0.00  0.00     0.003 A 
ATOM      6  C4  PXY d   1       2.820   5.204  -5.219  0.00  0.00    -0.082 A 
ATOM      7  C5  PXY d   1       3.430   4.131  -5.766  0.00  0.00     0.003 A 
ATOM      8  C6  PXY d   1       4.366   3.427  -5.014  0.00  0.00     0.003 A 
ENDROOT
TORSDOF 0
ENDMDL
