MODEL 1
REMARK minimizedAffinity 12.9473553
REMARK minimizedRMSD -1
REMARK  0 active torsions:
REMARK  status: ('A' for Active; 'I' for Inactive)
ROOT
ATOM      1  C4' PXY d   1       0.521   0.354   3.191  0.00  0.00     0.077 C 
ATOM      2  C1' PXY d   1       4.291   2.826  -0.427  0.00  0.00     0.077 C 
ATOM      3  C1  PXY d   1       3.306   2.166   0.518  0.00  0.00    -0.082 A 
ATOM      4  C2  PXY d   1       2.248   2.841   0.937  0.00  0.00     0.003 A 
ATOM      5  C3  PXY d   1       1.364   2.271   1.816  0.00  0.00     0.003 A 
ATOM      6  C4  PXY d   1       1.537   0.977   2.230  0.00  0.00    -0.082 A 
ATOM      7  C5  PXY d   1       2.608   0.277   1.798  0.00  0.00     0.003 A 
ATOM      8  C6  PXY d   1       3.515   0.889   0.938  0.00  0.00     0.003 A 
ENDROOT
TORSDOF 0
ENDMDL
