MODEL 1
REMARK minimizedAffinity -2.46685481
REMARK minimizedRMSD -1
REMARK  1 active torsions:
REMARK  status: ('A' for Active; 'I' for Inactive)
REMARK    1  A    between atoms: C1_2  and  C2_3 
ROOT
ATOM      1  C2  UNL d   1      -0.044  -1.423   0.882  0.00  0.00    -0.073 A 
ATOM      2  C3  UNL d   1       1.051  -2.159   1.350  0.00  0.00    -0.002 A 
ATOM      3  C4  UNL d   1       2.345  -1.834   0.941  0.00  0.00     0.004 A 
ATOM      4  C5  UNL d   1       2.558  -0.767   0.067  0.00  0.00    -0.004 A 
ATOM      5  C6  UNL d   1       1.478  -0.013  -0.401  0.00  0.00    -0.075 A 
ATOM      6  C7  UNL d   1       1.690   1.136  -1.343  0.00  0.00     0.076 C 
ATOM      7  C8  UNL d   1       0.181  -0.347   0.012  0.00  0.00     0.001 A 
ENDROOT
BRANCH   1   8
ATOM      8  C1  UNL d   1      -1.443  -1.766   1.326  0.00  0.00     0.053 C 
ATOM      9  C   UNL d   1      -1.908  -0.887   2.476  0.00  0.00     0.018 C 
ENDBRANCH   1   8
TORSDOF 1
ENDMDL
