MODEL 1
REMARK minimizedAffinity -4.29897308
REMARK minimizedRMSD -1
REMARK  1 active torsions:
REMARK  status: ('A' for Active; 'I' for Inactive)
REMARK    1  A    between atoms: C1_2  and  C2_3 
ROOT
ATOM      1  C2  UNL d   1       0.282   0.405  -0.109  0.00  0.00    -0.073 A 
ATOM      2  C3  UNL d   1       1.410   0.642  -0.903  0.00  0.00    -0.002 A 
ATOM      3  C4  UNL d   1       2.467  -0.269  -0.917  0.00  0.00     0.004 A 
ATOM      4  C5  UNL d   1       2.404  -1.430  -0.146  0.00  0.00    -0.004 A 
ATOM      5  C6  UNL d   1       1.280  -1.691   0.644  0.00  0.00    -0.075 A 
ATOM      6  C7  UNL d   1       1.197  -2.933   1.482  0.00  0.00     0.076 C 
ATOM      7  C8  UNL d   1       0.224  -0.769   0.656  0.00  0.00     0.001 A 
ENDROOT
BRANCH   1   8
ATOM      8  C1  UNL d   1      -0.864   1.383  -0.095  0.00  0.00     0.053 C 
ATOM      9  C   UNL d   1      -1.249   1.830  -1.496  0.00  0.00     0.018 C 
ENDBRANCH   1   8
TORSDOF 1
ENDMDL
