MODEL 1
REMARK minimizedAffinity -5.62606144
REMARK minimizedRMSD -1
REMARK  1 active torsions:
REMARK  status: ('A' for Active; 'I' for Inactive)
REMARK    1  A    between atoms: C1_2  and  C2_3 
ROOT
ATOM      1  C2  UNL d   1      -0.052   0.613  -0.316  0.00  0.00    -0.073 A 
ATOM      2  C3  UNL d   1       1.145   1.026  -0.912  0.00  0.00    -0.002 A 
ATOM      3  C4  UNL d   1       2.299   0.251  -0.787  0.00  0.00     0.004 A 
ATOM      4  C5  UNL d   1       2.267  -0.945  -0.071  0.00  0.00    -0.004 A 
ATOM      5  C6  UNL d   1       1.078  -1.381   0.522  0.00  0.00    -0.075 A 
ATOM      6  C7  UNL d   1       1.027  -2.665   1.298  0.00  0.00     0.076 C 
ATOM      7  C8  UNL d   1      -0.076  -0.596   0.394  0.00  0.00     0.001 A 
ENDROOT
BRANCH   1   8
ATOM      8  C1  UNL d   1      -1.302   1.442  -0.454  0.00  0.00     0.053 C 
ATOM      9  C   UNL d   1      -1.657   1.700  -1.910  0.00  0.00     0.018 C 
ENDBRANCH   1   8
TORSDOF 1
ENDMDL
