MODEL 1
REMARK minimizedAffinity 1.1153605
REMARK minimizedRMSD -1
REMARK  1 active torsions:
REMARK  status: ('A' for Active; 'I' for Inactive)
REMARK    1  A    between atoms: C1_2  and  C2_3 
ROOT
ATOM      1  C2  UNL d   1       1.808  -1.370   1.208  0.00  0.00    -0.073 A 
ATOM      2  C3  UNL d   1       2.108  -0.221   0.466  0.00  0.00    -0.002 A 
ATOM      3  C4  UNL d   1       1.083   0.546  -0.089  0.00  0.00     0.004 A 
ATOM      4  C5  UNL d   1      -0.250   0.178   0.096  0.00  0.00    -0.004 A 
ATOM      5  C6  UNL d   1      -0.569  -0.960   0.845  0.00  0.00    -0.075 A 
ATOM      6  C7  UNL d   1      -1.998  -1.371   1.052  0.00  0.00     0.076 C 
ATOM      7  C8  UNL d   1       0.465  -1.727   1.397  0.00  0.00     0.001 A 
ENDROOT
BRANCH   1   8
ATOM      8  C1  UNL d   1       2.911  -2.198   1.816  0.00  0.00     0.053 C 
ATOM      9  C   UNL d   1       3.727  -1.407   2.826  0.00  0.00     0.018 C 
ENDBRANCH   1   8
TORSDOF 1
ENDMDL
