MODEL 1
REMARK minimizedAffinity -4.27914667
REMARK minimizedRMSD -1
REMARK  1 active torsions:
REMARK  status: ('A' for Active; 'I' for Inactive)
REMARK    1  A    between atoms: C1_2  and  C2_3 
ROOT
ATOM      1  C2  UNL d   1       0.024   0.748  -0.518  0.00  0.00    -0.073 A 
ATOM      2  C3  UNL d   1       1.367   0.394  -0.686  0.00  0.00    -0.002 A 
ATOM      3  C4  UNL d   1       1.911  -0.671   0.034  0.00  0.00     0.004 A 
ATOM      4  C5  UNL d   1       1.117  -1.396   0.923  0.00  0.00    -0.004 A 
ATOM      5  C6  UNL d   1      -0.231  -1.065   1.095  0.00  0.00    -0.075 A 
ATOM      6  C7  UNL d   1      -1.098  -1.833   2.049  0.00  0.00     0.076 C 
ATOM      7  C8  UNL d   1      -0.769   0.007   0.370  0.00  0.00     0.001 A 
ENDROOT
BRANCH   1   8
ATOM      8  C1  UNL d   1      -0.570   1.892  -1.298  0.00  0.00     0.053 C 
ATOM      9  C   UNL d   1      -1.835   1.484  -2.036  0.00  0.00     0.018 C 
ENDBRANCH   1   8
TORSDOF 1
ENDMDL
