MODEL 1
REMARK minimizedAffinity -3.61355543
REMARK minimizedRMSD -1
REMARK  1 active torsions:
REMARK  status: ('A' for Active; 'I' for Inactive)
REMARK    1  A    between atoms: C1_2  and  C2_3 
ROOT
ATOM      1  C2  UNL d   1       0.508  -1.414   0.919  0.00  0.00    -0.073 A 
ATOM      2  C3  UNL d   1      -0.734  -1.615   1.532  0.00  0.00    -0.002 A 
ATOM      3  C4  UNL d   1      -1.740  -0.655   1.418  0.00  0.00     0.004 A 
ATOM      4  C5  UNL d   1      -1.518   0.510   0.684  0.00  0.00    -0.004 A 
ATOM      5  C6  UNL d   1      -0.288   0.724   0.054  0.00  0.00    -0.075 A 
ATOM      6  C7  UNL d   1      -0.033   1.973  -0.737  0.00  0.00     0.076 C 
ATOM      7  C8  UNL d   1       0.718  -0.244   0.176  0.00  0.00     0.001 A 
ENDROOT
BRANCH   1   8
ATOM      8  C1  UNL d   1       1.596  -2.451   1.034  0.00  0.00     0.053 C 
ATOM      9  C   UNL d   1       1.101  -3.724   1.703  0.00  0.00     0.018 C 
ENDBRANCH   1   8
TORSDOF 1
ENDMDL
