MODEL 1
REMARK minimizedAffinity -1.41710794
REMARK minimizedRMSD -1
REMARK  1 active torsions:
REMARK  status: ('A' for Active; 'I' for Inactive)
REMARK    1  A    between atoms: C1_2  and  C2_3 
ROOT
ATOM      1  C2  UNL d   1      -1.237   0.769  -1.049  0.00  0.00    -0.073 A 
ATOM      2  C3  UNL d   1      -0.015   1.447  -0.974  0.00  0.00    -0.002 A 
ATOM      3  C4  UNL d   1       0.990   0.995  -0.117  0.00  0.00     0.004 A 
ATOM      4  C5  UNL d   1       0.787  -0.141   0.666  0.00  0.00    -0.004 A 
ATOM      5  C6  UNL d   1      -0.422  -0.839   0.595  0.00  0.00    -0.075 A 
ATOM      6  C7  UNL d   1      -0.657  -2.062   1.432  0.00  0.00     0.076 C 
ATOM      7  C8  UNL d   1      -1.428  -0.378  -0.265  0.00  0.00     0.001 A 
ENDROOT
BRANCH   1   8
ATOM      8  C1  UNL d   1      -2.322   1.250  -1.977  0.00  0.00     0.053 C 
ATOM      9  C   UNL d   1      -1.779   1.616  -3.349  0.00  0.00     0.018 C 
ENDBRANCH   1   8
TORSDOF 1
ENDMDL
