MODEL 1
REMARK minimizedAffinity -4.06540823
REMARK minimizedRMSD -1
REMARK  1 active torsions:
REMARK  status: ('A' for Active; 'I' for Inactive)
REMARK    1  A    between atoms: C1_2  and  C2_3 
ROOT
ATOM      1  C2  UNL d   1      -1.019   0.499  -0.226  0.00  0.00    -0.073 A 
ATOM      2  C3  UNL d   1      -1.938   0.546   0.829  0.00  0.00    -0.002 A 
ATOM      3  C4  UNL d   1      -1.860  -0.376   1.874  0.00  0.00     0.004 A 
ATOM      4  C5  UNL d   1      -0.860  -1.348   1.879  0.00  0.00    -0.004 A 
ATOM      5  C6  UNL d   1       0.075  -1.404   0.840  0.00  0.00    -0.075 A 
ATOM      6  C7  UNL d   1       1.155  -2.445   0.829  0.00  0.00     0.076 C 
ATOM      7  C8  UNL d   1      -0.012  -0.476  -0.207  0.00  0.00     0.001 A 
ENDROOT
BRANCH   1   8
ATOM      8  C1  UNL d   1      -1.096   1.496  -1.353  0.00  0.00     0.053 C 
ATOM      9  C   UNL d   1      -2.258   1.209  -2.290  0.00  0.00     0.018 C 
ENDBRANCH   1   8
TORSDOF 1
ENDMDL
