MODEL 1
REMARK minimizedAffinity -3.02720642
REMARK minimizedRMSD -1
REMARK  1 active torsions:
REMARK  status: ('A' for Active; 'I' for Inactive)
REMARK    1  A    between atoms: C1_2  and  C2_3 
ROOT
ATOM      1  C2  UNL d   1      -0.581   0.068  -0.831  0.00  0.00    -0.073 A 
ATOM      2  C3  UNL d   1      -1.381   0.442   0.255  0.00  0.00    -0.002 A 
ATOM      3  C4  UNL d   1      -1.342  -0.289   1.443  0.00  0.00     0.004 A 
ATOM      4  C5  UNL d   1      -0.501  -1.395   1.560  0.00  0.00    -0.004 A 
ATOM      5  C6  UNL d   1       0.315  -1.777   0.490  0.00  0.00    -0.075 A 
ATOM      6  C7  UNL d   1       1.224  -2.966   0.598  0.00  0.00     0.076 C 
ATOM      7  C8  UNL d   1       0.268  -1.039  -0.701  0.00  0.00     0.001 A 
ENDROOT
BRANCH   1   8
ATOM      8  C1  UNL d   1      -0.615   0.859  -2.114  0.00  0.00     0.053 C 
ATOM      9  C   UNL d   1      -1.945   0.716  -2.836  0.00  0.00     0.018 C 
ENDBRANCH   1   8
TORSDOF 1
ENDMDL
