MODEL 1
REMARK minimizedAffinity -4.55263758
REMARK minimizedRMSD -1
REMARK  1 active torsions:
REMARK  status: ('A' for Active; 'I' for Inactive)
REMARK    1  A    between atoms: C1_2  and  C2_3 
ROOT
ATOM      1  C2  UNL d   1       0.117   0.359  -0.142  0.00  0.00    -0.073 A 
ATOM      2  C3  UNL d   1       1.304   0.852  -0.697  0.00  0.00    -0.002 A 
ATOM      3  C4  UNL d   1       2.465   0.079  -0.678  0.00  0.00     0.004 A 
ATOM      4  C5  UNL d   1       2.452  -1.195  -0.111  0.00  0.00    -0.004 A 
ATOM      5  C6  UNL d   1       1.273  -1.710   0.438  0.00  0.00    -0.075 A 
ATOM      6  C7  UNL d   1       1.242  -3.078   1.054  0.00  0.00     0.076 C 
ATOM      7  C8  UNL d   1       0.111  -0.927   0.417  0.00  0.00     0.001 A 
ENDROOT
BRANCH   1   8
ATOM      8  C1  UNL d   1      -1.141   1.187  -0.167  0.00  0.00     0.053 C 
ATOM      9  C   UNL d   1      -1.537   1.581  -1.581  0.00  0.00     0.018 C 
ENDBRANCH   1   8
TORSDOF 1
ENDMDL
