MODEL 1
REMARK minimizedAffinity -5.06526661
REMARK minimizedRMSD -1
REMARK  1 active torsions:
REMARK  status: ('A' for Active; 'I' for Inactive)
REMARK    1  A    between atoms: C1_2  and  C2_3 
ROOT
ATOM      1  C2  UNL d   1       0.783  -1.355   0.350  0.00  0.00    -0.073 A 
ATOM      2  C3  UNL d   1       1.181  -0.365  -0.555  0.00  0.00    -0.002 A 
ATOM      3  C4  UNL d   1       0.558   0.884  -0.552  0.00  0.00     0.004 A 
ATOM      4  C5  UNL d   1      -0.462   1.158   0.359  0.00  0.00    -0.004 A 
ATOM      5  C6  UNL d   1      -0.866   0.185   1.279  0.00  0.00    -0.075 A 
ATOM      6  C7  UNL d   1      -1.964   0.463   2.264  0.00  0.00     0.076 C 
ATOM      7  C8  UNL d   1      -0.238  -1.068   1.268  0.00  0.00     0.001 A 
ENDROOT
BRANCH   1   8
ATOM      8  C1  UNL d   1       1.457  -2.703   0.355  0.00  0.00     0.053 C 
ATOM      9  C   UNL d   1       1.879  -3.124   1.754  0.00  0.00     0.018 C 
ENDBRANCH   1   8
TORSDOF 1
ENDMDL
