MODEL 1
REMARK minimizedAffinity -3.21124077
REMARK minimizedRMSD -1
REMARK  0 active torsions:
REMARK  status: ('A' for Active; 'I' for Inactive)
ROOT
ATOM      1  C1  DEN d   1      -1.309  -0.992   1.589  0.00  0.00     0.130 A 
ATOM      2  C2  DEN d   1      -1.183  -0.857   0.140  0.00  0.00    -0.031 A 
ATOM      3  C3  DEN d   1      -0.391   0.358  -0.138  0.00  0.00     0.027 A 
ATOM      4  C4  DEN d   1       0.650   2.033   1.524  0.00  0.00     0.027 A 
ATOM      5  C5  DEN d   1       0.801   2.344   2.858  0.00  0.00    -0.003 A 
ATOM      6  C6  DEN d   1       0.236   1.590   3.852  0.00  0.00     0.001 A 
ATOM      7  C7  DEN d   1      -0.470   0.461   3.530  0.00  0.00     0.017 A 
ATOM      8  C8  DEN d   1      -0.633   0.145   2.188  0.00  0.00    -0.094 A 
ATOM      9  C9  DEN d   1      -0.044   0.913   1.198  0.00  0.00    -0.072 A 
ENDROOT
TORSDOF 0
ENDMDL
