MODEL 1
REMARK minimizedAffinity -0.465802252
REMARK minimizedRMSD -1
REMARK  0 active torsions:
REMARK  status: ('A' for Active; 'I' for Inactive)
ROOT
ATOM      1  C1  DEN d   1       1.169  -1.781   3.916  0.00  0.00     0.130 A 
ATOM      2  C2  DEN d   1       0.983  -1.222   5.252  0.00  0.00    -0.031 A 
ATOM      3  C3  DEN d   1       0.072  -0.065   5.141  0.00  0.00     0.027 A 
ATOM      4  C4  DEN d   1      -1.066   0.908   3.040  0.00  0.00     0.027 A 
ATOM      5  C5  DEN d   1      -1.201   0.779   1.676  0.00  0.00    -0.003 A 
ATOM      6  C6  DEN d   1      -0.535  -0.182   0.963  0.00  0.00     0.001 A 
ATOM      7  C7  DEN d   1       0.263  -1.083   1.619  0.00  0.00     0.017 A 
ATOM      8  C8  DEN d   1       0.410  -0.955   2.994  0.00  0.00    -0.094 A 
ATOM      9  C9  DEN d   1      -0.281   0.017   3.698  0.00  0.00    -0.072 A 
ENDROOT
TORSDOF 0
ENDMDL
