MODEL 1
REMARK minimizedAffinity 25.5242615
REMARK minimizedRMSD -1
REMARK  0 active torsions:
REMARK  status: ('A' for Active; 'I' for Inactive)
ROOT
ATOM      1  C   UNL d   1       1.352   0.928  -0.107  0.00  0.00     0.124 A 
ATOM      2  C1  UNL d   1       2.168   1.407   0.907  0.00  0.00     0.062 A 
ATOM      3  C2  UNL d   1       1.809   2.551   1.614  0.00  0.00     0.162 A 
ATOM      4  C3  UNL d   1       0.625   3.224   1.309  0.00  0.00    -0.034 A 
ATOM      5  C4  UNL d   1      -0.190   2.736   0.286  0.00  0.00     0.162 A 
ATOM      6  C5  UNL d   1       0.173   1.593  -0.417  0.00  0.00     0.062 A 
ATOM      7  F   UNL d   1      -0.617   1.131  -1.397  0.00  0.00    -0.097 F 
ATOM      8  F1  UNL d   1      -1.335   3.359  -0.033  0.00  0.00    -0.096 F 
ATOM      9  I   UNL d   1       0.084   4.935   2.363  0.00  0.00    -0.060 I 
ATOM     10  F2  UNL d   1       2.617   2.992   2.589  0.00  0.00    -0.096 F 
ATOM     11  F3  UNL d   1       3.307   0.767   1.208  0.00  0.00    -0.097 F 
ATOM     12  F4  UNL d   1       1.700  -0.173  -0.786  0.00  0.00    -0.092 F 
ENDROOT
TORSDOF 0
ENDMDL
