MODEL 1
REMARK minimizedAffinity 18.4481392
REMARK minimizedRMSD -1
REMARK  0 active torsions:
REMARK  status: ('A' for Active; 'I' for Inactive)
ROOT
ATOM      1  C   UNL d   1       2.636  -0.107   0.117  0.00  0.00     0.124 A 
ATOM      2  C1  UNL d   1       2.756  -0.154  -1.265  0.00  0.00     0.062 A 
ATOM      3  C2  UNL d   1       3.715   0.621  -1.911  0.00  0.00     0.162 A 
ATOM      4  C3  UNL d   1       4.562   1.450  -1.176  0.00  0.00    -0.034 A 
ATOM      5  C4  UNL d   1       4.435   1.492   0.214  0.00  0.00     0.162 A 
ATOM      6  C5  UNL d   1       3.475   0.716   0.855  0.00  0.00     0.062 A 
ATOM      7  F   UNL d   1       3.361   0.763   2.190  0.00  0.00    -0.097 F 
ATOM      8  F1  UNL d   1       5.234   2.278   0.952  0.00  0.00    -0.096 F 
ATOM      9  I   UNL d   1       5.997   2.610  -2.138  0.00  0.00    -0.060 I 
ATOM     10  F2  UNL d   1       3.809   0.556  -3.248  0.00  0.00    -0.096 F 
ATOM     11  F3  UNL d   1       1.946  -0.948  -1.980  0.00  0.00    -0.097 F 
ATOM     12  F4  UNL d   1       1.712  -0.853   0.736  0.00  0.00    -0.092 F 
ENDROOT
TORSDOF 0
ENDMDL
