MODEL 1
REMARK minimizedAffinity 27.2752914
REMARK minimizedRMSD -1
REMARK  0 active torsions:
REMARK  status: ('A' for Active; 'I' for Inactive)
ROOT
ATOM      1  C   UNL d   1       3.219   0.353   0.624  0.00  0.00     0.124 A 
ATOM      2  C1  UNL d   1       3.013   0.184  -0.738  0.00  0.00     0.062 A 
ATOM      3  C2  UNL d   1       3.804   0.868  -1.656  0.00  0.00     0.162 A 
ATOM      4  C3  UNL d   1       4.811   1.727  -1.214  0.00  0.00    -0.034 A 
ATOM      5  C4  UNL d   1       5.012   1.892   0.157  0.00  0.00     0.162 A 
ATOM      6  C5  UNL d   1       4.218   1.206   1.071  0.00  0.00     0.062 A 
ATOM      7  F   UNL d   1       4.419   1.370   2.386  0.00  0.00    -0.097 F 
ATOM      8  F1  UNL d   1       5.971   2.710   0.616  0.00  0.00    -0.096 F 
ATOM      9  I   UNL d   1       5.997   2.752  -2.584  0.00  0.00    -0.060 I 
ATOM     10  F2  UNL d   1       3.583   0.686  -2.966  0.00  0.00    -0.096 F 
ATOM     11  F3  UNL d   1       2.047  -0.639  -1.171  0.00  0.00    -0.097 F 
ATOM     12  F4  UNL d   1       2.456  -0.306   1.505  0.00  0.00    -0.092 F 
ENDROOT
TORSDOF 0
ENDMDL
