MODEL 1
REMARK minimizedAffinity 26.4579296
REMARK minimizedRMSD -1
REMARK  0 active torsions:
REMARK  status: ('A' for Active; 'I' for Inactive)
ROOT
ATOM      1  C   UNL d   1       2.899  -0.192   0.752  0.00  0.00     0.124 A 
ATOM      2  C1  UNL d   1       3.945   0.547   1.287  0.00  0.00     0.062 A 
ATOM      3  C2  UNL d   1       4.831   1.215   0.448  0.00  0.00     0.162 A 
ATOM      4  C3  UNL d   1       4.675   1.149  -0.937  0.00  0.00    -0.034 A 
ATOM      5  C4  UNL d   1       3.621   0.403  -1.468  0.00  0.00     0.162 A 
ATOM      6  C5  UNL d   1       2.738  -0.263  -0.625  0.00  0.00     0.062 A 
ATOM      7  F   UNL d   1       1.728  -0.977  -1.144  0.00  0.00    -0.097 F 
ATOM      8  F1  UNL d   1       3.442   0.318  -2.795  0.00  0.00    -0.096 F 
ATOM      9  I   UNL d   1       5.998   2.148  -2.195  0.00  0.00    -0.060 I 
ATOM     10  F2  UNL d   1       5.832   1.922   0.993  0.00  0.00    -0.096 F 
ATOM     11  F3  UNL d   1       4.103   0.616   2.617  0.00  0.00    -0.097 F 
ATOM     12  F4  UNL d   1       2.048  -0.835   1.562  0.00  0.00    -0.092 F 
ENDROOT
TORSDOF 0
ENDMDL
