MODEL 1
REMARK minimizedAffinity 30.4012814
REMARK minimizedRMSD -1
REMARK  0 active torsions:
REMARK  status: ('A' for Active; 'I' for Inactive)
ROOT
ATOM      1  C   UNL d   1       1.446   2.291   4.353  0.00  0.00     0.124 A 
ATOM      2  C1  UNL d   1       1.085   3.024   3.232  0.00  0.00     0.062 A 
ATOM      3  C2  UNL d   1       1.455   2.590   1.962  0.00  0.00     0.162 A 
ATOM      4  C3  UNL d   1       2.191   1.415   1.807  0.00  0.00    -0.034 A 
ATOM      5  C4  UNL d   1       2.552   0.684   2.940  0.00  0.00     0.162 A 
ATOM      6  C5  UNL d   1       2.179   1.122   4.207  0.00  0.00     0.062 A 
ATOM      7  F   UNL d   1       2.530   0.413   5.290  0.00  0.00    -0.097 F 
ATOM      8  F1  UNL d   1       3.259  -0.450   2.828  0.00  0.00    -0.096 F 
ATOM      9  I   UNL d   1       2.746   0.762  -0.089  0.00  0.00    -0.060 I 
ATOM     10  F2  UNL d   1       1.091   3.318   0.896  0.00  0.00    -0.096 F 
ATOM     11  F3  UNL d   1       0.377   4.155   3.371  0.00  0.00    -0.097 F 
ATOM     12  F4  UNL d   1       1.090   2.712   5.574  0.00  0.00    -0.092 F 
ENDROOT
TORSDOF 0
ENDMDL
