MODEL 1
REMARK minimizedAffinity 27.3581009
REMARK minimizedRMSD -1
REMARK  0 active torsions:
REMARK  status: ('A' for Active; 'I' for Inactive)
ROOT
ATOM      1  C   UNL d   1       3.339   0.936   0.721  0.00  0.00     0.124 A 
ATOM      2  C1  UNL d   1       3.268   0.667  -0.639  0.00  0.00     0.062 A 
ATOM      3  C2  UNL d   1       4.026   1.409  -1.539  0.00  0.00     0.162 A 
ATOM      4  C3  UNL d   1       4.863   2.428  -1.083  0.00  0.00    -0.034 A 
ATOM      5  C4  UNL d   1       4.928   2.693   0.286  0.00  0.00     0.162 A 
ATOM      6  C5  UNL d   1       4.168   1.948   1.182  0.00  0.00     0.062 A 
ATOM      7  F   UNL d   1       4.238   2.210   2.496  0.00  0.00    -0.097 F 
ATOM      8  F1  UNL d   1       5.722   3.665   0.759  0.00  0.00    -0.096 F 
ATOM      9  I   UNL d   1       5.998   3.540  -2.427  0.00  0.00    -0.060 I 
ATOM     10  F2  UNL d   1       3.938   1.128  -2.848  0.00  0.00    -0.096 F 
ATOM     11  F3  UNL d   1       2.466  -0.310  -1.086  0.00  0.00    -0.097 F 
ATOM     12  F4  UNL d   1       2.607   0.221   1.586  0.00  0.00    -0.092 F 
ENDROOT
TORSDOF 0
ENDMDL
