MODEL 1
REMARK minimizedAffinity 20.8132
REMARK minimizedRMSD -1
REMARK  0 active torsions:
REMARK  status: ('A' for Active; 'I' for Inactive)
ROOT
ATOM      1  C   UNL d   1       1.950   0.890  -0.127  0.00  0.00     0.124 A 
ATOM      2  C1  UNL d   1       2.801   1.498   0.785  0.00  0.00     0.062 A 
ATOM      3  C2  UNL d   1       2.447   2.709   1.373  0.00  0.00     0.162 A 
ATOM      4  C3  UNL d   1       1.235   3.320   1.051  0.00  0.00    -0.034 A 
ATOM      5  C4  UNL d   1       0.385   2.702   0.132  0.00  0.00     0.162 A 
ATOM      6  C5  UNL d   1       0.743   1.492  -0.452  0.00  0.00     0.062 A 
ATOM      7  F   UNL d   1      -0.080   0.905  -1.333  0.00  0.00    -0.097 F 
ATOM      8  F1  UNL d   1      -0.788   3.262  -0.200  0.00  0.00    -0.096 F 
ATOM      9  I   UNL d   1       0.702   5.131   1.927  0.00  0.00    -0.060 I 
ATOM     10  F2  UNL d   1       3.289   3.275   2.251  0.00  0.00    -0.096 F 
ATOM     11  F3  UNL d   1       3.969   0.919   1.101  0.00  0.00    -0.097 F 
ATOM     12  F4  UNL d   1       2.294  -0.275  -0.691  0.00  0.00    -0.092 F 
ENDROOT
TORSDOF 0
ENDMDL
