MODEL 1
REMARK minimizedAffinity 24.4805508
REMARK minimizedRMSD -1
REMARK  0 active torsions:
REMARK  status: ('A' for Active; 'I' for Inactive)
ROOT
ATOM      1  C   UNL d   1       1.270   3.880   1.733  0.00  0.00     0.124 A 
ATOM      2  C1  UNL d   1       0.399   3.549   0.705  0.00  0.00     0.062 A 
ATOM      3  C2  UNL d   1       0.680   2.474  -0.132  0.00  0.00     0.162 A 
ATOM      4  C3  UNL d   1       1.839   1.720   0.055  0.00  0.00    -0.034 A 
ATOM      5  C4  UNL d   1       2.711   2.060   1.091  0.00  0.00     0.162 A 
ATOM      6  C5  UNL d   1       2.426   3.136   1.925  0.00  0.00     0.062 A 
ATOM      7  F   UNL d   1       3.269   3.454   2.918  0.00  0.00    -0.097 F 
ATOM      8  F1  UNL d   1       3.834   1.357   1.300  0.00  0.00    -0.096 F 
ATOM      9  I   UNL d   1       2.263   0.111  -1.194  0.00  0.00    -0.060 I 
ATOM     10  F2  UNL d   1      -0.180   2.177  -1.118  0.00  0.00    -0.096 F 
ATOM     11  F3  UNL d   1      -0.718   4.268   0.517  0.00  0.00    -0.097 F 
ATOM     12  F4  UNL d   1       0.998   4.917   2.537  0.00  0.00    -0.092 F 
ENDROOT
TORSDOF 0
ENDMDL
