MODEL 1
REMARK minimizedAffinity -3.98346305
REMARK minimizedRMSD -1
REMARK  1 active torsions:
REMARK  status: ('A' for Active; 'I' for Inactive)
REMARK    1  A    between atoms: N_2  and  C1_3 
ROOT
ATOM      1  C1  UNL d   1       0.267  -0.164   0.142  0.00  0.00     0.143 A 
ATOM      2  C2  UNL d   1       1.064   0.475   1.097  0.00  0.00    -0.057 A 
ATOM      3  C3  UNL d   1       0.498   1.266   2.104  0.00  0.00     0.033 A 
ATOM      4  C4  UNL d   1      -0.879   1.456   2.155  0.00  0.00    -0.042 A 
ATOM      5  C5  UNL d   1      -1.689   0.851   1.201  0.00  0.00     0.033 A 
ATOM      6  C6  UNL d   1      -1.118   0.056   0.202  0.00  0.00    -0.057 A 
ENDROOT
BRANCH   1   7
ATOM      7  N   UNL d   1       0.777  -0.883  -0.942  0.00  0.00    -0.732 N 
ATOM      8  C   UNL d   1       0.526  -0.448  -2.299  0.00  0.00     0.284 C 
ATOM      9  H3  UNL d   1       1.727  -1.209  -0.779  0.00  0.00     0.395 HD
ENDBRANCH   1   7
TORSDOF 1
ENDMDL
