MODEL 1
REMARK minimizedAffinity -4.96528482
REMARK minimizedRMSD -1
REMARK  1 active torsions:
REMARK  status: ('A' for Active; 'I' for Inactive)
REMARK    1  A    between atoms: N_2  and  C1_3 
ROOT
ATOM      1  C1  UNL d   1       0.300  -0.028  -0.011  0.00  0.00     0.143 A 
ATOM      2  C2  UNL d   1      -1.077   0.220  -0.037  0.00  0.00    -0.057 A 
ATOM      3  C3  UNL d   1      -1.718   0.871   1.024  0.00  0.00     0.033 A 
ATOM      4  C4  UNL d   1      -0.995   1.261   2.146  0.00  0.00    -0.042 A 
ATOM      5  C5  UNL d   1       0.370   1.003   2.205  0.00  0.00     0.033 A 
ATOM      6  C6  UNL d   1       1.005   0.358   1.139  0.00  0.00    -0.057 A 
ENDROOT
BRANCH   1   7
ATOM      7  N   UNL d   1       0.977  -0.758  -0.991  0.00  0.00    -0.732 N 
ATOM      8  C   UNL d   1       0.797  -0.453  -2.394  0.00  0.00     0.284 C 
ATOM      9  H3  UNL d   1       1.940  -0.959  -0.729  0.00  0.00     0.395 HD
ENDBRANCH   1   7
TORSDOF 1
ENDMDL
