MODEL 1
REMARK minimizedAffinity -4.52029371
REMARK minimizedRMSD -1
REMARK  1 active torsions:
REMARK  status: ('A' for Active; 'I' for Inactive)
REMARK    1  A    between atoms: N_2  and  C1_3 
ROOT
ATOM      1  C1  UNL d   1       0.387   0.635   1.288  0.00  0.00     0.143 A 
ATOM      2  C2  UNL d   1       0.264  -0.074   0.088  0.00  0.00    -0.057 A 
ATOM      3  C3  UNL d   1      -0.991  -0.364  -0.458  0.00  0.00     0.033 A 
ATOM      4  C4  UNL d   1      -2.151   0.026   0.203  0.00  0.00    -0.042 A 
ATOM      5  C5  UNL d   1      -2.054   0.710   1.409  0.00  0.00     0.033 A 
ATOM      6  C6  UNL d   1      -0.797   1.003   1.947  0.00  0.00    -0.057 A 
ENDROOT
BRANCH   1   7
ATOM      7  N   UNL d   1       1.604   0.868   1.933  0.00  0.00    -0.732 N 
ATOM      8  C   UNL d   1       2.633  -0.149   1.955  0.00  0.00     0.284 C 
ATOM      9  H3  UNL d   1       1.955   1.810   1.773  0.00  0.00     0.395 HD
ENDBRANCH   1   7
TORSDOF 1
ENDMDL
