MODEL 1
REMARK minimizedAffinity -3.59397793
REMARK minimizedRMSD -1
REMARK  1 active torsions:
REMARK  status: ('A' for Active; 'I' for Inactive)
REMARK    1  A    between atoms: N_2  and  C1_3 
ROOT
ATOM      1  C1  UNL d   1       0.068   0.076  -0.101  0.00  0.00     0.143 A 
ATOM      2  C2  UNL d   1      -1.259  -0.136   0.288  0.00  0.00    -0.057 A 
ATOM      3  C3  UNL d   1      -1.795   0.497   1.416  0.00  0.00     0.033 A 
ATOM      4  C4  UNL d   1      -1.002   1.335   2.194  0.00  0.00    -0.042 A 
ATOM      5  C5  UNL d   1       0.327   1.541   1.840  0.00  0.00     0.033 A 
ATOM      6  C6  UNL d   1       0.855   0.911   0.709  0.00  0.00    -0.057 A 
ENDROOT
BRANCH   1   7
ATOM      7  N   UNL d   1       0.688  -0.600  -1.155  0.00  0.00    -0.732 N 
ATOM      8  C   UNL d   1       1.271   0.131  -2.259  0.00  0.00     0.284 C 
ATOM      9  H3  UNL d   1       1.248  -1.387  -0.835  0.00  0.00     0.395 HD
ENDBRANCH   1   7
TORSDOF 1
ENDMDL
