MODEL 1
REMARK minimizedAffinity -3.91495562
REMARK minimizedRMSD -1
REMARK  1 active torsions:
REMARK  status: ('A' for Active; 'I' for Inactive)
REMARK    1  A    between atoms: N_2  and  C1_3 
ROOT
ATOM      1  C1  UNL d   1       0.017   0.311  -0.075  0.00  0.00     0.143 A 
ATOM      2  C2  UNL d   1      -1.188  -0.123   0.488  0.00  0.00    -0.057 A 
ATOM      3  C3  UNL d   1      -1.544   0.225   1.797  0.00  0.00     0.033 A 
ATOM      4  C4  UNL d   1      -0.685   0.991   2.578  0.00  0.00    -0.042 A 
ATOM      5  C5  UNL d   1       0.529   1.413   2.047  0.00  0.00     0.033 A 
ATOM      6  C6  UNL d   1       0.876   1.068   0.737  0.00  0.00    -0.057 A 
ENDROOT
BRANCH   1   7
ATOM      7  N   UNL d   1       0.472  -0.083  -1.336  0.00  0.00    -0.732 N 
ATOM      8  C   UNL d   1       1.200   0.841  -2.179  0.00  0.00     0.284 C 
ATOM      9  H3  UNL d   1       0.847  -1.029  -1.335  0.00  0.00     0.395 HD
ENDBRANCH   1   7
TORSDOF 1
ENDMDL
