MODEL 1
REMARK minimizedAffinity -0.532913506
REMARK minimizedRMSD -1
REMARK  1 active torsions:
REMARK  status: ('A' for Active; 'I' for Inactive)
REMARK    1  A    between atoms: C3_4  and  O_7 
ROOT
ATOM      1  C   UNL d   1      -6.000   1.917  -4.256  0.00  0.00    -0.033 A 
ATOM      2  C1  UNL d   1      -5.171   2.637  -3.393  0.00  0.00     0.039 A 
ATOM      3  C2  UNL d   1      -3.858   2.217  -3.171  0.00  0.00    -0.080 A 
ATOM      4  C3  UNL d   1      -3.386   1.079  -3.819  0.00  0.00     0.150 A 
ATOM      5  C4  UNL d   1      -4.205   0.359  -4.683  0.00  0.00    -0.007 A 
ATOM      6  C5  UNL d   1      -5.516   0.779  -4.902  0.00  0.00     0.039 A 
ENDROOT
BRANCH   4   7
ATOM      7  O   UNL d   1      -2.113   0.628  -3.631  0.00  0.00    -0.526 OA
ATOM      8  H5  UNL d   1      -1.674   1.208  -2.987  0.00  0.00     0.418 HD
ENDBRANCH   4   7
TORSDOF 1
ENDMDL
