MODEL 1
REMARK minimizedAffinity 8.95682812
REMARK minimizedRMSD -1
REMARK  1 active torsions:
REMARK  status: ('A' for Active; 'I' for Inactive)
REMARK    1  A    between atoms: C3_4  and  O_7 
ROOT
ATOM      1  C   UNL d   1      -5.553   2.984  -2.219  0.00  0.00    -0.033 A 
ATOM      2  C1  UNL d   1      -5.910   1.640  -2.101  0.00  0.00     0.039 A 
ATOM      3  C2  UNL d   1      -5.873   0.805  -3.220  0.00  0.00    -0.080 A 
ATOM      4  C3  UNL d   1      -5.477   1.327  -4.449  0.00  0.00     0.150 A 
ATOM      5  C4  UNL d   1      -5.117   2.664  -4.573  0.00  0.00    -0.007 A 
ATOM      6  C5  UNL d   1      -5.155   3.496  -3.455  0.00  0.00     0.039 A 
ENDROOT
BRANCH   4   7
ATOM      7  O   UNL d   1      -5.430   0.552  -5.570  0.00  0.00    -0.526 OA
ATOM      8  H5  UNL d   1      -5.733  -0.342  -5.339  0.00  0.00     0.418 HD
ENDBRANCH   4   7
TORSDOF 1
ENDMDL
