MODEL 1
REMARK minimizedAffinity 0.0468672514
REMARK minimizedRMSD -1
REMARK  1 active torsions:
REMARK  status: ('A' for Active; 'I' for Inactive)
REMARK    1  A    between atoms: C3_4  and  O_7 
ROOT
ATOM      1  C   UNL d   1       5.038   0.941  -1.517  0.00  0.00    -0.033 A 
ATOM      2  C1  UNL d   1       5.658  -0.244  -1.920  0.00  0.00     0.039 A 
ATOM      3  C2  UNL d   1       5.008  -1.467  -1.745  0.00  0.00    -0.080 A 
ATOM      4  C3  UNL d   1       3.742  -1.492  -1.167  0.00  0.00     0.150 A 
ATOM      5  C4  UNL d   1       3.117  -0.316  -0.767  0.00  0.00    -0.007 A 
ATOM      6  C5  UNL d   1       3.768   0.905  -0.942  0.00  0.00     0.039 A 
ENDROOT
BRANCH   4   7
ATOM      7  O   UNL d   1       3.071  -2.663  -0.972  0.00  0.00    -0.526 OA
ATOM      8  H5  UNL d   1       3.636  -3.395  -1.270  0.00  0.00     0.418 HD
ENDBRANCH   4   7
TORSDOF 1
ENDMDL
