MODEL 1
REMARK minimizedAffinity -0.0144495284
REMARK minimizedRMSD -1
REMARK  1 active torsions:
REMARK  status: ('A' for Active; 'I' for Inactive)
REMARK    1  A    between atoms: C3_4  and  O_7 
ROOT
ATOM      1  C   UNL d   1      -1.313  -2.250  -4.432  0.00  0.00    -0.033 A 
ATOM      2  C1  UNL d   1      -0.777  -1.695  -3.268  0.00  0.00     0.039 A 
ATOM      3  C2  UNL d   1      -0.669  -2.468  -2.110  0.00  0.00    -0.080 A 
ATOM      4  C3  UNL d   1      -1.099  -3.792  -2.130  0.00  0.00     0.150 A 
ATOM      5  C4  UNL d   1      -1.631  -4.352  -3.287  0.00  0.00    -0.007 A 
ATOM      6  C5  UNL d   1      -1.739  -3.578  -4.442  0.00  0.00     0.039 A 
ENDROOT
BRANCH   4   7
ATOM      7  O   UNL d   1      -1.018  -4.584  -1.023  0.00  0.00    -0.526 OA
ATOM      8  H5  UNL d   1      -0.657  -4.055  -0.292  0.00  0.00     0.418 HD
ENDBRANCH   4   7
TORSDOF 1
ENDMDL
