MODEL 1
REMARK minimizedAffinity -2.17301393
REMARK minimizedRMSD -1
REMARK  1 active torsions:
REMARK  status: ('A' for Active; 'I' for Inactive)
REMARK    1  A    between atoms: C3_4  and  O_7 
ROOT
ATOM      1  C   UNL d   1       5.947   4.769   0.933  0.00  0.00    -0.033 A 
ATOM      2  C1  UNL d   1       5.951   3.568   1.645  0.00  0.00     0.039 A 
ATOM      3  C2  UNL d   1       5.885   3.579   3.039  0.00  0.00    -0.080 A 
ATOM      4  C3  UNL d   1       5.813   4.798   3.709  0.00  0.00     0.150 A 
ATOM      5  C4  UNL d   1       5.805   5.998   3.007  0.00  0.00    -0.007 A 
ATOM      6  C5  UNL d   1       5.873   5.984   1.615  0.00  0.00     0.039 A 
ENDROOT
BRANCH   4   7
ATOM      7  O   UNL d   1       5.752   4.860   5.070  0.00  0.00    -0.526 OA
ATOM      8  H5  UNL d   1       5.795   3.955   5.422  0.00  0.00     0.418 HD
ENDBRANCH   4   7
TORSDOF 1
ENDMDL
