MODEL 1
REMARK minimizedAffinity 11.3854733
REMARK minimizedRMSD -1
REMARK  1 active torsions:
REMARK  status: ('A' for Active; 'I' for Inactive)
REMARK    1  A    between atoms: C3_4  and  O_7 
ROOT
ATOM      1  C   UNL d   1       4.218   0.720  -0.944  0.00  0.00    -0.033 A 
ATOM      2  C1  UNL d   1       3.533  -0.014   0.027  0.00  0.00     0.039 A 
ATOM      3  C2  UNL d   1       2.837  -1.170  -0.331  0.00  0.00    -0.080 A 
ATOM      4  C3  UNL d   1       2.833  -1.581  -1.661  0.00  0.00     0.150 A 
ATOM      5  C4  UNL d   1       3.516  -0.857  -2.633  0.00  0.00    -0.007 A 
ATOM      6  C5  UNL d   1       4.210   0.298  -2.274  0.00  0.00     0.039 A 
ENDROOT
BRANCH   4   7
ATOM      7  O   UNL d   1       2.164  -2.700  -2.060  0.00  0.00    -0.526 OA
ATOM      8  H5  UNL d   1       1.715  -3.081  -1.287  0.00  0.00     0.418 HD
ENDBRANCH   4   7
TORSDOF 1
ENDMDL
