MODEL 1
REMARK minimizedAffinity -1.38857567
REMARK minimizedRMSD -1
REMARK  3 active torsions:
REMARK  status: ('A' for Active; 'I' for Inactive)
REMARK    1  A    between atoms: C3'_2  and  C2'_3 
REMARK    2  A    between atoms: C2'_3  and  C1'_4 
REMARK    3  A    between atoms: C1'_4  and  C1_5 
ROOT
ATOM      1  C1  N4B d   1       1.410  -2.412   0.431  0.00  0.00    -0.075 A 
ATOM      2  C2  N4B d   1       0.078  -2.479   0.895  0.00  0.00     0.002 A 
ATOM      3  C3  N4B d   1      -0.448  -1.440   1.623  0.00  0.00     0.002 A 
ATOM      4  C4  N4B d   1       0.341  -0.337   1.914  0.00  0.00    -0.004 A 
ATOM      5  C5  N4B d   1       1.619  -0.270   1.440  0.00  0.00     0.002 A 
ATOM      6  C6  N4B d   1       2.159  -1.305   0.704  0.00  0.00     0.002 A 
ENDROOT
BRANCH   1   7
ATOM      7  C1' N4B d   1       2.056  -3.560  -0.295  0.00  0.00     0.057 C 
BRANCH   7   8
ATOM      8  C2' N4B d   1       3.429  -3.829   0.313  0.00  0.00     0.009 C 
BRANCH   8   9
ATOM      9  C3' N4B d   1       4.178  -4.919  -0.433  0.00  0.00     0.004 C 
ATOM     10  C4' N4B d   1       5.667  -4.745  -0.376  0.00  0.00     0.003 C 
ENDBRANCH   8   9
ENDBRANCH   7   8
ENDBRANCH   1   7
TORSDOF 3
ENDMDL
