MODEL 1
REMARK minimizedAffinity 0.717625022
REMARK minimizedRMSD -1
REMARK  3 active torsions:
REMARK  status: ('A' for Active; 'I' for Inactive)
REMARK    1  A    between atoms: C3'_2  and  C2'_3 
REMARK    2  A    between atoms: C2'_3  and  C1'_4 
REMARK    3  A    between atoms: C1'_4  and  C1_5 
ROOT
ATOM      1  C1  N4B d   1       1.344  -1.500   0.379  0.00  0.00    -0.075 A 
ATOM      2  C2  N4B d   1       0.005  -1.690   0.788  0.00  0.00     0.002 A 
ATOM      3  C3  N4B d   1      -0.615  -0.747   1.571  0.00  0.00     0.002 A 
ATOM      4  C4  N4B d   1       0.087   0.380   1.971  0.00  0.00    -0.004 A 
ATOM      5  C5  N4B d   1       1.371   0.569   1.551  0.00  0.00     0.002 A 
ATOM      6  C6  N4B d   1       2.005  -0.368   0.761  0.00  0.00     0.002 A 
ENDROOT
BRANCH   1   7
ATOM      7  C1' N4B d   1       2.091  -2.543  -0.405  0.00  0.00     0.057 C 
BRANCH   7   8
ATOM      8  C2' N4B d   1       3.087  -3.243   0.515  0.00  0.00     0.009 C 
BRANCH   8   9
ATOM      9  C3' N4B d   1       3.643  -4.511  -0.110  0.00  0.00     0.004 C 
ATOM     10  C4' N4B d   1       5.142  -4.542  -0.126  0.00  0.00     0.003 C 
ENDBRANCH   8   9
ENDBRANCH   7   8
ENDBRANCH   1   7
TORSDOF 3
ENDMDL
