MODEL 1
REMARK minimizedAffinity 2.26043749
REMARK minimizedRMSD -1
REMARK  3 active torsions:
REMARK  status: ('A' for Active; 'I' for Inactive)
REMARK    1  A    between atoms: C3'_2  and  C2'_3 
REMARK    2  A    between atoms: C2'_3  and  C1'_4 
REMARK    3  A    between atoms: C1'_4  and  C1_5 
ROOT
ATOM      1  C1  N4B d   1       0.921  -2.435   1.016  0.00  0.00    -0.075 A 
ATOM      2  C2  N4B d   1       0.683  -1.173   1.604  0.00  0.00     0.002 A 
ATOM      3  C3  N4B d   1      -0.421  -0.984   2.399  0.00  0.00     0.002 A 
ATOM      4  C4  N4B d   1      -1.307  -2.031   2.604  0.00  0.00    -0.004 A 
ATOM      5  C5  N4B d   1      -1.056  -3.254   2.053  0.00  0.00     0.002 A 
ATOM      6  C6  N4B d   1       0.052  -3.460   1.255  0.00  0.00     0.002 A 
ENDROOT
BRANCH   1   7
ATOM      7  C1' N4B d   1       2.068  -2.666   0.070  0.00  0.00     0.057 C 
BRANCH   7   8
ATOM      8  C2' N4B d   1       2.522  -4.119   0.180  0.00  0.00     0.009 C 
BRANCH   8   9
ATOM      9  C3' N4B d   1       3.591  -4.459  -0.844  0.00  0.00     0.004 C 
ATOM     10  C4' N4B d   1       4.981  -4.350  -0.291  0.00  0.00     0.003 C 
ENDBRANCH   8   9
ENDBRANCH   7   8
ENDBRANCH   1   7
TORSDOF 3
ENDMDL
