MODEL 1
REMARK minimizedAffinity -2.6395309
REMARK minimizedRMSD -1
REMARK  0 active torsions:
REMARK  status: ('A' for Active; 'I' for Inactive)
ROOT
ATOM      1  N1  IND d   1       1.060  -2.241  -0.485  0.00  0.00    -0.196 N 
ATOM      2  C2  IND d   1       2.035  -2.630  -1.361  0.00  0.00     0.054 A 
ATOM      3  C3  IND d   1       2.596  -1.549  -1.949  0.00  0.00    -0.031 A 
ATOM      4  C4  IND d   1       2.140   0.952  -1.549  0.00  0.00     0.051 A 
ATOM      5  C5  IND d   1       1.313   1.801  -0.869  0.00  0.00    -0.031 A 
ATOM      6  C6  IND d   1       0.341   1.336  -0.007  0.00  0.00     0.015 A 
ATOM      7  C7  IND d   1       0.167  -0.000   0.217  0.00  0.00    -0.016 A 
ATOM      8  C8  IND d   1       1.001  -0.865  -0.477  0.00  0.00    -0.047 A 
ATOM      9  C9  IND d   1       1.961  -0.401  -1.386  0.00  0.00    -0.096 A 
ATOM     10  HN1 IND d   1       0.566  -2.768  -0.018  0.00  0.00     0.298 HD
ENDROOT
TORSDOF 0
ENDMDL
