MODEL 1
REMARK minimizedAffinity -2.67844462
REMARK minimizedRMSD -1
REMARK  0 active torsions:
REMARK  status: ('A' for Active; 'I' for Inactive)
ROOT
ATOM      1  N1  IND d   1       1.177   1.305  -0.753  0.00  0.00    -0.196 N 
ATOM      2  C2  IND d   1       0.075   1.265   0.055  0.00  0.00     0.054 A 
ATOM      3  C3  IND d   1      -0.302  -0.014   0.273  0.00  0.00    -0.031 A 
ATOM      4  C4  IND d   1       0.804  -2.202  -0.511  0.00  0.00     0.051 A 
ATOM      5  C5  IND d   1       1.813  -2.676  -1.302  0.00  0.00    -0.031 A 
ATOM      6  C6  IND d   1       2.681  -1.830  -1.961  0.00  0.00     0.015 A 
ATOM      7  C7  IND d   1       2.579  -0.472  -1.844  0.00  0.00    -0.016 A 
ATOM      8  C8  IND d   1       1.551   0.012  -1.048  0.00  0.00    -0.047 A 
ATOM      9  C9  IND d   1       0.641  -0.841  -0.411  0.00  0.00    -0.096 A 
ATOM     10  HN1 IND d   1       1.570   2.017  -1.030  0.00  0.00     0.298 HD
ENDROOT
TORSDOF 0
ENDMDL
