MODEL 1
REMARK minimizedAffinity -3.28499579
REMARK minimizedRMSD -1
REMARK  0 active torsions:
REMARK  status: ('A' for Active; 'I' for Inactive)
ROOT
ATOM      1  N1  IND d   1       0.875  -2.233  -0.136  0.00  0.00    -0.196 N 
ATOM      2  C2  IND d   1       1.859  -2.739  -0.938  0.00  0.00     0.054 A 
ATOM      3  C3  IND d   1       2.463  -1.744  -1.627  0.00  0.00    -0.031 A 
ATOM      4  C4  IND d   1       2.066   0.797  -1.516  0.00  0.00     0.051 A 
ATOM      5  C5  IND d   1       1.246   1.735  -0.955  0.00  0.00    -0.031 A 
ATOM      6  C6  IND d   1       0.242   1.393  -0.072  0.00  0.00     0.015 A 
ATOM      7  C7  IND d   1       0.027   0.094   0.293  0.00  0.00    -0.016 A 
ATOM      8  C8  IND d   1       0.853  -0.863  -0.281  0.00  0.00    -0.047 A 
ATOM      9  C9  IND d   1       1.846  -0.525  -1.210  0.00  0.00    -0.096 A 
ATOM     10  HN1 IND d   1       0.357  -2.692   0.374  0.00  0.00     0.298 HD
ENDROOT
TORSDOF 0
ENDMDL
