MODEL 1
REMARK minimizedAffinity -2.9362042
REMARK minimizedRMSD -1
REMARK  0 active torsions:
REMARK  status: ('A' for Active; 'I' for Inactive)
ROOT
ATOM      1  N1  IND d   1       1.018  -2.644  -0.310  0.00  0.00    -0.196 N 
ATOM      2  C2  IND d   1       1.964  -3.021  -1.221  0.00  0.00     0.054 A 
ATOM      3  C3  IND d   1       2.483  -1.935  -1.837  0.00  0.00    -0.031 A 
ATOM      4  C4  IND d   1       2.000   0.561  -1.432  0.00  0.00     0.051 A 
ATOM      5  C5  IND d   1       1.186   1.400  -0.724  0.00  0.00    -0.031 A 
ATOM      6  C6  IND d   1       0.257   0.924   0.178  0.00  0.00     0.015 A 
ATOM      7  C7  IND d   1       0.115  -0.414   0.416  0.00  0.00    -0.016 A 
ATOM      8  C8  IND d   1       0.936  -1.269  -0.306  0.00  0.00    -0.047 A 
ATOM      9  C9  IND d   1       1.851  -0.794  -1.255  0.00  0.00    -0.096 A 
ATOM     10  HN1 IND d   1       0.553  -3.177   0.179  0.00  0.00     0.298 HD
ENDROOT
TORSDOF 0
ENDMDL
