MODEL 1
REMARK minimizedAffinity 6.97830105
REMARK minimizedRMSD -1
REMARK  0 active torsions:
REMARK  status: ('A' for Active; 'I' for Inactive)
ROOT
ATOM      1  N1  IND d   1      -4.680   2.212   1.796  0.00  0.00    -0.196 N 
ATOM      2  C2  IND d   1      -4.151   1.019   1.387  0.00  0.00     0.054 A 
ATOM      3  C3  IND d   1      -3.041   0.727   2.102  0.00  0.00    -0.031 A 
ATOM      4  C4  IND d   1      -1.972   2.012   4.060  0.00  0.00     0.051 A 
ATOM      5  C5  IND d   1      -2.076   3.176   4.770  0.00  0.00    -0.031 A 
ATOM      6  C6  IND d   1      -3.075   4.094   4.522  0.00  0.00     0.015 A 
ATOM      7  C7  IND d   1      -4.019   3.877   3.557  0.00  0.00    -0.016 A 
ATOM      8  C8  IND d   1      -3.912   2.701   2.830  0.00  0.00    -0.047 A 
ATOM      9  C9  IND d   1      -2.875   1.785   3.049  0.00  0.00    -0.096 A 
ATOM     10  HN1 IND d   1      -5.376   2.592   1.464  0.00  0.00     0.298 HD
ENDROOT
TORSDOF 0
ENDMDL
