MODEL 1
REMARK minimizedAffinity -1.14398503
REMARK minimizedRMSD -1
REMARK  0 active torsions:
REMARK  status: ('A' for Active; 'I' for Inactive)
ROOT
ATOM      1  N1  IND d   1      -0.616  -0.776   0.132  0.00  0.00    -0.196 N 
ATOM      2  C2  IND d   1       0.433   0.094   0.230  0.00  0.00     0.054 A 
ATOM      3  C3  IND d   1       0.049   1.225   0.863  0.00  0.00    -0.031 A 
ATOM      4  C4  IND d   1      -2.226   1.821   1.911  0.00  0.00     0.051 A 
ATOM      5  C5  IND d   1      -3.505   1.359   2.042  0.00  0.00    -0.031 A 
ATOM      6  C6  IND d   1      -3.894   0.136   1.536  0.00  0.00     0.015 A 
ATOM      7  C7  IND d   1      -3.012  -0.680   0.886  0.00  0.00    -0.016 A 
ATOM      8  C8  IND d   1      -1.713  -0.211   0.745  0.00  0.00    -0.047 A 
ATOM      9  C9  IND d   1      -1.323   1.048   1.219  0.00  0.00    -0.096 A 
ATOM     10  HN1 IND d   1      -0.595  -1.547  -0.248  0.00  0.00     0.298 HD
ENDROOT
TORSDOF 0
ENDMDL
