MODEL 1
REMARK minimizedAffinity -1.84576142
REMARK minimizedRMSD -1
REMARK  0 active torsions:
REMARK  status: ('A' for Active; 'I' for Inactive)
ROOT
ATOM      1  N1  IND d   1      -1.064  -0.551  -0.286  0.00  0.00    -0.196 N 
ATOM      2  C2  IND d   1       0.155  -0.259   0.259  0.00  0.00     0.054 A 
ATOM      3  C3  IND d   1       0.011   0.564   1.322  0.00  0.00    -0.031 A 
ATOM      4  C4  IND d   1      -2.140   1.476   2.404  0.00  0.00     0.051 A 
ATOM      5  C5  IND d   1      -3.496   1.515   2.238  0.00  0.00    -0.031 A 
ATOM      6  C6  IND d   1      -4.124   0.852   1.204  0.00  0.00     0.015 A 
ATOM      7  C7  IND d   1      -3.416   0.112   0.299  0.00  0.00    -0.016 A 
ATOM      8  C8  IND d   1      -2.039   0.076   0.459  0.00  0.00    -0.047 A 
ATOM      9  C9  IND d   1      -1.392   0.782   1.482  0.00  0.00    -0.096 A 
ATOM     10  HN1 IND d   1      -1.200  -1.043  -0.977  0.00  0.00     0.298 HD
ENDROOT
TORSDOF 0
ENDMDL
