MODEL 1
REMARK minimizedAffinity -2.94376326
REMARK minimizedRMSD -1
REMARK  0 active torsions:
REMARK  status: ('A' for Active; 'I' for Inactive)
ROOT
ATOM      1  N1  IND d   1       0.478  -0.399   0.460  0.00  0.00    -0.196 N 
ATOM      2  C2  IND d   1       0.513   0.425  -0.630  0.00  0.00     0.054 A 
ATOM      3  C3  IND d   1      -0.606   1.181  -0.685  0.00  0.00    -0.031 A 
ATOM      4  C4  IND d   1      -2.579   1.303   0.965  0.00  0.00     0.051 A 
ATOM      5  C5  IND d   1      -3.078   0.714   2.093  0.00  0.00    -0.031 A 
ATOM      6  C6  IND d   1      -2.402  -0.294   2.749  0.00  0.00     0.015 A 
ATOM      7  C7  IND d   1      -1.191  -0.746   2.306  0.00  0.00    -0.016 A 
ATOM      8  C8  IND d   1      -0.685  -0.155   1.157  0.00  0.00    -0.047 A 
ATOM      9  C9  IND d   1      -1.386   0.839   0.463  0.00  0.00    -0.096 A 
ATOM     10  HN1 IND d   1       1.081  -0.973   0.675  0.00  0.00     0.298 HD
ENDROOT
TORSDOF 0
ENDMDL
