MODEL 1
REMARK minimizedAffinity -4.17302227
REMARK minimizedRMSD -1
REMARK  0 active torsions:
REMARK  status: ('A' for Active; 'I' for Inactive)
ROOT
ATOM      1  N1  IND d   1       1.068  -2.834  -0.238  0.00  0.00    -0.196 N 
ATOM      2  C2  IND d   1       2.007  -3.357  -1.084  0.00  0.00     0.054 A 
ATOM      3  C3  IND d   1       2.557  -2.380  -1.838  0.00  0.00    -0.031 A 
ATOM      4  C4  IND d   1       2.141   0.160  -1.781  0.00  0.00     0.051 A 
ATOM      5  C5  IND d   1       1.348   1.109  -1.200  0.00  0.00    -0.031 A 
ATOM      6  C6  IND d   1       0.403   0.786  -0.248  0.00  0.00     0.015 A 
ATOM      7  C7  IND d   1       0.224  -0.503   0.169  0.00  0.00    -0.016 A 
ATOM      8  C8  IND d   1       1.023  -1.470  -0.424  0.00  0.00    -0.047 A 
ATOM      9  C9  IND d   1       1.954  -1.154  -1.421  0.00  0.00    -0.096 A 
ATOM     10  HN1 IND d   1       0.587  -3.282   0.316  0.00  0.00     0.298 HD
ENDROOT
TORSDOF 0
ENDMDL
