MODEL 1
REMARK minimizedAffinity -0.767823458
REMARK minimizedRMSD -1
REMARK  0 active torsions:
REMARK  status: ('A' for Active; 'I' for Inactive)
ROOT
ATOM      1  N1  IND d   1      -0.832  -0.971   0.828  0.00  0.00    -0.196 N 
ATOM      2  C2  IND d   1      -1.283   0.192   1.386  0.00  0.00     0.054 A 
ATOM      3  C3  IND d   1      -0.640   1.253   0.847  0.00  0.00    -0.031 A 
ATOM      4  C4  IND d   1       1.114   1.317  -1.036  0.00  0.00     0.051 A 
ATOM      5  C5  IND d   1       1.870   0.504  -1.832  0.00  0.00    -0.031 A 
ATOM      6  C6  IND d   1       1.759  -0.871  -1.784  0.00  0.00     0.015 A 
ATOM      7  C7  IND d   1       0.877  -1.485  -0.942  0.00  0.00    -0.016 A 
ATOM      8  C8  IND d   1       0.113  -0.662  -0.126  0.00  0.00    -0.047 A 
ATOM      9  C9  IND d   1       0.251   0.731  -0.140  0.00  0.00    -0.096 A 
ATOM     10  HN1 IND d   1      -1.095  -1.763   1.037  0.00  0.00     0.298 HD
ENDROOT
TORSDOF 0
ENDMDL
