MODEL 1
REMARK minimizedAffinity -3.3672986
REMARK minimizedRMSD -1
REMARK  0 active torsions:
REMARK  status: ('A' for Active; 'I' for Inactive)
ROOT
ATOM      1  N1  IND d   1      -0.100  -1.418   0.952  0.00  0.00    -0.196 N 
ATOM      2  C2  IND d   1      -0.489  -0.137   1.227  0.00  0.00     0.054 A 
ATOM      3  C3  IND d   1       0.125   0.731   0.391  0.00  0.00    -0.031 A 
ATOM      4  C4  IND d   1       1.728   0.259  -1.567  0.00  0.00     0.051 A 
ATOM      5  C5  IND d   1       2.408  -0.755  -2.183  0.00  0.00    -0.031 A 
ATOM      6  C6  IND d   1       2.281  -2.068  -1.779  0.00  0.00     0.015 A 
ATOM      7  C7  IND d   1       1.458  -2.420  -0.746  0.00  0.00    -0.016 A 
ATOM      8  C8  IND d   1       0.772  -1.393  -0.114  0.00  0.00    -0.047 A 
ATOM      9  C9  IND d   1       0.929  -0.053  -0.492  0.00  0.00    -0.096 A 
ATOM     10  HN1 IND d   1      -0.357  -2.122   1.374  0.00  0.00     0.298 HD
ENDROOT
TORSDOF 0
ENDMDL
