MODEL 1
REMARK minimizedAffinity -3.58123326
REMARK minimizedRMSD -1
REMARK  0 active torsions:
REMARK  status: ('A' for Active; 'I' for Inactive)
ROOT
ATOM      1  N1  IND d   1       0.998  -2.686  -0.773  0.00  0.00    -0.196 N 
ATOM      2  C2  IND d   1       2.050  -3.192  -1.484  0.00  0.00     0.054 A 
ATOM      3  C3  IND d   1       2.725  -2.195  -2.098  0.00  0.00    -0.031 A 
ATOM      4  C4  IND d   1       2.341   0.348  -1.992  0.00  0.00     0.051 A 
ATOM      5  C5  IND d   1       1.479   1.288  -1.500  0.00  0.00    -0.031 A 
ATOM      6  C6  IND d   1       0.392   0.944  -0.722  0.00  0.00     0.015 A 
ATOM      7  C7  IND d   1       0.132  -0.357  -0.396  0.00  0.00    -0.016 A 
ATOM      8  C8  IND d   1       1.001  -1.314  -0.900  0.00  0.00    -0.047 A 
ATOM      9  C9  IND d   1       2.081  -0.975  -1.725  0.00  0.00    -0.096 A 
ATOM     10  HN1 IND d   1       0.429  -3.147  -0.321  0.00  0.00     0.298 HD
ENDROOT
TORSDOF 0
ENDMDL
