MODEL 1
REMARK minimizedAffinity -0.2425358
REMARK minimizedRMSD -1
REMARK  0 active torsions:
REMARK  status: ('A' for Active; 'I' for Inactive)
ROOT
ATOM      1  N1  IND d   1      -1.329  -0.640  -0.025  0.00  0.00    -0.196 N 
ATOM      2  C2  IND d   1      -0.079  -0.174   0.273  0.00  0.00     0.054 A 
ATOM      3  C3  IND d   1      -0.138   0.708   1.296  0.00  0.00    -0.031 A 
ATOM      4  C4  IND d   1      -2.164   1.456   2.697  0.00  0.00     0.051 A 
ATOM      5  C5  IND d   1      -3.522   1.331   2.778  0.00  0.00    -0.031 A 
ATOM      6  C6  IND d   1      -4.233   0.524   1.913  0.00  0.00     0.015 A 
ATOM      7  C7  IND d   1      -3.608  -0.200   0.938  0.00  0.00    -0.016 A 
ATOM      8  C8  IND d   1      -2.229  -0.070   0.848  0.00  0.00    -0.047 A 
ATOM      9  C9  IND d   1      -1.507   0.780   1.696  0.00  0.00    -0.096 A 
ATOM     10  HN1 IND d   1      -1.521  -1.197  -0.652  0.00  0.00     0.298 HD
ENDROOT
TORSDOF 0
ENDMDL
