MODEL 1
REMARK minimizedAffinity -1.3749969
REMARK minimizedRMSD -1
REMARK  0 active torsions:
REMARK  status: ('A' for Active; 'I' for Inactive)
ROOT
ATOM      1  N1  IND d   1       1.930  -1.146  -1.760  0.00  0.00    -0.196 N 
ATOM      2  C2  IND d   1       2.174   0.139  -2.157  0.00  0.00     0.054 A 
ATOM      3  C3  IND d   1       1.469   1.008  -1.398  0.00  0.00    -0.031 A 
ATOM      4  C4  IND d   1      -0.068   0.546   0.615  0.00  0.00     0.051 A 
ATOM      5  C5  IND d   1      -0.630  -0.475   1.330  0.00  0.00    -0.031 A 
ATOM      6  C6  IND d   1      -0.359  -1.798   1.047  0.00  0.00     0.015 A 
ATOM      7  C7  IND d   1       0.496  -2.151   0.042  0.00  0.00    -0.016 A 
ATOM      8  C8  IND d   1       1.063  -1.117  -0.691  0.00  0.00    -0.047 A 
ATOM      9  C9  IND d   1       0.759   0.226  -0.436  0.00  0.00    -0.096 A 
ATOM     10  HN1 IND d   1       2.263  -1.853  -2.119  0.00  0.00     0.298 HD
ENDROOT
TORSDOF 0
ENDMDL
