MODEL 1
REMARK minimizedAffinity 4.21142292
REMARK minimizedRMSD -1
REMARK  0 active torsions:
REMARK  status: ('A' for Active; 'I' for Inactive)
ROOT
ATOM      1  C   UNL d   1       1.373  -0.293   3.348  0.00  0.00     0.077 C 
ATOM      2  C1  UNL d   1       0.142   0.549   3.196  0.00  0.00    -0.074 A 
ATOM      3  C2  UNL d   1      -0.033   1.712   3.954  0.00  0.00    -0.005 A 
ATOM      4  C3  UNL d   1      -1.179   2.490   3.794  0.00  0.00     0.006 A 
ATOM      5  C4  UNL d   1      -2.162   2.114   2.877  0.00  0.00    -0.005 A 
ATOM      6  C5  UNL d   1      -2.005   0.955   2.111  0.00  0.00    -0.074 A 
ATOM      7  C6  UNL d   1      -3.046   0.541   1.114  0.00  0.00     0.077 C 
ATOM      8  C7  UNL d   1      -0.846   0.182   2.271  0.00  0.00    -0.001 A 
ENDROOT
TORSDOF 0
ENDMDL
