MODEL 1
REMARK minimizedAffinity 7.95527744
REMARK minimizedRMSD -1
REMARK  0 active torsions:
REMARK  status: ('A' for Active; 'I' for Inactive)
ROOT
ATOM      1  C   UNL d   1       1.095  -5.992   3.057  0.00  0.00     0.077 C 
ATOM      2  C1  UNL d   1       2.532  -5.999   2.629  0.00  0.00    -0.074 A 
ATOM      3  C2  UNL d   1       2.879  -5.992   1.274  0.00  0.00    -0.005 A 
ATOM      4  C3  UNL d   1       4.221  -5.989   0.892  0.00  0.00     0.006 A 
ATOM      5  C4  UNL d   1       5.227  -5.994   1.859  0.00  0.00    -0.005 A 
ATOM      6  C5  UNL d   1       4.899  -6.000   3.218  0.00  0.00    -0.074 A 
ATOM      7  C6  UNL d   1       5.968  -5.995   4.270  0.00  0.00     0.077 C 
ATOM      8  C7  UNL d   1       3.549  -5.996   3.595  0.00  0.00    -0.001 A 
ENDROOT
TORSDOF 0
ENDMDL
