MODEL 1
REMARK minimizedAffinity 8.56755066
REMARK minimizedRMSD -1
REMARK  0 active torsions:
REMARK  status: ('A' for Active; 'I' for Inactive)
ROOT
ATOM      1  C   UNL d   1      -0.654   0.394   1.837  0.00  0.00     0.077 C 
ATOM      2  C1  UNL d   1      -2.122   0.540   2.108  0.00  0.00    -0.074 A 
ATOM      3  C2  UNL d   1      -2.626   0.443   3.409  0.00  0.00    -0.005 A 
ATOM      4  C3  UNL d   1      -3.992   0.591   3.647  0.00  0.00     0.006 A 
ATOM      5  C4  UNL d   1      -4.868   0.835   2.587  0.00  0.00    -0.005 A 
ATOM      6  C5  UNL d   1      -4.382   0.935   1.280  0.00  0.00    -0.074 A 
ATOM      7  C6  UNL d   1      -5.307   1.207   0.131  0.00  0.00     0.077 C 
ATOM      8  C7  UNL d   1      -3.007   0.793   1.050  0.00  0.00    -0.001 A 
ENDROOT
TORSDOF 0
ENDMDL
