MODEL 1
REMARK minimizedAffinity -0.143554866
REMARK minimizedRMSD -1
REMARK  0 active torsions:
REMARK  status: ('A' for Active; 'I' for Inactive)
ROOT
ATOM      1  C   UNL d   1      -4.593   0.040   4.679  0.00  0.00     0.077 C 
ATOM      2  C1  UNL d   1      -3.746   0.350   3.481  0.00  0.00    -0.074 A 
ATOM      3  C2  UNL d   1      -4.328   0.724   2.265  0.00  0.00    -0.005 A 
ATOM      4  C3  UNL d   1      -3.527   1.018   1.162  0.00  0.00     0.006 A 
ATOM      5  C4  UNL d   1      -2.137   0.942   1.263  0.00  0.00    -0.005 A 
ATOM      6  C5  UNL d   1      -1.537   0.571   2.471  0.00  0.00    -0.074 A 
ATOM      7  C6  UNL d   1      -0.044   0.494   2.599  0.00  0.00     0.077 C 
ATOM      8  C7  UNL d   1      -2.348   0.283   3.576  0.00  0.00    -0.001 A 
ENDROOT
TORSDOF 0
ENDMDL
