MODEL 1
REMARK minimizedAffinity 1.3886379
REMARK minimizedRMSD -1
REMARK  0 active torsions:
REMARK  status: ('A' for Active; 'I' for Inactive)
ROOT
ATOM      1  C   UNL d   1       0.016   0.393   3.480  0.00  0.00     0.077 C 
ATOM      2  C1  UNL d   1      -1.202   0.316   2.608  0.00  0.00    -0.074 A 
ATOM      3  C2  UNL d   1      -1.088   0.114   1.229  0.00  0.00    -0.005 A 
ATOM      4  C3  UNL d   1      -2.230   0.035   0.433  0.00  0.00     0.006 A 
ATOM      5  C4  UNL d   1      -3.497   0.158   1.006  0.00  0.00    -0.005 A 
ATOM      6  C5  UNL d   1      -3.631   0.359   2.384  0.00  0.00    -0.074 A 
ATOM      7  C6  UNL d   1      -4.984   0.483   3.018  0.00  0.00     0.077 C 
ATOM      8  C7  UNL d   1      -2.478   0.430   3.178  0.00  0.00    -0.001 A 
ENDROOT
TORSDOF 0
ENDMDL
