MODEL 1
REMARK minimizedAffinity 9.80636024
REMARK minimizedRMSD -1
REMARK  0 active torsions:
REMARK  status: ('A' for Active; 'I' for Inactive)
ROOT
ATOM      1  C   UNL d   1      -4.648  -2.209   0.807  0.00  0.00     0.077 C 
ATOM      2  C1  UNL d   1      -4.158  -0.905   1.364  0.00  0.00    -0.074 A 
ATOM      3  C2  UNL d   1      -5.049   0.021   1.914  0.00  0.00    -0.005 A 
ATOM      4  C3  UNL d   1      -4.578   1.226   2.437  0.00  0.00     0.006 A 
ATOM      5  C4  UNL d   1      -3.213   1.515   2.415  0.00  0.00    -0.005 A 
ATOM      6  C5  UNL d   1      -2.307   0.600   1.869  0.00  0.00    -0.074 A 
ATOM      7  C6  UNL d   1      -0.836   0.891   1.847  0.00  0.00     0.077 C 
ATOM      8  C7  UNL d   1      -2.787  -0.611   1.352  0.00  0.00    -0.001 A 
ENDROOT
TORSDOF 0
ENDMDL
