MODEL 1
REMARK minimizedAffinity 2.27116346
REMARK minimizedRMSD -1
REMARK  0 active torsions:
REMARK  status: ('A' for Active; 'I' for Inactive)
ROOT
ATOM      1  C   UNL d   1       5.092  -5.986   2.259  0.00  0.00     0.077 C 
ATOM      2  C1  UNL d   1       3.658  -5.655   2.548  0.00  0.00    -0.074 A 
ATOM      3  C2  UNL d   1       2.846  -5.063   1.574  0.00  0.00    -0.005 A 
ATOM      4  C3  UNL d   1       1.512  -4.770   1.855  0.00  0.00     0.006 A 
ATOM      5  C4  UNL d   1       0.976  -5.065   3.109  0.00  0.00    -0.005 A 
ATOM      6  C5  UNL d   1       1.772  -5.657   4.095  0.00  0.00    -0.074 A 
ATOM      7  C6  UNL d   1       1.209  -5.989   5.445  0.00  0.00     0.077 C 
ATOM      8  C7  UNL d   1       3.110  -5.955   3.803  0.00  0.00    -0.001 A 
ENDROOT
TORSDOF 0
ENDMDL
