MODEL 1
REMARK minimizedAffinity 12.1560373
REMARK minimizedRMSD -1
REMARK  0 active torsions:
REMARK  status: ('A' for Active; 'I' for Inactive)
ROOT
ATOM      1  C   UNL d   1       0.547  -2.699  -5.482  0.00  0.00     0.077 C 
ATOM      2  C1  UNL d   1       1.763  -1.884  -5.157  0.00  0.00    -0.074 A 
ATOM      3  C2  UNL d   1       2.933  -2.004  -5.914  0.00  0.00    -0.005 A 
ATOM      4  C3  UNL d   1       4.053  -1.233  -5.605  0.00  0.00     0.006 A 
ATOM      5  C4  UNL d   1       4.016  -0.336  -4.537  0.00  0.00    -0.005 A 
ATOM      6  C5  UNL d   1       2.855  -0.202  -3.769  0.00  0.00    -0.074 A 
ATOM      7  C6  UNL d   1       2.795   0.765  -2.624  0.00  0.00     0.077 C 
ATOM      8  C7  UNL d   1       1.731  -0.975  -4.090  0.00  0.00    -0.001 A 
ENDROOT
TORSDOF 0
ENDMDL
