MODEL 1
REMARK minimizedAffinity 9.45426655
REMARK minimizedRMSD -1
REMARK  0 active torsions:
REMARK  status: ('A' for Active; 'I' for Inactive)
ROOT
ATOM      1  C   UNL d   1      -3.948   0.344   1.592  0.00  0.00     0.077 C 
ATOM      2  C1  UNL d   1      -2.493   0.473   1.930  0.00  0.00    -0.074 A 
ATOM      3  C2  UNL d   1      -1.542  -0.371   1.348  0.00  0.00    -0.005 A 
ATOM      4  C3  UNL d   1      -0.191  -0.232   1.665  0.00  0.00     0.006 A 
ATOM      5  C4  UNL d   1       0.222   0.750   2.566  0.00  0.00    -0.005 A 
ATOM      6  C5  UNL d   1      -0.714   1.604   3.157  0.00  0.00    -0.074 A 
ATOM      7  C6  UNL d   1      -0.286   2.672   4.119  0.00  0.00     0.077 C 
ATOM      8  C7  UNL d   1      -2.069   1.463   2.828  0.00  0.00    -0.001 A 
ENDROOT
TORSDOF 0
ENDMDL
