MODEL 1
REMARK minimizedAffinity 4.49498606
REMARK minimizedRMSD -1
REMARK  0 active torsions:
REMARK  status: ('A' for Active; 'I' for Inactive)
ROOT
ATOM      1  C   UNL d   1      -3.971  -0.069   2.937  0.00  0.00     0.077 C 
ATOM      2  C1  UNL d   1      -2.663   0.627   2.702  0.00  0.00    -0.074 A 
ATOM      3  C2  UNL d   1      -2.624   1.942   2.227  0.00  0.00    -0.005 A 
ATOM      4  C3  UNL d   1      -1.400   2.579   2.023  0.00  0.00     0.006 A 
ATOM      5  C4  UNL d   1      -0.205   1.909   2.291  0.00  0.00    -0.005 A 
ATOM      6  C5  UNL d   1      -0.225   0.594   2.767  0.00  0.00    -0.074 A 
ATOM      7  C6  UNL d   1       1.049  -0.137   3.070  0.00  0.00     0.077 C 
ATOM      8  C7  UNL d   1      -1.459  -0.037   2.977  0.00  0.00    -0.001 A 
ENDROOT
TORSDOF 0
ENDMDL
