MODEL 1
REMARK minimizedAffinity 3.73584533
REMARK minimizedRMSD -1
REMARK  0 active torsions:
REMARK  status: ('A' for Active; 'I' for Inactive)
ROOT
ATOM      1  C   UNL d   1      -1.675   0.805   2.430  0.00  0.00     0.077 C 
ATOM      2  C1  UNL d   1      -3.106   0.359   2.495  0.00  0.00    -0.074 A 
ATOM      3  C2  UNL d   1      -4.070   0.911   1.645  0.00  0.00    -0.005 A 
ATOM      4  C3  UNL d   1      -5.394   0.479   1.710  0.00  0.00     0.006 A 
ATOM      5  C4  UNL d   1      -5.768  -0.507   2.624  0.00  0.00    -0.005 A 
ATOM      6  C5  UNL d   1      -4.818  -1.071   3.482  0.00  0.00    -0.074 A 
ATOM      7  C6  UNL d   1      -5.201  -2.138   4.463  0.00  0.00     0.077 C 
ATOM      8  C7  UNL d   1      -3.487  -0.637   3.405  0.00  0.00    -0.001 A 
ENDROOT
TORSDOF 0
ENDMDL
