MODEL 1
REMARK minimizedAffinity 6.11411238
REMARK minimizedRMSD -1
REMARK  0 active torsions:
REMARK  status: ('A' for Active; 'I' for Inactive)
ROOT
ATOM      1  C   UNL d   1      -3.726  -2.059   0.688  0.00  0.00     0.077 C 
ATOM      2  C1  UNL d   1      -3.520  -0.688   1.260  0.00  0.00    -0.074 A 
ATOM      3  C2  UNL d   1      -2.504   0.146   0.781  0.00  0.00    -0.005 A 
ATOM      4  C3  UNL d   1      -2.331   1.422   1.316  0.00  0.00     0.006 A 
ATOM      5  C4  UNL d   1      -3.170   1.877   2.334  0.00  0.00    -0.005 A 
ATOM      6  C5  UNL d   1      -4.191   1.058   2.826  0.00  0.00    -0.074 A 
ATOM      7  C6  UNL d   1      -5.108   1.535   3.913  0.00  0.00     0.077 C 
ATOM      8  C7  UNL d   1      -4.364  -0.221   2.278  0.00  0.00    -0.001 A 
ENDROOT
TORSDOF 0
ENDMDL
