MODEL 1
REMARK minimizedAffinity 1.17264616
REMARK minimizedRMSD -1
REMARK  0 active torsions:
REMARK  status: ('A' for Active; 'I' for Inactive)
ROOT
ATOM      1  C   UNL d   1      -4.114   0.269   0.171  0.00  0.00     0.077 C 
ATOM      2  C1  UNL d   1      -3.520   0.404   1.542  0.00  0.00    -0.074 A 
ATOM      3  C2  UNL d   1      -4.328   0.363   2.683  0.00  0.00    -0.005 A 
ATOM      4  C3  UNL d   1      -3.760   0.481   3.951  0.00  0.00     0.006 A 
ATOM      5  C4  UNL d   1      -2.381   0.640   4.091  0.00  0.00    -0.005 A 
ATOM      6  C5  UNL d   1      -1.557   0.682   2.962  0.00  0.00    -0.074 A 
ATOM      7  C6  UNL d   1      -0.072   0.842   3.096  0.00  0.00     0.077 C 
ATOM      8  C7  UNL d   1      -2.135   0.556   1.691  0.00  0.00    -0.001 A 
ENDROOT
TORSDOF 0
ENDMDL
