MODEL 1
REMARK minimizedAffinity 4.50358963
REMARK minimizedRMSD -1
REMARK  0 active torsions:
REMARK  status: ('A' for Active; 'I' for Inactive)
ROOT
ATOM      1  C   UNL d   1      -4.967   2.688   3.873  0.00  0.00     0.077 C 
ATOM      2  C1  UNL d   1      -4.390   1.752   2.853  0.00  0.00    -0.074 A 
ATOM      3  C2  UNL d   1      -5.210   1.118   1.914  0.00  0.00    -0.005 A 
ATOM      4  C3  UNL d   1      -4.658   0.258   0.965  0.00  0.00     0.006 A 
ATOM      5  C4  UNL d   1      -3.282   0.023   0.946  0.00  0.00    -0.005 A 
ATOM      6  C5  UNL d   1      -2.447   0.649   1.877  0.00  0.00    -0.074 A 
ATOM      7  C6  UNL d   1      -0.965   0.415   1.864  0.00  0.00     0.077 C 
ATOM      8  C7  UNL d   1      -3.009   1.517   2.823  0.00  0.00    -0.001 A 
ENDROOT
TORSDOF 0
ENDMDL
