MODEL 1
REMARK minimizedAffinity -0.240160406
REMARK minimizedRMSD -1
REMARK  0 active torsions:
REMARK  status: ('A' for Active; 'I' for Inactive)
ROOT
ATOM      1  C   UNL d   1       5.590  -6.000   4.032  0.00  0.00     0.077 C 
ATOM      2  C1  UNL d   1       4.404  -5.892   3.120  0.00  0.00    -0.074 A 
ATOM      3  C2  UNL d   1       4.570  -5.713   1.743  0.00  0.00    -0.005 A 
ATOM      4  C3  UNL d   1       3.458  -5.624   0.906  0.00  0.00     0.006 A 
ATOM      5  C4  UNL d   1       2.170  -5.712   1.437  0.00  0.00    -0.005 A 
ATOM      6  C5  UNL d   1       1.985  -5.891   2.812  0.00  0.00    -0.074 A 
ATOM      7  C6  UNL d   1       0.608  -5.997   3.397  0.00  0.00     0.077 C 
ATOM      8  C7  UNL d   1       3.108  -5.987   3.645  0.00  0.00    -0.001 A 
ENDROOT
TORSDOF 0
ENDMDL
