MODEL 1
REMARK minimizedAffinity -0.44264859
REMARK minimizedRMSD -1
REMARK  0 active torsions:
REMARK  status: ('A' for Active; 'I' for Inactive)
ROOT
ATOM      1  C   UNL d   1      -2.154  -1.769   0.601  0.00  0.00     0.077 C 
ATOM      2  C1  UNL d   1      -1.910  -3.245   0.707  0.00  0.00    -0.074 A 
ATOM      3  C2  UNL d   1      -2.973  -4.153   0.674  0.00  0.00    -0.005 A 
ATOM      4  C3  UNL d   1      -2.730  -5.524   0.764  0.00  0.00     0.006 A 
ATOM      5  C4  UNL d   1      -1.424  -5.999   0.886  0.00  0.00    -0.005 A 
ATOM      6  C5  UNL d   1      -0.349  -5.106   0.919  0.00  0.00    -0.074 A 
ATOM      7  C6  UNL d   1       1.062  -5.601   1.041  0.00  0.00     0.077 C 
ATOM      8  C7  UNL d   1      -0.600  -3.731   0.822  0.00  0.00    -0.001 A 
ENDROOT
TORSDOF 0
ENDMDL
