MODEL 1
REMARK minimizedAffinity 2.86397266
REMARK minimizedRMSD -1
REMARK  0 active torsions:
REMARK  status: ('A' for Active; 'I' for Inactive)
ROOT
ATOM      1  C   UNL d   1       0.692   0.428   3.374  0.00  0.00     0.077 C 
ATOM      2  C1  UNL d   1       1.715   0.259   2.291  0.00  0.00    -0.074 A 
ATOM      3  C2  UNL d   1       1.350   0.312   0.942  0.00  0.00    -0.005 A 
ATOM      4  C3  UNL d   1       2.314   0.163  -0.054  0.00  0.00     0.006 A 
ATOM      5  C4  UNL d   1       3.652  -0.042   0.288  0.00  0.00    -0.005 A 
ATOM      6  C5  UNL d   1       4.036  -0.097   1.631  0.00  0.00    -0.074 A 
ATOM      7  C6  UNL d   1       5.471  -0.306   2.016  0.00  0.00     0.077 C 
ATOM      8  C7  UNL d   1       3.062   0.061   2.626  0.00  0.00    -0.001 A 
ENDROOT
TORSDOF 0
ENDMDL
