MODEL 1
REMARK minimizedAffinity 9.98032475
REMARK minimizedRMSD -1
REMARK  0 active torsions:
REMARK  status: ('A' for Active; 'I' for Inactive)
ROOT
ATOM      1  C   UNL d   1      -5.032   2.692   2.081  0.00  0.00     0.077 C 
ATOM      2  C1  UNL d   1      -4.400   1.456   1.514  0.00  0.00    -0.074 A 
ATOM      3  C2  UNL d   1      -5.128   0.588   0.694  0.00  0.00    -0.005 A 
ATOM      4  C3  UNL d   1      -4.524  -0.553   0.165  0.00  0.00     0.006 A 
ATOM      5  C4  UNL d   1      -3.188  -0.837   0.451  0.00  0.00    -0.005 A 
ATOM      6  C5  UNL d   1      -2.444   0.020   1.268  0.00  0.00    -0.074 A 
ATOM      7  C6  UNL d   1      -1.004  -0.266   1.577  0.00  0.00     0.077 C 
ATOM      8  C7  UNL d   1      -3.056   1.168   1.789  0.00  0.00    -0.001 A 
ENDROOT
TORSDOF 0
ENDMDL
