MODEL 1
REMARK minimizedAffinity 3.68065977
REMARK minimizedRMSD -1
REMARK  0 active torsions:
REMARK  status: ('A' for Active; 'I' for Inactive)
ROOT
ATOM      1  C   UNL d   1      -4.839   1.279   4.079  0.00  0.00     0.077 C 
ATOM      2  C1  UNL d   1      -3.989   0.697   2.989  0.00  0.00    -0.074 A 
ATOM      3  C2  UNL d   1      -2.641   1.049   2.864  0.00  0.00    -0.005 A 
ATOM      4  C3  UNL d   1      -1.860   0.493   1.851  0.00  0.00     0.006 A 
ATOM      5  C4  UNL d   1      -2.417  -0.420   0.955  0.00  0.00    -0.005 A 
ATOM      6  C5  UNL d   1      -3.763  -0.785   1.065  0.00  0.00    -0.074 A 
ATOM      7  C6  UNL d   1      -4.375  -1.772   0.116  0.00  0.00     0.077 C 
ATOM      8  C7  UNL d   1      -4.540  -0.226   2.090  0.00  0.00    -0.001 A 
ENDROOT
TORSDOF 0
ENDMDL
