MODEL 1
REMARK minimizedAffinity 3.23736453
REMARK minimizedRMSD -1
REMARK  0 active torsions:
REMARK  status: ('A' for Active; 'I' for Inactive)
ROOT
ATOM      1  C1  DEN d   1       5.985   2.403  -5.215  0.00  0.00     0.130 A 
ATOM      2  C2  DEN d   1       5.961   3.005  -3.885  0.00  0.00    -0.031 A 
ATOM      3  C3  DEN d   1       5.955   1.915  -2.890  0.00  0.00     0.027 A 
ATOM      4  C4  DEN d   1       5.988  -0.635  -3.276  0.00  0.00     0.027 A 
ATOM      5  C5  DEN d   1       6.000  -1.625  -4.234  0.00  0.00    -0.003 A 
ATOM      6  C6  DEN d   1       5.973  -1.345  -5.574  0.00  0.00     0.001 A 
ATOM      7  C7  DEN d   1       5.980  -0.042  -5.995  0.00  0.00     0.017 A 
ATOM      8  C8  DEN d   1       5.960   0.962  -5.036  0.00  0.00    -0.094 A 
ATOM      9  C9  DEN d   1       5.999   0.659  -3.686  0.00  0.00    -0.072 A 
ENDROOT
TORSDOF 0
ENDMDL
