MODEL 1
REMARK minimizedAffinity 7.84693623
REMARK minimizedRMSD -1
REMARK  0 active torsions:
REMARK  status: ('A' for Active; 'I' for Inactive)
ROOT
ATOM      1  C1  DEN d   1       1.470  -4.302   1.282  0.00  0.00     0.130 A 
ATOM      2  C2  DEN d   1       1.104  -3.032   1.904  0.00  0.00    -0.031 A 
ATOM      3  C3  DEN d   1       2.348  -2.287   2.187  0.00  0.00     0.027 A 
ATOM      4  C4  DEN d   1       4.790  -2.972   1.720  0.00  0.00     0.027 A 
ATOM      5  C5  DEN d   1       5.601  -3.965   1.216  0.00  0.00    -0.003 A 
ATOM      6  C6  DEN d   1       5.098  -5.144   0.734  0.00  0.00     0.001 A 
ATOM      7  C7  DEN d   1       3.743  -5.342   0.704  0.00  0.00     0.017 A 
ATOM      8  C8  DEN d   1       2.919  -4.348   1.217  0.00  0.00    -0.094 A 
ATOM      9  C9  DEN d   1       3.446  -3.158   1.689  0.00  0.00    -0.072 A 
ENDROOT
TORSDOF 0
ENDMDL
