MODEL 1
REMARK minimizedAffinity 13.6847601
REMARK minimizedRMSD -1
REMARK  0 active torsions:
REMARK  status: ('A' for Active; 'I' for Inactive)
ROOT
ATOM      1  C1  DEN d   1       0.831   4.609  -3.539  0.00  0.00     0.130 A 
ATOM      2  C2  DEN d   1       0.357   5.880  -4.079  0.00  0.00    -0.031 A 
ATOM      3  C3  DEN d   1      -1.115   5.906  -3.961  0.00  0.00     0.027 A 
ATOM      4  C4  DEN d   1      -2.697   4.114  -2.993  0.00  0.00     0.027 A 
ATOM      5  C5  DEN d   1      -2.760   2.860  -2.426  0.00  0.00    -0.003 A 
ATOM      6  C6  DEN d   1      -1.643   2.094  -2.222  0.00  0.00     0.001 A 
ATOM      7  C7  DEN d   1      -0.409   2.593  -2.547  0.00  0.00     0.017 A 
ATOM      8  C8  DEN d   1      -0.339   3.853  -3.127  0.00  0.00    -0.094 A 
ATOM      9  C9  DEN d   1      -1.478   4.617  -3.314  0.00  0.00    -0.072 A 
ENDROOT
TORSDOF 0
ENDMDL
