MODEL 1
REMARK minimizedAffinity 11.439805
REMARK minimizedRMSD -1
REMARK  0 active torsions:
REMARK  status: ('A' for Active; 'I' for Inactive)
ROOT
ATOM      1  C1  DEN d   1       0.831  -1.516   1.448  0.00  0.00     0.130 A 
ATOM      2  C2  DEN d   1       0.470  -2.173   2.701  0.00  0.00    -0.031 A 
ATOM      3  C3  DEN d   1      -0.977  -2.467   2.663  0.00  0.00     0.027 A 
ATOM      4  C4  DEN d   1      -2.683  -1.975   0.792  0.00  0.00     0.027 A 
ATOM      5  C5  DEN d   1      -2.849  -1.421  -0.458  0.00  0.00    -0.003 A 
ATOM      6  C6  DEN d   1      -1.817  -0.834  -1.140  0.00  0.00     0.001 A 
ATOM      7  C7  DEN d   1      -0.560  -0.828  -0.595  0.00  0.00     0.017 A 
ATOM      8  C8  DEN d   1      -0.386  -1.378   0.668  0.00  0.00    -0.094 A 
ATOM      9  C9  DEN d   1      -1.440  -1.978   1.336  0.00  0.00    -0.072 A 
ENDROOT
TORSDOF 0
ENDMDL
