MODEL 1
REMARK minimizedAffinity 3.30025554
REMARK minimizedRMSD -1
REMARK  0 active torsions:
REMARK  status: ('A' for Active; 'I' for Inactive)
ROOT
ATOM      1  C1  DEN d   1       0.288  -1.398  -0.478  0.00  0.00     0.130 A 
ATOM      2  C2  DEN d   1       1.667  -1.876  -0.538  0.00  0.00    -0.031 A 
ATOM      3  C3  DEN d   1       2.121  -2.132   0.844  0.00  0.00     0.027 A 
ATOM      4  C4  DEN d   1       0.829  -1.840   3.057  0.00  0.00     0.027 A 
ATOM      5  C5  DEN d   1      -0.368  -1.449   3.615  0.00  0.00    -0.003 A 
ATOM      6  C6  DEN d   1      -1.410  -0.985   2.856  0.00  0.00     0.001 A 
ATOM      7  C7  DEN d   1      -1.290  -0.943   1.492  0.00  0.00     0.017 A 
ATOM      8  C8  DEN d   1      -0.084  -1.329   0.923  0.00  0.00    -0.094 A 
ATOM      9  C9  DEN d   1       0.953  -1.807   1.706  0.00  0.00    -0.072 A 
ENDROOT
TORSDOF 0
ENDMDL
