MODEL 1
REMARK minimizedAffinity 4.21952963
REMARK minimizedRMSD -1
REMARK  0 active torsions:
REMARK  status: ('A' for Active; 'I' for Inactive)
ROOT
ATOM      1  C1  DEN d   1       0.055  -2.802   2.993  0.00  0.00     0.130 A 
ATOM      2  C2  DEN d   1       0.012  -1.342   2.970  0.00  0.00    -0.031 A 
ATOM      3  C3  DEN d   1       1.015  -0.871   1.993  0.00  0.00     0.027 A 
ATOM      4  C4  DEN d   1       2.618  -2.253   0.519  0.00  0.00     0.027 A 
ATOM      5  C5  DEN d   1       3.029  -3.528   0.197  0.00  0.00    -0.003 A 
ATOM      6  C6  DEN d   1       2.507  -4.639   0.804  0.00  0.00     0.001 A 
ATOM      7  C7  DEN d   1       1.510  -4.499   1.733  0.00  0.00     0.017 A 
ATOM      8  C8  DEN d   1       1.095  -3.217   2.068  0.00  0.00    -0.094 A 
ATOM      9  C9  DEN d   1       1.626  -2.107   1.434  0.00  0.00    -0.072 A 
ENDROOT
TORSDOF 0
ENDMDL
