MODEL 1
REMARK minimizedAffinity 12.2553034
REMARK minimizedRMSD -1
REMARK  0 active torsions:
REMARK  status: ('A' for Active; 'I' for Inactive)
ROOT
ATOM      1  C1  DEN d   1      -2.352   2.722  -2.119  0.00  0.00     0.130 A 
ATOM      2  C2  DEN d   1      -1.066   3.368  -2.368  0.00  0.00    -0.031 A 
ATOM      3  C3  DEN d   1       0.001   2.399  -2.047  0.00  0.00     0.027 A 
ATOM      4  C4  DEN d   1      -0.212  -0.028  -1.200  0.00  0.00     0.027 A 
ATOM      5  C5  DEN d   1      -1.100  -1.013  -0.829  0.00  0.00    -0.003 A 
ATOM      6  C6  DEN d   1      -2.455  -0.813  -0.829  0.00  0.00     0.001 A 
ATOM      7  C7  DEN d   1      -2.964   0.387  -1.251  0.00  0.00     0.017 A 
ATOM      8  C8  DEN d   1      -2.074   1.387  -1.620  0.00  0.00    -0.094 A 
ATOM      9  C9  DEN d   1      -0.709   1.161  -1.625  0.00  0.00    -0.072 A 
ENDROOT
TORSDOF 0
ENDMDL
