MODEL 1
REMARK minimizedAffinity -4.17879534
REMARK minimizedRMSD -1
REMARK  1 active torsions:
REMARK  status: ('A' for Active; 'I' for Inactive)
REMARK    1  A    between atoms: C1_2  and  C2_3 
ROOT
ATOM      1  C2  UNL d   1       0.905  -4.215  -1.283  0.00  0.00    -0.073 A 
ATOM      2  C3  UNL d   1       1.107  -4.067  -2.660  0.00  0.00    -0.002 A 
ATOM      3  C4  UNL d   1       0.964  -2.816  -3.263  0.00  0.00     0.004 A 
ATOM      4  C5  UNL d   1       0.626  -1.701  -2.496  0.00  0.00    -0.004 A 
ATOM      5  C6  UNL d   1       0.432  -1.827  -1.117  0.00  0.00    -0.075 A 
ATOM      6  C7  UNL d   1       0.066  -0.638  -0.278  0.00  0.00     0.076 C 
ATOM      7  C8  UNL d   1       0.575  -3.086  -0.519  0.00  0.00     0.001 A 
ENDROOT
BRANCH   1   8
ATOM      8  C1  UNL d   1       1.064  -5.562  -0.627  0.00  0.00     0.053 C 
ATOM      9  C   UNL d   1       2.367  -5.667   0.150  0.00  0.00     0.018 C 
ENDBRANCH   1   8
TORSDOF 1
ENDMDL
