MODEL 1
REMARK minimizedAffinity -3.35929799
REMARK minimizedRMSD -1
REMARK  1 active torsions:
REMARK  status: ('A' for Active; 'I' for Inactive)
REMARK    1  A    between atoms: C1_2  and  C2_3 
ROOT
ATOM      1  C2  UNL d   1      -0.762   1.979   1.104  0.00  0.00    -0.073 A 
ATOM      2  C3  UNL d   1      -1.218   1.297   2.237  0.00  0.00    -0.002 A 
ATOM      3  C4  UNL d   1      -1.088  -0.090   2.325  0.00  0.00     0.004 A 
ATOM      4  C5  UNL d   1      -0.497  -0.807   1.285  0.00  0.00    -0.004 A 
ATOM      5  C6  UNL d   1      -0.024  -0.141   0.149  0.00  0.00    -0.075 A 
ATOM      6  C7  UNL d   1       0.613  -0.898  -0.980  0.00  0.00     0.076 C 
ATOM      7  C8  UNL d   1      -0.160   1.251   0.067  0.00  0.00     0.001 A 
ENDROOT
BRANCH   1   8
ATOM      8  C1  UNL d   1      -0.893   3.477   1.008  0.00  0.00     0.053 C 
ATOM      9  C   UNL d   1      -0.097   4.046  -0.156  0.00  0.00     0.018 C 
ENDBRANCH   1   8
TORSDOF 1
ENDMDL
