MODEL 1
REMARK minimizedAffinity 0.566259623
REMARK minimizedRMSD -1
REMARK  1 active torsions:
REMARK  status: ('A' for Active; 'I' for Inactive)
REMARK    1  A    between atoms: C1_2  and  C2_3 
ROOT
ATOM      1  C2  UNL d   1       1.183  -1.597  -0.898  0.00  0.00    -0.073 A 
ATOM      2  C3  UNL d   1       1.613  -0.303  -1.214  0.00  0.00    -0.002 A 
ATOM      3  C4  UNL d   1       1.265   0.774  -0.397  0.00  0.00     0.004 A 
ATOM      4  C5  UNL d   1       0.492   0.568   0.745  0.00  0.00    -0.004 A 
ATOM      5  C6  UNL d   1       0.063  -0.720   1.084  0.00  0.00    -0.075 A 
ATOM      6  C7  UNL d   1      -0.771  -0.958   2.308  0.00  0.00     0.076 C 
ATOM      7  C8  UNL d   1       0.414  -1.796   0.257  0.00  0.00     0.001 A 
ENDROOT
BRANCH   1   8
ATOM      8  C1  UNL d   1       1.561  -2.764  -1.774  0.00  0.00     0.053 C 
ATOM      9  C   UNL d   1       0.482  -3.082  -2.797  0.00  0.00     0.018 C 
ENDBRANCH   1   8
TORSDOF 1
ENDMDL
