MODEL 1
REMARK minimizedAffinity -4.7863574
REMARK minimizedRMSD -1
REMARK  1 active torsions:
REMARK  status: ('A' for Active; 'I' for Inactive)
REMARK    1  A    between atoms: C1_2  and  C2_3 
ROOT
ATOM      1  C2  UNL d   1      -0.684   0.645   0.852  0.00  0.00    -0.073 A 
ATOM      2  C3  UNL d   1      -1.343   1.042   2.021  0.00  0.00    -0.002 A 
ATOM      3  C4  UNL d   1      -1.574   2.395   2.275  0.00  0.00     0.004 A 
ATOM      4  C5  UNL d   1      -1.157   3.362   1.361  0.00  0.00    -0.004 A 
ATOM      5  C6  UNL d   1      -0.507   2.985   0.182  0.00  0.00    -0.075 A 
ATOM      6  C7  UNL d   1      -0.049   4.013  -0.810  0.00  0.00     0.076 C 
ATOM      7  C8  UNL d   1      -0.275   1.625  -0.065  0.00  0.00     0.001 A 
ENDROOT
BRANCH   1   8
ATOM      8  C1  UNL d   1      -0.437  -0.814   0.570  0.00  0.00     0.053 C 
ATOM      9  C   UNL d   1       0.534  -1.016  -0.583  0.00  0.00     0.018 C 
ENDBRANCH   1   8
TORSDOF 1
ENDMDL
