MODEL 1
REMARK minimizedAffinity -2.25291276
REMARK minimizedRMSD -1
REMARK  1 active torsions:
REMARK  status: ('A' for Active; 'I' for Inactive)
REMARK    1  A    between atoms: C1_2  and  C2_3 
ROOT
ATOM      1  C2  UNL d   1      -0.398   1.215   0.775  0.00  0.00    -0.073 A 
ATOM      2  C3  UNL d   1       0.125   2.094  -0.179  0.00  0.00    -0.002 A 
ATOM      3  C4  UNL d   1       0.822   1.601  -1.283  0.00  0.00     0.004 A 
ATOM      4  C5  UNL d   1       0.997   0.227  -1.448  0.00  0.00    -0.004 A 
ATOM      5  C6  UNL d   1       0.471  -0.668  -0.510  0.00  0.00    -0.075 A 
ATOM      6  C7  UNL d   1       0.653  -2.148  -0.671  0.00  0.00     0.076 C 
ATOM      7  C8  UNL d   1      -0.226  -0.165   0.597  0.00  0.00     0.001 A 
ENDROOT
BRANCH   1   8
ATOM      8  C1  UNL d   1      -1.158   1.741   1.966  0.00  0.00     0.053 C 
ATOM      9  C   UNL d   1      -1.154   3.261   2.018  0.00  0.00     0.018 C 
ENDBRANCH   1   8
TORSDOF 1
ENDMDL
