MODEL 1
REMARK minimizedAffinity -4.51582813
REMARK minimizedRMSD -1
REMARK  1 active torsions:
REMARK  status: ('A' for Active; 'I' for Inactive)
REMARK    1  A    between atoms: C1_2  and  C2_3 
ROOT
ATOM      1  C2  UNL d   1      -0.561   0.503   0.924  0.00  0.00    -0.073 A 
ATOM      2  C3  UNL d   1      -1.497   0.948   1.864  0.00  0.00    -0.002 A 
ATOM      3  C4  UNL d   1      -1.902   2.283   1.879  0.00  0.00     0.004 A 
ATOM      4  C5  UNL d   1      -1.380   3.185   0.952  0.00  0.00    -0.004 A 
ATOM      5  C6  UNL d   1      -0.452   2.757  -0.003  0.00  0.00    -0.075 A 
ATOM      6  C7  UNL d   1       0.121   3.715  -1.006  0.00  0.00     0.076 C 
ATOM      7  C8  UNL d   1      -0.049   1.415  -0.010  0.00  0.00     0.001 A 
ENDROOT
BRANCH   1   8
ATOM      8  C1  UNL d   1      -0.126  -0.940   0.900  0.00  0.00     0.053 C 
ATOM      9  C   UNL d   1       0.156  -1.427  -0.512  0.00  0.00     0.018 C 
ENDBRANCH   1   8
TORSDOF 1
ENDMDL
