MODEL 1
REMARK minimizedAffinity -5.28112698
REMARK minimizedRMSD -1
REMARK  1 active torsions:
REMARK  status: ('A' for Active; 'I' for Inactive)
REMARK    1  A    between atoms: C1_2  and  C2_3 
ROOT
ATOM      1  C2  UNL d   1      -0.525   0.283   0.171  0.00  0.00    -0.073 A 
ATOM      2  C3  UNL d   1      -1.076   0.420   1.450  0.00  0.00    -0.002 A 
ATOM      3  C4  UNL d   1      -1.326   1.687   1.978  0.00  0.00     0.004 A 
ATOM      4  C5  UNL d   1      -1.035   2.829   1.231  0.00  0.00    -0.004 A 
ATOM      5  C6  UNL d   1      -0.495   2.712  -0.054  0.00  0.00    -0.075 A 
ATOM      6  C7  UNL d   1      -0.175   3.930  -0.869  0.00  0.00     0.076 C 
ATOM      7  C8  UNL d   1      -0.244   1.436  -0.576  0.00  0.00     0.001 A 
ENDROOT
BRANCH   1   8
ATOM      8  C1  UNL d   1      -0.259  -1.084  -0.406  0.00  0.00     0.053 C 
ATOM      9  C   UNL d   1       1.007  -1.111  -1.247  0.00  0.00     0.018 C 
ENDBRANCH   1   8
TORSDOF 1
ENDMDL
