MODEL 1
REMARK minimizedAffinity -1.91829407
REMARK minimizedRMSD -1
REMARK  1 active torsions:
REMARK  status: ('A' for Active; 'I' for Inactive)
REMARK    1  A    between atoms: C1_2  and  C2_3 
ROOT
ATOM      1  C2  UNL d   1       0.168   2.547   0.666  0.00  0.00    -0.073 A 
ATOM      2  C3  UNL d   1       0.862   2.490  -0.548  0.00  0.00    -0.002 A 
ATOM      3  C4  UNL d   1       1.296   1.264  -1.055  0.00  0.00     0.004 A 
ATOM      4  C5  UNL d   1       1.034   0.084  -0.359  0.00  0.00    -0.004 A 
ATOM      5  C6  UNL d   1       0.331   0.119   0.849  0.00  0.00    -0.075 A 
ATOM      6  C7  UNL d   1       0.043  -1.141   1.611  0.00  0.00     0.076 C 
ATOM      7  C8  UNL d   1      -0.099   1.354   1.354  0.00  0.00     0.001 A 
ENDROOT
BRANCH   1   8
ATOM      8  C1  UNL d   1      -0.308   3.867   1.215  0.00  0.00     0.053 C 
ATOM      9  C   UNL d   1       0.399   5.044   0.560  0.00  0.00     0.018 C 
ENDBRANCH   1   8
TORSDOF 1
ENDMDL
