MODEL 1
REMARK minimizedAffinity -5.70886612
REMARK minimizedRMSD -1
REMARK  1 active torsions:
REMARK  status: ('A' for Active; 'I' for Inactive)
REMARK    1  A    between atoms: C1_2  and  C2_3 
ROOT
ATOM      1  C2  UNL d   1      -0.148   1.905   0.692  0.00  0.00    -0.073 A 
ATOM      2  C3  UNL d   1      -0.864   1.544   1.839  0.00  0.00    -0.002 A 
ATOM      3  C4  UNL d   1      -0.929   0.209   2.239  0.00  0.00     0.004 A 
ATOM      4  C5  UNL d   1      -0.273  -0.777   1.502  0.00  0.00    -0.004 A 
ATOM      5  C6  UNL d   1       0.457  -0.435   0.359  0.00  0.00    -0.075 A 
ATOM      6  C7  UNL d   1       1.165  -1.484  -0.447  0.00  0.00     0.076 C 
ATOM      7  C8  UNL d   1       0.515   0.908  -0.038  0.00  0.00     0.001 A 
ENDROOT
BRANCH   1   8
ATOM      8  C1  UNL d   1      -0.070   3.346   0.260  0.00  0.00     0.053 C 
ATOM      9  C   UNL d   1       0.586   3.498  -1.103  0.00  0.00     0.018 C 
ENDBRANCH   1   8
TORSDOF 1
ENDMDL
