MODEL 1
REMARK minimizedAffinity 8.51731873
REMARK minimizedRMSD -1
REMARK  1 active torsions:
REMARK  status: ('A' for Active; 'I' for Inactive)
REMARK    1  A    between atoms: N_2  and  C1_3 
ROOT
ATOM      1  C1  UNL d   1       5.126   1.804  -2.151  0.00  0.00     0.143 A 
ATOM      2  C2  UNL d   1       4.123   0.920  -2.565  0.00  0.00    -0.057 A 
ATOM      3  C3  UNL d   1       3.343   0.221  -1.636  0.00  0.00     0.033 A 
ATOM      4  C4  UNL d   1       3.572   0.373  -0.272  0.00  0.00    -0.042 A 
ATOM      5  C5  UNL d   1       4.580   1.227   0.161  0.00  0.00     0.033 A 
ATOM      6  C6  UNL d   1       5.351   1.928  -0.771  0.00  0.00    -0.057 A 
ENDROOT
BRANCH   1   7
ATOM      7  N   UNL d   1       6.000   2.453  -3.027  0.00  0.00    -0.732 N 
ATOM      8  C   UNL d   1       5.987   3.895  -3.147  0.00  0.00     0.284 C 
ATOM      9  H3  UNL d   1       6.932   2.045  -3.018  0.00  0.00     0.395 HD
ENDBRANCH   1   7
TORSDOF 1
ENDMDL
