MODEL 1
REMARK minimizedAffinity 7.54439259
REMARK minimizedRMSD -1
REMARK  1 active torsions:
REMARK  status: ('A' for Active; 'I' for Inactive)
REMARK    1  A    between atoms: N_2  and  C1_3 
ROOT
ATOM      1  C1  UNL d   1       1.421   3.223   3.433  0.00  0.00     0.143 A 
ATOM      2  C2  UNL d   1       2.309   2.610   2.543  0.00  0.00    -0.057 A 
ATOM      3  C3  UNL d   1       2.193   2.795   1.160  0.00  0.00     0.033 A 
ATOM      4  C4  UNL d   1       1.166   3.575   0.640  0.00  0.00    -0.042 A 
ATOM      5  C5  UNL d   1       0.257   4.174   1.505  0.00  0.00     0.033 A 
ATOM      6  C6  UNL d   1       0.382   3.991   2.885  0.00  0.00    -0.057 A 
ENDROOT
BRANCH   1   7
ATOM      7  N   UNL d   1       1.424   2.998   4.812  0.00  0.00    -0.732 N 
ATOM      8  C   UNL d   1       1.749   1.693   5.346  0.00  0.00     0.284 C 
ATOM      9  H3  UNL d   1       1.832   3.773   5.331  0.00  0.00     0.395 HD
ENDBRANCH   1   7
TORSDOF 1
ENDMDL
