MODEL 1
REMARK minimizedAffinity -0.346100003
REMARK minimizedRMSD -1
REMARK  1 active torsions:
REMARK  status: ('A' for Active; 'I' for Inactive)
REMARK    1  A    between atoms: C3_4  and  O_7 
ROOT
ATOM      1  C   UNL d   1      -3.531  -1.208   5.186  0.00  0.00    -0.033 A 
ATOM      2  C1  UNL d   1      -2.718  -0.399   4.389  0.00  0.00     0.039 A 
ATOM      3  C2  UNL d   1      -1.333  -0.574   4.398  0.00  0.00    -0.080 A 
ATOM      4  C3  UNL d   1      -0.774  -1.561   5.206  0.00  0.00     0.150 A 
ATOM      5  C4  UNL d   1      -1.578  -2.373   5.999  0.00  0.00    -0.007 A 
ATOM      6  C5  UNL d   1      -2.961  -2.196   5.989  0.00  0.00     0.039 A 
ENDROOT
BRANCH   4   7
ATOM      7  O   UNL d   1       0.573  -1.766   5.252  0.00  0.00    -0.526 OA
ATOM      8  H5  UNL d   1       1.003  -1.113   4.675  0.00  0.00     0.418 HD
ENDBRANCH   4   7
TORSDOF 1
ENDMDL
