MODEL 1
REMARK minimizedAffinity 0.841918766
REMARK minimizedRMSD -1
REMARK  1 active torsions:
REMARK  status: ('A' for Active; 'I' for Inactive)
REMARK    1  A    between atoms: C3_4  and  O_7 
ROOT
ATOM      1  C   UNL d   1      -3.102  -0.853   5.208  0.00  0.00    -0.033 A 
ATOM      2  C1  UNL d   1      -2.276  -0.082   4.388  0.00  0.00     0.039 A 
ATOM      3  C2  UNL d   1      -0.900  -0.316   4.362  0.00  0.00    -0.080 A 
ATOM      4  C3  UNL d   1      -0.363  -1.324   5.158  0.00  0.00     0.150 A 
ATOM      5  C4  UNL d   1      -1.181  -2.099   5.974  0.00  0.00    -0.007 A 
ATOM      6  C5  UNL d   1      -2.555  -1.863   6.000  0.00  0.00     0.039 A 
ENDROOT
BRANCH   4   7
ATOM      7  O   UNL d   1       0.974  -1.587   5.169  0.00  0.00    -0.526 OA
ATOM      8  H5  UNL d   1       1.417  -0.955   4.579  0.00  0.00     0.418 HD
ENDBRANCH   4   7
TORSDOF 1
ENDMDL
