MODEL 1
REMARK minimizedAffinity -4.82429218
REMARK minimizedRMSD -1
REMARK  1 active torsions:
REMARK  status: ('A' for Active; 'I' for Inactive)
REMARK    1  A    between atoms: C3_4  and  O_7 
ROOT
ATOM      1  C   UNL d   1       0.211   1.726   0.093  0.00  0.00    -0.033 A 
ATOM      2  C1  UNL d   1       0.689   3.036   0.041  0.00  0.00     0.039 A 
ATOM      3  C2  UNL d   1       1.914   3.358   0.628  0.00  0.00    -0.080 A 
ATOM      4  C3  UNL d   1       2.650   2.362   1.263  0.00  0.00     0.150 A 
ATOM      5  C4  UNL d   1       2.181   1.053   1.316  0.00  0.00    -0.007 A 
ATOM      6  C5  UNL d   1       0.957   0.734   0.730  0.00  0.00     0.039 A 
ENDROOT
BRANCH   4   7
ATOM      7  O   UNL d   1       3.849   2.629   1.855  0.00  0.00    -0.526 OA
ATOM      8  H5  UNL d   1       4.032   3.579   1.764  0.00  0.00     0.418 HD
ENDBRANCH   4   7
TORSDOF 1
ENDMDL
