MODEL 1
REMARK minimizedAffinity -2.2714231
REMARK minimizedRMSD -1
REMARK  1 active torsions:
REMARK  status: ('A' for Active; 'I' for Inactive)
REMARK    1  A    between atoms: C3_4  and  O_7 
ROOT
ATOM      1  C   UNL d   1       0.287   0.682  -0.083  0.00  0.00    -0.033 A 
ATOM      2  C1  UNL d   1       0.503   2.035  -0.356  0.00  0.00     0.039 A 
ATOM      3  C2  UNL d   1       1.674   2.658   0.078  0.00  0.00    -0.080 A 
ATOM      4  C3  UNL d   1       2.621   1.919   0.782  0.00  0.00     0.150 A 
ATOM      5  C4  UNL d   1       2.415   0.571   1.053  0.00  0.00    -0.007 A 
ATOM      6  C5  UNL d   1       1.244  -0.050   0.620  0.00  0.00     0.039 A 
ENDROOT
BRANCH   4   7
ATOM      7  O   UNL d   1       3.777   2.486   1.230  0.00  0.00    -0.526 OA
ATOM      8  H5  UNL d   1       3.770   3.429   0.995  0.00  0.00     0.418 HD
ENDBRANCH   4   7
TORSDOF 1
ENDMDL
