MODEL 1
REMARK minimizedAffinity -3.73548532
REMARK minimizedRMSD -1
REMARK  1 active torsions:
REMARK  status: ('A' for Active; 'I' for Inactive)
REMARK    1  A    between atoms: C3_4  and  O_7 
ROOT
ATOM      1  C   UNL d   1      -1.499   0.369   0.610  0.00  0.00    -0.033 A 
ATOM      2  C1  UNL d   1      -2.265  -0.629   1.215  0.00  0.00     0.039 A 
ATOM      3  C2  UNL d   1      -1.721  -1.897   1.428  0.00  0.00    -0.080 A 
ATOM      4  C3  UNL d   1      -0.410  -2.153   1.033  0.00  0.00     0.150 A 
ATOM      5  C4  UNL d   1       0.360  -1.163   0.433  0.00  0.00    -0.007 A 
ATOM      6  C5  UNL d   1      -0.186   0.103   0.220  0.00  0.00     0.039 A 
ENDROOT
BRANCH   4   7
ATOM      7  O   UNL d   1       0.163  -3.377   1.215  0.00  0.00    -0.526 OA
ATOM      8  H5  UNL d   1      -0.497  -3.969   1.614  0.00  0.00     0.418 HD
ENDBRANCH   4   7
TORSDOF 1
ENDMDL
