MODEL 1
REMARK minimizedAffinity -1.04589188
REMARK minimizedRMSD -1
REMARK  1 active torsions:
REMARK  status: ('A' for Active; 'I' for Inactive)
REMARK    1  A    between atoms: C3_4  and  O_7 
ROOT
ATOM      1  C   UNL d   1       1.006   2.935  -0.453  0.00  0.00    -0.033 A 
ATOM      2  C1  UNL d   1       1.496   1.791  -1.086  0.00  0.00     0.039 A 
ATOM      3  C2  UNL d   1       1.072   0.526  -0.671  0.00  0.00    -0.080 A 
ATOM      4  C3  UNL d   1       0.158   0.421   0.374  0.00  0.00     0.150 A 
ATOM      5  C4  UNL d   1      -0.336   1.557   1.006  0.00  0.00    -0.007 A 
ATOM      6  C5  UNL d   1       0.089   2.818   0.591  0.00  0.00     0.039 A 
ENDROOT
BRANCH   4   7
ATOM      7  O   UNL d   1      -0.281  -0.791   0.816  0.00  0.00    -0.526 OA
ATOM      8  H5  UNL d   1       0.167  -1.486   0.306  0.00  0.00     0.418 HD
ENDBRANCH   4   7
TORSDOF 1
ENDMDL
