MODEL 1
REMARK minimizedAffinity -4.5898366
REMARK minimizedRMSD -1
REMARK  1 active torsions:
REMARK  status: ('A' for Active; 'I' for Inactive)
REMARK    1  A    between atoms: C3_4  and  O_7 
ROOT
ATOM      1  C   UNL d   1      -1.761  -2.252   0.945  0.00  0.00    -0.033 A 
ATOM      2  C1  UNL d   1      -0.782  -2.548  -0.005  0.00  0.00     0.039 A 
ATOM      3  C2  UNL d   1       0.274  -1.661  -0.221  0.00  0.00    -0.080 A 
ATOM      4  C3  UNL d   1       0.340  -0.484   0.518  0.00  0.00     0.150 A 
ATOM      5  C4  UNL d   1      -0.630  -0.184   1.469  0.00  0.00    -0.007 A 
ATOM      6  C5  UNL d   1      -1.684  -1.070   1.683  0.00  0.00     0.039 A 
ENDROOT
BRANCH   4   7
ATOM      7  O   UNL d   1       1.350   0.415   0.339  0.00  0.00    -0.526 OA
ATOM      8  H5  UNL d   1       1.930   0.089  -0.369  0.00  0.00     0.418 HD
ENDBRANCH   4   7
TORSDOF 1
ENDMDL
