MODEL 1
REMARK minimizedAffinity -3.64513731
REMARK minimizedRMSD -1
REMARK  1 active torsions:
REMARK  status: ('A' for Active; 'I' for Inactive)
REMARK    1  A    between atoms: C3_4  and  O_7 
ROOT
ATOM      1  C   UNL d   1      -1.688  -0.474   1.486  0.00  0.00    -0.033 A 
ATOM      2  C1  UNL d   1      -0.555   0.267   1.147  0.00  0.00     0.039 A 
ATOM      3  C2  UNL d   1       0.447  -0.305   0.360  0.00  0.00    -0.080 A 
ATOM      4  C3  UNL d   1       0.303  -1.618  -0.081  0.00  0.00     0.150 A 
ATOM      5  C4  UNL d   1      -0.825  -2.361   0.250  0.00  0.00    -0.007 A 
ATOM      6  C5  UNL d   1      -1.824  -1.788   1.036  0.00  0.00     0.039 A 
ENDROOT
BRANCH   4   7
ATOM      7  O   UNL d   1       1.256  -2.221  -0.847  0.00  0.00    -0.526 OA
ATOM      8  H5  UNL d   1       1.990  -1.597  -0.972  0.00  0.00     0.418 HD
ENDBRANCH   4   7
TORSDOF 1
ENDMDL
