MODEL 1
REMARK minimizedAffinity -0.345436573
REMARK minimizedRMSD -1
REMARK  1 active torsions:
REMARK  status: ('A' for Active; 'I' for Inactive)
REMARK    1  A    between atoms: C3_4  and  O_7 
ROOT
ATOM      1  C   UNL d   1      -0.632  -1.144   0.980  0.00  0.00    -0.033 A 
ATOM      2  C1  UNL d   1      -0.423  -2.479   0.631  0.00  0.00     0.039 A 
ATOM      3  C2  UNL d   1      -1.498  -3.368   0.587  0.00  0.00    -0.080 A 
ATOM      4  C3  UNL d   1      -2.776  -2.910   0.894  0.00  0.00     0.150 A 
ATOM      5  C4  UNL d   1      -2.993  -1.580   1.239  0.00  0.00    -0.007 A 
ATOM      6  C5  UNL d   1      -1.918  -0.694   1.283  0.00  0.00     0.039 A 
ENDROOT
BRANCH   4   7
ATOM      7  O   UNL d   1      -3.856  -3.742   0.870  0.00  0.00    -0.526 OA
ATOM      8  H5  UNL d   1      -3.551  -4.636   0.643  0.00  0.00     0.418 HD
ENDBRANCH   4   7
TORSDOF 1
ENDMDL
