MODEL 1
REMARK minimizedAffinity -3.13256526
REMARK minimizedRMSD -1
REMARK  1 active torsions:
REMARK  status: ('A' for Active; 'I' for Inactive)
REMARK    1  A    between atoms: C3_4  and  O_7 
ROOT
ATOM      1  C   UNL d   1      -0.404  -1.116  -0.737  0.00  0.00    -0.033 A 
ATOM      2  C1  UNL d   1      -0.434   0.038   0.048  0.00  0.00     0.039 A 
ATOM      3  C2  UNL d   1      -0.910  -0.019   1.359  0.00  0.00    -0.080 A 
ATOM      4  C3  UNL d   1      -1.350  -1.235   1.874  0.00  0.00     0.150 A 
ATOM      5  C4  UNL d   1      -1.318  -2.390   1.099  0.00  0.00    -0.007 A 
ATOM      6  C5  UNL d   1      -0.844  -2.331  -0.210  0.00  0.00     0.039 A 
ENDROOT
BRANCH   4   7
ATOM      7  O   UNL d   1      -1.826  -1.340   3.147  0.00  0.00    -0.526 OA
ATOM      8  H5  UNL d   1      -1.816  -0.457   3.553  0.00  0.00     0.418 HD
ENDBRANCH   4   7
TORSDOF 1
ENDMDL
