MODEL 1
REMARK minimizedAffinity -2.36944032
REMARK minimizedRMSD -1
REMARK  1 active torsions:
REMARK  status: ('A' for Active; 'I' for Inactive)
REMARK    1  A    between atoms: C3_4  and  O_7 
ROOT
ATOM      1  C   UNL d   1      -0.435  -0.614   1.613  0.00  0.00    -0.033 A 
ATOM      2  C1  UNL d   1      -0.027  -0.206   0.342  0.00  0.00     0.039 A 
ATOM      3  C2  UNL d   1      -0.211  -1.049  -0.756  0.00  0.00    -0.080 A 
ATOM      4  C3  UNL d   1      -0.805  -2.294  -0.569  0.00  0.00     0.150 A 
ATOM      5  C4  UNL d   1      -1.217  -2.705   0.694  0.00  0.00    -0.007 A 
ATOM      6  C5  UNL d   1      -1.031  -1.862   1.789  0.00  0.00     0.039 A 
ENDROOT
BRANCH   4   7
ATOM      7  O   UNL d   1      -1.001  -3.153  -1.609  0.00  0.00    -0.526 OA
ATOM      8  H5  UNL d   1      -0.642  -2.747  -2.416  0.00  0.00     0.418 HD
ENDBRANCH   4   7
TORSDOF 1
ENDMDL
