MODEL 1
REMARK minimizedAffinity -1.92823756
REMARK minimizedRMSD -1
REMARK  1 active torsions:
REMARK  status: ('A' for Active; 'I' for Inactive)
REMARK    1  A    between atoms: C3_4  and  O_7 
ROOT
ATOM      1  C   UNL d   1      -1.401  -2.331   0.725  0.00  0.00    -0.033 A 
ATOM      2  C1  UNL d   1      -1.148  -1.450   1.778  0.00  0.00     0.039 A 
ATOM      3  C2  UNL d   1      -0.440  -0.269   1.549  0.00  0.00    -0.080 A 
ATOM      4  C3  UNL d   1       0.009   0.020   0.263  0.00  0.00     0.150 A 
ATOM      5  C4  UNL d   1      -0.243  -0.851  -0.792  0.00  0.00    -0.007 A 
ATOM      6  C5  UNL d   1      -0.950  -2.030  -0.561  0.00  0.00     0.039 A 
ENDROOT
BRANCH   4   7
ATOM      7  O   UNL d   1       0.708   1.158  -0.009  0.00  0.00    -0.526 OA
ATOM      8  H5  UNL d   1       0.832   1.649   0.821  0.00  0.00     0.418 HD
ENDBRANCH   4   7
TORSDOF 1
ENDMDL
