MODEL 1
REMARK minimizedAffinity -3.64568567
REMARK minimizedRMSD -1
REMARK  1 active torsions:
REMARK  status: ('A' for Active; 'I' for Inactive)
REMARK    1  A    between atoms: C3_4  and  O_7 
ROOT
ATOM      1  C   UNL d   1       0.129   0.819  -0.182  0.00  0.00    -0.033 A 
ATOM      2  C1  UNL d   1      -0.464   0.749   1.080  0.00  0.00     0.039 A 
ATOM      3  C2  UNL d   1      -0.913  -0.478   1.575  0.00  0.00    -0.080 A 
ATOM      4  C3  UNL d   1      -0.761  -1.624   0.800  0.00  0.00     0.150 A 
ATOM      5  C4  UNL d   1      -0.167  -1.562  -0.456  0.00  0.00    -0.007 A 
ATOM      6  C5  UNL d   1       0.279  -0.336  -0.950  0.00  0.00     0.039 A 
ENDROOT
BRANCH   4   7
ATOM      7  O   UNL d   1      -1.187  -2.843   1.239  0.00  0.00    -0.526 OA
ATOM      8  H5  UNL d   1      -1.602  -2.728   2.110  0.00  0.00     0.418 HD
ENDBRANCH   4   7
TORSDOF 1
ENDMDL
