MODEL 1
REMARK minimizedAffinity -3.61625171
REMARK minimizedRMSD -1
REMARK  1 active torsions:
REMARK  status: ('A' for Active; 'I' for Inactive)
REMARK    1  A    between atoms: C3_4  and  O_7 
ROOT
ATOM      1  C   UNL d   1      -1.071  -0.585   1.787  0.00  0.00    -0.033 A 
ATOM      2  C1  UNL d   1      -0.259  -0.232   0.707  0.00  0.00     0.039 A 
ATOM      3  C2  UNL d   1      -0.134  -1.092  -0.385  0.00  0.00    -0.080 A 
ATOM      4  C3  UNL d   1      -0.825  -2.300  -0.386  0.00  0.00     0.150 A 
ATOM      5  C4  UNL d   1      -1.639  -2.657   0.684  0.00  0.00    -0.007 A 
ATOM      6  C5  UNL d   1      -1.762  -1.797   1.775  0.00  0.00     0.039 A 
ENDROOT
BRANCH   4   7
ATOM      7  O   UNL d   1      -0.730  -3.175  -1.428  0.00  0.00    -0.526 OA
ATOM      8  H5  UNL d   1      -0.111  -2.809  -2.081  0.00  0.00     0.418 HD
ENDBRANCH   4   7
TORSDOF 1
ENDMDL
