MODEL 1
REMARK minimizedAffinity 3.20227194
REMARK minimizedRMSD -1
REMARK  1 active torsions:
REMARK  status: ('A' for Active; 'I' for Inactive)
REMARK    1  A    between atoms: C1_2  and  C2_3 
ROOT
ATOM      1  C2  UNL d   1       4.858   1.119   3.441  0.00  0.00    -0.076 A 
ATOM      2  C3  UNL d   1       5.609   1.460   4.579  0.00  0.00     0.004 A 
ATOM      3  C4  UNL d   1       5.998   0.488   5.500  0.00  0.00    -0.003 A 
ATOM      4  C5  UNL d   1       5.642  -0.841   5.297  0.00  0.00     0.000 A 
ATOM      5  C6  UNL d   1       4.912  -1.200   4.164  0.00  0.00     0.000 A 
ATOM      6  C7  UNL d   1       4.526  -0.235   3.218  0.00  0.00    -0.073 A 
ATOM      7  C8  UNL d   1       3.734  -0.677   2.018  0.00  0.00     0.078 C 
ENDROOT
BRANCH   1   8
ATOM      8  C1  UNL d   1       4.442   2.220   2.492  0.00  0.00     0.053 C 
ATOM      9  C   UNL d   1       4.804   3.603   3.009  0.00  0.00     0.018 C 
ENDBRANCH   1   8
TORSDOF 1
ENDMDL
