MODEL 1
REMARK minimizedAffinity 4.37166023
REMARK minimizedRMSD -1
REMARK  1 active torsions:
REMARK  status: ('A' for Active; 'I' for Inactive)
REMARK    1  A    between atoms: C1_2  and  C2_3 
ROOT
ATOM      1  C2  UNL d   1       4.210  -0.191   3.148  0.00  0.00    -0.076 A 
ATOM      2  C3  UNL d   1       3.403   0.224   2.074  0.00  0.00     0.004 A 
ATOM      3  C4  UNL d   1       3.446   1.538   1.611  0.00  0.00    -0.003 A 
ATOM      4  C5  UNL d   1       4.297   2.458   2.214  0.00  0.00     0.000 A 
ATOM      5  C6  UNL d   1       5.117   2.059   3.269  0.00  0.00     0.000 A 
ATOM      6  C7  UNL d   1       5.098   0.734   3.737  0.00  0.00    -0.073 A 
ATOM      7  C8  UNL d   1       5.999   0.360   4.882  0.00  0.00     0.078 C 
ENDROOT
BRANCH   1   8
ATOM      8  C1  UNL d   1       4.101  -1.622   3.625  0.00  0.00     0.053 C 
ATOM      9  C   UNL d   1       2.963  -2.375   2.953  0.00  0.00     0.018 C 
ENDBRANCH   1   8
TORSDOF 1
ENDMDL
