MODEL 1
REMARK minimizedAffinity -1.80207765
REMARK minimizedRMSD -1
REMARK  1 active torsions:
REMARK  status: ('A' for Active; 'I' for Inactive)
REMARK    1  A    between atoms: C1_2  and  C2_3 
ROOT
ATOM      1  C2  UNL d   1      -2.819   0.496   1.432  0.00  0.00    -0.076 A 
ATOM      2  C3  UNL d   1      -3.482   1.324   2.354  0.00  0.00     0.004 A 
ATOM      3  C4  UNL d   1      -3.975   0.812   3.553  0.00  0.00    -0.003 A 
ATOM      4  C5  UNL d   1      -3.813  -0.537   3.849  0.00  0.00     0.000 A 
ATOM      5  C6  UNL d   1      -3.141  -1.369   2.954  0.00  0.00     0.000 A 
ATOM      6  C7  UNL d   1      -2.624  -0.866   1.749  0.00  0.00    -0.073 A 
ATOM      7  C8  UNL d   1      -1.914  -1.810   0.818  0.00  0.00     0.078 C 
ENDROOT
BRANCH   1   8
ATOM      8  C1  UNL d   1      -2.329   1.101   0.136  0.00  0.00     0.053 C 
ATOM      9  C   UNL d   1      -3.004   2.427  -0.179  0.00  0.00     0.018 C 
ENDBRANCH   1   8
TORSDOF 1
ENDMDL
