MODEL 1
REMARK minimizedAffinity 6.74300909
REMARK minimizedRMSD -1
REMARK  1 active torsions:
REMARK  status: ('A' for Active; 'I' for Inactive)
REMARK    1  A    between atoms: C1_2  and  C2_3 
ROOT
ATOM      1  C2  UNL d   1      -3.448  -0.696   2.198  0.00  0.00    -0.076 A 
ATOM      2  C3  UNL d   1      -2.247  -0.454   2.888  0.00  0.00     0.004 A 
ATOM      3  C4  UNL d   1      -2.256  -0.009   4.209  0.00  0.00    -0.003 A 
ATOM      4  C5  UNL d   1      -3.466   0.202   4.861  0.00  0.00     0.000 A 
ATOM      5  C6  UNL d   1      -4.666  -0.049   4.198  0.00  0.00     0.000 A 
ATOM      6  C7  UNL d   1      -4.675  -0.515   2.872  0.00  0.00    -0.073 A 
ATOM      7  C8  UNL d   1      -5.999  -0.764   2.203  0.00  0.00     0.078 C 
ENDROOT
BRANCH   1   8
ATOM      8  C1  UNL d   1      -3.376  -1.153   0.759  0.00  0.00     0.053 C 
ATOM      9  C   UNL d   1      -3.337   0.010  -0.220  0.00  0.00     0.018 C 
ENDBRANCH   1   8
TORSDOF 1
ENDMDL
