MODEL 1
REMARK minimizedAffinity 8.32138538
REMARK minimizedRMSD -1
REMARK  1 active torsions:
REMARK  status: ('A' for Active; 'I' for Inactive)
REMARK    1  A    between atoms: C1_2  and  C2_3 
ROOT
ATOM      1  C2  UNL d   1       4.790   1.460   3.416  0.00  0.00    -0.076 A 
ATOM      2  C3  UNL d   1       5.400   2.434   4.225  0.00  0.00     0.004 A 
ATOM      3  C4  UNL d   1       6.000   2.090   5.435  0.00  0.00    -0.003 A 
ATOM      4  C5  UNL d   1       6.000   0.764   5.856  0.00  0.00     0.000 A 
ATOM      5  C6  UNL d   1       5.415  -0.218   5.057  0.00  0.00     0.000 A 
ATOM      6  C7  UNL d   1       4.821   0.110   3.827  0.00  0.00    -0.073 A 
ATOM      7  C8  UNL d   1       4.199  -0.989   3.009  0.00  0.00     0.078 C 
ENDROOT
BRANCH   1   8
ATOM      8  C1  UNL d   1       4.132   1.897   2.127  0.00  0.00     0.053 C 
ATOM      9  C   UNL d   1       3.742   3.367   2.141  0.00  0.00     0.018 C 
ENDBRANCH   1   8
TORSDOF 1
ENDMDL
