MODEL 1
REMARK minimizedAffinity -3.08224106
REMARK minimizedRMSD -1
REMARK  1 active torsions:
REMARK  status: ('A' for Active; 'I' for Inactive)
REMARK    1  A    between atoms: C1_2  and  C2_3 
ROOT
ATOM      1  C2  UNL d   1      -2.722  -0.719   1.364  0.00  0.00    -0.076 A 
ATOM      2  C3  UNL d   1      -3.254  -1.082   2.613  0.00  0.00     0.004 A 
ATOM      3  C4  UNL d   1      -3.334  -0.158   3.654  0.00  0.00    -0.003 A 
ATOM      4  C5  UNL d   1      -2.884   1.143   3.462  0.00  0.00     0.000 A 
ATOM      5  C6  UNL d   1      -2.370   1.525   2.223  0.00  0.00     0.000 A 
ATOM      6  C7  UNL d   1      -2.297   0.611   1.159  0.00  0.00    -0.073 A 
ATOM      7  C8  UNL d   1      -1.728   1.075  -0.154  0.00  0.00     0.078 C 
ENDROOT
BRANCH   1   8
ATOM      8  C1  UNL d   1      -2.636  -1.771   0.281  0.00  0.00     0.053 C 
ATOM      9  C   UNL d   1      -1.272  -2.441   0.226  0.00  0.00     0.018 C 
ENDBRANCH   1   8
TORSDOF 1
ENDMDL
