MODEL 1
REMARK minimizedAffinity 7.11214066
REMARK minimizedRMSD -1
REMARK  1 active torsions:
REMARK  status: ('A' for Active; 'I' for Inactive)
REMARK    1  A    between atoms: C1_2  and  C2_3 
ROOT
ATOM      1  C2  UNL d   1      -2.870   0.130   0.916  0.00  0.00    -0.076 A 
ATOM      2  C3  UNL d   1      -3.177  -1.076   1.570  0.00  0.00     0.004 A 
ATOM      3  C4  UNL d   1      -3.294  -1.129   2.958  0.00  0.00    -0.003 A 
ATOM      4  C5  UNL d   1      -3.107   0.023   3.714  0.00  0.00     0.000 A 
ATOM      5  C6  UNL d   1      -2.820   1.231   3.080  0.00  0.00     0.000 A 
ATOM      6  C7  UNL d   1      -2.715   1.306   1.681  0.00  0.00    -0.073 A 
ATOM      7  C8  UNL d   1      -2.397   2.634   1.050  0.00  0.00     0.078 C 
ENDROOT
BRANCH   1   8
ATOM      8  C1  UNL d   1      -2.729   0.121  -0.590  0.00  0.00     0.053 C 
ATOM      9  C   UNL d   1      -1.287  -0.054  -1.039  0.00  0.00     0.018 C 
ENDBRANCH   1   8
TORSDOF 1
ENDMDL
