MODEL 1
REMARK minimizedAffinity -5.39290762
REMARK minimizedRMSD -1
REMARK  1 active torsions:
REMARK  status: ('A' for Active; 'I' for Inactive)
REMARK    1  A    between atoms: C1_2  and  C2_3 
ROOT
ATOM      1  C2  UNL d   1      -2.800   0.514   2.498  0.00  0.00    -0.076 A 
ATOM      2  C3  UNL d   1      -2.819  -0.659   1.723  0.00  0.00     0.004 A 
ATOM      3  C4  UNL d   1      -2.776  -0.600   0.332  0.00  0.00    -0.003 A 
ATOM      4  C5  UNL d   1      -2.712   0.633  -0.308  0.00  0.00     0.000 A 
ATOM      5  C6  UNL d   1      -2.674   1.806   0.445  0.00  0.00     0.000 A 
ATOM      6  C7  UNL d   1      -2.701   1.763   1.850  0.00  0.00    -0.073 A 
ATOM      7  C8  UNL d   1      -2.664   3.059   2.612  0.00  0.00     0.078 C 
ENDROOT
BRANCH   1   8
ATOM      8  C1  UNL d   1      -2.876   0.389   4.003  0.00  0.00     0.053 C 
ATOM      9  C   UNL d   1      -4.106  -0.379   4.462  0.00  0.00     0.018 C 
ENDBRANCH   1   8
TORSDOF 1
ENDMDL
