MODEL 1
REMARK minimizedAffinity -0.754255354
REMARK minimizedRMSD -1
REMARK  1 active torsions:
REMARK  status: ('A' for Active; 'I' for Inactive)
REMARK    1  A    between atoms: C1_2  and  C2_3 
ROOT
ATOM      1  C2  UNL d   1      -2.911   2.180   0.604  0.00  0.00    -0.076 A 
ATOM      2  C3  UNL d   1      -3.934   2.996   1.118  0.00  0.00     0.004 A 
ATOM      3  C4  UNL d   1      -4.082   4.314   0.692  0.00  0.00    -0.003 A 
ATOM      4  C5  UNL d   1      -3.211   4.839  -0.255  0.00  0.00     0.000 A 
ATOM      5  C6  UNL d   1      -2.201   4.039  -0.789  0.00  0.00     0.000 A 
ATOM      6  C7  UNL d   1      -2.047   2.703  -0.383  0.00  0.00    -0.073 A 
ATOM      7  C8  UNL d   1      -0.937   1.888  -0.987  0.00  0.00     0.078 C 
ENDROOT
BRANCH   1   8
ATOM      8  C1  UNL d   1      -2.781   0.766   1.123  0.00  0.00     0.053 C 
ATOM      9  C   UNL d   1      -2.757   0.703   2.643  0.00  0.00     0.018 C 
ENDBRANCH   1   8
TORSDOF 1
ENDMDL
