MODEL 1
REMARK minimizedAffinity 3.59340692
REMARK minimizedRMSD -1
REMARK  1 active torsions:
REMARK  status: ('A' for Active; 'I' for Inactive)
REMARK    1  A    between atoms: C1_2  and  C2_3 
ROOT
ATOM      1  C2  UNL d   1      -3.847  -0.882   1.627  0.00  0.00    -0.076 A 
ATOM      2  C3  UNL d   1      -3.211  -0.631   0.399  0.00  0.00     0.004 A 
ATOM      3  C4  UNL d   1      -3.948  -0.295  -0.736  0.00  0.00    -0.003 A 
ATOM      4  C5  UNL d   1      -5.334  -0.205  -0.661  0.00  0.00     0.000 A 
ATOM      5  C6  UNL d   1      -5.980  -0.434   0.554  0.00  0.00     0.000 A 
ATOM      6  C7  UNL d   1      -5.251  -0.757   1.711  0.00  0.00    -0.073 A 
ATOM      7  C8  UNL d   1      -6.000  -1.000   2.992  0.00  0.00     0.078 C 
ENDROOT
BRANCH   1   8
ATOM      8  C1  UNL d   1      -2.998  -1.269   2.817  0.00  0.00     0.053 C 
ATOM      9  C   UNL d   1      -2.622  -0.072   3.677  0.00  0.00     0.018 C 
ENDBRANCH   1   8
TORSDOF 1
ENDMDL
