MODEL 1
REMARK minimizedAffinity 5.22999144
REMARK minimizedRMSD -1
REMARK  1 active torsions:
REMARK  status: ('A' for Active; 'I' for Inactive)
REMARK    1  A    between atoms: C1_2  and  C2_3 
ROOT
ATOM      1  C2  UNL d   1       5.055   1.190  -5.803  0.00  0.00    -0.076 A 
ATOM      2  C3  UNL d   1       5.981   2.239  -5.671  0.00  0.00     0.004 A 
ATOM      3  C4  UNL d   1       5.561   3.568  -5.636  0.00  0.00    -0.003 A 
ATOM      4  C5  UNL d   1       4.206   3.869  -5.730  0.00  0.00     0.000 A 
ATOM      5  C6  UNL d   1       3.272   2.840  -5.843  0.00  0.00     0.000 A 
ATOM      6  C7  UNL d   1       3.678   1.494  -5.864  0.00  0.00    -0.073 A 
ATOM      7  C8  UNL d   1       2.628   0.425  -5.994  0.00  0.00     0.078 C 
ENDROOT
BRANCH   1   8
ATOM      8  C1  UNL d   1       5.572  -0.229  -5.863  0.00  0.00     0.053 C 
ATOM      9  C   UNL d   1       6.000  -0.752  -4.500  0.00  0.00     0.018 C 
ENDBRANCH   1   8
TORSDOF 1
ENDMDL
