MODEL 1
REMARK minimizedAffinity 12.0294895
REMARK minimizedRMSD -1
REMARK  1 active torsions:
REMARK  status: ('A' for Active; 'I' for Inactive)
REMARK    1  A    between atoms: C1_2  and  C2_3 
ROOT
ATOM      1  C2  UNL d   1       2.128  -2.993  -0.283  0.00  0.00    -0.077 A 
ATOM      2  C3  UNL d   1       1.937  -1.668   0.132  0.00  0.00     0.002 A 
ATOM      3  C4  UNL d   1       2.866  -1.051   0.972  0.00  0.00     0.002 A 
ATOM      4  C5  UNL d   1       3.993  -1.749   1.400  0.00  0.00    -0.004 A 
ATOM      5  C6  UNL d   1       4.191  -3.068   0.994  0.00  0.00     0.002 A 
ATOM      6  C7  UNL d   1       3.263  -3.687   0.155  0.00  0.00     0.002 A 
ENDROOT
BRANCH   1   7
ATOM      7  C1  UNL d   1       1.153  -3.645  -1.229  0.00  0.00     0.055 C 
ATOM      8  C   UNL d   1       1.854  -4.620  -2.163  0.00  0.00     0.019 C 
ENDBRANCH   1   7
TORSDOF 1
ENDMDL
