MODEL 1
REMARK minimizedAffinity 12.9003048
REMARK minimizedRMSD -1
REMARK  1 active torsions:
REMARK  status: ('A' for Active; 'I' for Inactive)
REMARK    1  A    between atoms: C1_2  and  C2_3 
ROOT
ATOM      1  C2  UNL d   1       1.465  -3.401  -1.220  0.00  0.00    -0.077 A 
ATOM      2  C3  UNL d   1       0.859  -2.154  -1.425  0.00  0.00     0.002 A 
ATOM      3  C4  UNL d   1       1.062  -1.112  -0.518  0.00  0.00     0.002 A 
ATOM      4  C5  UNL d   1       1.874  -1.305   0.597  0.00  0.00    -0.004 A 
ATOM      5  C6  UNL d   1       2.480  -2.542   0.811  0.00  0.00     0.002 A 
ATOM      6  C7  UNL d   1       2.278  -3.585  -0.094  0.00  0.00     0.002 A 
ENDROOT
BRANCH   1   7
ATOM      7  C1  UNL d   1       1.287  -4.511  -2.223  0.00  0.00     0.055 C 
ATOM      8  C   UNL d   1       1.813  -5.833  -1.684  0.00  0.00     0.019 C 
ENDBRANCH   1   7
TORSDOF 1
ENDMDL
