MODEL 1
REMARK minimizedAffinity 14.0830402
REMARK minimizedRMSD -1
REMARK  1 active torsions:
REMARK  status: ('A' for Active; 'I' for Inactive)
REMARK    1  A    between atoms: C1_2  and  C2_3 
ROOT
ATOM      1  C2  UNL d   1       3.686  -4.671  -0.681  0.00  0.00    -0.077 A 
ATOM      2  C3  UNL d   1       3.155  -3.687   0.164  0.00  0.00     0.002 A 
ATOM      3  C4  UNL d   1       1.936  -3.077  -0.140  0.00  0.00     0.002 A 
ATOM      4  C5  UNL d   1       1.237  -3.448  -1.287  0.00  0.00    -0.004 A 
ATOM      5  C6  UNL d   1       1.758  -4.425  -2.135  0.00  0.00     0.002 A 
ATOM      6  C7  UNL d   1       2.977  -5.034  -1.833  0.00  0.00     0.002 A 
ENDROOT
BRANCH   1   7
ATOM      7  C1  UNL d   1       4.976  -5.365  -0.328  0.00  0.00     0.055 C 
ATOM      8  C   UNL d   1       5.515  -4.884   1.011  0.00  0.00     0.019 C 
ENDBRANCH   1   7
TORSDOF 1
ENDMDL
