MODEL 1
REMARK minimizedAffinity 5.8346262
REMARK minimizedRMSD -1
REMARK  1 active torsions:
REMARK  status: ('A' for Active; 'I' for Inactive)
REMARK    1  A    between atoms: C1_2  and  C2_3 
ROOT
ATOM      1  C2  UNL d   1       3.307  -3.492   0.345  0.00  0.00    -0.077 A 
ATOM      2  C3  UNL d   1       3.717  -2.198   0.696  0.00  0.00     0.002 A 
ATOM      3  C4  UNL d   1       5.058  -1.936   0.983  0.00  0.00     0.002 A 
ATOM      4  C5  UNL d   1       6.000  -2.961   0.919  0.00  0.00    -0.004 A 
ATOM      5  C6  UNL d   1       5.602  -4.252   0.574  0.00  0.00     0.002 A 
ATOM      6  C7  UNL d   1       4.262  -4.516   0.287  0.00  0.00     0.002 A 
ENDROOT
BRANCH   1   7
ATOM      7  C1  UNL d   1       1.870  -3.767  -0.013  0.00  0.00     0.055 C 
ATOM      8  C   UNL d   1       1.763  -4.537  -1.321  0.00  0.00     0.019 C 
ENDBRANCH   1   7
TORSDOF 1
ENDMDL
