MODEL 1
REMARK minimizedAffinity 10.0070667
REMARK minimizedRMSD -1
REMARK  1 active torsions:
REMARK  status: ('A' for Active; 'I' for Inactive)
REMARK    1  A    between atoms: C1_2  and  C2_3 
ROOT
ATOM      1  C2  UNL d   1       2.533  -3.057   0.086  0.00  0.00    -0.077 A 
ATOM      2  C3  UNL d   1       2.597  -1.688   0.378  0.00  0.00     0.002 A 
ATOM      3  C4  UNL d   1       3.710  -1.156   1.032  0.00  0.00     0.002 A 
ATOM      4  C5  UNL d   1       4.769  -1.985   1.395  0.00  0.00    -0.004 A 
ATOM      5  C6  UNL d   1       4.715  -3.349   1.110  0.00  0.00     0.002 A 
ATOM      6  C7  UNL d   1       3.602  -3.883   0.458  0.00  0.00     0.002 A 
ENDROOT
BRANCH   1   7
ATOM      7  C1  UNL d   1       1.356  -3.624  -0.663  0.00  0.00     0.055 C 
ATOM      8  C   UNL d   1       1.807  -4.531  -1.799  0.00  0.00     0.019 C 
ENDBRANCH   1   7
TORSDOF 1
ENDMDL
