MODEL 1
REMARK minimizedAffinity 8.65896034
REMARK minimizedRMSD -1
REMARK  1 active torsions:
REMARK  status: ('A' for Active; 'I' for Inactive)
REMARK    1  A    between atoms: C1_2  and  C2_3 
ROOT
ATOM      1  C2  UNL d   1      -5.997  -4.646   2.845  0.00  0.00    -0.077 A 
ATOM      2  C3  UNL d   1      -5.999  -5.195   1.555  0.00  0.00     0.002 A 
ATOM      3  C4  UNL d   1      -5.955  -4.365   0.433  0.00  0.00     0.002 A 
ATOM      4  C5  UNL d   1      -5.904  -2.982   0.590  0.00  0.00    -0.004 A 
ATOM      5  C6  UNL d   1      -5.904  -2.425   1.868  0.00  0.00     0.002 A 
ATOM      6  C7  UNL d   1      -5.949  -3.253   2.991  0.00  0.00     0.002 A 
ENDROOT
BRANCH   1   7
ATOM      7  C1  UNL d   1      -5.995  -5.541   4.056  0.00  0.00     0.055 C 
ATOM      8  C   UNL d   1      -5.862  -4.735   5.340  0.00  0.00     0.019 C 
ENDBRANCH   1   7
TORSDOF 1
ENDMDL
