MODEL 1
REMARK minimizedAffinity 9.66757584
REMARK minimizedRMSD -1
REMARK  1 active torsions:
REMARK  status: ('A' for Active; 'I' for Inactive)
REMARK    1  A    between atoms: C1_2  and  C2_3 
ROOT
ATOM      1  C2  UNL d   1      -5.931  -4.367   3.040  0.00  0.00    -0.077 A 
ATOM      2  C3  UNL d   1      -5.881  -3.341   3.995  0.00  0.00     0.002 A 
ATOM      3  C4  UNL d   1      -5.870  -3.645   5.358  0.00  0.00     0.002 A 
ATOM      4  C5  UNL d   1      -5.905  -4.972   5.778  0.00  0.00    -0.004 A 
ATOM      5  C6  UNL d   1      -5.957  -6.000   4.837  0.00  0.00     0.002 A 
ATOM      6  C7  UNL d   1      -5.969  -5.698   3.474  0.00  0.00     0.002 A 
ENDROOT
BRANCH   1   7
ATOM      7  C1  UNL d   1      -5.894  -4.044   1.570  0.00  0.00     0.055 C 
ATOM      8  C   UNL d   1      -5.825  -2.542   1.334  0.00  0.00     0.019 C 
ENDBRANCH   1   7
TORSDOF 1
ENDMDL
