MODEL 1
REMARK minimizedAffinity 6.85312128
REMARK minimizedRMSD -1
REMARK  1 active torsions:
REMARK  status: ('A' for Active; 'I' for Inactive)
REMARK    1  A    between atoms: C1_2  and  C2_3 
ROOT
ATOM      1  C2  UNL d   1       3.932  -3.796   0.237  0.00  0.00    -0.077 A 
ATOM      2  C3  UNL d   1       3.922  -4.501  -0.974  0.00  0.00     0.002 A 
ATOM      3  C4  UNL d   1       4.769  -5.595  -1.161  0.00  0.00     0.002 A 
ATOM      4  C5  UNL d   1       5.628  -5.996  -0.140  0.00  0.00    -0.004 A 
ATOM      5  C6  UNL d   1       5.646  -5.300   1.068  0.00  0.00     0.002 A 
ATOM      6  C7  UNL d   1       4.801  -4.206   1.256  0.00  0.00     0.002 A 
ENDROOT
BRANCH   1   7
ATOM      7  C1  UNL d   1       2.984  -2.646   0.459  0.00  0.00     0.055 C 
ATOM      8  C   UNL d   1       3.612  -1.573   1.336  0.00  0.00     0.019 C 
ENDBRANCH   1   7
TORSDOF 1
ENDMDL
