MODEL 1
REMARK minimizedAffinity 12.3334332
REMARK minimizedRMSD -1
REMARK  1 active torsions:
REMARK  status: ('A' for Active; 'I' for Inactive)
REMARK    1  A    between atoms: C1_2  and  C2_3 
ROOT
ATOM      1  C2  UNL d   1      -5.151   5.894   1.371  0.00  0.00    -0.077 A 
ATOM      2  C3  UNL d   1      -5.999   5.845   0.256  0.00  0.00     0.002 A 
ATOM      3  C4  UNL d   1      -5.469   5.707  -1.028  0.00  0.00     0.002 A 
ATOM      4  C5  UNL d   1      -4.090   5.612  -1.209  0.00  0.00    -0.004 A 
ATOM      5  C6  UNL d   1      -3.239   5.662  -0.106  0.00  0.00     0.002 A 
ATOM      6  C7  UNL d   1      -3.766   5.802   1.178  0.00  0.00     0.002 A 
ENDROOT
BRANCH   1   7
ATOM      7  C1  UNL d   1      -5.723   5.994   2.761  0.00  0.00     0.055 C 
ATOM      8  C   UNL d   1      -4.624   5.991   3.814  0.00  0.00     0.019 C 
ENDBRANCH   1   7
TORSDOF 1
ENDMDL
