MODEL 1
REMARK minimizedAffinity 16.5976753
REMARK minimizedRMSD -1
REMARK  1 active torsions:
REMARK  status: ('A' for Active; 'I' for Inactive)
REMARK    1  A    between atoms: C1_2  and  C2_3 
ROOT
ATOM      1  C2  UNL d   1       2.180  -0.169  -4.968  0.00  0.00    -0.077 A 
ATOM      2  C3  UNL d   1       2.301   0.588  -3.793  0.00  0.00     0.002 A 
ATOM      3  C4  UNL d   1       1.613   1.795  -3.657  0.00  0.00     0.002 A 
ATOM      4  C5  UNL d   1       0.797   2.255  -4.689  0.00  0.00    -0.004 A 
ATOM      5  C6  UNL d   1       0.672   1.511  -5.861  0.00  0.00     0.002 A 
ATOM      6  C7  UNL d   1       1.359   0.304  -6.000  0.00  0.00     0.002 A 
ENDROOT
BRANCH   1   7
ATOM      7  C1  UNL d   1       2.882  -1.495  -5.097  0.00  0.00     0.055 C 
ATOM      8  C   UNL d   1       2.070  -2.472  -5.935  0.00  0.00     0.019 C 
ENDBRANCH   1   7
TORSDOF 1
ENDMDL
