MODEL 1
REMARK minimizedAffinity 19.9630356
REMARK minimizedRMSD -1
REMARK  1 active torsions:
REMARK  status: ('A' for Active; 'I' for Inactive)
REMARK    1  A    between atoms: C1_2  and  C2_3 
ROOT
ATOM      1  C2  UNL d   1      -0.061   1.847   2.119  0.00  0.00    -0.077 A 
ATOM      2  C3  UNL d   1       0.585   2.668   1.184  0.00  0.00     0.002 A 
ATOM      3  C4  UNL d   1      -0.142   3.277   0.158  0.00  0.00     0.002 A 
ATOM      4  C5  UNL d   1      -1.517   3.074   0.061  0.00  0.00    -0.004 A 
ATOM      5  C6  UNL d   1      -2.167   2.257   0.985  0.00  0.00     0.002 A 
ATOM      6  C7  UNL d   1      -1.443   1.647   2.010  0.00  0.00     0.002 A 
ENDROOT
BRANCH   1   7
ATOM      7  C1  UNL d   1       0.713   1.229   3.255  0.00  0.00     0.055 C 
ATOM      8  C   UNL d   1       0.728   2.140   4.474  0.00  0.00     0.019 C 
ENDBRANCH   1   7
TORSDOF 1
ENDMDL
