MODEL 1
REMARK minimizedAffinity 9.26715469
REMARK minimizedRMSD -1
REMARK  1 active torsions:
REMARK  status: ('A' for Active; 'I' for Inactive)
REMARK    1  A    between atoms: C1_2  and  C2_3 
ROOT
ATOM      1  C2  UNL d   1      -1.507   2.130  -1.626  0.00  0.00    -0.077 A 
ATOM      2  C3  UNL d   1      -1.039   1.632  -0.402  0.00  0.00     0.002 A 
ATOM      3  C4  UNL d   1      -0.133   2.371   0.362  0.00  0.00     0.002 A 
ATOM      4  C5  UNL d   1       0.309   3.613  -0.088  0.00  0.00    -0.004 A 
ATOM      5  C6  UNL d   1      -0.149   4.116  -1.305  0.00  0.00     0.002 A 
ATOM      6  C7  UNL d   1      -1.054   3.378  -2.070  0.00  0.00     0.002 A 
ENDROOT
BRANCH   1   7
ATOM      7  C1  UNL d   1      -2.522   1.356  -2.427  0.00  0.00     0.055 C 
ATOM      8  C   UNL d   1      -3.137   0.234  -1.604  0.00  0.00     0.019 C 
ENDBRANCH   1   7
TORSDOF 1
ENDMDL
