MODEL 1
REMARK minimizedAffinity -4.96616077
REMARK minimizedRMSD -1
REMARK  2 active torsions:
REMARK  status: ('A' for Active; 'I' for Inactive)
REMARK    1  A    between atoms: C1_2  and  C2_3 
REMARK    2  A    between atoms: C2_3  and  C3_4 
ROOT
ATOM      1  C3  UNL d   1      -0.054   0.142  -0.055  0.00  0.00    -0.075 A 
ATOM      2  C4  UNL d   1       0.089  -0.936  -0.942  0.00  0.00     0.002 A 
ATOM      3  C5  UNL d   1       0.920  -0.829  -2.058  0.00  0.00     0.002 A 
ATOM      4  C6  UNL d   1       1.608   0.356  -2.307  0.00  0.00    -0.004 A 
ATOM      5  C7  UNL d   1       1.461   1.438  -1.442  0.00  0.00     0.002 A 
ATOM      6  C8  UNL d   1       0.634   1.333  -0.322  0.00  0.00     0.002 A 
ENDROOT
BRANCH   1   7
ATOM      7  C2  UNL d   1      -0.928   0.023   1.170  0.00  0.00     0.056 C 
BRANCH   7   8
ATOM      8  C1  UNL d   1      -2.427  -0.066   0.861  0.00  0.00     0.007 C 
ATOM      9  C   UNL d   1      -3.289   0.724   1.837  0.00  0.00     0.009 C 
ENDBRANCH   7   8
ENDBRANCH   1   7
TORSDOF 2
ENDMDL
