MODEL 1
REMARK minimizedAffinity -3.88203025
REMARK minimizedRMSD -1
REMARK  2 active torsions:
REMARK  status: ('A' for Active; 'I' for Inactive)
REMARK    1  A    between atoms: C1_2  and  C2_3 
REMARK    2  A    between atoms: C2_3  and  C3_4 
ROOT
ATOM      1  C3  UNL d   1       1.211  -1.141  -1.377  0.00  0.00    -0.075 A 
ATOM      2  C4  UNL d   1       1.367   0.229  -1.632  0.00  0.00     0.002 A 
ATOM      3  C5  UNL d   1       0.695   1.176  -0.858  0.00  0.00     0.002 A 
ATOM      4  C6  UNL d   1      -0.149   0.765   0.172  0.00  0.00    -0.004 A 
ATOM      5  C7  UNL d   1      -0.325  -0.594   0.423  0.00  0.00     0.002 A 
ATOM      6  C8  UNL d   1       0.350  -1.543  -0.346  0.00  0.00     0.002 A 
ENDROOT
BRANCH   1   7
ATOM      7  C2  UNL d   1       1.958  -2.169  -2.192  0.00  0.00     0.056 C 
BRANCH   7   8
ATOM      8  C1  UNL d   1       2.966  -2.993  -1.383  0.00  0.00     0.007 C 
ATOM      9  C   UNL d   1       4.265  -2.248  -1.105  0.00  0.00     0.009 C 
ENDBRANCH   7   8
ENDBRANCH   1   7
TORSDOF 2
ENDMDL
