MODEL 1
REMARK minimizedAffinity -4.63510323
REMARK minimizedRMSD -1
REMARK  2 active torsions:
REMARK  status: ('A' for Active; 'I' for Inactive)
REMARK    1  A    between atoms: C1_2  and  C2_3 
REMARK    2  A    between atoms: C2_3  and  C3_4 
ROOT
ATOM      1  C3  UNL d   1       0.629   0.300  -0.559  0.00  0.00    -0.075 A 
ATOM      2  C4  UNL d   1       1.676   1.108  -1.026  0.00  0.00     0.002 A 
ATOM      3  C5  UNL d   1       2.511   0.663  -2.051  0.00  0.00     0.002 A 
ATOM      4  C6  UNL d   1       2.318  -0.597  -2.614  0.00  0.00    -0.004 A 
ATOM      5  C7  UNL d   1       1.291  -1.415  -2.146  0.00  0.00     0.002 A 
ATOM      6  C8  UNL d   1       0.451  -0.970  -1.123  0.00  0.00     0.002 A 
ENDROOT
BRANCH   1   7
ATOM      7  C2  UNL d   1      -0.296   0.788   0.530  0.00  0.00     0.056 C 
BRANCH   7   8
ATOM      8  C1  UNL d   1      -0.870  -0.330   1.408  0.00  0.00     0.007 C 
ATOM      9  C   UNL d   1      -2.214   0.026   2.030  0.00  0.00     0.009 C 
ENDBRANCH   7   8
ENDBRANCH   1   7
TORSDOF 2
ENDMDL
