MODEL 1
REMARK minimizedAffinity -5.14428568
REMARK minimizedRMSD -1
REMARK  2 active torsions:
REMARK  status: ('A' for Active; 'I' for Inactive)
REMARK    1  A    between atoms: C1_2  and  C2_3 
REMARK    2  A    between atoms: C2_3  and  C3_4 
ROOT
ATOM      1  C3  UNL d   1       0.435  -0.627  -0.510  0.00  0.00    -0.075 A 
ATOM      2  C4  UNL d   1       0.696  -1.986  -0.739  0.00  0.00     0.002 A 
ATOM      3  C5  UNL d   1       1.572  -2.378  -1.751  0.00  0.00     0.002 A 
ATOM      4  C6  UNL d   1       2.189  -1.420  -2.553  0.00  0.00    -0.004 A 
ATOM      5  C7  UNL d   1       1.924  -0.068  -2.345  0.00  0.00     0.002 A 
ATOM      6  C8  UNL d   1       1.051   0.327  -1.330  0.00  0.00     0.002 A 
ENDROOT
BRANCH   1   7
ATOM      7  C2  UNL d   1      -0.489  -0.195   0.604  0.00  0.00     0.056 C 
BRANCH   7   8
ATOM      8  C1  UNL d   1      -1.781   0.471   0.119  0.00  0.00     0.007 C 
ATOM      9  C   UNL d   1      -2.907   0.412   1.142  0.00  0.00     0.009 C 
ENDBRANCH   7   8
ENDBRANCH   1   7
TORSDOF 2
ENDMDL
