MODEL 1
REMARK minimizedAffinity -5.49801254
REMARK minimizedRMSD -1
REMARK  2 active torsions:
REMARK  status: ('A' for Active; 'I' for Inactive)
REMARK    1  A    between atoms: C1_2  and  C2_3 
REMARK    2  A    between atoms: C2_3  and  C3_4 
ROOT
ATOM      1  C3  UNL d   1      -0.872   0.880  -0.328  0.00  0.00    -0.075 A 
ATOM      2  C4  UNL d   1      -0.315   0.002   0.614  0.00  0.00     0.002 A 
ATOM      3  C5  UNL d   1      -0.975  -0.260   1.814  0.00  0.00     0.002 A 
ATOM      4  C6  UNL d   1      -2.192   0.358   2.094  0.00  0.00    -0.004 A 
ATOM      5  C7  UNL d   1      -2.747   1.244   1.173  0.00  0.00     0.002 A 
ATOM      6  C8  UNL d   1      -2.091   1.506  -0.031  0.00  0.00     0.002 A 
ENDROOT
BRANCH   1   7
ATOM      7  C2  UNL d   1      -0.178   1.146  -1.642  0.00  0.00     0.056 C 
BRANCH   7   8
ATOM      8  C1  UNL d   1       1.335   0.905  -1.608  0.00  0.00     0.007 C 
ATOM      9  C   UNL d   1       1.826   0.013  -2.741  0.00  0.00     0.009 C 
ENDBRANCH   7   8
ENDBRANCH   1   7
TORSDOF 2
ENDMDL
