MODEL 1
REMARK minimizedAffinity -3.49398756
REMARK minimizedRMSD -1
REMARK  2 active torsions:
REMARK  status: ('A' for Active; 'I' for Inactive)
REMARK    1  A    between atoms: C1_2  and  C2_3 
REMARK    2  A    between atoms: C2_3  and  C3_4 
ROOT
ATOM      1  C3  UNL d   1       0.093  -0.035   0.049  0.00  0.00    -0.075 A 
ATOM      2  C4  UNL d   1       0.722   1.182  -0.252  0.00  0.00     0.002 A 
ATOM      3  C5  UNL d   1       1.351   1.369  -1.484  0.00  0.00     0.002 A 
ATOM      4  C6  UNL d   1       1.368   0.341  -2.424  0.00  0.00    -0.004 A 
ATOM      5  C7  UNL d   1       0.761  -0.878  -2.129  0.00  0.00     0.002 A 
ATOM      6  C8  UNL d   1       0.127  -1.066  -0.900  0.00  0.00     0.002 A 
ENDROOT
BRANCH   1   7
ATOM      7  C2  UNL d   1      -0.614  -0.233   1.368  0.00  0.00     0.056 C 
BRANCH   7   8
ATOM      8  C1  UNL d   1      -2.129  -0.013   1.302  0.00  0.00     0.007 C 
ATOM      9  C   UNL d   1      -2.644   0.943   2.370  0.00  0.00     0.009 C 
ENDBRANCH   7   8
ENDBRANCH   1   7
TORSDOF 2
ENDMDL
