MODEL 1
REMARK minimizedAffinity -6.58802748
REMARK minimizedRMSD -1
REMARK  2 active torsions:
REMARK  status: ('A' for Active; 'I' for Inactive)
REMARK    1  A    between atoms: C1_2  and  C2_3 
REMARK    2  A    between atoms: C2_3  and  C3_4 
ROOT
ATOM      1  C3  UNL d   1       0.367  -0.299  -0.438  0.00  0.00    -0.075 A 
ATOM      2  C4  UNL d   1       0.763   0.867  -1.109  0.00  0.00     0.002 A 
ATOM      3  C5  UNL d   1       1.603   0.794  -2.221  0.00  0.00     0.002 A 
ATOM      4  C6  UNL d   1       2.065  -0.442  -2.668  0.00  0.00    -0.004 A 
ATOM      5  C7  UNL d   1       1.691  -1.605  -1.999  0.00  0.00     0.002 A 
ATOM      6  C8  UNL d   1       0.847  -1.535  -0.889  0.00  0.00     0.002 A 
ENDROOT
BRANCH   1   7
ATOM      7  C2  UNL d   1      -0.566  -0.228   0.748  0.00  0.00     0.056 C 
BRANCH   7   8
ATOM      8  C1  UNL d   1      -2.036  -0.015   0.373  0.00  0.00     0.007 C 
ATOM      9  C   UNL d   1      -2.906   0.382   1.558  0.00  0.00     0.009 C 
ENDBRANCH   7   8
ENDBRANCH   1   7
TORSDOF 2
ENDMDL
