MODEL 1
REMARK minimizedAffinity -5.95725822
REMARK minimizedRMSD -1
REMARK  2 active torsions:
REMARK  status: ('A' for Active; 'I' for Inactive)
REMARK    1  A    between atoms: C1_2  and  C2_3 
REMARK    2  A    between atoms: C2_3  and  C3_4 
ROOT
ATOM      1  C3  UNL d   1      -1.314   0.581   0.130  0.00  0.00    -0.075 A 
ATOM      2  C4  UNL d   1      -0.678   0.018   1.246  0.00  0.00     0.002 A 
ATOM      3  C5  UNL d   1      -1.400  -0.259   2.408  0.00  0.00     0.002 A 
ATOM      4  C6  UNL d   1      -2.761   0.032   2.472  0.00  0.00    -0.004 A 
ATOM      5  C7  UNL d   1      -3.399   0.607   1.375  0.00  0.00     0.002 A 
ATOM      6  C8  UNL d   1      -2.681   0.881   0.210  0.00  0.00     0.002 A 
ENDROOT
BRANCH   1   7
ATOM      7  C2  UNL d   1      -0.545   0.856  -1.140  0.00  0.00     0.056 C 
BRANCH   7   8
ATOM      8  C1  UNL d   1       0.976   0.859  -0.960  0.00  0.00     0.007 C 
ATOM      9  C   UNL d   1       1.735   0.613  -2.257  0.00  0.00     0.009 C 
ENDBRANCH   7   8
ENDBRANCH   1   7
TORSDOF 2
ENDMDL
