MODEL 1
REMARK minimizedAffinity -0.7320081
REMARK minimizedRMSD -1
REMARK  2 active torsions:
REMARK  status: ('A' for Active; 'I' for Inactive)
REMARK    1  A    between atoms: C1_2  and  C2_3 
REMARK    2  A    between atoms: C2_3  and  C3_4 
ROOT
ATOM      1  C3  UNL d   1      -1.463   0.064   0.969  0.00  0.00    -0.075 A 
ATOM      2  C4  UNL d   1      -2.612  -0.059   0.173  0.00  0.00     0.002 A 
ATOM      3  C5  UNL d   1      -3.867   0.268   0.686  0.00  0.00     0.002 A 
ATOM      4  C6  UNL d   1      -3.992   0.710   2.001  0.00  0.00    -0.004 A 
ATOM      5  C7  UNL d   1      -2.860   0.819   2.806  0.00  0.00     0.002 A 
ATOM      6  C8  UNL d   1      -1.602   0.498   2.294  0.00  0.00     0.002 A 
ENDROOT
BRANCH   1   7
ATOM      7  C2  UNL d   1      -0.098  -0.260   0.411  0.00  0.00     0.056 C 
BRANCH   7   8
ATOM      8  C1  UNL d   1       0.638   0.949  -0.177  0.00  0.00     0.007 C 
ATOM      9  C   UNL d   1       1.618   0.576  -1.281  0.00  0.00     0.009 C 
ENDBRANCH   7   8
ENDBRANCH   1   7
TORSDOF 2
ENDMDL
