MODEL 1
REMARK minimizedAffinity -5.49601316
REMARK minimizedRMSD -1
REMARK  2 active torsions:
REMARK  status: ('A' for Active; 'I' for Inactive)
REMARK    1  A    between atoms: C1_2  and  C2_3 
REMARK    2  A    between atoms: C2_3  and  C3_4 
ROOT
ATOM      1  C3  UNL d   1       0.759   0.600   0.648  0.00  0.00    -0.075 A 
ATOM      2  C4  UNL d   1       1.181   0.796  -0.675  0.00  0.00     0.002 A 
ATOM      3  C5  UNL d   1       1.216  -0.271  -1.573  0.00  0.00     0.002 A 
ATOM      4  C6  UNL d   1       0.840  -1.547  -1.159  0.00  0.00    -0.004 A 
ATOM      5  C7  UNL d   1       0.435  -1.756   0.158  0.00  0.00     0.002 A 
ATOM      6  C8  UNL d   1       0.395  -0.689   1.057  0.00  0.00     0.002 A 
ENDROOT
BRANCH   1   7
ATOM      7  C2  UNL d   1       0.691   1.757   1.616  0.00  0.00     0.056 C 
BRANCH   7   8
ATOM      8  C1  UNL d   1       0.757   3.134   0.948  0.00  0.00     0.007 C 
ATOM      9  C   UNL d   1       1.278   4.226   1.874  0.00  0.00     0.009 C 
ENDBRANCH   7   8
ENDBRANCH   1   7
TORSDOF 2
ENDMDL
