MODEL 1
REMARK minimizedAffinity -3.4515233
REMARK minimizedRMSD -1
REMARK  2 active torsions:
REMARK  status: ('A' for Active; 'I' for Inactive)
REMARK    1  A    between atoms: C1_2  and  C2_3 
REMARK    2  A    between atoms: C2_3  and  C3_4 
ROOT
ATOM      1  C3  UNL d   1      -1.309   0.226   1.003  0.00  0.00    -0.075 A 
ATOM      2  C4  UNL d   1      -2.369  -0.528   0.479  0.00  0.00     0.002 A 
ATOM      3  C5  UNL d   1      -3.662  -0.376   0.981  0.00  0.00     0.002 A 
ATOM      4  C6  UNL d   1      -3.909   0.521   2.017  0.00  0.00    -0.004 A 
ATOM      5  C7  UNL d   1      -2.860   1.263   2.557  0.00  0.00     0.002 A 
ATOM      6  C8  UNL d   1      -1.567   1.116   2.054  0.00  0.00     0.002 A 
ENDROOT
BRANCH   1   7
ATOM      7  C2  UNL d   1       0.088   0.088   0.445  0.00  0.00     0.056 C 
BRANCH   7   8
ATOM      8  C1  UNL d   1       0.467   1.178  -0.563  0.00  0.00     0.007 C 
ATOM      9  C   UNL d   1       1.698   0.829  -1.389  0.00  0.00     0.009 C 
ENDBRANCH   7   8
ENDBRANCH   1   7
TORSDOF 2
ENDMDL
