MODEL 1
REMARK minimizedAffinity -5.82088614
REMARK minimizedRMSD -1
REMARK  2 active torsions:
REMARK  status: ('A' for Active; 'I' for Inactive)
REMARK    1  A    between atoms: C1_2  and  C2_3 
REMARK    2  A    between atoms: C2_3  and  C3_4 
ROOT
ATOM      1  C3  UNL d   1      -0.150   0.328   0.001  0.00  0.00    -0.075 A 
ATOM      2  C4  UNL d   1      -0.328  -0.739  -0.892  0.00  0.00     0.002 A 
ATOM      3  C5  UNL d   1       0.526  -0.900  -1.983  0.00  0.00     0.002 A 
ATOM      4  C6  UNL d   1       1.561   0.007  -2.202  0.00  0.00    -0.004 A 
ATOM      5  C7  UNL d   1       1.737   1.080  -1.330  0.00  0.00     0.002 A 
ATOM      6  C8  UNL d   1       0.887   1.241  -0.235  0.00  0.00     0.002 A 
ENDROOT
BRANCH   1   7
ATOM      7  C2  UNL d   1      -1.052   0.491   1.200  0.00  0.00     0.056 C 
BRANCH   7   8
ATOM      8  C1  UNL d   1      -2.510   0.094   0.942  0.00  0.00     0.007 C 
ATOM      9  C   UNL d   1      -3.512   1.012   1.630  0.00  0.00     0.009 C 
ENDBRANCH   7   8
ENDBRANCH   1   7
TORSDOF 2
ENDMDL
