MODEL 1
REMARK minimizedAffinity -5.24193335
REMARK minimizedRMSD -1
REMARK  2 active torsions:
REMARK  status: ('A' for Active; 'I' for Inactive)
REMARK    1  A    between atoms: C1_2  and  C2_3 
REMARK    2  A    between atoms: C2_3  and  C3_4 
ROOT
ATOM      1  C3  UNL d   1      -1.709   0.587  -0.132  0.00  0.00    -0.075 A 
ATOM      2  C4  UNL d   1      -1.119  -0.049   0.970  0.00  0.00     0.002 A 
ATOM      3  C5  UNL d   1       0.246   0.094   1.223  0.00  0.00     0.002 A 
ATOM      4  C6  UNL d   1       1.038   0.864   0.374  0.00  0.00    -0.004 A 
ATOM      5  C7  UNL d   1       0.465   1.487  -0.733  0.00  0.00     0.002 A 
ATOM      6  C8  UNL d   1      -0.901   1.350  -0.986  0.00  0.00     0.002 A 
ENDROOT
BRANCH   1   7
ATOM      7  C2  UNL d   1      -3.191   0.461  -0.394  0.00  0.00     0.056 C 
BRANCH   7   8
ATOM      8  C1  UNL d   1      -4.026   0.188   0.861  0.00  0.00     0.007 C 
ATOM      9  C   UNL d   1      -4.359   1.450   1.646  0.00  0.00     0.009 C 
ENDBRANCH   7   8
ENDBRANCH   1   7
TORSDOF 2
ENDMDL
