MODEL 1
REMARK minimizedAffinity -5.38073635
REMARK minimizedRMSD -1
REMARK  2 active torsions:
REMARK  status: ('A' for Active; 'I' for Inactive)
REMARK    1  A    between atoms: C1_2  and  C2_3 
REMARK    2  A    between atoms: C2_3  and  C3_4 
ROOT
ATOM      1  C3  UNL d   1      -0.003   0.421  -0.586  0.00  0.00    -0.075 A 
ATOM      2  C4  UNL d   1       0.791   1.383  -1.226  0.00  0.00     0.002 A 
ATOM      3  C5  UNL d   1       1.890   0.997  -1.995  0.00  0.00     0.002 A 
ATOM      4  C6  UNL d   1       2.214  -0.351  -2.125  0.00  0.00    -0.004 A 
ATOM      5  C7  UNL d   1       1.442  -1.315  -1.479  0.00  0.00     0.002 A 
ATOM      6  C8  UNL d   1       0.340  -0.932  -0.713  0.00  0.00     0.002 A 
ENDROOT
BRANCH   1   7
ATOM      7  C2  UNL d   1      -1.210   0.830   0.223  0.00  0.00     0.056 C 
BRANCH   7   8
ATOM      8  C1  UNL d   1      -1.462  -0.047   1.454  0.00  0.00     0.007 C 
ATOM      9  C   UNL d   1      -2.907  -0.007   1.934  0.00  0.00     0.009 C 
ENDBRANCH   7   8
ENDBRANCH   1   7
TORSDOF 2
ENDMDL
