MODEL 1
REMARK minimizedAffinity -0.5688622
REMARK minimizedRMSD -1
REMARK  2 active torsions:
REMARK  status: ('A' for Active; 'I' for Inactive)
REMARK    1  A    between atoms: C1_2  and  C2_3 
REMARK    2  A    between atoms: C2_3  and  C3_4 
ROOT
ATOM      1  C3  UNL d   1      -0.334   3.894  -0.836  0.00  0.00    -0.075 A 
ATOM      2  C4  UNL d   1       0.565   4.949  -1.051  0.00  0.00     0.002 A 
ATOM      3  C5  UNL d   1       0.235   5.997  -1.910  0.00  0.00     0.002 A 
ATOM      4  C6  UNL d   1      -0.990   6.000  -2.572  0.00  0.00    -0.004 A 
ATOM      5  C7  UNL d   1      -1.884   4.949  -2.380  0.00  0.00     0.002 A 
ATOM      6  C8  UNL d   1      -1.559   3.901  -1.517  0.00  0.00     0.002 A 
ENDROOT
BRANCH   1   7
ATOM      7  C2  UNL d   1       0.005   2.771   0.115  0.00  0.00     0.056 C 
BRANCH   7   8
ATOM      8  C1  UNL d   1      -0.405   3.039   1.567  0.00  0.00     0.007 C 
ATOM      9  C   UNL d   1       0.462   2.304   2.580  0.00  0.00     0.009 C 
ENDBRANCH   7   8
ENDBRANCH   1   7
TORSDOF 2
ENDMDL
