MODEL 1
REMARK minimizedAffinity 12.47857
REMARK minimizedRMSD -1
REMARK  2 active torsions:
REMARK  status: ('A' for Active; 'I' for Inactive)
REMARK    1  A    between atoms: C1_2  and  C2_3 
REMARK    2  A    between atoms: C2_3  and  C3_4 
ROOT
ATOM      1  C3  UNL d   1      -0.335   4.181  -1.125  0.00  0.00    -0.075 A 
ATOM      2  C4  UNL d   1       0.445   4.711  -2.163  0.00  0.00     0.002 A 
ATOM      3  C5  UNL d   1      -0.157   5.358  -3.242  0.00  0.00     0.002 A 
ATOM      4  C6  UNL d   1      -1.543   5.476  -3.302  0.00  0.00    -0.004 A 
ATOM      5  C7  UNL d   1      -2.330   4.939  -2.285  0.00  0.00     0.002 A 
ATOM      6  C8  UNL d   1      -1.730   4.294  -1.202  0.00  0.00     0.002 A 
ENDROOT
BRANCH   1   7
ATOM      7  C2  UNL d   1       0.311   3.504   0.060  0.00  0.00     0.056 C 
BRANCH   7   8
ATOM      8  C1  UNL d   1      -0.555   2.419   0.708  0.00  0.00     0.007 C 
ATOM      9  C   UNL d   1      -0.725   2.604   2.210  0.00  0.00     0.009 C 
ENDBRANCH   7   8
ENDBRANCH   1   7
TORSDOF 2
ENDMDL
