MODEL 1
REMARK minimizedAffinity 2.42091107
REMARK minimizedRMSD -1
REMARK  2 active torsions:
REMARK  status: ('A' for Active; 'I' for Inactive)
REMARK    1  A    between atoms: C1_2  and  C2_3 
REMARK    2  A    between atoms: C2_3  and  C3_4 
ROOT
ATOM      1  C3  UNL d   1      -5.445   4.289  -3.549  0.00  0.00    -0.075 A 
ATOM      2  C4  UNL d   1      -5.721   3.400  -4.598  0.00  0.00     0.002 A 
ATOM      3  C5  UNL d   1      -5.998   2.058  -4.335  0.00  0.00     0.002 A 
ATOM      4  C6  UNL d   1      -5.992   1.587  -3.024  0.00  0.00    -0.004 A 
ATOM      5  C7  UNL d   1      -5.702   2.457  -1.976  0.00  0.00     0.002 A 
ATOM      6  C8  UNL d   1      -5.429   3.801  -2.236  0.00  0.00     0.002 A 
ENDROOT
BRANCH   1   7
ATOM      7  C2  UNL d   1      -5.174   5.749  -3.825  0.00  0.00     0.056 C 
BRANCH   7   8
ATOM      8  C1  UNL d   1      -4.329   6.000  -5.079  0.00  0.00     0.007 C 
ATOM      9  C   UNL d   1      -2.831   5.990  -4.806  0.00  0.00     0.009 C 
ENDBRANCH   7   8
ENDBRANCH   1   7
TORSDOF 2
ENDMDL
