MODEL 1
REMARK minimizedAffinity 4.30823231
REMARK minimizedRMSD -1
REMARK  2 active torsions:
REMARK  status: ('A' for Active; 'I' for Inactive)
REMARK    1  A    between atoms: C1_2  and  C2_3 
REMARK    2  A    between atoms: C2_3  and  C3_4 
ROOT
ATOM      1  C3  UNL d   1       0.590   4.119  -0.044  0.00  0.00    -0.075 A 
ATOM      2  C4  UNL d   1      -0.234   3.400   0.834  0.00  0.00     0.002 A 
ATOM      3  C5  UNL d   1       0.268   2.921   2.045  0.00  0.00     0.002 A 
ATOM      4  C6  UNL d   1       1.600   3.146   2.388  0.00  0.00    -0.004 A 
ATOM      5  C7  UNL d   1       2.431   3.845   1.515  0.00  0.00     0.002 A 
ATOM      6  C8  UNL d   1       1.930   4.329   0.306  0.00  0.00     0.002 A 
ENDROOT
BRANCH   1   7
ATOM      7  C2  UNL d   1       0.044   4.665  -1.342  0.00  0.00     0.056 C 
BRANCH   7   8
ATOM      8  C1  UNL d   1      -0.893   5.865  -1.169  0.00  0.00     0.007 C 
ATOM      9  C   UNL d   1      -1.911   5.998  -2.294  0.00  0.00     0.009 C 
ENDBRANCH   7   8
ENDBRANCH   1   7
TORSDOF 2
ENDMDL
