MODEL 1
REMARK minimizedAffinity 11.2337046
REMARK minimizedRMSD -1
REMARK  2 active torsions:
REMARK  status: ('A' for Active; 'I' for Inactive)
REMARK    1  A    between atoms: C1_2  and  C2_3 
REMARK    2  A    between atoms: C2_3  and  C3_4 
ROOT
ATOM      1  C3  UNL d   1       3.131  -3.990  -0.631  0.00  0.00    -0.075 A 
ATOM      2  C4  UNL d   1       2.066  -4.756  -1.128  0.00  0.00     0.002 A 
ATOM      3  C5  UNL d   1       0.758  -4.276  -1.064  0.00  0.00     0.002 A 
ATOM      4  C6  UNL d   1       0.496  -3.032  -0.495  0.00  0.00    -0.004 A 
ATOM      5  C7  UNL d   1       1.544  -2.269   0.016  0.00  0.00     0.002 A 
ATOM      6  C8  UNL d   1       2.855  -2.745  -0.050  0.00  0.00     0.002 A 
ENDROOT
BRANCH   1   7
ATOM      7  C2  UNL d   1       4.552  -4.491  -0.724  0.00  0.00     0.056 C 
BRANCH   7   8
ATOM      8  C1  UNL d   1       4.759  -5.894  -0.142  0.00  0.00     0.007 C 
ATOM      9  C   UNL d   1       5.990  -6.000   0.748  0.00  0.00     0.009 C 
ENDBRANCH   7   8
ENDBRANCH   1   7
TORSDOF 2
ENDMDL
