MODEL 1
REMARK minimizedAffinity -2.40178442
REMARK minimizedRMSD -1
REMARK  2 active torsions:
REMARK  status: ('A' for Active; 'I' for Inactive)
REMARK    1  A    between atoms: C1_2  and  C2_3 
REMARK    2  A    between atoms: C2_3  and  C3_4 
ROOT
ATOM      1  C3  UNL d   1      -0.654   2.411  -1.223  0.00  0.00    -0.075 A 
ATOM      2  C4  UNL d   1      -0.371   3.420  -2.156  0.00  0.00     0.002 A 
ATOM      3  C5  UNL d   1       0.342   4.557  -1.775  0.00  0.00     0.002 A 
ATOM      4  C6  UNL d   1       0.771   4.705  -0.458  0.00  0.00    -0.004 A 
ATOM      5  C7  UNL d   1       0.481   3.717   0.481  0.00  0.00     0.002 A 
ATOM      6  C8  UNL d   1      -0.228   2.576   0.101  0.00  0.00     0.002 A 
ENDROOT
BRANCH   1   7
ATOM      7  C2  UNL d   1      -1.400   1.165  -1.636  0.00  0.00     0.056 C 
BRANCH   7   8
ATOM      8  C1  UNL d   1      -0.948  -0.104  -0.904  0.00  0.00     0.007 C 
ATOM      9  C   UNL d   1       0.566  -0.226  -0.794  0.00  0.00     0.009 C 
ENDBRANCH   7   8
ENDBRANCH   1   7
TORSDOF 2
ENDMDL
