MODEL 1
REMARK minimizedAffinity 12.4075975
REMARK minimizedRMSD -1
REMARK  1 active torsions:
REMARK  status: ('A' for Active; 'I' for Inactive)
REMARK    1  A    between atoms: C1_2  and  C2_3 
ROOT
ATOM      1  C2  UNL d   1       3.559  -0.775  -0.239  0.00  0.00    -0.077 A 
ATOM      2  C3  UNL d   1       2.865  -1.991  -0.320  0.00  0.00     0.002 A 
ATOM      3  C4  UNL d   1       3.150  -3.028   0.570  0.00  0.00     0.002 A 
ATOM      4  C5  UNL d   1       4.126  -2.859   1.549  0.00  0.00    -0.004 A 
ATOM      5  C6  UNL d   1       4.823  -1.655   1.637  0.00  0.00     0.002 A 
ATOM      6  C7  UNL d   1       4.540  -0.617   0.748  0.00  0.00     0.002 A 
ENDROOT
BRANCH   1   7
ATOM      7  C1  UNL d   1       3.218   0.362  -1.166  0.00  0.00     0.055 C 
ATOM      8  C   UNL d   1       2.090   1.215  -0.604  0.00  0.00     0.019 C 
ENDBRANCH   1   7
TORSDOF 1
ENDMDL
