MODEL 1
REMARK minimizedAffinity 7.97444963
REMARK minimizedRMSD -1
REMARK  1 active torsions:
REMARK  status: ('A' for Active; 'I' for Inactive)
REMARK    1  A    between atoms: C1_2  and  C2_3 
ROOT
ATOM      1  C2  UNL d   1       2.949   0.033  -0.031  0.00  0.00    -0.077 A 
ATOM      2  C3  UNL d   1       2.625  -0.304  -1.352  0.00  0.00     0.002 A 
ATOM      3  C4  UNL d   1       2.445  -1.640  -1.717  0.00  0.00     0.002 A 
ATOM      4  C5  UNL d   1       2.583  -2.648  -0.765  0.00  0.00    -0.004 A 
ATOM      5  C6  UNL d   1       2.908  -2.323   0.551  0.00  0.00     0.002 A 
ATOM      6  C7  UNL d   1       3.089  -0.988   0.917  0.00  0.00     0.002 A 
ENDROOT
BRANCH   1   7
ATOM      7  C1  UNL d   1       3.094   1.477   0.375  0.00  0.00     0.055 C 
ATOM      8  C   UNL d   1       3.287   1.612   1.879  0.00  0.00     0.019 C 
ENDBRANCH   1   7
TORSDOF 1
ENDMDL
