MODEL 1
REMARK minimizedAffinity 1.01443446
REMARK minimizedRMSD -1
REMARK  1 active torsions:
REMARK  status: ('A' for Active; 'I' for Inactive)
REMARK    1  A    between atoms: C1_2  and  C2_3 
ROOT
ATOM      1  C2  UNL d   1      -2.509   1.363  -0.538  0.00  0.00    -0.077 A 
ATOM      2  C3  UNL d   1      -2.383   1.064   0.826  0.00  0.00     0.002 A 
ATOM      3  C4  UNL d   1      -3.478   1.198   1.682  0.00  0.00     0.002 A 
ATOM      4  C5  UNL d   1      -4.706   1.628   1.183  0.00  0.00    -0.004 A 
ATOM      5  C6  UNL d   1      -4.840   1.930  -0.172  0.00  0.00     0.002 A 
ATOM      6  C7  UNL d   1      -3.747   1.797  -1.029  0.00  0.00     0.002 A 
ENDROOT
BRANCH   1   7
ATOM      7  C1  UNL d   1      -1.342   1.171  -1.472  0.00  0.00     0.055 C 
ATOM      8  C   UNL d   1      -0.030   1.554  -0.804  0.00  0.00     0.019 C 
ENDBRANCH   1   7
TORSDOF 1
ENDMDL
