MODEL 1
REMARK minimizedAffinity 1.35704696
REMARK minimizedRMSD -1
REMARK  1 active torsions:
REMARK  status: ('A' for Active; 'I' for Inactive)
REMARK    1  A    between atoms: C1_2  and  C2_3 
ROOT
ATOM      1  C2  UNL d   1       2.401   2.111   4.536  0.00  0.00    -0.077 A 
ATOM      2  C3  UNL d   1       2.687   2.918   3.426  0.00  0.00     0.002 A 
ATOM      3  C4  UNL d   1       3.155   4.222   3.603  0.00  0.00     0.002 A 
ATOM      4  C5  UNL d   1       3.347   4.727   4.888  0.00  0.00    -0.004 A 
ATOM      5  C6  UNL d   1       3.064   3.932   5.998  0.00  0.00     0.002 A 
ATOM      6  C7  UNL d   1       2.594   2.630   5.823  0.00  0.00     0.002 A 
ENDROOT
BRANCH   1   7
ATOM      7  C1  UNL d   1       1.943   0.688   4.347  0.00  0.00     0.055 C 
ATOM      8  C   UNL d   1       0.682   0.621   3.497  0.00  0.00     0.019 C 
ENDBRANCH   1   7
TORSDOF 1
ENDMDL
