MODEL 1
REMARK minimizedAffinity 7.66734695
REMARK minimizedRMSD -1
REMARK  1 active torsions:
REMARK  status: ('A' for Active; 'I' for Inactive)
REMARK    1  A    between atoms: C1_2  and  C2_3 
ROOT
ATOM      1  C2  UNL d   1       2.790  -2.651  -0.588  0.00  0.00    -0.077 A 
ATOM      2  C3  UNL d   1       3.632  -1.998  -1.500  0.00  0.00     0.002 A 
ATOM      3  C4  UNL d   1       3.344  -2.018  -2.866  0.00  0.00     0.002 A 
ATOM      4  C5  UNL d   1       2.212  -2.685  -3.331  0.00  0.00    -0.004 A 
ATOM      5  C6  UNL d   1       1.370  -3.339  -2.433  0.00  0.00     0.002 A 
ATOM      6  C7  UNL d   1       1.658  -3.321  -1.067  0.00  0.00     0.002 A 
ENDROOT
BRANCH   1   7
ATOM      7  C1  UNL d   1       3.073  -2.589   0.890  0.00  0.00     0.055 C 
ATOM      8  C   UNL d   1       4.472  -2.058   1.165  0.00  0.00     0.019 C 
ENDBRANCH   1   7
TORSDOF 1
ENDMDL
