MODEL 1
REMARK minimizedAffinity -3.99334908
REMARK minimizedRMSD -1
REMARK  1 active torsions:
REMARK  status: ('A' for Active; 'I' for Inactive)
REMARK    1  A    between atoms: C1_2  and  C2_3 
ROOT
ATOM      1  C2  UNL d   1       2.718   4.808   5.277  0.00  0.00    -0.077 A 
ATOM      2  C3  UNL d   1       2.698   3.539   5.872  0.00  0.00     0.002 A 
ATOM      3  C4  UNL d   1       3.270   2.445   5.221  0.00  0.00     0.002 A 
ATOM      4  C5  UNL d   1       3.870   2.609   3.974  0.00  0.00    -0.004 A 
ATOM      5  C6  UNL d   1       3.894   3.867   3.373  0.00  0.00     0.002 A 
ATOM      6  C7  UNL d   1       3.321   4.962   4.022  0.00  0.00     0.002 A 
ENDROOT
BRANCH   1   7
ATOM      7  C1  UNL d   1       2.145   5.999   6.000  0.00  0.00     0.055 C 
ATOM      8  C   UNL d   1       0.624   5.968   6.000  0.00  0.00     0.019 C 
ENDBRANCH   1   7
TORSDOF 1
ENDMDL
