MODEL 1
REMARK minimizedAffinity -2.73426819
REMARK minimizedRMSD -1
REMARK  1 active torsions:
REMARK  status: ('A' for Active; 'I' for Inactive)
REMARK    1  A    between atoms: C1_2  and  C2_3 
ROOT
ATOM      1  C2  UNL d   1       1.867   5.106   4.977  0.00  0.00    -0.077 A 
ATOM      2  C3  UNL d   1       2.147   3.733   4.930  0.00  0.00     0.002 A 
ATOM      3  C4  UNL d   1       3.427   3.263   5.230  0.00  0.00     0.002 A 
ATOM      4  C5  UNL d   1       4.435   4.157   5.584  0.00  0.00    -0.004 A 
ATOM      5  C6  UNL d   1       4.167   5.525   5.632  0.00  0.00     0.002 A 
ATOM      6  C7  UNL d   1       2.888   5.997   5.331  0.00  0.00     0.002 A 
ENDROOT
BRANCH   1   7
ATOM      7  C1  UNL d   1       0.475   5.611   4.702  0.00  0.00     0.055 C 
ATOM      8  C   UNL d   1      -0.254   5.958   5.992  0.00  0.00     0.019 C 
ENDBRANCH   1   7
TORSDOF 1
ENDMDL
