MODEL 1
REMARK minimizedAffinity 20.1777668
REMARK minimizedRMSD -1
REMARK  0 active torsions:
REMARK  status: ('A' for Active; 'I' for Inactive)
ROOT
ATOM      1  C   UNL d   1       0.916  -2.526  -0.678  0.00  0.00    -0.002 A 
ATOM      2  C1  UNL d   1       0.119  -1.529  -0.134  0.00  0.00     0.010 A 
ATOM      3  C2  UNL d   1       0.478  -0.906   1.062  0.00  0.00     0.041 A 
ATOM      4  C3  UNL d   1       1.665  -1.304   1.708  0.00  0.00    -0.075 A 
ATOM      5  S   UNL d   1       2.306  -0.681   3.183  0.00  0.00     0.015 SA
ATOM      6  C4  UNL d   1       3.653  -1.723   3.125  0.00  0.00     0.022 A 
ATOM      7  C5  UNL d   1       3.630  -2.534   2.015  0.00  0.00     0.026 A 
ATOM      8  C6  UNL d   1       2.485  -2.305   1.180  0.00  0.00    -0.082 A 
ATOM      9  C7  UNL d   1       2.092  -2.919  -0.034  0.00  0.00     0.045 A 
ENDROOT
TORSDOF 0
ENDMDL
