MODEL 1
REMARK minimizedAffinity 12.9927044
REMARK minimizedRMSD -1
REMARK  0 active torsions:
REMARK  status: ('A' for Active; 'I' for Inactive)
ROOT
ATOM      1  C   UNL d   1       1.952  -2.477   0.197  0.00  0.00    -0.002 A 
ATOM      2  C1  UNL d   1       1.270  -1.507   0.918  0.00  0.00     0.010 A 
ATOM      3  C2  UNL d   1       1.641  -1.204   2.229  0.00  0.00     0.041 A 
ATOM      4  C3  UNL d   1       2.721  -1.898   2.809  0.00  0.00    -0.075 A 
ATOM      5  S   UNL d   1       3.353  -1.693   4.400  0.00  0.00     0.015 SA
ATOM      6  C4  UNL d   1       4.544  -2.888   4.161  0.00  0.00     0.022 A 
ATOM      7  C5  UNL d   1       4.476  -3.440   2.904  0.00  0.00     0.026 A 
ATOM      8  C6  UNL d   1       3.424  -2.878   2.104  0.00  0.00    -0.082 A 
ATOM      9  C7  UNL d   1       3.023  -3.163   0.776  0.00  0.00     0.045 A 
ENDROOT
TORSDOF 0
ENDMDL
