MODEL 1
REMARK minimizedAffinity 18.9961662
REMARK minimizedRMSD -1
REMARK  0 active torsions:
REMARK  status: ('A' for Active; 'I' for Inactive)
ROOT
ATOM      1  C   UNL d   1       1.982  -2.206   0.504  0.00  0.00    -0.002 A 
ATOM      2  C1  UNL d   1       0.999  -1.460   1.138  0.00  0.00     0.010 A 
ATOM      3  C2  UNL d   1       1.122  -1.125   2.488  0.00  0.00     0.041 A 
ATOM      4  C3  UNL d   1       2.261  -1.555   3.196  0.00  0.00    -0.075 A 
ATOM      5  S   UNL d   1       2.625  -1.262   4.856  0.00  0.00     0.015 SA
ATOM      6  C4  UNL d   1       4.095  -2.121   4.762  0.00  0.00     0.022 A 
ATOM      7  C5  UNL d   1       4.317  -2.625   3.502  0.00  0.00     0.026 A 
ATOM      8  C6  UNL d   1       3.265  -2.307   2.579  0.00  0.00    -0.082 A 
ATOM      9  C7  UNL d   1       3.111  -2.632   1.210  0.00  0.00     0.045 A 
ENDROOT
TORSDOF 0
ENDMDL
