MODEL 1
REMARK minimizedAffinity 15.7662468
REMARK minimizedRMSD -1
REMARK  0 active torsions:
REMARK  status: ('A' for Active; 'I' for Inactive)
ROOT
ATOM      1  C   UNL d   1       0.524  -1.220   1.497  0.00  0.00    -0.002 A 
ATOM      2  C1  UNL d   1       1.849  -0.874   1.724  0.00  0.00     0.010 A 
ATOM      3  C2  UNL d   1       2.879  -1.761   1.408  0.00  0.00     0.041 A 
ATOM      4  C3  UNL d   1       2.553  -3.014   0.852  0.00  0.00    -0.075 A 
ATOM      5  S   UNL d   1       3.648  -4.261   0.385  0.00  0.00     0.015 SA
ATOM      6  C4  UNL d   1       2.383  -5.283  -0.127  0.00  0.00     0.022 A 
ATOM      7  C5  UNL d   1       1.149  -4.703   0.047  0.00  0.00     0.026 A 
ATOM      8  C6  UNL d   1       1.226  -3.385   0.614  0.00  0.00    -0.082 A 
ATOM      9  C7  UNL d   1       0.204  -2.464   0.947  0.00  0.00     0.045 A 
ENDROOT
TORSDOF 0
ENDMDL
