MODEL 1
REMARK minimizedAffinity 17.1821842
REMARK minimizedRMSD -1
REMARK  0 active torsions:
REMARK  status: ('A' for Active; 'I' for Inactive)
ROOT
ATOM      1  C   UNL d   1       0.962  -1.903   1.318  0.00  0.00    -0.002 A 
ATOM      2  C1  UNL d   1       2.241  -1.383   1.173  0.00  0.00     0.010 A 
ATOM      3  C2  UNL d   1       3.303  -2.206   0.794  0.00  0.00     0.041 A 
ATOM      4  C3  UNL d   1       3.057  -3.573   0.560  0.00  0.00    -0.075 A 
ATOM      5  S   UNL d   1       4.204  -4.770   0.086  0.00  0.00     0.015 SA
ATOM      6  C4  UNL d   1       3.024  -6.000   0.065  0.00  0.00     0.022 A 
ATOM      7  C5  UNL d   1       1.780  -5.526   0.409  0.00  0.00     0.026 A 
ATOM      8  C6  UNL d   1       1.778  -4.120   0.699  0.00  0.00    -0.082 A 
ATOM      9  C7  UNL d   1       0.722  -3.260   1.085  0.00  0.00     0.045 A 
ENDROOT
TORSDOF 0
ENDMDL
