MODEL 1
REMARK minimizedAffinity 13.7948961
REMARK minimizedRMSD -1
REMARK  0 active torsions:
REMARK  status: ('A' for Active; 'I' for Inactive)
ROOT
ATOM      1  C   UNL d   1       5.721   3.928  -5.791  0.00  0.00    -0.002 A 
ATOM      2  C1  UNL d   1       5.679   5.315  -5.754  0.00  0.00     0.010 A 
ATOM      3  C2  UNL d   1       4.458   5.990  -5.790  0.00  0.00     0.041 A 
ATOM      4  C3  UNL d   1       3.267   5.241  -5.864  0.00  0.00    -0.075 A 
ATOM      5  S   UNL d   1       1.656   5.852  -5.919  0.00  0.00     0.015 SA
ATOM      6  C4  UNL d   1       0.985   4.287  -5.993  0.00  0.00     0.022 A 
ATOM      7  C5  UNL d   1       1.952   3.310  -5.977  0.00  0.00     0.026 A 
ATOM      8  C6  UNL d   1       3.283   3.844  -5.902  0.00  0.00    -0.082 A 
ATOM      9  C7  UNL d   1       4.538   3.188  -5.865  0.00  0.00     0.045 A 
ENDROOT
TORSDOF 0
ENDMDL
