MODEL 1
REMARK minimizedAffinity 22.2644081
REMARK minimizedRMSD -1
REMARK  0 active torsions:
REMARK  status: ('A' for Active; 'I' for Inactive)
ROOT
ATOM      1  C   UNL d   1       5.170  -5.969   0.223  0.00  0.00    -0.002 A 
ATOM      2  C1  UNL d   1       3.787  -5.861   0.231  0.00  0.00     0.010 A 
ATOM      3  C2  UNL d   1       3.172  -4.612   0.346  0.00  0.00     0.041 A 
ATOM      4  C3  UNL d   1       3.980  -3.463   0.451  0.00  0.00    -0.075 A 
ATOM      5  S   UNL d   1       3.448  -1.829   0.600  0.00  0.00     0.015 SA
ATOM      6  C4  UNL d   1       5.045  -1.236   0.656  0.00  0.00     0.022 A 
ATOM      7  C5  UNL d   1       5.973  -2.246   0.564  0.00  0.00     0.026 A 
ATOM      8  C6  UNL d   1       5.375  -3.546   0.445  0.00  0.00    -0.082 A 
ATOM      9  C7  UNL d   1       5.968  -4.826   0.328  0.00  0.00     0.045 A 
ENDROOT
TORSDOF 0
ENDMDL
