MODEL 1
REMARK minimizedAffinity 10.3487682
REMARK minimizedRMSD -1
REMARK  0 active torsions:
REMARK  status: ('A' for Active; 'I' for Inactive)
ROOT
ATOM      1  C   UNL d   1       2.738  -2.293   0.658  0.00  0.00    -0.002 A 
ATOM      2  C1  UNL d   1       1.979  -3.423   0.389  0.00  0.00     0.010 A 
ATOM      3  C2  UNL d   1       0.723  -3.592   0.974  0.00  0.00     0.041 A 
ATOM      4  C3  UNL d   1       0.236  -2.594   1.842  0.00  0.00    -0.075 A 
ATOM      5  S   UNL d   1      -1.275  -2.586   2.673  0.00  0.00     0.015 SA
ATOM      6  C4  UNL d   1      -0.949  -1.081   3.404  0.00  0.00     0.022 A 
ATOM      7  C5  UNL d   1       0.278  -0.583   3.034  0.00  0.00     0.026 A 
ATOM      8  C6  UNL d   1       0.981  -1.447   2.128  0.00  0.00    -0.082 A 
ATOM      9  C7  UNL d   1       2.251  -1.305   1.519  0.00  0.00     0.045 A 
ENDROOT
TORSDOF 0
ENDMDL
