MODEL 1
REMARK minimizedAffinity 22.7084961
REMARK minimizedRMSD -1
REMARK  0 active torsions:
REMARK  status: ('A' for Active; 'I' for Inactive)
ROOT
ATOM      1  C   UNL d   1       5.958   4.115  -4.939  0.00  0.00    -0.002 A 
ATOM      2  C1  UNL d   1       5.987   5.332  -5.605  0.00  0.00     0.010 A 
ATOM      3  C2  UNL d   1       4.800   5.979  -5.956  0.00  0.00     0.041 A 
ATOM      4  C3  UNL d   1       3.572   5.376  -5.622  0.00  0.00    -0.075 A 
ATOM      5  S   UNL d   1       1.992   5.985  -5.950  0.00  0.00     0.015 SA
ATOM      6  C4  UNL d   1       1.241   4.644  -5.213  0.00  0.00     0.022 A 
ATOM      7  C5  UNL d   1       2.158   3.744  -4.723  0.00  0.00     0.026 A 
ATOM      8  C6  UNL d   1       3.516   4.152  -4.950  0.00  0.00    -0.082 A 
ATOM      9  C7  UNL d   1       4.737   3.521  -4.609  0.00  0.00     0.045 A 
ENDROOT
TORSDOF 0
ENDMDL
