MODEL 1
REMARK minimizedAffinity 13.8059111
REMARK minimizedRMSD -1
REMARK  0 active torsions:
REMARK  status: ('A' for Active; 'I' for Inactive)
ROOT
ATOM      1  C   UNL d   1       5.201   5.995  -5.618  0.00  0.00    -0.002 A 
ATOM      2  C1  UNL d   1       3.873   5.960  -5.218  0.00  0.00     0.010 A 
ATOM      3  C2  UNL d   1       3.291   4.764  -4.790  0.00  0.00     0.041 A 
ATOM      4  C3  UNL d   1       4.075   3.594  -4.771  0.00  0.00    -0.075 A 
ATOM      5  S   UNL d   1       3.576   2.017  -4.285  0.00  0.00     0.015 SA
ATOM      6  C4  UNL d   1       5.114   1.352  -4.597  0.00  0.00     0.022 A 
ATOM      7  C5  UNL d   1       5.999   2.297  -5.061  0.00  0.00     0.026 A 
ATOM      8  C6  UNL d   1       5.415   3.604  -5.169  0.00  0.00    -0.082 A 
ATOM      9  C7  UNL d   1       5.975   4.831  -5.597  0.00  0.00     0.045 A 
ENDROOT
TORSDOF 0
ENDMDL
