MODEL 1
REMARK minimizedAffinity 7.97758102
REMARK minimizedRMSD -1
REMARK  0 active torsions:
REMARK  status: ('A' for Active; 'I' for Inactive)
ROOT
ATOM      1  C   UNL d   1       2.504  -2.072  -1.071  0.00  0.00    -0.002 A 
ATOM      2  C1  UNL d   1       3.228  -1.780   0.076  0.00  0.00     0.010 A 
ATOM      3  C2  UNL d   1       3.385  -0.459   0.500  0.00  0.00     0.041 A 
ATOM      4  C3  UNL d   1       2.795   0.573  -0.255  0.00  0.00    -0.075 A 
ATOM      5  S   UNL d   1       2.854   2.265   0.073  0.00  0.00     0.015 SA
ATOM      6  C4  UNL d   1       1.918   2.640  -1.301  0.00  0.00     0.022 A 
ATOM      7  C5  UNL d   1       1.562   1.514  -2.005  0.00  0.00     0.026 A 
ATOM      8  C6  UNL d   1       2.060   0.304  -1.413  0.00  0.00    -0.082 A 
ATOM      9  C7  UNL d   1       1.920  -1.045  -1.817  0.00  0.00     0.045 A 
ENDROOT
TORSDOF 0
ENDMDL
