MODEL 1
REMARK minimizedAffinity 12.4247637
REMARK minimizedRMSD -1
REMARK  0 active torsions:
REMARK  status: ('A' for Active; 'I' for Inactive)
ROOT
ATOM      1  C   UNL d   1       1.796   0.884  -1.957  0.00  0.00    -0.002 A 
ATOM      2  C1  UNL d   1       2.171   1.985  -1.199  0.00  0.00     0.010 A 
ATOM      3  C2  UNL d   1       2.390   1.860   0.174  0.00  0.00     0.041 A 
ATOM      4  C3  UNL d   1       2.227   0.598   0.778  0.00  0.00    -0.075 A 
ATOM      5  S   UNL d   1       2.442   0.207   2.444  0.00  0.00     0.015 SA
ATOM      6  C4  UNL d   1       2.043  -1.430   2.188  0.00  0.00     0.022 A 
ATOM      7  C5  UNL d   1       1.749  -1.690   0.870  0.00  0.00     0.026 A 
ATOM      8  C6  UNL d   1       1.851  -0.525   0.036  0.00  0.00    -0.082 A 
ATOM      9  C7  UNL d   1       1.635  -0.366  -1.354  0.00  0.00     0.045 A 
ENDROOT
TORSDOF 0
ENDMDL
