MODEL 1
REMARK minimizedAffinity 12.367466
REMARK minimizedRMSD -1
REMARK  0 active torsions:
REMARK  status: ('A' for Active; 'I' for Inactive)
ROOT
ATOM      1  C   UNL d   1       5.113  -4.527   5.984  0.00  0.00    -0.002 A 
ATOM      2  C1  UNL d   1       4.708  -5.584   5.181  0.00  0.00     0.010 A 
ATOM      3  C2  UNL d   1       3.898  -5.359   4.066  0.00  0.00     0.041 A 
ATOM      4  C3  UNL d   1       3.500  -4.041   3.767  0.00  0.00    -0.075 A 
ATOM      5  S   UNL d   1       2.511  -3.527   2.452  0.00  0.00     0.015 SA
ATOM      6  C4  UNL d   1       2.604  -1.892   2.924  0.00  0.00     0.022 A 
ATOM      7  C5  UNL d   1       3.366  -1.725   4.056  0.00  0.00     0.026 A 
ATOM      8  C6  UNL d   1       3.896  -2.960   4.560  0.00  0.00    -0.082 A 
ATOM      9  C7  UNL d   1       4.716  -3.221   5.684  0.00  0.00     0.045 A 
ENDROOT
TORSDOF 0
ENDMDL
