MODEL 1
REMARK minimizedAffinity 2.56163096
REMARK minimizedRMSD -1
REMARK  0 active torsions:
REMARK  status: ('A' for Active; 'I' for Inactive)
ROOT
ATOM      1  C   UNL d   1      -1.883   2.274  -4.517  0.00  0.00    -0.002 A 
ATOM      2  C1  UNL d   1      -2.708   1.701  -5.475  0.00  0.00     0.010 A 
ATOM      3  C2  UNL d   1      -3.799   2.406  -5.986  0.00  0.00     0.041 A 
ATOM      4  C3  UNL d   1      -4.048   3.711  -5.516  0.00  0.00    -0.075 A 
ATOM      5  S   UNL d   1      -5.324   4.764  -6.000  0.00  0.00     0.015 SA
ATOM      6  C4  UNL d   1      -4.804   5.999  -4.947  0.00  0.00     0.022 A 
ATOM      7  C5  UNL d   1      -3.686   5.634  -4.237  0.00  0.00     0.026 A 
ATOM      8  C6  UNL d   1      -3.231   4.310  -4.553  0.00  0.00    -0.082 A 
ATOM      9  C7  UNL d   1      -2.133   3.568  -4.053  0.00  0.00     0.045 A 
ENDROOT
TORSDOF 0
ENDMDL
