MODEL 1
REMARK minimizedAffinity 13.1811256
REMARK minimizedRMSD -1
REMARK  0 active torsions:
REMARK  status: ('A' for Active; 'I' for Inactive)
ROOT
ATOM      1  C   UNL d   1       1.525   1.681  -1.717  0.00  0.00    -0.002 A 
ATOM      2  C1  UNL d   1       1.609   0.343  -1.358  0.00  0.00     0.010 A 
ATOM      3  C2  UNL d   1       0.458  -0.442  -1.268  0.00  0.00     0.041 A 
ATOM      4  C3  UNL d   1      -0.791   0.145  -1.550  0.00  0.00    -0.075 A 
ATOM      5  S   UNL d   1      -2.335  -0.622  -1.507  0.00  0.00     0.015 SA
ATOM      6  C4  UNL d   1      -3.142   0.808  -1.965  0.00  0.00     0.022 A 
ATOM      7  C5  UNL d   1      -2.270   1.855  -2.150  0.00  0.00     0.026 A 
ATOM      8  C6  UNL d   1      -0.901   1.490  -1.915  0.00  0.00    -0.082 A 
ATOM      9  C7  UNL d   1       0.284   2.260  -1.996  0.00  0.00     0.045 A 
ENDROOT
TORSDOF 0
ENDMDL
