MODEL 1
REMARK minimizedAffinity 8.41170311
REMARK minimizedRMSD -1
REMARK  0 active torsions:
REMARK  status: ('A' for Active; 'I' for Inactive)
ROOT
ATOM      1  C   UNL d   1      -3.097   1.087   2.545  0.00  0.00    -0.002 A 
ATOM      2  C1  UNL d   1      -3.484  -0.010   1.789  0.00  0.00     0.010 A 
ATOM      3  C2  UNL d   1      -2.558  -0.996   1.443  0.00  0.00     0.041 A 
ATOM      4  C3  UNL d   1      -1.224  -0.860   1.876  0.00  0.00    -0.075 A 
ATOM      5  S   UNL d   1       0.083  -1.944   1.573  0.00  0.00     0.015 SA
ATOM      6  C4  UNL d   1       1.185  -0.976   2.441  0.00  0.00     0.022 A 
ATOM      7  C5  UNL d   1       0.587   0.150   2.956  0.00  0.00     0.026 A 
ATOM      8  C6  UNL d   1      -0.811   0.235   2.639  0.00  0.00    -0.082 A 
ATOM      9  C7  UNL d   1      -1.773   1.218   2.972  0.00  0.00     0.045 A 
ENDROOT
TORSDOF 0
ENDMDL
