MODEL 1
REMARK minimizedAffinity 8.30521584
REMARK minimizedRMSD -1
REMARK  0 active torsions:
REMARK  status: ('A' for Active; 'I' for Inactive)
ROOT
ATOM      1  C   UNL d   1      -0.836  -1.392   1.503  0.00  0.00    -0.002 A 
ATOM      2  C1  UNL d   1       0.300  -1.203   2.278  0.00  0.00     0.010 A 
ATOM      3  C2  UNL d   1       1.553  -1.064   1.679  0.00  0.00     0.041 A 
ATOM      4  C3  UNL d   1       1.646  -1.116   0.274  0.00  0.00    -0.075 A 
ATOM      5  S   UNL d   1       3.075  -0.968  -0.679  0.00  0.00     0.015 SA
ATOM      6  C4  UNL d   1       2.211  -1.150  -2.137  0.00  0.00     0.022 A 
ATOM      7  C5  UNL d   1       0.865  -1.321  -1.921  0.00  0.00     0.026 A 
ATOM      8  C6  UNL d   1       0.516  -1.303  -0.528  0.00  0.00    -0.082 A 
ATOM      9  C7  UNL d   1      -0.740  -1.442   0.110  0.00  0.00     0.045 A 
ENDROOT
TORSDOF 0
ENDMDL
