MODEL 1
REMARK minimizedAffinity 13.4456272
REMARK minimizedRMSD -1
REMARK  0 active torsions:
REMARK  status: ('A' for Active; 'I' for Inactive)
ROOT
ATOM      1  C   UNL d   1       0.794  -1.580   2.818  0.00  0.00    -0.002 A 
ATOM      2  C1  UNL d   1       1.721  -2.611   2.760  0.00  0.00     0.010 A 
ATOM      3  C2  UNL d   1       2.496  -2.806   1.615  0.00  0.00     0.041 A 
ATOM      4  C3  UNL d   1       2.323  -1.938   0.518  0.00  0.00    -0.075 A 
ATOM      5  S   UNL d   1       3.161  -1.984  -0.987  0.00  0.00     0.015 SA
ATOM      6  C4  UNL d   1       2.308  -0.637  -1.589  0.00  0.00     0.022 A 
ATOM      7  C5  UNL d   1       1.402  -0.151  -0.677  0.00  0.00     0.026 A 
ATOM      8  C6  UNL d   1       1.395  -0.892   0.553  0.00  0.00    -0.082 A 
ATOM      9  C7  UNL d   1       0.624  -0.722   1.728  0.00  0.00     0.045 A 
ENDROOT
TORSDOF 0
ENDMDL
