MODEL 1
REMARK minimizedAffinity 6.77328777
REMARK minimizedRMSD -1
REMARK  0 active torsions:
REMARK  status: ('A' for Active; 'I' for Inactive)
ROOT
ATOM      1  C   UNL d   1       0.076  -2.550   3.720  0.00  0.00    -0.002 A 
ATOM      2  C1  UNL d   1       1.086  -1.635   3.459  0.00  0.00     0.010 A 
ATOM      3  C2  UNL d   1       1.100  -0.914   2.263  0.00  0.00     0.041 A 
ATOM      4  C3  UNL d   1       0.071  -1.128   1.326  0.00  0.00    -0.075 A 
ATOM      5  S   UNL d   1      -0.117  -0.359  -0.205  0.00  0.00     0.015 SA
ATOM      6  C4  UNL d   1      -1.544  -1.225  -0.549  0.00  0.00     0.022 A 
ATOM      7  C5  UNL d   1      -1.883  -2.086   0.468  0.00  0.00     0.026 A 
ATOM      8  C6  UNL d   1      -0.958  -2.044   1.566  0.00  0.00    -0.082 A 
ATOM      9  C7  UNL d   1      -0.944  -2.760   2.787  0.00  0.00     0.045 A 
ENDROOT
TORSDOF 0
ENDMDL
