MODEL 1
REMARK minimizedAffinity 6.52736759
REMARK minimizedRMSD -1
REMARK  0 active torsions:
REMARK  status: ('A' for Active; 'I' for Inactive)
ROOT
ATOM      1  C   UNL d   1      -0.052  -1.330   3.089  0.00  0.00    -0.002 A 
ATOM      2  C1  UNL d   1      -0.872  -0.482   2.358  0.00  0.00     0.010 A 
ATOM      3  C2  UNL d   1      -0.557  -0.152   1.039  0.00  0.00     0.041 A 
ATOM      4  C3  UNL d   1       0.607  -0.694   0.460  0.00  0.00    -0.075 A 
ATOM      5  S   UNL d   1       1.192  -0.430  -1.140  0.00  0.00     0.015 SA
ATOM      6  C4  UNL d   1       2.544  -1.437  -0.892  0.00  0.00     0.022 A 
ATOM      7  C5  UNL d   1       2.565  -1.970   0.375  0.00  0.00     0.026 A 
ATOM      8  C6  UNL d   1       1.449  -1.551   1.175  0.00  0.00    -0.082 A 
ATOM      9  C7  UNL d   1       1.102  -1.866   2.511  0.00  0.00     0.045 A 
ENDROOT
TORSDOF 0
ENDMDL
