MODEL 1
REMARK minimizedAffinity 11.114254
REMARK minimizedRMSD -1
REMARK  1 active torsions:
REMARK  status: ('A' for Active; 'I' for Inactive)
REMARK    1  A    between atoms: C1_2  and  C2_3 
ROOT
ATOM      1  C2  UNL d   1       0.324   1.319   0.775  0.00  0.00    -0.073 A 
ATOM      2  C3  UNL d   1      -0.168   2.532   1.270  0.00  0.00    -0.002 A 
ATOM      3  C4  UNL d   1      -0.346   2.714   2.642  0.00  0.00     0.004 A 
ATOM      4  C5  UNL d   1      -0.028   1.689   3.533  0.00  0.00    -0.004 A 
ATOM      5  C6  UNL d   1       0.477   0.474   3.059  0.00  0.00    -0.075 A 
ATOM      6  C7  UNL d   1       0.822  -0.639   4.004  0.00  0.00     0.076 C 
ATOM      7  C8  UNL d   1       0.650   0.298   1.679  0.00  0.00     0.001 A 
ENDROOT
BRANCH   1   8
ATOM      8  C1  UNL d   1       0.523   1.120  -0.705  0.00  0.00     0.053 C 
ATOM      9  C   UNL d   1      -0.743   1.411  -1.495  0.00  0.00     0.018 C 
ENDBRANCH   1   8
TORSDOF 1
ENDMDL
