MODEL 1
REMARK minimizedAffinity 10.1348276
REMARK minimizedRMSD -1
REMARK  1 active torsions:
REMARK  status: ('A' for Active; 'I' for Inactive)
REMARK    1  A    between atoms: C1_2  and  C2_3 
ROOT
ATOM      1  C2  UNL d   1      -4.178  -0.412   1.603  0.00  0.00    -0.073 A 
ATOM      2  C3  UNL d   1      -5.005   0.374   0.792  0.00  0.00    -0.002 A 
ATOM      3  C4  UNL d   1      -4.742   0.497  -0.573  0.00  0.00     0.004 A 
ATOM      4  C5  UNL d   1      -3.657  -0.169  -1.142  0.00  0.00    -0.004 A 
ATOM      5  C6  UNL d   1      -2.826  -0.969  -0.351  0.00  0.00    -0.075 A 
ATOM      6  C7  UNL d   1      -1.653  -1.690  -0.947  0.00  0.00     0.076 C 
ATOM      7  C8  UNL d   1      -3.094  -1.085   1.020  0.00  0.00     0.001 A 
ENDROOT
BRANCH   1   8
ATOM      8  C1  UNL d   1      -4.461  -0.553   3.076  0.00  0.00     0.053 C 
ATOM      9  C   UNL d   1      -5.927  -0.851   3.349  0.00  0.00     0.018 C 
ENDBRANCH   1   8
TORSDOF 1
ENDMDL
