MODEL 1
REMARK minimizedAffinity 0.353837401
REMARK minimizedRMSD -1
REMARK  1 active torsions:
REMARK  status: ('A' for Active; 'I' for Inactive)
REMARK    1  A    between atoms: C1_2  and  C2_3 
ROOT
ATOM      1  C2  UNL d   1      -0.742  -0.750  -0.531  0.00  0.00    -0.073 A 
ATOM      2  C3  UNL d   1      -0.221   0.165  -1.453  0.00  0.00    -0.002 A 
ATOM      3  C4  UNL d   1       0.721   1.113  -1.051  0.00  0.00     0.004 A 
ATOM      4  C5  UNL d   1       1.156   1.151   0.274  0.00  0.00    -0.004 A 
ATOM      5  C6  UNL d   1       0.656   0.237   1.207  0.00  0.00    -0.075 A 
ATOM      6  C7  UNL d   1       1.113   0.267   2.636  0.00  0.00     0.076 C 
ATOM      7  C8  UNL d   1      -0.291  -0.710   0.796  0.00  0.00     0.001 A 
ENDROOT
BRANCH   1   8
ATOM      8  C1  UNL d   1      -1.755  -1.779  -0.962  0.00  0.00     0.053 C 
ATOM      9  C   UNL d   1      -1.128  -3.152  -1.151  0.00  0.00     0.018 C 
ENDBRANCH   1   8
TORSDOF 1
ENDMDL
