MODEL 1
REMARK minimizedAffinity -1.94833434
REMARK minimizedRMSD -1
REMARK  0 active torsions:
REMARK  status: ('A' for Active; 'I' for Inactive)
ROOT
ATOM      1  C   UNL d   1       0.993   3.332  -0.047  0.00  0.00     0.172 C 
ATOM      2  N   UNL d   1       1.212   1.957  -0.431  0.00  0.00    -0.070 N 
ATOM      3  C1  UNL d   1       2.038   1.531  -1.437  0.00  0.00    -0.004 A 
ATOM      4  C2  UNL d   1       1.970   0.156  -1.485  0.00  0.00    -0.047 A 
ATOM      5  C3  UNL d   1       1.071  -0.259  -0.474  0.00  0.00    -0.047 A 
ATOM      6  C4  UNL d   1       0.617   0.876   0.163  0.00  0.00    -0.004 A 
ENDROOT
TORSDOF 0
ENDMDL
