MODEL 1
REMARK minimizedAffinity 1.04963493
REMARK minimizedRMSD -1
REMARK  0 active torsions:
REMARK  status: ('A' for Active; 'I' for Inactive)
ROOT
ATOM      1  C   UNL d   1       1.056  -0.455   0.482  0.00  0.00     0.172 C 
ATOM      2  N   UNL d   1       1.273   0.648  -0.425  0.00  0.00    -0.070 N 
ATOM      3  C1  UNL d   1       2.166   0.663  -1.464  0.00  0.00    -0.004 A 
ATOM      4  C2  UNL d   1       2.070   1.890  -2.085  0.00  0.00    -0.047 A 
ATOM      5  C3  UNL d   1       1.086   2.638  -1.395  0.00  0.00    -0.047 A 
ATOM      6  C4  UNL d   1       0.609   1.845  -0.373  0.00  0.00    -0.004 A 
ENDROOT
TORSDOF 0
ENDMDL
