MODEL 1
REMARK minimizedAffinity -3.86060739
REMARK minimizedRMSD -1
REMARK  0 active torsions:
REMARK  status: ('A' for Active; 'I' for Inactive)
ROOT
ATOM      1  C   UNL d   1       0.920   0.476  -0.958  0.00  0.00     0.172 C 
ATOM      2  N   UNL d   1       1.089   1.889  -0.715  0.00  0.00    -0.070 N 
ATOM      3  C1  UNL d   1       1.333   2.840  -1.671  0.00  0.00    -0.004 A 
ATOM      4  C2  UNL d   1       1.430   4.060  -1.037  0.00  0.00    -0.047 A 
ATOM      5  C3  UNL d   1       1.238   3.835   0.347  0.00  0.00    -0.047 A 
ATOM      6  C4  UNL d   1       1.029   2.482   0.518  0.00  0.00    -0.004 A 
ENDROOT
TORSDOF 0
ENDMDL
