MODEL 1
REMARK minimizedAffinity -3.51814604
REMARK minimizedRMSD -1
REMARK  0 active torsions:
REMARK  status: ('A' for Active; 'I' for Inactive)
ROOT
ATOM      1  C   UNL d   1       1.026   4.460  -0.031  0.00  0.00     0.172 C 
ATOM      2  N   UNL d   1       0.964   3.033  -0.245  0.00  0.00    -0.070 N 
ATOM      3  C1  UNL d   1       1.305   2.384  -1.401  0.00  0.00    -0.004 A 
ATOM      4  C2  UNL d   1       1.107   1.035  -1.202  0.00  0.00    -0.047 A 
ATOM      5  C3  UNL d   1       0.629   0.867   0.119  0.00  0.00    -0.047 A 
ATOM      6  C4  UNL d   1       0.549   2.121   0.689  0.00  0.00    -0.004 A 
ENDROOT
TORSDOF 0
ENDMDL
