MODEL 1
REMARK minimizedAffinity -2.10991788
REMARK minimizedRMSD -1
REMARK  0 active torsions:
REMARK  status: ('A' for Active; 'I' for Inactive)
ROOT
ATOM      1  C   UNL d   1       1.329   4.186  -1.129  0.00  0.00     0.172 C 
ATOM      2  N   UNL d   1       1.190   2.766  -0.908  0.00  0.00    -0.070 N 
ATOM      3  C1  UNL d   1       0.764   2.176   0.252  0.00  0.00    -0.004 A 
ATOM      4  C2  UNL d   1       0.769   0.812   0.058  0.00  0.00    -0.047 A 
ATOM      5  C3  UNL d   1       1.214   0.573  -1.264  0.00  0.00    -0.047 A 
ATOM      6  C4  UNL d   1       1.467   1.800  -1.839  0.00  0.00    -0.004 A 
ENDROOT
TORSDOF 0
ENDMDL
