MODEL 1
REMARK minimizedAffinity -2.72980785
REMARK minimizedRMSD -1
REMARK  0 active torsions:
REMARK  status: ('A' for Active; 'I' for Inactive)
ROOT
ATOM      1  C   UNL d   1       1.232   3.314   0.150  0.00  0.00     0.172 C 
ATOM      2  N   UNL d   1       1.185   1.969  -0.372  0.00  0.00    -0.070 N 
ATOM      3  C1  UNL d   1       1.053   0.828   0.373  0.00  0.00    -0.004 A 
ATOM      4  C2  UNL d   1       1.050  -0.244  -0.493  0.00  0.00    -0.047 A 
ATOM      5  C3  UNL d   1       1.186   0.270  -1.804  0.00  0.00    -0.047 A 
ATOM      6  C4  UNL d   1       1.268   1.643  -1.700  0.00  0.00    -0.004 A 
ENDROOT
TORSDOF 0
ENDMDL
