MODEL 1
REMARK minimizedAffinity -0.734330595
REMARK minimizedRMSD -1
REMARK  0 active torsions:
REMARK  status: ('A' for Active; 'I' for Inactive)
ROOT
ATOM      1  C   UNL d   1       1.384   3.896  -1.134  0.00  0.00     0.172 C 
ATOM      2  N   UNL d   1       1.264   2.468  -0.955  0.00  0.00    -0.070 N 
ATOM      3  C1  UNL d   1       1.526   1.784   0.202  0.00  0.00    -0.004 A 
ATOM      4  C2  UNL d   1       1.292   0.447  -0.037  0.00  0.00    -0.047 A 
ATOM      5  C3  UNL d   1       0.876   0.323  -1.383  0.00  0.00    -0.047 A 
ATOM      6  C4  UNL d   1       0.867   1.590  -1.929  0.00  0.00    -0.004 A 
ENDROOT
TORSDOF 0
ENDMDL
