MODEL 1
REMARK minimizedAffinity -2.40848804
REMARK minimizedRMSD -1
REMARK  0 active torsions:
REMARK  status: ('A' for Active; 'I' for Inactive)
ROOT
ATOM      1  C   UNL d   1       1.739   4.841  -0.688  0.00  0.00     0.172 C 
ATOM      2  N   UNL d   1       1.435   3.432  -0.618  0.00  0.00    -0.070 N 
ATOM      3  C1  UNL d   1       1.341   2.581  -1.687  0.00  0.00    -0.004 A 
ATOM      4  C2  UNL d   1       1.037   1.327  -1.204  0.00  0.00    -0.047 A 
ATOM      5  C3  UNL d   1       0.944   1.427   0.205  0.00  0.00    -0.047 A 
ATOM      6  C4  UNL d   1       1.195   2.741   0.540  0.00  0.00    -0.004 A 
ENDROOT
TORSDOF 0
ENDMDL
