MODEL 1
REMARK minimizedAffinity -1.9448663
REMARK minimizedRMSD -1
REMARK  0 active torsions:
REMARK  status: ('A' for Active; 'I' for Inactive)
ROOT
ATOM      1  C   UNL d   1       1.246   3.017  -2.303  0.00  0.00     0.172 C 
ATOM      2  N   UNL d   1       1.302   2.068  -1.216  0.00  0.00    -0.070 N 
ATOM      3  C1  UNL d   1       1.233   2.375   0.117  0.00  0.00    -0.004 A 
ATOM      4  C2  UNL d   1       1.322   1.197   0.826  0.00  0.00    -0.047 A 
ATOM      5  C3  UNL d   1       1.449   0.146  -0.112  0.00  0.00    -0.047 A 
ATOM      6  C4  UNL d   1       1.434   0.713  -1.369  0.00  0.00    -0.004 A 
ENDROOT
TORSDOF 0
ENDMDL
