MODEL 1
REMARK minimizedAffinity 1.5050298
REMARK minimizedRMSD -1
REMARK  0 active torsions:
REMARK  status: ('A' for Active; 'I' for Inactive)
ROOT
ATOM      1  C   UNL d   1       1.571   1.864  -1.558  0.00  0.00     0.172 C 
ATOM      2  N   UNL d   1       1.606   2.921  -0.574  0.00  0.00    -0.070 N 
ATOM      3  C1  UNL d   1       1.711   4.259  -0.843  0.00  0.00    -0.004 A 
ATOM      4  C2  UNL d   1       1.710   4.933   0.359  0.00  0.00    -0.047 A 
ATOM      5  C3  UNL d   1       1.602   3.966   1.386  0.00  0.00    -0.047 A 
ATOM      6  C4  UNL d   1       1.539   2.729   0.781  0.00  0.00    -0.004 A 
ENDROOT
TORSDOF 0
ENDMDL
