MODEL 1
REMARK minimizedAffinity -2.19436288
REMARK minimizedRMSD -1
REMARK  0 active torsions:
REMARK  status: ('A' for Active; 'I' for Inactive)
ROOT
ATOM      1  C   UNL d   1       1.545   4.410  -1.521  0.00  0.00     0.172 C 
ATOM      2  N   UNL d   1       1.215   3.063  -1.119  0.00  0.00    -0.070 N 
ATOM      3  C1  UNL d   1       1.081   1.990  -1.958  0.00  0.00    -0.004 A 
ATOM      4  C2  UNL d   1       0.764   0.890  -1.189  0.00  0.00    -0.047 A 
ATOM      5  C3  UNL d   1       0.705   1.319   0.158  0.00  0.00    -0.047 A 
ATOM      6  C4  UNL d   1       0.988   2.668   0.173  0.00  0.00    -0.004 A 
ENDROOT
TORSDOF 0
ENDMDL
