MODEL 1
REMARK minimizedAffinity 1.46582639
REMARK minimizedRMSD -1
REMARK  0 active torsions:
REMARK  status: ('A' for Active; 'I' for Inactive)
ROOT
ATOM      1  C   UNL d   1       1.845   3.385  -1.541  0.00  0.00     0.172 C 
ATOM      2  N   UNL d   1       1.544   2.021  -1.173  0.00  0.00    -0.070 N 
ATOM      3  C1  UNL d   1       1.827   1.439   0.034  0.00  0.00    -0.004 A 
ATOM      4  C2  UNL d   1       1.384   0.135  -0.012  0.00  0.00    -0.047 A 
ATOM      5  C3  UNL d   1       0.815  -0.074  -1.291  0.00  0.00    -0.047 A 
ATOM      6  C4  UNL d   1       0.927   1.110  -1.989  0.00  0.00    -0.004 A 
ENDROOT
TORSDOF 0
ENDMDL
