MODEL 1
REMARK minimizedAffinity -2.81816578
REMARK minimizedRMSD -1
REMARK  0 active torsions:
REMARK  status: ('A' for Active; 'I' for Inactive)
ROOT
ATOM      1  C   UNL d   1       1.317   3.175  -1.901  0.00  0.00     0.172 C 
ATOM      2  N   UNL d   1       1.130   2.011  -1.067  0.00  0.00    -0.070 N 
ATOM      3  C1  UNL d   1       1.014   0.721  -1.512  0.00  0.00    -0.004 A 
ATOM      4  C2  UNL d   1       0.850  -0.091  -0.411  0.00  0.00    -0.047 A 
ATOM      5  C3  UNL d   1       0.866   0.740   0.735  0.00  0.00    -0.047 A 
ATOM      6  C4  UNL d   1       1.041   2.036   0.299  0.00  0.00    -0.004 A 
ENDROOT
TORSDOF 0
ENDMDL
