MODEL 1
REMARK minimizedAffinity 2.27457857
REMARK minimizedRMSD -1
REMARK  0 active torsions:
REMARK  status: ('A' for Active; 'I' for Inactive)
ROOT
ATOM      1  C   UNL d   1       1.895   4.713  -1.474  0.00  0.00     0.172 C 
ATOM      2  N   UNL d   1       1.467   3.354  -1.709  0.00  0.00    -0.070 N 
ATOM      3  C1  UNL d   1       0.177   2.899  -1.633  0.00  0.00    -0.004 A 
ATOM      4  C2  UNL d   1       0.187   1.553  -1.925  0.00  0.00    -0.047 A 
ATOM      5  C3  UNL d   1       1.528   1.185  -2.185  0.00  0.00    -0.047 A 
ATOM      6  C4  UNL d   1       2.300   2.319  -2.044  0.00  0.00    -0.004 A 
ENDROOT
TORSDOF 0
ENDMDL
