MODEL 1
REMARK minimizedAffinity 1.26657343
REMARK minimizedRMSD -1
REMARK  0 active torsions:
REMARK  status: ('A' for Active; 'I' for Inactive)
ROOT
ATOM      1  C   UNL d   1       0.745  -2.227  -1.134  0.00  0.00     0.172 C 
ATOM      2  N   UNL d   1       0.927  -0.823  -0.850  0.00  0.00    -0.070 N 
ATOM      3  C1  UNL d   1       0.460   0.213  -1.614  0.00  0.00    -0.004 A 
ATOM      4  C2  UNL d   1       0.840   1.390  -1.007  0.00  0.00    -0.047 A 
ATOM      5  C3  UNL d   1       1.561   1.050   0.162  0.00  0.00    -0.047 A 
ATOM      6  C4  UNL d   1       1.600  -0.327   0.235  0.00  0.00    -0.004 A 
ENDROOT
TORSDOF 0
ENDMDL
