MODEL 1
REMARK minimizedAffinity -2.27737451
REMARK minimizedRMSD -1
REMARK  0 active torsions:
REMARK  status: ('A' for Active; 'I' for Inactive)
ROOT
ATOM      1  C   UNL d   1       2.152   5.896  -0.841  0.00  0.00     0.172 C 
ATOM      2  N   UNL d   1       1.864   4.498  -0.620  0.00  0.00    -0.070 N 
ATOM      3  C1  UNL d   1       1.787   3.536  -1.591  0.00  0.00    -0.004 A 
ATOM      4  C2  UNL d   1       1.495   2.338  -0.975  0.00  0.00    -0.047 A 
ATOM      5  C3  UNL d   1       1.392   2.589   0.414  0.00  0.00    -0.047 A 
ATOM      6  C4  UNL d   1       1.625   3.935   0.606  0.00  0.00    -0.004 A 
ENDROOT
TORSDOF 0
ENDMDL
