MODEL 1
REMARK minimizedAffinity -1.85840976
REMARK minimizedRMSD -1
REMARK  0 active torsions:
REMARK  status: ('A' for Active; 'I' for Inactive)
ROOT
ATOM      1  C   UNL d   1       1.226   0.175  -0.894  0.00  0.00     0.172 C 
ATOM      2  N   UNL d   1       1.268   1.608  -0.724  0.00  0.00    -0.070 N 
ATOM      3  C1  UNL d   1       1.545   2.521  -1.706  0.00  0.00    -0.004 A 
ATOM      4  C2  UNL d   1       1.486   3.778  -1.143  0.00  0.00    -0.047 A 
ATOM      5  C3  UNL d   1       1.165   3.614   0.226  0.00  0.00    -0.047 A 
ATOM      6  C4  UNL d   1       1.036   2.261   0.458  0.00  0.00    -0.004 A 
ENDROOT
TORSDOF 0
ENDMDL
