MODEL 1
REMARK minimizedAffinity -3.91419768
REMARK minimizedRMSD -1
REMARK  1 active torsions:
REMARK  status: ('A' for Active; 'I' for Inactive)
REMARK    1  A    between atoms: C1_2  and  C2_3 
ROOT
ATOM      1  C2  UNL d   1      -1.549  -0.335  -0.589  0.00  0.00    -0.077 A 
ATOM      2  C3  UNL d   1      -1.891  -1.484  -1.315  0.00  0.00     0.002 A 
ATOM      3  C4  UNL d   1      -2.648  -1.383  -2.484  0.00  0.00     0.002 A 
ATOM      4  C5  UNL d   1      -3.066  -0.134  -2.939  0.00  0.00    -0.004 A 
ATOM      5  C6  UNL d   1      -2.733   1.015  -2.223  0.00  0.00     0.002 A 
ATOM      6  C7  UNL d   1      -1.978   0.916  -1.054  0.00  0.00     0.002 A 
ENDROOT
BRANCH   1   7
ATOM      7  C1  UNL d   1      -0.691  -0.438   0.645  0.00  0.00     0.055 C 
ATOM      8  C   UNL d   1       0.266   0.740   0.754  0.00  0.00     0.019 C 
ENDBRANCH   1   7
TORSDOF 1
ENDMDL
