MODEL 1
REMARK minimizedAffinity -2.88949203
REMARK minimizedRMSD -1
REMARK  1 active torsions:
REMARK  status: ('A' for Active; 'I' for Inactive)
REMARK    1  A    between atoms: C1_2  and  C2_3 
ROOT
ATOM      1  C2  UNL d   1       1.767  -0.170   1.500  0.00  0.00    -0.077 A 
ATOM      2  C3  UNL d   1       2.197   1.161   1.399  0.00  0.00     0.002 A 
ATOM      3  C4  UNL d   1       1.480   2.078   0.629  0.00  0.00     0.002 A 
ATOM      4  C5  UNL d   1       0.327   1.676  -0.043  0.00  0.00    -0.004 A 
ATOM      5  C6  UNL d   1      -0.107   0.355   0.049  0.00  0.00     0.002 A 
ATOM      6  C7  UNL d   1       0.609  -0.564   0.818  0.00  0.00     0.002 A 
ENDROOT
BRANCH   1   7
ATOM      7  C1  UNL d   1       2.512  -1.149   2.370  0.00  0.00     0.055 C 
ATOM      8  C   UNL d   1       1.574  -2.196   2.953  0.00  0.00     0.019 C 
ENDBRANCH   1   7
TORSDOF 1
ENDMDL
