MODEL 1
REMARK minimizedAffinity -4.48874855
REMARK minimizedRMSD -1
REMARK  1 active torsions:
REMARK  status: ('A' for Active; 'I' for Inactive)
REMARK    1  A    between atoms: C1_2  and  C2_3 
ROOT
ATOM      1  C2  UNL d   1       0.258   0.304   0.027  0.00  0.00    -0.077 A 
ATOM      2  C3  UNL d   1       0.784   1.390   0.740  0.00  0.00     0.002 A 
ATOM      3  C4  UNL d   1       2.140   1.429   1.069  0.00  0.00     0.002 A 
ATOM      4  C5  UNL d   1       2.982   0.388   0.685  0.00  0.00    -0.004 A 
ATOM      5  C6  UNL d   1       2.468  -0.698  -0.023  0.00  0.00     0.002 A 
ATOM      6  C7  UNL d   1       1.112  -0.739  -0.351  0.00  0.00     0.002 A 
ENDROOT
BRANCH   1   7
ATOM      7  C1  UNL d   1      -1.195   0.284  -0.371  0.00  0.00     0.055 C 
ATOM      8  C   UNL d   1      -1.439  -0.677  -1.526  0.00  0.00     0.019 C 
ENDBRANCH   1   7
TORSDOF 1
ENDMDL
