MODEL 1
REMARK minimizedAffinity -0.594560862
REMARK minimizedRMSD -1
REMARK  1 active torsions:
REMARK  status: ('A' for Active; 'I' for Inactive)
REMARK    1  A    between atoms: C1_2  and  C2_3 
ROOT
ATOM      1  C2  UNL d   1       1.171   0.013   0.630  0.00  0.00    -0.077 A 
ATOM      2  C3  UNL d   1       0.643   1.216   0.140  0.00  0.00     0.002 A 
ATOM      3  C4  UNL d   1      -0.668   1.269  -0.336  0.00  0.00     0.002 A 
ATOM      4  C5  UNL d   1      -1.463   0.125  -0.323  0.00  0.00    -0.004 A 
ATOM      5  C6  UNL d   1      -0.946  -1.077   0.160  0.00  0.00     0.002 A 
ATOM      6  C7  UNL d   1       0.365  -1.132   0.635  0.00  0.00     0.002 A 
ENDROOT
BRANCH   1   7
ATOM      7  C1  UNL d   1       2.569  -0.035   1.190  0.00  0.00     0.055 C 
ATOM      8  C   UNL d   1       2.744   0.959   2.329  0.00  0.00     0.019 C 
ENDBRANCH   1   7
TORSDOF 1
ENDMDL
