MODEL 1
REMARK minimizedAffinity -1.02280164
REMARK minimizedRMSD -1
REMARK  1 active torsions:
REMARK  status: ('A' for Active; 'I' for Inactive)
REMARK    1  A    between atoms: C1_2  and  C2_3 
ROOT
ATOM      1  C2  UNL d   1      -1.170   0.000  -0.714  0.00  0.00    -0.077 A 
ATOM      2  C3  UNL d   1      -1.344  -0.845   0.391  0.00  0.00     0.002 A 
ATOM      3  C4  UNL d   1      -0.320  -1.006   1.326  0.00  0.00     0.002 A 
ATOM      4  C5  UNL d   1       0.883  -0.321   1.169  0.00  0.00    -0.004 A 
ATOM      5  C6  UNL d   1       1.066   0.521   0.073  0.00  0.00     0.002 A 
ATOM      6  C7  UNL d   1       0.044   0.682  -0.864  0.00  0.00     0.002 A 
ENDROOT
BRANCH   1   7
ATOM      7  C1  UNL d   1      -2.291   0.213  -1.697  0.00  0.00     0.055 C 
ATOM      8  C   UNL d   1      -2.317  -0.884  -2.752  0.00  0.00     0.019 C 
ENDBRANCH   1   7
TORSDOF 1
ENDMDL
