MODEL 1
REMARK minimizedAffinity -2.2139318
REMARK minimizedRMSD -1
REMARK  1 active torsions:
REMARK  status: ('A' for Active; 'I' for Inactive)
REMARK    1  A    between atoms: C1_2  and  C2_3 
ROOT
ATOM      1  C2  UNL d   1      -0.303   1.305   0.565  0.00  0.00    -0.077 A 
ATOM      2  C3  UNL d   1       0.590   0.259   0.833  0.00  0.00     0.002 A 
ATOM      3  C4  UNL d   1       1.792   0.508   1.498  0.00  0.00     0.002 A 
ATOM      4  C5  UNL d   1       2.110   1.802   1.904  0.00  0.00    -0.004 A 
ATOM      5  C6  UNL d   1       1.229   2.851   1.641  0.00  0.00     0.002 A 
ATOM      6  C7  UNL d   1       0.027   2.603   0.975  0.00  0.00     0.002 A 
ENDROOT
BRANCH   1   7
ATOM      7  C1  UNL d   1      -1.623   1.030  -0.108  0.00  0.00     0.055 C 
ATOM      8  C   UNL d   1      -2.745   0.888   0.910  0.00  0.00     0.019 C 
ENDBRANCH   1   7
TORSDOF 1
ENDMDL
