MODEL 1
REMARK minimizedAffinity 0.593305826
REMARK minimizedRMSD -1
REMARK  1 active torsions:
REMARK  status: ('A' for Active; 'I' for Inactive)
REMARK    1  A    between atoms: C3_4  and  O_7 
ROOT
ATOM      1  C   UNL d   1       5.302   3.039   4.135  0.00  0.00    -0.033 A 
ATOM      2  C1  UNL d   1       5.976   2.139   4.964  0.00  0.00     0.039 A 
ATOM      3  C2  UNL d   1       5.998   0.779   4.648  0.00  0.00    -0.080 A 
ATOM      4  C3  UNL d   1       5.345   0.333   3.502  0.00  0.00     0.150 A 
ATOM      5  C4  UNL d   1       4.675   1.224   2.670  0.00  0.00    -0.007 A 
ATOM      6  C5  UNL d   1       4.653   2.582   2.988  0.00  0.00     0.039 A 
ENDROOT
BRANCH   4   7
ATOM      7  O   UNL d   1       5.335  -0.986   3.155  0.00  0.00    -0.526 OA
ATOM      8  H5  UNL d   1       5.813  -1.487   3.838  0.00  0.00     0.418 HD
ENDBRANCH   4   7
TORSDOF 1
ENDMDL
