MODEL 1
REMARK minimizedAffinity -0.752080142
REMARK minimizedRMSD -1
REMARK  1 active torsions:
REMARK  status: ('A' for Active; 'I' for Inactive)
REMARK    1  A    between atoms: C3_4  and  O_7 
ROOT
ATOM      1  C   UNL d   1       4.580   0.048   3.756  0.00  0.00    -0.033 A 
ATOM      2  C1  UNL d   1       5.511   0.377   4.742  0.00  0.00     0.039 A 
ATOM      3  C2  UNL d   1       6.000   1.682   4.836  0.00  0.00    -0.080 A 
ATOM      4  C3  UNL d   1       5.548   2.646   3.939  0.00  0.00     0.150 A 
ATOM      5  C4  UNL d   1       4.618   2.326   2.956  0.00  0.00    -0.007 A 
ATOM      6  C5  UNL d   1       4.132   1.022   2.864  0.00  0.00     0.039 A 
ENDROOT
BRANCH   4   7
ATOM      7  O   UNL d   1       6.000   3.932   3.988  0.00  0.00    -0.526 OA
ATOM      8  H5  UNL d   1       6.660   4.000   4.698  0.00  0.00     0.418 HD
ENDBRANCH   4   7
TORSDOF 1
ENDMDL
