MODEL 1
REMARK minimizedAffinity -2.23275733
REMARK minimizedRMSD -1
REMARK  1 active torsions:
REMARK  status: ('A' for Active; 'I' for Inactive)
REMARK    1  A    between atoms: C3_4  and  O_7 
ROOT
ATOM      1  C   UNL d   1       5.065  -0.734   5.993  0.00  0.00    -0.033 A 
ATOM      2  C1  UNL d   1       4.132  -0.890   4.966  0.00  0.00     0.039 A 
ATOM      3  C2  UNL d   1       4.129  -0.009   3.883  0.00  0.00    -0.080 A 
ATOM      4  C3  UNL d   1       5.065   1.021   3.838  0.00  0.00     0.150 A 
ATOM      5  C4  UNL d   1       6.000   1.180   4.856  0.00  0.00    -0.007 A 
ATOM      6  C5  UNL d   1       6.000   0.299   5.937  0.00  0.00     0.039 A 
ENDROOT
BRANCH   4   7
ATOM      7  O   UNL d   1       5.098   1.909   2.804  0.00  0.00    -0.526 OA
ATOM      8  H5  UNL d   1       4.376   1.694   2.190  0.00  0.00     0.418 HD
ENDBRANCH   4   7
TORSDOF 1
ENDMDL
