MODEL 1
REMARK minimizedAffinity 3.31044602
REMARK minimizedRMSD -1
REMARK  1 active torsions:
REMARK  status: ('A' for Active; 'I' for Inactive)
REMARK    1  A    between atoms: C3_4  and  O_7 
ROOT
ATOM      1  C   UNL d   1       4.256  -0.747   5.995  0.00  0.00    -0.033 A 
ATOM      2  C1  UNL d   1       3.442  -0.634   4.867  0.00  0.00     0.039 A 
ATOM      3  C2  UNL d   1       3.904   0.040   3.735  0.00  0.00    -0.080 A 
ATOM      4  C3  UNL d   1       5.181   0.594   3.744  0.00  0.00     0.150 A 
ATOM      5  C4  UNL d   1       6.000   0.482   4.863  0.00  0.00    -0.007 A 
ATOM      6  C5  UNL d   1       5.536  -0.191   5.993  0.00  0.00     0.039 A 
ENDROOT
BRANCH   4   7
ATOM      7  O   UNL d   1       5.674   1.265   2.664  0.00  0.00    -0.526 OA
ATOM      8  H5  UNL d   1       4.988   1.288   1.977  0.00  0.00     0.418 HD
ENDBRANCH   4   7
TORSDOF 1
ENDMDL
