MODEL 1
REMARK minimizedAffinity 4.45200205
REMARK minimizedRMSD -1
REMARK  1 active torsions:
REMARK  status: ('A' for Active; 'I' for Inactive)
REMARK    1  A    between atoms: C3_4  and  O_7 
ROOT
ATOM      1  C   UNL d   1       5.843   0.038   4.506  0.00  0.00    -0.033 A 
ATOM      2  C1  UNL d   1       5.999   1.365   4.912  0.00  0.00     0.039 A 
ATOM      3  C2  UNL d   1       5.404   2.395   4.181  0.00  0.00    -0.080 A 
ATOM      4  C3  UNL d   1       4.655   2.085   3.049  0.00  0.00     0.150 A 
ATOM      5  C4  UNL d   1       4.492   0.765   2.642  0.00  0.00    -0.007 A 
ATOM      6  C5  UNL d   1       5.088  -0.262   3.372  0.00  0.00     0.039 A 
ENDROOT
BRANCH   4   7
ATOM      7  O   UNL d   1       4.058   3.056   2.301  0.00  0.00    -0.526 OA
ATOM      8  H5  UNL d   1       4.281   3.920   2.685  0.00  0.00     0.418 HD
ENDBRANCH   4   7
TORSDOF 1
ENDMDL
