MODEL 1
REMARK minimizedAffinity 0.266793162
REMARK minimizedRMSD -1
REMARK  1 active torsions:
REMARK  status: ('A' for Active; 'I' for Inactive)
REMARK    1  A    between atoms: C3_4  and  O_7 
ROOT
ATOM      1  C   UNL d   1      -2.951   0.758   3.326  0.00  0.00    -0.033 A 
ATOM      2  C1  UNL d   1      -3.517   0.185   4.466  0.00  0.00     0.039 A 
ATOM      3  C2  UNL d   1      -4.543  -0.754   4.341  0.00  0.00    -0.080 A 
ATOM      4  C3  UNL d   1      -4.993  -1.111   3.073  0.00  0.00     0.150 A 
ATOM      5  C4  UNL d   1      -4.431  -0.547   1.933  0.00  0.00    -0.007 A 
ATOM      6  C5  UNL d   1      -3.407   0.391   2.059  0.00  0.00     0.039 A 
ENDROOT
BRANCH   4   7
ATOM      7  O   UNL d   1      -5.995  -2.018   2.902  0.00  0.00    -0.526 OA
ATOM      8  H5  UNL d   1      -6.307  -2.302   3.777  0.00  0.00     0.418 HD
ENDBRANCH   4   7
TORSDOF 1
ENDMDL
