MODEL 1
REMARK minimizedAffinity -0.658722401
REMARK minimizedRMSD -1
REMARK  1 active torsions:
REMARK  status: ('A' for Active; 'I' for Inactive)
REMARK    1  A    between atoms: C3_4  and  O_7 
ROOT
ATOM      1  C   UNL d   1      -2.957  -0.798   1.396  0.00  0.00    -0.033 A 
ATOM      2  C1  UNL d   1      -2.983  -0.296   0.093  0.00  0.00     0.039 A 
ATOM      3  C2  UNL d   1      -2.776   1.065  -0.138  0.00  0.00    -0.080 A 
ATOM      4  C3  UNL d   1      -2.543   1.913   0.942  0.00  0.00     0.150 A 
ATOM      5  C4  UNL d   1      -2.511   1.420   2.242  0.00  0.00    -0.007 A 
ATOM      6  C5  UNL d   1      -2.719   0.060   2.470  0.00  0.00     0.039 A 
ENDROOT
BRANCH   4   7
ATOM      7  O   UNL d   1      -2.340   3.250   0.767  0.00  0.00    -0.526 OA
ATOM      8  H5  UNL d   1      -2.418   3.451  -0.181  0.00  0.00     0.418 HD
ENDBRANCH   4   7
TORSDOF 1
ENDMDL
