MODEL 1
REMARK minimizedAffinity 1.14584386
REMARK minimizedRMSD -1
REMARK  1 active torsions:
REMARK  status: ('A' for Active; 'I' for Inactive)
REMARK    1  A    between atoms: C3_4  and  O_7 
ROOT
ATOM      1  C   UNL d   1       4.214   1.901  -6.000  0.00  0.00    -0.033 A 
ATOM      2  C1  UNL d   1       2.922   2.430  -6.000  0.00  0.00     0.039 A 
ATOM      3  C2  UNL d   1       2.614   3.528  -5.195  0.00  0.00    -0.080 A 
ATOM      4  C3  UNL d   1       3.607   4.089  -4.396  0.00  0.00     0.150 A 
ATOM      5  C4  UNL d   1       4.898   3.570  -4.393  0.00  0.00    -0.007 A 
ATOM      6  C5  UNL d   1       5.203   2.472  -5.197  0.00  0.00     0.039 A 
ENDROOT
BRANCH   4   7
ATOM      7  O   UNL d   1       3.353   5.158  -3.589  0.00  0.00    -0.526 OA
ATOM      8  H5  UNL d   1       2.414   5.391  -3.673  0.00  0.00     0.418 HD
ENDBRANCH   4   7
TORSDOF 1
ENDMDL
