MODEL 1
REMARK minimizedAffinity 3.53810501
REMARK minimizedRMSD -1
REMARK  1 active torsions:
REMARK  status: ('A' for Active; 'I' for Inactive)
REMARK    1  A    between atoms: C3_4  and  O_7 
ROOT
ATOM      1  C   UNL d   1       5.478  -0.488   4.496  0.00  0.00    -0.033 A 
ATOM      2  C1  UNL d   1       6.000   0.754   4.861  0.00  0.00     0.039 A 
ATOM      3  C2  UNL d   1       5.557   1.914   4.221  0.00  0.00    -0.080 A 
ATOM      4  C3  UNL d   1       4.593   1.818   3.222  0.00  0.00     0.150 A 
ATOM      5  C4  UNL d   1       4.066   0.584   2.856  0.00  0.00    -0.007 A 
ATOM      6  C5  UNL d   1       4.510  -0.574   3.495  0.00  0.00     0.039 A 
ENDROOT
BRANCH   4   7
ATOM      7  O   UNL d   1       4.134   2.921   2.566  0.00  0.00    -0.526 OA
ATOM      8  H5  UNL d   1       4.608   3.700   2.904  0.00  0.00     0.418 HD
ENDBRANCH   4   7
TORSDOF 1
ENDMDL
