MODEL 1
REMARK minimizedAffinity -3.01054525
REMARK minimizedRMSD -1
REMARK  1 active torsions:
REMARK  status: ('A' for Active; 'I' for Inactive)
REMARK    1  A    between atoms: C3_4  and  O_7 
ROOT
ATOM      1  C   UNL d   1       4.271  -0.783   4.210  0.00  0.00    -0.033 A 
ATOM      2  C1  UNL d   1       3.437  -0.386   3.163  0.00  0.00     0.039 A 
ATOM      3  C2  UNL d   1       3.520   0.912   2.655  0.00  0.00    -0.080 A 
ATOM      4  C3  UNL d   1       4.442   1.801   3.200  0.00  0.00     0.150 A 
ATOM      5  C4  UNL d   1       5.279   1.411   4.240  0.00  0.00    -0.007 A 
ATOM      6  C5  UNL d   1       5.194   0.115   4.747  0.00  0.00     0.039 A 
ENDROOT
BRANCH   4   7
ATOM      7  O   UNL d   1       4.557   3.080   2.741  0.00  0.00    -0.526 OA
ATOM      8  H5  UNL d   1       3.896   3.216   2.041  0.00  0.00     0.418 HD
ENDBRANCH   4   7
TORSDOF 1
ENDMDL
