MODEL 1
REMARK minimizedAffinity 3.4560287
REMARK minimizedRMSD -1
REMARK  1 active torsions:
REMARK  status: ('A' for Active; 'I' for Inactive)
REMARK    1  A    between atoms: C3_4  and  O_7 
ROOT
ATOM      1  C   UNL d   1       5.050  -0.236   4.126  0.00  0.00    -0.033 A 
ATOM      2  C1  UNL d   1       6.000   0.754   4.385  0.00  0.00     0.039 A 
ATOM      3  C2  UNL d   1       5.894   2.003   3.770  0.00  0.00    -0.080 A 
ATOM      4  C3  UNL d   1       4.836   2.249   2.900  0.00  0.00     0.150 A 
ATOM      5  C4  UNL d   1       3.884   1.268   2.640  0.00  0.00    -0.007 A 
ATOM      6  C5  UNL d   1       3.992   0.021   3.254  0.00  0.00     0.039 A 
ENDROOT
BRANCH   4   7
ATOM      7  O   UNL d   1       4.694   3.451   2.272  0.00  0.00    -0.526 OA
ATOM      8  H5  UNL d   1       5.440   4.020   2.525  0.00  0.00     0.418 HD
ENDBRANCH   4   7
TORSDOF 1
ENDMDL
