MODEL 1
REMARK minimizedAffinity -4.52234221
REMARK minimizedRMSD -1
REMARK  1 active torsions:
REMARK  status: ('A' for Active; 'I' for Inactive)
REMARK    1  A    between atoms: C3_4  and  O_7 
ROOT
ATOM      1  C   UNL d   1      -3.941  -0.425   0.346  0.00  0.00    -0.033 A 
ATOM      2  C1  UNL d   1      -3.695   0.935   0.152  0.00  0.00     0.039 A 
ATOM      3  C2  UNL d   1      -3.070   1.683   1.152  0.00  0.00    -0.080 A 
ATOM      4  C3  UNL d   1      -2.695   1.059   2.339  0.00  0.00     0.150 A 
ATOM      5  C4  UNL d   1      -2.933  -0.297   2.537  0.00  0.00    -0.007 A 
ATOM      6  C5  UNL d   1      -3.558  -1.042   1.538  0.00  0.00     0.039 A 
ENDROOT
BRANCH   4   7
ATOM      7  O   UNL d   1      -2.086   1.749   3.345  0.00  0.00    -0.526 OA
ATOM      8  H5  UNL d   1      -2.013   2.680   3.079  0.00  0.00     0.418 HD
ENDBRANCH   4   7
TORSDOF 1
ENDMDL
