MODEL 1
REMARK minimizedAffinity -2.79252291
REMARK minimizedRMSD -1
REMARK  1 active torsions:
REMARK  status: ('A' for Active; 'I' for Inactive)
REMARK    1  A    between atoms: C3_4  and  O_7 
ROOT
ATOM      1  C   UNL d   1       3.951  -0.853   4.150  0.00  0.00    -0.033 A 
ATOM      2  C1  UNL d   1       3.223  -0.473   3.020  0.00  0.00     0.039 A 
ATOM      3  C2  UNL d   1       3.422   0.786   2.451  0.00  0.00    -0.080 A 
ATOM      4  C3  UNL d   1       4.351   1.654   3.019  0.00  0.00     0.150 A 
ATOM      5  C4  UNL d   1       5.082   1.280   4.142  0.00  0.00    -0.007 A 
ATOM      6  C5  UNL d   1       4.881   0.023   4.710  0.00  0.00     0.039 A 
ENDROOT
BRANCH   4   7
ATOM      7  O   UNL d   1       4.576   2.895   2.502  0.00  0.00    -0.526 OA
ATOM      8  H5  UNL d   1       3.980   3.026   1.746  0.00  0.00     0.418 HD
ENDBRANCH   4   7
TORSDOF 1
ENDMDL
