MODEL 1
REMARK minimizedAffinity 1.18822885
REMARK minimizedRMSD -1
REMARK  1 active torsions:
REMARK  status: ('A' for Active; 'I' for Inactive)
REMARK    1  A    between atoms: C3_4  and  O_7 
ROOT
ATOM      1  C   UNL d   1       5.220   1.992   4.126  0.00  0.00    -0.033 A 
ATOM      2  C1  UNL d   1       4.304   2.195   3.092  0.00  0.00     0.039 A 
ATOM      3  C2  UNL d   1       3.734   1.102   2.437  0.00  0.00    -0.080 A 
ATOM      4  C3  UNL d   1       4.086  -0.188   2.827  0.00  0.00     0.150 A 
ATOM      5  C4  UNL d   1       4.994  -0.397   3.859  0.00  0.00    -0.007 A 
ATOM      6  C5  UNL d   1       5.563   0.696   4.511  0.00  0.00     0.039 A 
ENDROOT
BRANCH   4   7
ATOM      7  O   UNL d   1       3.559  -1.286   2.214  0.00  0.00    -0.526 OA
ATOM      8  H5  UNL d   1       2.970  -0.988   1.502  0.00  0.00     0.418 HD
ENDBRANCH   4   7
TORSDOF 1
ENDMDL
