MODEL 1
REMARK minimizedAffinity 0.724511087
REMARK minimizedRMSD -1
REMARK  0 active torsions:
REMARK  status: ('A' for Active; 'I' for Inactive)
ROOT
ATOM      1  C   UNL d   1       1.804   0.113   1.547  0.00  0.00     0.124 A 
ATOM      2  C1  UNL d   1       0.635   0.542   2.159  0.00  0.00     0.062 A 
ATOM      3  C2  UNL d   1      -0.577   0.476   1.478  0.00  0.00     0.162 A 
ATOM      4  C3  UNL d   1      -0.626  -0.022   0.176  0.00  0.00    -0.034 A 
ATOM      5  C4  UNL d   1       0.555  -0.450  -0.434  0.00  0.00     0.162 A 
ATOM      6  C5  UNL d   1       1.763  -0.382   0.251  0.00  0.00     0.062 A 
ATOM      7  F   UNL d   1       2.892  -0.797  -0.342  0.00  0.00    -0.097 F 
ATOM      8  F1  UNL d   1       0.544  -0.935  -1.685  0.00  0.00    -0.096 F 
ATOM      9  I   UNL d   1      -2.436  -0.123  -0.847  0.00  0.00    -0.060 I 
ATOM     10  F2  UNL d   1      -1.691   0.897   2.094  0.00  0.00    -0.096 F 
ATOM     11  F3  UNL d   1       0.672   1.022   3.410  0.00  0.00    -0.097 F 
ATOM     12  F4  UNL d   1       2.969   0.179   2.205  0.00  0.00    -0.092 F 
ENDROOT
TORSDOF 0
ENDMDL
