MODEL 1
REMARK minimizedAffinity 1.54396045
REMARK minimizedRMSD -1
REMARK  0 active torsions:
REMARK  status: ('A' for Active; 'I' for Inactive)
ROOT
ATOM      1  C   UNL d   1      -1.501  -0.181   2.342  0.00  0.00     0.124 A 
ATOM      2  C1  UNL d   1      -1.659   0.378   1.082  0.00  0.00     0.062 A 
ATOM      3  C2  UNL d   1      -0.562   0.521   0.237  0.00  0.00     0.162 A 
ATOM      4  C3  UNL d   1       0.703   0.104   0.650  0.00  0.00    -0.034 A 
ATOM      5  C4  UNL d   1       0.855  -0.456   1.920  0.00  0.00     0.162 A 
ATOM      6  C5  UNL d   1      -0.244  -0.597   2.760  0.00  0.00     0.062 A 
ATOM      7  F   UNL d   1      -0.090  -1.136   3.978  0.00  0.00    -0.097 F 
ATOM      8  F1  UNL d   1       2.057  -0.867   2.348  0.00  0.00    -0.096 F 
ATOM      9  I   UNL d   1       2.346   0.317  -0.611  0.00  0.00    -0.060 I 
ATOM     10  F2  UNL d   1      -0.744   1.064  -0.976  0.00  0.00    -0.096 F 
ATOM     11  F3  UNL d   1      -2.872   0.781   0.676  0.00  0.00    -0.097 F 
ATOM     12  F4  UNL d   1      -2.558  -0.316   3.154  0.00  0.00    -0.092 F 
ENDROOT
TORSDOF 0
ENDMDL
