MODEL 1
REMARK minimizedAffinity 4.12949228
REMARK minimizedRMSD -1
REMARK  0 active torsions:
REMARK  status: ('A' for Active; 'I' for Inactive)
ROOT
ATOM      1  C   UNL d   1       0.815  -0.581   2.673  0.00  0.00     0.124 A 
ATOM      2  C1  UNL d   1       0.955  -0.439   1.299  0.00  0.00     0.062 A 
ATOM      3  C2  UNL d   1      -0.167  -0.259   0.496  0.00  0.00     0.162 A 
ATOM      4  C3  UNL d   1      -1.440  -0.218   1.065  0.00  0.00    -0.034 A 
ATOM      5  C4  UNL d   1      -1.574  -0.362   2.447  0.00  0.00     0.162 A 
ATOM      6  C5  UNL d   1      -0.449  -0.543   3.245  0.00  0.00     0.062 A 
ATOM      7  F   UNL d   1      -0.586  -0.680   4.572  0.00  0.00    -0.097 F 
ATOM      8  F1  UNL d   1      -2.783  -0.327   3.026  0.00  0.00    -0.096 F 
ATOM      9  I   UNL d   1      -3.121   0.053  -0.133  0.00  0.00    -0.060 I 
ATOM     10  F2  UNL d   1      -0.002  -0.124  -0.828  0.00  0.00    -0.096 F 
ATOM     11  F3  UNL d   1       2.175  -0.478   0.744  0.00  0.00    -0.097 F 
ATOM     12  F4  UNL d   1       1.896  -0.756   3.443  0.00  0.00    -0.092 F 
ENDROOT
TORSDOF 0
ENDMDL
