MODEL 1
REMARK minimizedAffinity -1.46096003
REMARK minimizedRMSD -1
REMARK  0 active torsions:
REMARK  status: ('A' for Active; 'I' for Inactive)
ROOT
ATOM      1  C   UNL d   1       0.845   0.716   0.148  0.00  0.00     0.124 A 
ATOM      2  C1  UNL d   1      -0.488   0.869  -0.208  0.00  0.00     0.062 A 
ATOM      3  C2  UNL d   1      -1.494   0.373   0.617  0.00  0.00     0.162 A 
ATOM      4  C3  UNL d   1      -1.171  -0.281   1.806  0.00  0.00    -0.034 A 
ATOM      5  C4  UNL d   1       0.172  -0.432   2.156  0.00  0.00     0.162 A 
ATOM      6  C5  UNL d   1       1.173   0.065   1.329  0.00  0.00     0.062 A 
ATOM      7  F   UNL d   1       2.461  -0.084   1.674  0.00  0.00    -0.097 F 
ATOM      8  F1  UNL d   1       0.518  -1.056   3.292  0.00  0.00    -0.096 F 
ATOM      9  I   UNL d   1      -2.672  -1.024   3.041  0.00  0.00    -0.060 I 
ATOM     10  F2  UNL d   1      -2.774   0.536   0.248  0.00  0.00    -0.096 F 
ATOM     11  F3  UNL d   1      -0.808   1.496  -1.349  0.00  0.00    -0.097 F 
ATOM     12  F4  UNL d   1       1.810   1.193  -0.648  0.00  0.00    -0.092 F 
ENDROOT
TORSDOF 0
ENDMDL
