MODEL 1
REMARK minimizedAffinity 2.96130157
REMARK minimizedRMSD -1
REMARK  0 active torsions:
REMARK  status: ('A' for Active; 'I' for Inactive)
ROOT
ATOM      1  C   UNL d   1      -1.567   0.234   0.450  0.00  0.00     0.124 A 
ATOM      2  C1  UNL d   1      -2.522   0.101   1.449  0.00  0.00     0.062 A 
ATOM      3  C2  UNL d   1      -2.159  -0.378   2.704  0.00  0.00     0.162 A 
ATOM      4  C3  UNL d   1      -0.834  -0.727   2.969  0.00  0.00    -0.034 A 
ATOM      5  C4  UNL d   1       0.120  -0.591   1.959  0.00  0.00     0.162 A 
ATOM      6  C5  UNL d   1      -0.248  -0.112   0.706  0.00  0.00     0.062 A 
ATOM      7  F   UNL d   1       0.676   0.016  -0.258  0.00  0.00    -0.097 F 
ATOM      8  F1  UNL d   1       1.402  -0.917   2.179  0.00  0.00    -0.096 F 
ATOM      9  I   UNL d   1      -0.288  -1.443   4.845  0.00  0.00    -0.060 I 
ATOM     10  F2  UNL d   1      -3.102  -0.497   3.651  0.00  0.00    -0.096 F 
ATOM     11  F3  UNL d   1      -3.797   0.434   1.204  0.00  0.00    -0.097 F 
ATOM     12  F4  UNL d   1      -1.919   0.694  -0.757  0.00  0.00    -0.092 F 
ENDROOT
TORSDOF 0
ENDMDL
