MODEL 1
REMARK minimizedAffinity 2.06004238
REMARK minimizedRMSD -1
REMARK  0 active torsions:
REMARK  status: ('A' for Active; 'I' for Inactive)
ROOT
ATOM      1  C   UNL d   1      -1.278  -0.002   2.691  0.00  0.00     0.124 A 
ATOM      2  C1  UNL d   1      -2.227   0.461   1.789  0.00  0.00     0.062 A 
ATOM      3  C2  UNL d   1      -2.040   0.280   0.422  0.00  0.00     0.162 A 
ATOM      4  C3  UNL d   1      -0.900  -0.368  -0.053  0.00  0.00    -0.034 A 
ATOM      5  C4  UNL d   1       0.051  -0.830   0.860  0.00  0.00     0.162 A 
ATOM      6  C5  UNL d   1      -0.141  -0.646   2.225  0.00  0.00     0.062 A 
ATOM      7  F   UNL d   1       0.777  -1.094   3.094  0.00  0.00    -0.097 F 
ATOM      8  F1  UNL d   1       1.158  -1.457   0.437  0.00  0.00    -0.096 F 
ATOM      9  I   UNL d   1      -0.617  -0.641  -2.097  0.00  0.00    -0.060 I 
ATOM     10  F2  UNL d   1      -2.974   0.737  -0.426  0.00  0.00    -0.096 F 
ATOM     11  F3  UNL d   1      -3.326   1.085   2.236  0.00  0.00    -0.097 F 
ATOM     12  F4  UNL d   1      -1.459   0.175   4.006  0.00  0.00    -0.092 F 
ENDROOT
TORSDOF 0
ENDMDL
