MODEL 1
REMARK minimizedAffinity 0.351213604
REMARK minimizedRMSD -1
REMARK  0 active torsions:
REMARK  status: ('A' for Active; 'I' for Inactive)
ROOT
ATOM      1  C   UNL d   1      -1.743  -0.378   1.686  0.00  0.00     0.124 A 
ATOM      2  C1  UNL d   1      -0.638  -0.479   2.519  0.00  0.00     0.062 A 
ATOM      3  C2  UNL d   1       0.642  -0.552   1.979  0.00  0.00     0.162 A 
ATOM      4  C3  UNL d   1       0.825  -0.523   0.596  0.00  0.00    -0.034 A 
ATOM      5  C4  UNL d   1      -0.291  -0.423  -0.236  0.00  0.00     0.162 A 
ATOM      6  C5  UNL d   1      -1.569  -0.350   0.309  0.00  0.00     0.062 A 
ATOM      7  F   UNL d   1      -2.635  -0.253  -0.498  0.00  0.00    -0.097 F 
ATOM      8  F1  UNL d   1      -0.151  -0.393  -1.570  0.00  0.00    -0.096 F 
ATOM      9  I   UNL d   1       2.738  -0.632  -0.216  0.00  0.00    -0.060 I 
ATOM     10  F2  UNL d   1       1.692  -0.649   2.808  0.00  0.00    -0.096 F 
ATOM     11  F3  UNL d   1      -0.804  -0.507   3.850  0.00  0.00    -0.097 F 
ATOM     12  F4  UNL d   1      -2.974  -0.309   2.208  0.00  0.00    -0.092 F 
ENDROOT
TORSDOF 0
ENDMDL
