MODEL 1
REMARK minimizedAffinity 6.8769846
REMARK minimizedRMSD -1
REMARK  0 active torsions:
REMARK  status: ('A' for Active; 'I' for Inactive)
ROOT
ATOM      1  C4' PXY d   1       3.363   0.966   4.533  0.00  0.00     0.077 C 
ATOM      2  C1' PXY d   1      -2.036  -0.330   2.925  0.00  0.00     0.077 C 
ATOM      3  C1  PXY d   1      -0.623   0.023   3.346  0.00  0.00    -0.082 A 
ATOM      4  C2  PXY d   1       0.365  -0.820   3.092  0.00  0.00     0.003 A 
ATOM      5  C3  PXY d   1       1.644  -0.531   3.495  0.00  0.00     0.003 A 
ATOM      6  C4  PXY d   1       1.923   0.656   4.117  0.00  0.00    -0.082 A 
ATOM      7  C5  PXY d   1       0.922   1.526   4.370  0.00  0.00     0.003 A 
ATOM      8  C6  PXY d   1      -0.376   1.196   3.990  0.00  0.00     0.003 A 
ENDROOT
TORSDOF 0
ENDMDL
