MODEL 1
REMARK minimizedAffinity 16.0688286
REMARK minimizedRMSD -1
REMARK  0 active torsions:
REMARK  status: ('A' for Active; 'I' for Inactive)
ROOT
ATOM      1  C4' PXY d   1      -2.747  -1.531   2.605  0.00  0.00     0.077 C 
ATOM      2  C1' PXY d   1       2.648   0.467   3.163  0.00  0.00     0.077 C 
ATOM      3  C1  PXY d   1       1.238  -0.069   3.016  0.00  0.00    -0.082 A 
ATOM      4  C2  PXY d   1       0.287   0.714   2.533  0.00  0.00     0.003 A 
ATOM      5  C3  PXY d   1      -1.000   0.256   2.424  0.00  0.00     0.003 A 
ATOM      6  C4  PXY d   1      -1.307  -1.035   2.762  0.00  0.00    -0.082 A 
ATOM      7  C5  PXY d   1      -0.341  -1.844   3.246  0.00  0.00     0.003 A 
ATOM      8  C6  PXY d   1       0.951  -1.347   3.388  0.00  0.00     0.003 A 
ENDROOT
TORSDOF 0
ENDMDL
