MODEL 1
REMARK minimizedAffinity 15.2312489
REMARK minimizedRMSD -1
REMARK  0 active torsions:
REMARK  status: ('A' for Active; 'I' for Inactive)
ROOT
ATOM      1  C4' PXY d   1       2.759  -5.522  -5.962  0.00  0.00     0.077 C 
ATOM      2  C1' PXY d   1      -2.712  -3.655  -5.996  0.00  0.00     0.077 C 
ATOM      3  C1  PXY d   1      -1.273  -4.134  -5.993  0.00  0.00    -0.082 A 
ATOM      4  C2  PXY d   1      -1.015  -5.431  -5.980  0.00  0.00     0.003 A 
ATOM      5  C3  PXY d   1       0.280  -5.881  -5.945  0.00  0.00     0.003 A 
ATOM      6  C4  PXY d   1       1.322  -4.994  -5.975  0.00  0.00    -0.082 A 
ATOM      7  C5  PXY d   1       1.067  -3.668  -5.999  0.00  0.00     0.003 A 
ATOM      8  C6  PXY d   1      -0.254  -3.232  -5.993  0.00  0.00     0.003 A 
ENDROOT
TORSDOF 0
ENDMDL
