MODEL 1
REMARK minimizedAffinity 15.9207182
REMARK minimizedRMSD -1
REMARK  0 active torsions:
REMARK  status: ('A' for Active; 'I' for Inactive)
ROOT
ATOM      1  C4' PXY d   1      -0.362   2.757   6.000  0.00  0.00     0.077 C 
ATOM      2  C1' PXY d   1       0.836  -1.219   1.978  0.00  0.00     0.077 C 
ATOM      3  C1  PXY d   1       0.526  -0.184   3.042  0.00  0.00    -0.082 A 
ATOM      4  C2  PXY d   1      -0.387   0.744   2.806  0.00  0.00     0.003 A 
ATOM      5  C3  PXY d   1      -0.657   1.706   3.745  0.00  0.00     0.003 A 
ATOM      6  C4  PXY d   1      -0.023   1.687   4.958  0.00  0.00    -0.082 A 
ATOM      7  C5  PXY d   1       0.902   0.737   5.211  0.00  0.00     0.003 A 
ATOM      8  C6  PXY d   1       1.191  -0.206   4.229  0.00  0.00     0.003 A 
ENDROOT
TORSDOF 0
ENDMDL
