MODEL 1
REMARK minimizedAffinity 7.57689619
REMARK minimizedRMSD -1
REMARK  0 active torsions:
REMARK  status: ('A' for Active; 'I' for Inactive)
ROOT
ATOM      1  C4' PXY d   1      -3.188  -1.533   2.858  0.00  0.00     0.077 C 
ATOM      2  C1' PXY d   1       2.303   0.210   3.339  0.00  0.00     0.077 C 
ATOM      3  C1  PXY d   1       0.867  -0.259   3.213  0.00  0.00    -0.082 A 
ATOM      4  C2  PXY d   1      -0.051   0.565   2.736  0.00  0.00     0.003 A 
ATOM      5  C3  PXY d   1      -1.360   0.168   2.645  0.00  0.00     0.003 A 
ATOM      6  C4  PXY d   1      -1.724  -1.105   2.995  0.00  0.00    -0.082 A 
ATOM      7  C5  PXY d   1      -0.791  -1.956   3.472  0.00  0.00     0.003 A 
ATOM      8  C6  PXY d   1       0.525  -1.519   3.596  0.00  0.00     0.003 A 
ENDROOT
TORSDOF 0
ENDMDL
