MODEL 1
REMARK minimizedAffinity 5.8498168
REMARK minimizedRMSD -1
REMARK  0 active torsions:
REMARK  status: ('A' for Active; 'I' for Inactive)
ROOT
ATOM      1  C4' PXY d   1       3.340  -3.050  -5.663  0.00  0.00     0.077 C 
ATOM      2  C1' PXY d   1      -2.201  -4.661  -6.000  0.00  0.00     0.077 C 
ATOM      3  C1  PXY d   1      -0.745  -4.251  -5.907  0.00  0.00    -0.082 A 
ATOM      4  C2  PXY d   1      -0.434  -2.975  -5.747  0.00  0.00     0.003 A 
ATOM      5  C3  PXY d   1       0.879  -2.582  -5.693  0.00  0.00     0.003 A 
ATOM      6  C4  PXY d   1       1.882  -3.511  -5.752  0.00  0.00    -0.082 A 
ATOM      7  C5  PXY d   1       1.573  -4.816  -5.905  0.00  0.00     0.003 A 
ATOM      8  C6  PXY d   1       0.236  -5.190  -5.998  0.00  0.00     0.003 A 
ENDROOT
TORSDOF 0
ENDMDL
