MODEL 1
REMARK minimizedAffinity 17.5200558
REMARK minimizedRMSD -1
REMARK  0 active torsions:
REMARK  status: ('A' for Active; 'I' for Inactive)
ROOT
ATOM      1  C4' PXY d   1      -0.598   3.018   6.000  0.00  0.00     0.077 C 
ATOM      2  C1' PXY d   1       0.997  -1.042   2.208  0.00  0.00     0.077 C 
ATOM      3  C1  PXY d   1       0.584   0.016   3.212  0.00  0.00    -0.082 A 
ATOM      4  C2  PXY d   1      -0.450   0.798   2.949  0.00  0.00     0.003 A 
ATOM      5  C3  PXY d   1      -0.817   1.781   3.832  0.00  0.00     0.003 A 
ATOM      6  C4  PXY d   1      -0.152   1.930   5.019  0.00  0.00    -0.082 A 
ATOM      7  C5  PXY d   1       0.898   1.129   5.299  0.00  0.00     0.003 A 
ATOM      8  C6  PXY d   1       1.280   0.164   4.371  0.00  0.00     0.003 A 
ENDROOT
TORSDOF 0
ENDMDL
