MODEL 1
REMARK minimizedAffinity 9.98766136
REMARK minimizedRMSD -1
REMARK  0 active torsions:
REMARK  status: ('A' for Active; 'I' for Inactive)
ROOT
ATOM      1  C4' PXY d   1      -0.200  -1.350   1.109  0.00  0.00     0.077 C 
ATOM      2  C1' PXY d   1       3.269   0.285   5.434  0.00  0.00     0.077 C 
ATOM      3  C1  PXY d   1       2.358  -0.156   4.305  0.00  0.00    -0.082 A 
ATOM      4  C2  PXY d   1       2.394   0.485   3.148  0.00  0.00     0.003 A 
ATOM      5  C3  PXY d   1       1.555   0.120   2.127  0.00  0.00     0.003 A 
ATOM      6  C4  PXY d   1       0.708  -0.946   2.273  0.00  0.00    -0.082 A 
ATOM      7  C5  PXY d   1       0.673  -1.611   3.447  0.00  0.00     0.003 A 
ATOM      8  C6  PXY d   1       1.504  -1.199   4.485  0.00  0.00     0.003 A 
ENDROOT
TORSDOF 0
ENDMDL
