MODEL 1
REMARK minimizedAffinity 11.4794779
REMARK minimizedRMSD -1
REMARK  0 active torsions:
REMARK  status: ('A' for Active; 'I' for Inactive)
ROOT
ATOM      1  C4' PXY d   1      -0.847   2.373   2.452  0.00  0.00     0.077 C 
ATOM      2  C1' PXY d   1       2.047  -2.447   3.797  0.00  0.00     0.077 C 
ATOM      3  C1  PXY d   1       1.282  -1.189   3.434  0.00  0.00    -0.082 A 
ATOM      4  C2  PXY d   1       1.751  -0.009   3.805  0.00  0.00     0.003 A 
ATOM      5  C3  PXY d   1       1.057   1.136   3.513  0.00  0.00     0.003 A 
ATOM      6  C4  PXY d   1      -0.104   1.077   2.788  0.00  0.00    -0.082 A 
ATOM      7  C5  PXY d   1      -0.583  -0.123   2.397  0.00  0.00     0.003 A 
ATOM      8  C6  PXY d   1       0.116  -1.277   2.739  0.00  0.00     0.003 A 
ENDROOT
TORSDOF 0
ENDMDL
