MODEL 1
REMARK minimizedAffinity 4.53433084
REMARK minimizedRMSD -1
REMARK  0 active torsions:
REMARK  status: ('A' for Active; 'I' for Inactive)
ROOT
ATOM      1  C4' PXY d   1      -2.440  -2.291   2.286  0.00  0.00     0.077 C 
ATOM      2  C1' PXY d   1       2.531   0.140   3.956  0.00  0.00     0.077 C 
ATOM      3  C1  PXY d   1       1.234  -0.509   3.517  0.00  0.00    -0.082 A 
ATOM      4  C2  PXY d   1       0.263   0.240   3.020  0.00  0.00     0.003 A 
ATOM      5  C3  PXY d   1      -0.929  -0.326   2.647  0.00  0.00     0.003 A 
ATOM      6  C4  PXY d   1      -1.109  -1.680   2.734  0.00  0.00    -0.082 A 
ATOM      7  C5  PXY d   1      -0.120  -2.453   3.230  0.00  0.00     0.003 A 
ATOM      8  C6  PXY d   1       1.067  -1.854   3.641  0.00  0.00     0.003 A 
ENDROOT
TORSDOF 0
ENDMDL
