MODEL 1
REMARK minimizedAffinity 9.49849892
REMARK minimizedRMSD -1
REMARK  0 active torsions:
REMARK  status: ('A' for Active; 'I' for Inactive)
ROOT
ATOM      1  C4' PXY d   1       1.744  -2.501   4.195  0.00  0.00     0.077 C 
ATOM      2  C1' PXY d   1      -0.862   2.499   2.919  0.00  0.00     0.077 C 
ATOM      3  C1  PXY d   1      -0.189   1.181   3.248  0.00  0.00    -0.082 A 
ATOM      4  C2  PXY d   1       0.683   1.122   4.242  0.00  0.00     0.003 A 
ATOM      5  C3  PXY d   1       1.325  -0.054   4.533  0.00  0.00     0.003 A 
ATOM      6  C4  PXY d   1       1.033  -1.194   3.833  0.00  0.00    -0.082 A 
ATOM      7  C5  PXY d   1       0.137  -1.145   2.825  0.00  0.00     0.003 A 
ATOM      8  C6  PXY d   1      -0.474   0.068   2.519  0.00  0.00     0.003 A 
ENDROOT
TORSDOF 0
ENDMDL
