MODEL 1
REMARK minimizedAffinity 20.3544579
REMARK minimizedRMSD -1
REMARK  0 active torsions:
REMARK  status: ('A' for Active; 'I' for Inactive)
ROOT
ATOM      1  C4' PXY d   1       3.529   0.793   4.094  0.00  0.00     0.077 C 
ATOM      2  C1' PXY d   1      -1.286  -1.390   1.757  0.00  0.00     0.077 C 
ATOM      3  C1  PXY d   1      -0.027  -0.805   2.365  0.00  0.00    -0.082 A 
ATOM      4  C2  PXY d   1       1.022  -1.585   2.572  0.00  0.00     0.003 A 
ATOM      5  C3  PXY d   1       2.158  -1.080   3.151  0.00  0.00     0.003 A 
ATOM      6  C4  PXY d   1       2.240   0.249   3.473  0.00  0.00    -0.082 A 
ATOM      7  C5  PXY d   1       1.177   1.053   3.255  0.00  0.00     0.003 A 
ATOM      8  C6  PXY d   1       0.019   0.512   2.704  0.00  0.00     0.003 A 
ENDROOT
TORSDOF 0
ENDMDL
