MODEL 1
REMARK minimizedAffinity 6.45109224
REMARK minimizedRMSD -1
REMARK  0 active torsions:
REMARK  status: ('A' for Active; 'I' for Inactive)
ROOT
ATOM      1  C4' PXY d   1      -0.645   2.141   2.188  0.00  0.00     0.077 C 
ATOM      2  C1' PXY d   1       1.638  -2.728   4.307  0.00  0.00     0.077 C 
ATOM      3  C1  PXY d   1       1.034  -1.458   3.742  0.00  0.00    -0.082 A 
ATOM      4  C2  PXY d   1       1.575  -0.288   4.039  0.00  0.00     0.003 A 
ATOM      5  C3  PXY d   1       1.023   0.873   3.562  0.00  0.00     0.003 A 
ATOM      6  C4  PXY d   1      -0.063   0.832   2.729  0.00  0.00    -0.082 A 
ATOM      7  C5  PXY d   1      -0.614  -0.358   2.412  0.00  0.00     0.003 A 
ATOM      8  C6  PXY d   1      -0.064  -1.523   2.940  0.00  0.00     0.003 A 
ENDROOT
TORSDOF 0
ENDMDL
