MODEL 1
REMARK minimizedAffinity 6.35116291
REMARK minimizedRMSD -1
REMARK  2 active torsions:
REMARK  status: ('A' for Active; 'I' for Inactive)
REMARK    1  A    between atoms: C2'_3  and  C1'_4 
REMARK    2  A    between atoms: C1'_4  and  C1_5 
ROOT
ATOM      1  C1  I4B d   1       4.066  -2.627  -2.886  0.00  0.00    -0.075 A 
ATOM      2  C2  I4B d   1       4.973  -3.622  -2.617  0.00  0.00     0.003 A 
ATOM      3  C3  I4B d   1       5.973  -3.951  -3.564  0.00  0.00     0.002 A 
ATOM      4  C4  I4B d   1       5.998  -3.298  -4.779  0.00  0.00    -0.004 A 
ATOM      5  C5  I4B d   1       5.093  -2.274  -5.042  0.00  0.00     0.002 A 
ATOM      6  C6  I4B d   1       4.128  -1.928  -4.085  0.00  0.00     0.003 A 
ENDROOT
BRANCH   1   7
ATOM      7  C1' I4B d   1       3.003  -2.328  -1.878  0.00  0.00     0.060 C 
BRANCH   7   8
ATOM      8  C2' I4B d   1       2.343  -3.637  -1.493  0.00  0.00    -0.013 C 
ATOM      9  C4' I4B d   1       2.226  -3.770   0.003  0.00  0.00     0.013 C 
ATOM     10  C3' I4B d   1       0.995  -3.687  -2.148  0.00  0.00     0.013 C 
ENDBRANCH   7   8
ENDBRANCH   1   7
TORSDOF 2
ENDMDL
