MODEL 1
REMARK minimizedAffinity -2.38809299
REMARK minimizedRMSD -1
REMARK  2 active torsions:
REMARK  status: ('A' for Active; 'I' for Inactive)
REMARK    1  A    between atoms: C2'_3  and  C1'_4 
REMARK    2  A    between atoms: C1'_4  and  C1_5 
ROOT
ATOM      1  C1  I4B d   1       0.188   2.633  -0.234  0.00  0.00    -0.075 A 
ATOM      2  C2  I4B d   1       0.369   1.313  -0.563  0.00  0.00     0.003 A 
ATOM      3  C3  I4B d   1       0.236   0.307   0.425  0.00  0.00     0.002 A 
ATOM      4  C4  I4B d   1      -0.027   0.668   1.730  0.00  0.00    -0.004 A 
ATOM      5  C5  I4B d   1      -0.233   2.005   2.058  0.00  0.00     0.002 A 
ATOM      6  C6  I4B d   1      -0.137   2.993   1.067  0.00  0.00     0.003 A 
ENDROOT
BRANCH   1   7
ATOM      7  C1' I4B d   1       0.369   3.672  -1.295  0.00  0.00     0.060 C 
BRANCH   7   8
ATOM      8  C2' I4B d   1       0.190   5.032  -0.652  0.00  0.00    -0.013 C 
ATOM      9  C4' I4B d   1       1.509   5.742  -0.502  0.00  0.00     0.013 C 
ATOM     10  C3' I4B d   1      -0.758   5.824  -1.502  0.00  0.00     0.013 C 
ENDBRANCH   7   8
ENDBRANCH   1   7
TORSDOF 2
ENDMDL
