MODEL 1
REMARK minimizedAffinity 19.0407696
REMARK minimizedRMSD -1
REMARK  2 active torsions:
REMARK  status: ('A' for Active; 'I' for Inactive)
REMARK    1  A    between atoms: C2'_3  and  C1'_4 
REMARK    2  A    between atoms: C1'_4  and  C1_5 
ROOT
ATOM      1  C1  I4B d   1      -0.267   3.411   1.425  0.00  0.00    -0.075 A 
ATOM      2  C2  I4B d   1      -0.827   2.527   2.314  0.00  0.00     0.003 A 
ATOM      3  C3  I4B d   1      -2.003   2.875   3.021  0.00  0.00     0.002 A 
ATOM      4  C4  I4B d   1      -2.554   4.128   2.848  0.00  0.00    -0.004 A 
ATOM      5  C5  I4B d   1      -1.999   5.015   1.929  0.00  0.00     0.002 A 
ATOM      6  C6  I4B d   1      -0.855   4.650   1.204  0.00  0.00     0.003 A 
ENDROOT
BRANCH   1   7
ATOM      7  C1' I4B d   1       0.994   3.024   0.720  0.00  0.00     0.060 C 
BRANCH   7   8
ATOM      8  C2' I4B d   1       1.090   3.845  -0.549  0.00  0.00    -0.013 C 
ATOM      9  C4' I4B d   1       2.341   4.683  -0.563  0.00  0.00     0.013 C 
ATOM     10  C3' I4B d   1       1.058   2.902  -1.715  0.00  0.00     0.013 C 
ENDBRANCH   7   8
ENDBRANCH   1   7
TORSDOF 2
ENDMDL
