MODEL 1
REMARK minimizedAffinity -0.550773144
REMARK minimizedRMSD -1
REMARK  1 active torsions:
REMARK  status: ('A' for Active; 'I' for Inactive)
REMARK    1  A    between atoms: C1_2  and  C2_3 
ROOT
ATOM      1  C2  UNL d   1       0.156   0.513   0.316  0.00  0.00    -0.077 A 
ATOM      2  C3  UNL d   1       0.327   1.899   0.436  0.00  0.00     0.002 A 
ATOM      3  C4  UNL d   1      -0.695   2.694   0.959  0.00  0.00     0.002 A 
ATOM      4  C5  UNL d   1      -1.892   2.112   1.369  0.00  0.00    -0.004 A 
ATOM      5  C6  UNL d   1      -2.073   0.735   1.251  0.00  0.00     0.002 A 
ATOM      6  C7  UNL d   1      -1.053  -0.061   0.728  0.00  0.00     0.002 A 
ENDROOT
BRANCH   1   7
ATOM      7  C1  UNL d   1       1.275  -0.352  -0.202  0.00  0.00     0.055 C 
ATOM      8  C   UNL d   1       2.632   0.291   0.044  0.00  0.00     0.019 C 
ENDBRANCH   1   7
TORSDOF 1
ENDMDL
