MODEL 1
REMARK minimizedAffinity -5.3839221
REMARK minimizedRMSD -1
REMARK  1 active torsions:
REMARK  status: ('A' for Active; 'I' for Inactive)
REMARK    1  A    between atoms: C1_2  and  C2_3 
ROOT
ATOM      1  C2  UNL d   1      -0.121  -0.055   0.150  0.00  0.00    -0.077 A 
ATOM      2  C3  UNL d   1       0.821   0.967  -0.031  0.00  0.00     0.002 A 
ATOM      3  C4  UNL d   1       0.482   2.296   0.229  0.00  0.00     0.002 A 
ATOM      4  C5  UNL d   1      -0.799   2.615   0.677  0.00  0.00    -0.004 A 
ATOM      5  C6  UNL d   1      -1.744   1.606   0.858  0.00  0.00     0.002 A 
ATOM      6  C7  UNL d   1      -1.407   0.277   0.597  0.00  0.00     0.002 A 
ENDROOT
BRANCH   1   7
ATOM      7  C1  UNL d   1       0.258  -1.494  -0.083  0.00  0.00     0.055 C 
ATOM      8  C   UNL d   1      -0.958  -2.336  -0.441  0.00  0.00     0.019 C 
ENDBRANCH   1   7
TORSDOF 1
ENDMDL
