MODEL 1
REMARK minimizedAffinity -3.30454206
REMARK minimizedRMSD -1
REMARK  1 active torsions:
REMARK  status: ('A' for Active; 'I' for Inactive)
REMARK    1  A    between atoms: C1_2  and  C2_3 
ROOT
ATOM      1  C2  UNL d   1       0.908   1.847   0.825  0.00  0.00    -0.077 A 
ATOM      2  C3  UNL d   1       0.806   0.538   0.332  0.00  0.00     0.002 A 
ATOM      3  C4  UNL d   1      -0.385   0.090  -0.241  0.00  0.00     0.002 A 
ATOM      4  C5  UNL d   1      -1.482   0.945  -0.332  0.00  0.00    -0.004 A 
ATOM      5  C6  UNL d   1      -1.391   2.248   0.157  0.00  0.00     0.002 A 
ATOM      6  C7  UNL d   1      -0.202   2.697   0.732  0.00  0.00     0.002 A 
ENDROOT
BRANCH   1   7
ATOM      7  C1  UNL d   1       2.207   2.348   1.399  0.00  0.00     0.055 C 
ATOM      8  C   UNL d   1       3.333   1.348   1.176  0.00  0.00     0.019 C 
ENDBRANCH   1   7
TORSDOF 1
ENDMDL
