MODEL 1
REMARK minimizedAffinity -5.16238308
REMARK minimizedRMSD -1
REMARK  1 active torsions:
REMARK  status: ('A' for Active; 'I' for Inactive)
REMARK    1  A    between atoms: C1_2  and  C2_3 
ROOT
ATOM      1  C2  UNL d   1       0.068  -0.269  -0.023  0.00  0.00    -0.077 A 
ATOM      2  C3  UNL d   1       0.907   0.805  -0.353  0.00  0.00     0.002 A 
ATOM      3  C4  UNL d   1       0.482   2.120  -0.155  0.00  0.00     0.002 A 
ATOM      4  C5  UNL d   1      -0.781   2.373   0.377  0.00  0.00    -0.004 A 
ATOM      5  C6  UNL d   1      -1.623   1.312   0.706  0.00  0.00     0.002 A 
ATOM      6  C7  UNL d   1      -1.201  -0.003   0.508  0.00  0.00     0.002 A 
ENDROOT
BRANCH   1   7
ATOM      7  C1  UNL d   1       0.543  -1.688  -0.190  0.00  0.00     0.055 C 
ATOM      8  C   UNL d   1      -0.255  -2.417  -1.262  0.00  0.00     0.019 C 
ENDBRANCH   1   7
TORSDOF 1
ENDMDL
