MODEL 1
REMARK minimizedAffinity -3.30272388
REMARK minimizedRMSD -1
REMARK  1 active torsions:
REMARK  status: ('A' for Active; 'I' for Inactive)
REMARK    1  A    between atoms: C1_2  and  C2_3 
ROOT
ATOM      1  C2  UNL d   1       0.485   0.303   0.625  0.00  0.00    -0.077 A 
ATOM      2  C3  UNL d   1       1.573   1.179   0.733  0.00  0.00     0.002 A 
ATOM      3  C4  UNL d   1       1.363   2.555   0.851  0.00  0.00     0.002 A 
ATOM      4  C5  UNL d   1       0.067   3.065   0.865  0.00  0.00    -0.004 A 
ATOM      5  C6  UNL d   1      -1.022   2.201   0.756  0.00  0.00     0.002 A 
ATOM      6  C7  UNL d   1      -0.814   0.826   0.637  0.00  0.00     0.002 A 
ENDROOT
BRANCH   1   7
ATOM      7  C1  UNL d   1       0.708  -1.185   0.548  0.00  0.00     0.055 C 
ATOM      8  C   UNL d   1      -0.307  -1.850  -0.371  0.00  0.00     0.019 C 
ENDBRANCH   1   7
TORSDOF 1
ENDMDL
