MODEL 1
REMARK minimizedAffinity -4.91427422
REMARK minimizedRMSD -1
REMARK  1 active torsions:
REMARK  status: ('A' for Active; 'I' for Inactive)
REMARK    1  A    between atoms: C1_2  and  C2_3 
ROOT
ATOM      1  C2  UNL d   1      -0.310   0.000   0.380  0.00  0.00    -0.077 A 
ATOM      2  C3  UNL d   1       0.457   0.963  -0.293  0.00  0.00     0.002 A 
ATOM      3  C4  UNL d   1       0.192   2.323  -0.121  0.00  0.00     0.002 A 
ATOM      4  C5  UNL d   1      -0.836   2.733   0.725  0.00  0.00    -0.004 A 
ATOM      5  C6  UNL d   1      -1.606   1.783   1.396  0.00  0.00     0.002 A 
ATOM      6  C7  UNL d   1      -1.343   0.423   1.225  0.00  0.00     0.002 A 
ENDROOT
BRANCH   1   7
ATOM      7  C1  UNL d   1       0.006  -1.465   0.234  0.00  0.00     0.055 C 
ATOM      8  C   UNL d   1      -0.160  -1.927  -1.206  0.00  0.00     0.019 C 
ENDBRANCH   1   7
TORSDOF 1
ENDMDL
