MODEL 1
REMARK minimizedAffinity -3.85596871
REMARK minimizedRMSD -1
REMARK  1 active torsions:
REMARK  status: ('A' for Active; 'I' for Inactive)
REMARK    1  A    between atoms: C1_2  and  C2_3 
ROOT
ATOM      1  C2  UNL d   1      -0.382  -0.409   0.435  0.00  0.00    -0.077 A 
ATOM      2  C3  UNL d   1       0.297   0.683  -0.124  0.00  0.00     0.002 A 
ATOM      3  C4  UNL d   1      -0.192   1.980   0.045  0.00  0.00     0.002 A 
ATOM      4  C5  UNL d   1      -1.358   2.197   0.776  0.00  0.00    -0.004 A 
ATOM      5  C6  UNL d   1      -2.041   1.118   1.334  0.00  0.00     0.002 A 
ATOM      6  C7  UNL d   1      -1.555  -0.179   1.165  0.00  0.00     0.002 A 
ENDROOT
BRANCH   1   7
ATOM      7  C1  UNL d   1       0.170  -1.804   0.295  0.00  0.00     0.055 C 
ATOM      8  C   UNL d   1      -0.569  -2.586  -0.781  0.00  0.00     0.019 C 
ENDBRANCH   1   7
TORSDOF 1
ENDMDL
