MODEL 1
REMARK minimizedAffinity -5.53205538
REMARK minimizedRMSD -1
REMARK  1 active torsions:
REMARK  status: ('A' for Active; 'I' for Inactive)
REMARK    1  A    between atoms: C1_2  and  C2_3 
ROOT
ATOM      1  C2  UNL d   1      -0.321   0.908   0.258  0.00  0.00    -0.077 A 
ATOM      2  C3  UNL d   1       0.995   1.018  -0.212  0.00  0.00     0.002 A 
ATOM      3  C4  UNL d   1       1.616   2.266  -0.288  0.00  0.00     0.002 A 
ATOM      4  C5  UNL d   1       0.930   3.412   0.109  0.00  0.00    -0.004 A 
ATOM      5  C6  UNL d   1      -0.380   3.313   0.575  0.00  0.00     0.002 A 
ATOM      6  C7  UNL d   1      -1.003   2.066   0.651  0.00  0.00     0.002 A 
ENDROOT
BRANCH   1   7
ATOM      7  C1  UNL d   1      -0.975  -0.443   0.387  0.00  0.00     0.055 C 
ATOM      8  C   UNL d   1      -0.127  -1.532  -0.254  0.00  0.00     0.019 C 
ENDBRANCH   1   7
TORSDOF 1
ENDMDL
