MODEL 1
REMARK minimizedAffinity -3.39789367
REMARK minimizedRMSD -1
REMARK  1 active torsions:
REMARK  status: ('A' for Active; 'I' for Inactive)
REMARK    1  A    between atoms: C1_2  and  C2_3 
ROOT
ATOM      1  C2  UNL d   1      -0.719  -1.524  -0.391  0.00  0.00    -0.077 A 
ATOM      2  C3  UNL d   1      -1.919  -0.800  -0.333  0.00  0.00     0.002 A 
ATOM      3  C4  UNL d   1      -1.920   0.531   0.090  0.00  0.00     0.002 A 
ATOM      4  C5  UNL d   1      -0.726   1.150   0.453  0.00  0.00    -0.004 A 
ATOM      5  C6  UNL d   1       0.471   0.438   0.400  0.00  0.00     0.002 A 
ATOM      6  C7  UNL d   1       0.475  -0.892  -0.021  0.00  0.00     0.002 A 
ENDROOT
BRANCH   1   7
ATOM      7  C1  UNL d   1      -0.709  -2.944  -0.894  0.00  0.00     0.055 C 
ATOM      8  C   UNL d   1      -0.086  -3.036  -2.279  0.00  0.00     0.019 C 
ENDBRANCH   1   7
TORSDOF 1
ENDMDL
