MODEL 1
REMARK minimizedAffinity -1.59152031
REMARK minimizedRMSD -1
REMARK  0 active torsions:
REMARK  status: ('A' for Active; 'I' for Inactive)
ROOT
ATOM      1  N1  IND d   1       0.098  -1.310  -2.617  0.00  0.00    -0.196 N 
ATOM      2  C2  IND d   1      -0.290  -2.586  -2.916  0.00  0.00     0.054 A 
ATOM      3  C3  IND d   1      -0.743  -3.212  -1.806  0.00  0.00    -0.031 A 
ATOM      4  C4  IND d   1      -1.031  -2.300   0.584  0.00  0.00     0.051 A 
ATOM      5  C5  IND d   1      -0.780  -1.199   1.354  0.00  0.00    -0.031 A 
ATOM      6  C6  IND d   1      -0.215  -0.055   0.829  0.00  0.00     0.015 A 
ATOM      7  C7  IND d   1       0.112   0.035  -0.494  0.00  0.00    -0.016 A 
ATOM      8  C8  IND d   1      -0.135  -1.083  -1.278  0.00  0.00    -0.047 A 
ATOM      9  C9  IND d   1      -0.669  -2.262  -0.742  0.00  0.00    -0.096 A 
ATOM     10  HN1 IND d   1       0.431  -0.744  -3.172  0.00  0.00     0.298 HD
ENDROOT
TORSDOF 0
ENDMDL
