MODEL 1
REMARK minimizedAffinity -1.39733577
REMARK minimizedRMSD -1
REMARK  0 active torsions:
REMARK  status: ('A' for Active; 'I' for Inactive)
ROOT
ATOM      1  N1  IND d   1      -0.388   0.138   0.039  0.00  0.00    -0.196 N 
ATOM      2  C2  IND d   1      -0.635  -0.503   1.220  0.00  0.00     0.054 A 
ATOM      3  C3  IND d   1      -0.002   0.124   2.237  0.00  0.00    -0.031 A 
ATOM      4  C4  IND d   1       1.411   2.276   2.205  0.00  0.00     0.051 A 
ATOM      5  C5  IND d   1       1.949   3.199   1.352  0.00  0.00    -0.031 A 
ATOM      6  C6  IND d   1       1.728   3.150  -0.009  0.00  0.00     0.015 A 
ATOM      7  C7  IND d   1       0.949   2.177  -0.570  0.00  0.00    -0.016 A 
ATOM      8  C8  IND d   1       0.407   1.234   0.292  0.00  0.00    -0.047 A 
ATOM      9  C9  IND d   1       0.662   1.254   1.669  0.00  0.00    -0.096 A 
ATOM     10  HN1 IND d   1      -0.680  -0.103  -0.734  0.00  0.00     0.298 HD
ENDROOT
TORSDOF 0
ENDMDL
