MODEL 1
REMARK minimizedAffinity -0.947698593
REMARK minimizedRMSD -1
REMARK  0 active torsions:
REMARK  status: ('A' for Active; 'I' for Inactive)
ROOT
ATOM      1  N1  IND d   1      -0.661  -0.431  -0.040  0.00  0.00    -0.196 N 
ATOM      2  C2  IND d   1      -0.615  -0.790   1.278  0.00  0.00     0.054 A 
ATOM      3  C3  IND d   1      -0.091   0.211   2.020  0.00  0.00    -0.031 A 
ATOM      4  C4  IND d   1       0.663   2.563   1.294  0.00  0.00     0.051 A 
ATOM      5  C5  IND d   1       0.845   3.342   0.186  0.00  0.00    -0.031 A 
ATOM      6  C6  IND d   1       0.525   2.894  -1.080  0.00  0.00     0.015 A 
ATOM      7  C7  IND d   1      -0.002   1.650  -1.284  0.00  0.00    -0.016 A 
ATOM      8  C8  IND d   1      -0.181   0.855  -0.161  0.00  0.00    -0.047 A 
ATOM      9  C9  IND d   1       0.181   1.287   1.121  0.00  0.00    -0.096 A 
ATOM     10  HN1 IND d   1      -0.943  -0.925  -0.685  0.00  0.00     0.298 HD
ENDROOT
TORSDOF 0
ENDMDL
