MODEL 1
REMARK minimizedAffinity -0.880109727
REMARK minimizedRMSD -1
REMARK  0 active torsions:
REMARK  status: ('A' for Active; 'I' for Inactive)
ROOT
ATOM      1  N1  IND d   1       1.973   2.549   1.837  0.00  0.00    -0.196 N 
ATOM      2  C2  IND d   1       2.041   3.680   1.073  0.00  0.00     0.054 A 
ATOM      3  C3  IND d   1       1.305   3.533  -0.051  0.00  0.00    -0.031 A 
ATOM      4  C4  IND d   1      -0.173   1.559  -0.792  0.00  0.00     0.051 A 
ATOM      5  C5  IND d   1      -0.525   0.286  -0.441  0.00  0.00    -0.031 A 
ATOM      6  C6  IND d   1      -0.054  -0.309   0.711  0.00  0.00     0.015 A 
ATOM      7  C7  IND d   1       0.780   0.354   1.566  0.00  0.00    -0.016 A 
ATOM      8  C8  IND d   1       1.145   1.645   1.210  0.00  0.00    -0.047 A 
ATOM      9  C9  IND d   1       0.704   2.238   0.020  0.00  0.00    -0.096 A 
ATOM     10  HN1 IND d   1       2.380   2.423   2.584  0.00  0.00     0.298 HD
ENDROOT
TORSDOF 0
ENDMDL
