MODEL 1
REMARK minimizedAffinity -2.54119396
REMARK minimizedRMSD -1
REMARK  0 active torsions:
REMARK  status: ('A' for Active; 'I' for Inactive)
ROOT
ATOM      1  N1  IND d   1       1.415   1.331   1.067  0.00  0.00    -0.196 N 
ATOM      2  C2  IND d   1       0.964   2.052  -0.003  0.00  0.00     0.054 A 
ATOM      3  C3  IND d   1      -0.079   1.421  -0.589  0.00  0.00    -0.031 A 
ATOM      4  C4  IND d   1      -1.273  -0.752   0.101  0.00  0.00     0.051 A 
ATOM      5  C5  IND d   1      -1.198  -1.786   0.991  0.00  0.00    -0.031 A 
ATOM      6  C6  IND d   1      -0.230  -1.834   1.974  0.00  0.00     0.015 A 
ATOM      7  C7  IND d   1       0.696  -0.839   2.111  0.00  0.00    -0.016 A 
ATOM      8  C8  IND d   1       0.627   0.209   1.204  0.00  0.00    -0.047 A 
ATOM      9  C9  IND d   1      -0.326   0.242   0.178  0.00  0.00    -0.096 A 
ATOM     10  HN1 IND d   1       2.080   1.542   1.570  0.00  0.00     0.298 HD
ENDROOT
TORSDOF 0
ENDMDL
