MODEL 1
REMARK minimizedAffinity -4.2687602
REMARK minimizedRMSD -1
REMARK  0 active torsions:
REMARK  status: ('A' for Active; 'I' for Inactive)
ROOT
ATOM      1  N1  IND d   1       0.451   3.219   0.140  0.00  0.00    -0.196 N 
ATOM      2  C2  IND d   1       1.615   3.605   0.745  0.00  0.00     0.054 A 
ATOM      3  C3  IND d   1       2.261   2.530   1.250  0.00  0.00    -0.031 A 
ATOM      4  C4  IND d   1       1.643   0.035   1.110  0.00  0.00     0.051 A 
ATOM      5  C5  IND d   1       0.652  -0.807   0.689  0.00  0.00    -0.031 A 
ATOM      6  C6  IND d   1      -0.477  -0.341   0.047  0.00  0.00     0.015 A 
ATOM      7  C7  IND d   1      -0.654   0.989  -0.207  0.00  0.00    -0.016 A 
ATOM      8  C8  IND d   1       0.346   1.848   0.225  0.00  0.00    -0.047 A 
ATOM      9  C9  IND d   1       1.475   1.386   0.915  0.00  0.00    -0.096 A 
ATOM     10  HN1 IND d   1      -0.120   3.745  -0.231  0.00  0.00     0.298 HD
ENDROOT
TORSDOF 0
ENDMDL
