MODEL 1
REMARK minimizedAffinity -4.6588335
REMARK minimizedRMSD -1
REMARK  0 active torsions:
REMARK  status: ('A' for Active; 'I' for Inactive)
ROOT
ATOM      1  N1  IND d   1       1.003   3.988  -0.074  0.00  0.00    -0.196 N 
ATOM      2  C2  IND d   1       2.221   4.044   0.543  0.00  0.00     0.054 A 
ATOM      3  C3  IND d   1       2.577   2.820   0.993  0.00  0.00    -0.031 A 
ATOM      4  C4  IND d   1       1.361   0.565   0.736  0.00  0.00     0.051 A 
ATOM      5  C5  IND d   1       0.197   0.015   0.279  0.00  0.00    -0.031 A 
ATOM      6  C6  IND d   1      -0.777   0.777  -0.335  0.00  0.00     0.015 A 
ATOM      7  C7  IND d   1      -0.617   2.120  -0.524  0.00  0.00    -0.016 A 
ATOM      8  C8  IND d   1       0.561   2.683  -0.055  0.00  0.00    -0.047 A 
ATOM      9  C9  IND d   1       1.535   1.923   0.606  0.00  0.00    -0.096 A 
ATOM     10  HN1 IND d   1       0.583   4.655  -0.417  0.00  0.00     0.298 HD
ENDROOT
TORSDOF 0
ENDMDL
