MODEL 1
REMARK minimizedAffinity -1.10070372
REMARK minimizedRMSD -1
REMARK  0 active torsions:
REMARK  status: ('A' for Active; 'I' for Inactive)
ROOT
ATOM      1  N1  IND d   1      -0.079   1.076  -1.069  0.00  0.00    -0.196 N 
ATOM      2  C2  IND d   1       0.765   2.016  -0.547  0.00  0.00     0.054 A 
ATOM      3  C3  IND d   1       0.998   1.764   0.761  0.00  0.00    -0.031 A 
ATOM      4  C4  IND d   1       0.180  -0.192   2.220  0.00  0.00     0.051 A 
ATOM      5  C5  IND d   1      -0.642  -1.283   2.197  0.00  0.00    -0.031 A 
ATOM      6  C6  IND d   1      -1.331  -1.653   1.060  0.00  0.00     0.015 A 
ATOM      7  C7  IND d   1      -1.213  -0.948  -0.105  0.00  0.00    -0.016 A 
ATOM      8  C8  IND d   1      -0.384   0.164  -0.083  0.00  0.00    -0.047 A 
ATOM      9  C9  IND d   1       0.284   0.569   1.080  0.00  0.00    -0.096 A 
ATOM     10  HN1 IND d   1      -0.370   1.057  -1.878  0.00  0.00     0.298 HD
ENDROOT
TORSDOF 0
ENDMDL
