MODEL 1
REMARK minimizedAffinity -3.73779106
REMARK minimizedRMSD -1
REMARK  0 active torsions:
REMARK  status: ('A' for Active; 'I' for Inactive)
ROOT
ATOM      1  N1  IND d   1       1.628   2.263   2.043  0.00  0.00    -0.196 N 
ATOM      2  C2  IND d   1       1.410   3.492   1.486  0.00  0.00     0.054 A 
ATOM      3  C3  IND d   1       0.587   3.385   0.418  0.00  0.00    -0.031 A 
ATOM      4  C4  IND d   1      -0.599   1.307  -0.531  0.00  0.00     0.051 A 
ATOM      5  C5  IND d   1      -0.681  -0.049  -0.381  0.00  0.00    -0.031 A 
ATOM      6  C6  IND d   1       0.015  -0.717   0.607  0.00  0.00     0.015 A 
ATOM      7  C7  IND d   1       0.813  -0.049   1.492  0.00  0.00    -0.016 A 
ATOM      8  C8  IND d   1       0.904   1.327   1.338  0.00  0.00    -0.047 A 
ATOM      9  C9  IND d   1       0.234   2.005   0.312  0.00  0.00    -0.096 A 
ATOM     10  HN1 IND d   1       2.132   2.102   2.721  0.00  0.00     0.298 HD
ENDROOT
TORSDOF 0
ENDMDL
