MODEL 1
REMARK minimizedAffinity -3.42690539
REMARK minimizedRMSD -1
REMARK  0 active torsions:
REMARK  status: ('A' for Active; 'I' for Inactive)
ROOT
ATOM      1  N1  IND d   1       0.208   1.527  -0.437  0.00  0.00    -0.196 N 
ATOM      2  C2  IND d   1       0.948   2.282   0.429  0.00  0.00     0.054 A 
ATOM      3  C3  IND d   1       1.169   1.600   1.576  0.00  0.00    -0.031 A 
ATOM      4  C4  IND d   1       0.497  -0.804   2.205  0.00  0.00     0.051 A 
ATOM      5  C5  IND d   1      -0.221  -1.875   1.753  0.00  0.00    -0.031 A 
ATOM      6  C6  IND d   1      -0.843  -1.868   0.521  0.00  0.00     0.015 A 
ATOM      7  C7  IND d   1      -0.760  -0.789  -0.313  0.00  0.00    -0.016 A 
ATOM      8  C8  IND d   1      -0.038   0.303   0.146  0.00  0.00    -0.047 A 
ATOM      9  C9  IND d   1       0.560   0.318   1.413  0.00  0.00    -0.096 A 
ATOM     10  HN1 IND d   1      -0.059   1.774  -1.216  0.00  0.00     0.298 HD
ENDROOT
TORSDOF 0
ENDMDL
