MODEL 1
REMARK minimizedAffinity -1.90464318
REMARK minimizedRMSD -1
REMARK  0 active torsions:
REMARK  status: ('A' for Active; 'I' for Inactive)
ROOT
ATOM      1  N1  IND d   1       0.067  -1.655  -2.583  0.00  0.00    -0.196 N 
ATOM      2  C2  IND d   1      -0.289  -2.975  -2.601  0.00  0.00     0.054 A 
ATOM      3  C3  IND d   1      -0.690  -3.371  -1.372  0.00  0.00    -0.031 A 
ATOM      4  C4  IND d   1      -0.939  -1.994   0.790  0.00  0.00     0.051 A 
ATOM      5  C5  IND d   1      -0.701  -0.753   1.310  0.00  0.00    -0.031 A 
ATOM      6  C6  IND d   1      -0.188   0.272   0.543  0.00  0.00     0.015 A 
ATOM      7  C7  IND d   1       0.098   0.097  -0.782  0.00  0.00    -0.016 A 
ATOM      8  C8  IND d   1      -0.135  -1.164  -1.311  0.00  0.00    -0.047 A 
ATOM      9  C9  IND d   1      -0.617  -2.220  -0.528  0.00  0.00    -0.096 A 
ATOM     10  HN1 IND d   1       0.366  -1.207  -3.253  0.00  0.00     0.298 HD
ENDROOT
TORSDOF 0
ENDMDL
