MODEL 1
REMARK minimizedAffinity -2.97500181
REMARK minimizedRMSD -1
REMARK  0 active torsions:
REMARK  status: ('A' for Active; 'I' for Inactive)
ROOT
ATOM      1  N1  IND d   1       0.236  -0.614   2.138  0.00  0.00    -0.196 N 
ATOM      2  C2  IND d   1      -0.706  -1.463   1.627  0.00  0.00     0.054 A 
ATOM      3  C3  IND d   1      -1.219  -0.961   0.481  0.00  0.00    -0.031 A 
ATOM      4  C4  IND d   1      -0.588   1.187  -0.790  0.00  0.00     0.051 A 
ATOM      5  C5  IND d   1       0.193   2.305  -0.695  0.00  0.00    -0.031 A 
ATOM      6  C6  IND d   1       1.047   2.510   0.369  0.00  0.00     0.015 A 
ATOM      7  C7  IND d   1       1.161   1.595   1.377  0.00  0.00    -0.016 A 
ATOM      8  C8  IND d   1       0.365   0.462   1.288  0.00  0.00    -0.047 A 
ATOM      9  C9  IND d   1      -0.535   0.269   0.232  0.00  0.00    -0.096 A 
ATOM     10  HN1 IND d   1       0.674  -0.732   2.869  0.00  0.00     0.298 HD
ENDROOT
TORSDOF 0
ENDMDL
