MODEL 1
REMARK minimizedAffinity -3.35651064
REMARK minimizedRMSD -1
REMARK  0 active torsions:
REMARK  status: ('A' for Active; 'I' for Inactive)
ROOT
ATOM      1  N1  IND d   1       0.770   2.602   0.113  0.00  0.00    -0.196 N 
ATOM      2  C2  IND d   1       1.700   2.925   1.062  0.00  0.00     0.054 A 
ATOM      3  C3  IND d   1       1.808   1.930   1.971  0.00  0.00    -0.031 A 
ATOM      4  C4  IND d   1       0.633  -0.360   2.038  0.00  0.00     0.051 A 
ATOM      5  C5  IND d   1      -0.329  -1.095   1.406  0.00  0.00    -0.031 A 
ATOM      6  C6  IND d   1      -0.986  -0.628   0.285  0.00  0.00     0.015 A 
ATOM      7  C7  IND d   1      -0.695   0.593  -0.253  0.00  0.00    -0.016 A 
ATOM      8  C8  IND d   1       0.277   1.346   0.391  0.00  0.00    -0.047 A 
ATOM      9  C9  IND d   1       0.916   0.895   1.553  0.00  0.00    -0.096 A 
ATOM     10  HN1 IND d   1       0.534   3.100  -0.547  0.00  0.00     0.298 HD
ENDROOT
TORSDOF 0
ENDMDL
