MODEL 1
REMARK minimizedAffinity -2.2167697
REMARK minimizedRMSD -1
REMARK  0 active torsions:
REMARK  status: ('A' for Active; 'I' for Inactive)
ROOT
ATOM      1  N1  IND d   1       0.002  -1.181  -2.585  0.00  0.00    -0.196 N 
ATOM      2  C2  IND d   1      -0.147  -2.529  -2.756  0.00  0.00     0.054 A 
ATOM      3  C3  IND d   1      -0.507  -3.114  -1.592  0.00  0.00    -0.031 A 
ATOM      4  C4  IND d   1      -1.010  -2.039   0.693  0.00  0.00     0.051 A 
ATOM      5  C5  IND d   1      -0.976  -0.841   1.350  0.00  0.00    -0.031 A 
ATOM      6  C6  IND d   1      -0.610   0.328   0.716  0.00  0.00     0.015 A 
ATOM      7  C7  IND d   1      -0.274   0.346  -0.608  0.00  0.00    -0.016 A 
ATOM      8  C8  IND d   1      -0.300  -0.870  -1.277  0.00  0.00    -0.047 A 
ATOM      9  C9  IND d   1      -0.629  -2.067  -0.628  0.00  0.00    -0.096 A 
ATOM     10  HN1 IND d   1       0.243  -0.622  -3.192  0.00  0.00     0.298 HD
ENDROOT
TORSDOF 0
ENDMDL
