MODEL 1
REMARK minimizedAffinity -2.43462491
REMARK minimizedRMSD -1
REMARK  0 active torsions:
REMARK  status: ('A' for Active; 'I' for Inactive)
ROOT
ATOM      1  N1  IND d   1       2.376   1.963   0.243  0.00  0.00    -0.196 N 
ATOM      2  C2  IND d   1       2.190   3.317   0.243  0.00  0.00     0.054 A 
ATOM      3  C3  IND d   1       0.870   3.610   0.259  0.00  0.00    -0.031 A 
ATOM      4  C4  IND d   1      -1.155   2.027   0.391  0.00  0.00     0.051 A 
ATOM      5  C5  IND d   1      -1.489   0.701   0.375  0.00  0.00    -0.031 A 
ATOM      6  C6  IND d   1      -0.532  -0.291   0.316  0.00  0.00     0.015 A 
ATOM      7  C7  IND d   1       0.801   0.006   0.282  0.00  0.00    -0.016 A 
ATOM      8  C8  IND d   1       1.143   1.351   0.290  0.00  0.00    -0.047 A 
ATOM      9  C9  IND d   1       0.175   2.363   0.307  0.00  0.00    -0.096 A 
ATOM     10  HN1 IND d   1       3.136   1.562   0.217  0.00  0.00     0.298 HD
ENDROOT
TORSDOF 0
ENDMDL
