MODEL 1
REMARK minimizedAffinity -3.75772429
REMARK minimizedRMSD -1
REMARK  0 active torsions:
REMARK  status: ('A' for Active; 'I' for Inactive)
ROOT
ATOM      1  N1  IND d   1       1.007   1.341   0.829  0.00  0.00    -0.196 N 
ATOM      2  C2  IND d   1       0.533   1.936  -0.307  0.00  0.00     0.054 A 
ATOM      3  C3  IND d   1      -0.305   1.101  -0.961  0.00  0.00    -0.031 A 
ATOM      4  C4  IND d   1      -1.123  -1.248  -0.296  0.00  0.00     0.051 A 
ATOM      5  C5  IND d   1      -0.940  -2.227   0.640  0.00  0.00    -0.031 A 
ATOM      6  C6  IND d   1      -0.083  -2.063   1.709  0.00  0.00     0.015 A 
ATOM      7  C7  IND d   1       0.616  -0.904   1.890  0.00  0.00    -0.016 A 
ATOM      8  C8  IND d   1       0.439   0.090   0.938  0.00  0.00    -0.047 A 
ATOM      9  C9  IND d   1      -0.397  -0.087  -0.172  0.00  0.00    -0.096 A 
ATOM     10  HN1 IND d   1       1.565   1.689   1.382  0.00  0.00     0.298 HD
ENDROOT
TORSDOF 0
ENDMDL
