MODEL 1
REMARK minimizedAffinity 0.48612085
REMARK minimizedRMSD -1
REMARK  0 active torsions:
REMARK  status: ('A' for Active; 'I' for Inactive)
ROOT
ATOM      1  N1  IND d   1      -0.026  -1.252  -2.642  0.00  0.00    -0.196 N 
ATOM      2  C2  IND d   1      -0.342  -2.478  -3.157  0.00  0.00     0.054 A 
ATOM      3  C3  IND d   1      -0.828  -3.285  -2.187  0.00  0.00    -0.031 A 
ATOM      4  C4  IND d   1      -1.285  -2.769   0.293  0.00  0.00     0.051 A 
ATOM      5  C5  IND d   1      -1.123  -1.795   1.238  0.00  0.00    -0.031 A 
ATOM      6  C6  IND d   1      -0.579  -0.564   0.931  0.00  0.00     0.015 A 
ATOM      7  C7  IND d   1      -0.185  -0.257  -0.340  0.00  0.00    -0.016 A 
ATOM      8  C8  IND d   1      -0.341  -1.245  -1.301  0.00  0.00    -0.047 A 
ATOM      9  C9  IND d   1      -0.854  -2.511  -0.987  0.00  0.00    -0.096 A 
ATOM     10  HN1 IND d   1       0.313  -0.595  -3.081  0.00  0.00     0.298 HD
ENDROOT
TORSDOF 0
ENDMDL
