MODEL 1
REMARK minimizedAffinity -2.12199211
REMARK minimizedRMSD -1
REMARK  0 active torsions:
REMARK  status: ('A' for Active; 'I' for Inactive)
ROOT
ATOM      1  N1  IND d   1      -0.084  -1.181  -2.512  0.00  0.00    -0.196 N 
ATOM      2  C2  IND d   1      -0.341  -2.457  -2.928  0.00  0.00     0.054 A 
ATOM      3  C3  IND d   1      -0.742  -3.220  -1.887  0.00  0.00    -0.031 A 
ATOM      4  C4  IND d   1      -1.145  -2.555   0.568  0.00  0.00     0.051 A 
ATOM      5  C5  IND d   1      -1.012  -1.508   1.436  0.00  0.00    -0.031 A 
ATOM      6  C6  IND d   1      -0.556  -0.273   1.024  0.00  0.00     0.015 A 
ATOM      7  C7  IND d   1      -0.225  -0.034  -0.280  0.00  0.00    -0.016 A 
ATOM      8  C8  IND d   1      -0.353  -1.097  -1.163  0.00  0.00    -0.047 A 
ATOM      9  C9  IND d   1      -0.774  -2.365  -0.743  0.00  0.00    -0.096 A 
ATOM     10  HN1 IND d   1       0.198  -0.538  -3.009  0.00  0.00     0.298 HD
ENDROOT
TORSDOF 0
ENDMDL
