MODEL 1
REMARK minimizedAffinity -3.15159583
REMARK minimizedRMSD -1
REMARK  0 active torsions:
REMARK  status: ('A' for Active; 'I' for Inactive)
ROOT
ATOM      1  N1  IND d   1       1.723   2.473   1.446  0.00  0.00    -0.196 N 
ATOM      2  C2  IND d   1       1.584   3.549   0.615  0.00  0.00     0.054 A 
ATOM      3  C3  IND d   1       0.794   3.232  -0.436  0.00  0.00    -0.031 A 
ATOM      4  C4  IND d   1      -0.458   1.039  -0.938  0.00  0.00     0.051 A 
ATOM      5  C5  IND d   1      -0.610  -0.242  -0.487  0.00  0.00    -0.031 A 
ATOM      6  C6  IND d   1       0.018  -0.692   0.656  0.00  0.00     0.015 A 
ATOM      7  C7  IND d   1       0.817   0.129   1.400  0.00  0.00    -0.016 A 
ATOM      8  C8  IND d   1       0.979   1.429   0.942  0.00  0.00    -0.047 A 
ATOM      9  C9  IND d   1       0.378   1.879  -0.241  0.00  0.00    -0.096 A 
ATOM     10  HN1 IND d   1       2.196   2.451   2.164  0.00  0.00     0.298 HD
ENDROOT
TORSDOF 0
ENDMDL
