MODEL 1
REMARK minimizedAffinity 11.050518
REMARK minimizedRMSD -1
REMARK  0 active torsions:
REMARK  status: ('A' for Active; 'I' for Inactive)
ROOT
ATOM      1  O1  BZF d   1      -3.836  -1.824  -4.974  0.00  0.00    -0.204 OA
ATOM      2  C2  BZF d   1      -4.977  -1.069  -5.161  0.00  0.00     0.174 A 
ATOM      3  C3  BZF d   1      -5.986  -1.834  -5.626  0.00  0.00    -0.012 A 
ATOM      4  C3A BZF d   1      -5.467  -3.167  -5.649  0.00  0.00    -0.107 A 
ATOM      5  C4  BZF d   1      -5.998  -4.376  -6.000  0.00  0.00     0.055 A 
ATOM      6  C5  BZF d   1      -5.204  -5.478  -5.977  0.00  0.00    -0.016 A 
ATOM      7  C6  BZF d   1      -3.875  -5.408  -5.614  0.00  0.00     0.022 A 
ATOM      8  C7  BZF d   1      -3.305  -4.232  -5.253  0.00  0.00     0.029 A 
ATOM      9  C7A BZF d   1      -4.113  -3.122  -5.243  0.00  0.00     0.058 A 
ENDROOT
TORSDOF 0
ENDMDL
