MODEL 1
REMARK minimizedAffinity 4.48162794
REMARK minimizedRMSD -1
REMARK  0 active torsions:
REMARK  status: ('A' for Active; 'I' for Inactive)
ROOT
ATOM      1  O1  BZF d   1      -2.049   5.017  -4.004  0.00  0.00    -0.204 OA
ATOM      2  C2  BZF d   1      -2.589   5.717  -5.065  0.00  0.00     0.174 A 
ATOM      3  C3  BZF d   1      -1.644   5.994  -5.986  0.00  0.00    -0.012 A 
ATOM      4  C3A BZF d   1      -0.456   5.351  -5.512  0.00  0.00    -0.107 A 
ATOM      5  C4  BZF d   1       0.815   5.250  -5.999  0.00  0.00     0.055 A 
ATOM      6  C5  BZF d   1       1.758   4.614  -5.256  0.00  0.00    -0.016 A 
ATOM      7  C6  BZF d   1       1.467   4.072  -4.022  0.00  0.00     0.022 A 
ATOM      8  C7  BZF d   1       0.218   4.143  -3.499  0.00  0.00     0.029 A 
ATOM      9  C7A BZF d   1      -0.745   4.757  -4.261  0.00  0.00     0.058 A 
ENDROOT
TORSDOF 0
ENDMDL
