MODEL 1
REMARK minimizedAffinity 4.91667557
REMARK minimizedRMSD -1
REMARK  0 active torsions:
REMARK  status: ('A' for Active; 'I' for Inactive)
ROOT
ATOM      1  O1  BZF d   1       2.238   3.515  -4.120  0.00  0.00    -0.204 OA
ATOM      2  C2  BZF d   1       2.198   3.479  -2.739  0.00  0.00     0.174 A 
ATOM      3  C3  BZF d   1       1.120   4.144  -2.274  0.00  0.00    -0.012 A 
ATOM      4  C3A BZF d   1       0.395   4.546  -3.440  0.00  0.00    -0.107 A 
ATOM      5  C4  BZF d   1      -0.773   5.228  -3.630  0.00  0.00     0.055 A 
ATOM      6  C5  BZF d   1      -1.168   5.521  -4.897  0.00  0.00    -0.016 A 
ATOM      7  C6  BZF d   1      -0.419   5.152  -5.995  0.00  0.00     0.022 A 
ATOM      8  C7  BZF d   1       0.744   4.470  -5.857  0.00  0.00     0.029 A 
ATOM      9  C7A BZF d   1       1.129   4.144  -4.579  0.00  0.00     0.058 A 
ENDROOT
TORSDOF 0
ENDMDL
