MODEL 1
REMARK minimizedAffinity 7.8602972
REMARK minimizedRMSD -1
REMARK  0 active torsions:
REMARK  status: ('A' for Active; 'I' for Inactive)
ROOT
ATOM      1  O1  BZF d   1      -3.521   0.503   5.754  0.00  0.00    -0.204 OA
ATOM      2  C2  BZF d   1      -2.344   1.153   5.432  0.00  0.00     0.174 A 
ATOM      3  C3  BZF d   1      -2.030   0.958   4.135  0.00  0.00    -0.012 A 
ATOM      4  C3A BZF d   1      -3.123   0.212   3.591  0.00  0.00    -0.107 A 
ATOM      5  C4  BZF d   1      -3.400  -0.273   2.345  0.00  0.00     0.055 A 
ATOM      6  C5  BZF d   1      -4.518  -1.023   2.162  0.00  0.00    -0.016 A 
ATOM      7  C6  BZF d   1      -5.376  -1.313   3.202  0.00  0.00     0.022 A 
ATOM      8  C7  BZF d   1      -5.145  -0.851   4.455  0.00  0.00     0.029 A 
ATOM      9  C7A BZF d   1      -4.034  -0.064   4.636  0.00  0.00     0.058 A 
ENDROOT
TORSDOF 0
ENDMDL
