MODEL 1
REMARK minimizedAffinity 13.368432
REMARK minimizedRMSD -1
REMARK  0 active torsions:
REMARK  status: ('A' for Active; 'I' for Inactive)
ROOT
ATOM      1  O1  BZF d   1       3.869   2.337   2.937  0.00  0.00    -0.204 OA
ATOM      2  C2  BZF d   1       5.170   2.700   3.225  0.00  0.00     0.174 A 
ATOM      3  C3  BZF d   1       6.000   1.644   3.100  0.00  0.00    -0.012 A 
ATOM      4  C3A BZF d   1       5.179   0.575   2.620  0.00  0.00    -0.107 A 
ATOM      5  C4  BZF d   1       5.431  -0.725   2.287  0.00  0.00     0.055 A 
ATOM      6  C5  BZF d   1       4.395  -1.526   1.922  0.00  0.00    -0.016 A 
ATOM      7  C6  BZF d   1       3.097  -1.062   1.885  0.00  0.00     0.022 A 
ATOM      8  C7  BZF d   1       2.798   0.222   2.202  0.00  0.00     0.029 A 
ATOM      9  C7A BZF d   1       3.847   1.042   2.539  0.00  0.00     0.058 A 
ENDROOT
TORSDOF 0
ENDMDL
