MODEL 1
REMARK minimizedAffinity 6.47013187
REMARK minimizedRMSD -1
REMARK  0 active torsions:
REMARK  status: ('A' for Active; 'I' for Inactive)
ROOT
ATOM      1  O1  BZF d   1       3.919   2.747   3.357  0.00  0.00    -0.204 OA
ATOM      2  C2  BZF d   1       5.240   3.008   3.662  0.00  0.00     0.174 A 
ATOM      3  C3  BZF d   1       5.999   1.908   3.480  0.00  0.00    -0.012 A 
ATOM      4  C3A BZF d   1       5.111   0.923   2.944  0.00  0.00    -0.107 A 
ATOM      5  C4  BZF d   1       5.277  -0.372   2.541  0.00  0.00     0.055 A 
ATOM      6  C5  BZF d   1       4.192  -1.082   2.136  0.00  0.00    -0.016 A 
ATOM      7  C6  BZF d   1       2.927  -0.532   2.125  0.00  0.00     0.022 A 
ATOM      8  C7  BZF d   1       2.713   0.750   2.511  0.00  0.00     0.029 A 
ATOM      9  C7A BZF d   1       3.812   1.480   2.890  0.00  0.00     0.058 A 
ENDROOT
TORSDOF 0
ENDMDL
