MODEL 1
REMARK minimizedAffinity 5.74427414
REMARK minimizedRMSD -1
REMARK  0 active torsions:
REMARK  status: ('A' for Active; 'I' for Inactive)
ROOT
ATOM      1  O1  BZF d   1      -0.115  -3.742   0.111  0.00  0.00    -0.204 OA
ATOM      2  C2  BZF d   1      -1.414  -3.718  -0.358  0.00  0.00     0.174 A 
ATOM      3  C3  BZF d   1      -2.173  -2.877   0.374  0.00  0.00    -0.012 A 
ATOM      4  C3A BZF d   1      -1.271  -2.272   1.306  0.00  0.00    -0.107 A 
ATOM      5  C4  BZF d   1      -1.425  -1.337   2.290  0.00  0.00     0.055 A 
ATOM      6  C5  BZF d   1      -0.359  -1.017   3.069  0.00  0.00    -0.016 A 
ATOM      7  C6  BZF d   1       0.873  -1.614   2.896  0.00  0.00     0.022 A 
ATOM      8  C7  BZF d   1       1.075  -2.543   1.930  0.00  0.00     0.029 A 
ATOM      9  C7A BZF d   1       0.008  -2.845   1.119  0.00  0.00     0.058 A 
ENDROOT
TORSDOF 0
ENDMDL
