MODEL 1
REMARK minimizedAffinity 8.74104309
REMARK minimizedRMSD -1
REMARK  0 active torsions:
REMARK  status: ('A' for Active; 'I' for Inactive)
ROOT
ATOM      1  O1  BZF d   1       2.486   1.137   1.525  0.00  0.00    -0.204 OA
ATOM      2  C2  BZF d   1       2.732  -0.221   1.453  0.00  0.00     0.174 A 
ATOM      3  C3  BZF d   1       3.993  -0.500   1.839  0.00  0.00    -0.012 A 
ATOM      4  C3A BZF d   1       4.544   0.751   2.261  0.00  0.00    -0.107 A 
ATOM      5  C4  BZF d   1       5.757   1.120   2.766  0.00  0.00     0.055 A 
ATOM      6  C5  BZF d   1       6.000   2.435   3.008  0.00  0.00    -0.016 A 
ATOM      7  C6  BZF d   1       5.055   3.407   2.752  0.00  0.00     0.022 A 
ATOM      8  C7  BZF d   1       3.834   3.089   2.255  0.00  0.00     0.029 A 
ATOM      9  C7A BZF d   1       3.575   1.757   2.041  0.00  0.00     0.058 A 
ENDROOT
TORSDOF 0
ENDMDL
