MODEL 1
REMARK minimizedAffinity 14.5373964
REMARK minimizedRMSD -1
REMARK  0 active torsions:
REMARK  status: ('A' for Active; 'I' for Inactive)
ROOT
ATOM      1  O1  BZF d   1       1.991   3.600   1.123  0.00  0.00    -0.204 OA
ATOM      2  C2  BZF d   1       2.174   4.969   1.172  0.00  0.00     0.174 A 
ATOM      3  C3  BZF d   1       2.245   5.487  -0.070  0.00  0.00    -0.012 A 
ATOM      4  C3A BZF d   1       2.005   4.386  -0.952  0.00  0.00    -0.107 A 
ATOM      5  C4  BZF d   1       1.933   4.270  -2.311  0.00  0.00     0.055 A 
ATOM      6  C5  BZF d   1       1.758   3.039  -2.860  0.00  0.00    -0.016 A 
ATOM      7  C6  BZF d   1       1.656   1.905  -2.082  0.00  0.00     0.022 A 
ATOM      8  C7  BZF d   1       1.716   1.971  -0.729  0.00  0.00     0.029 A 
ATOM      9  C7A BZF d   1       1.861   3.217  -0.170  0.00  0.00     0.058 A 
ENDROOT
TORSDOF 0
ENDMDL
