MODEL 1
REMARK minimizedAffinity 12.9397335
REMARK minimizedRMSD -1
REMARK  0 active torsions:
REMARK  status: ('A' for Active; 'I' for Inactive)
ROOT
ATOM      1  O1  BZF d   1      -2.075   4.720  -4.075  0.00  0.00    -0.204 OA
ATOM      2  C2  BZF d   1      -2.801   5.373  -5.051  0.00  0.00     0.174 A 
ATOM      3  C3  BZF d   1      -1.980   5.996  -5.921  0.00  0.00    -0.012 A 
ATOM      4  C3A BZF d   1      -0.657   5.638  -5.513  0.00  0.00    -0.107 A 
ATOM      5  C4  BZF d   1       0.587   5.933  -5.995  0.00  0.00     0.055 A 
ATOM      6  C5  BZF d   1       1.679   5.484  -5.322  0.00  0.00    -0.016 A 
ATOM      7  C6  BZF d   1       1.565   4.743  -4.164  0.00  0.00     0.022 A 
ATOM      8  C7  BZF d   1       0.353   4.421  -3.651  0.00  0.00     0.029 A 
ATOM      9  C7A BZF d   1      -0.753   4.845  -4.346  0.00  0.00     0.058 A 
ENDROOT
TORSDOF 0
ENDMDL
