MODEL 1
REMARK minimizedAffinity 16.1060982
REMARK minimizedRMSD -1
REMARK  0 active torsions:
REMARK  status: ('A' for Active; 'I' for Inactive)
ROOT
ATOM      1  O1  BZF d   1       0.017  -4.115   1.592  0.00  0.00    -0.204 OA
ATOM      2  C2  BZF d   1      -0.744  -3.743   0.501  0.00  0.00     0.174 A 
ATOM      3  C3  BZF d   1      -1.319  -2.540   0.706  0.00  0.00    -0.012 A 
ATOM      4  C3A BZF d   1      -0.816  -2.093   1.968  0.00  0.00    -0.107 A 
ATOM      5  C4  BZF d   1      -1.008  -0.961   2.708  0.00  0.00     0.055 A 
ATOM      6  C5  BZF d   1      -0.428  -0.866   3.933  0.00  0.00    -0.016 A 
ATOM      7  C6  BZF d   1       0.345  -1.884   4.451  0.00  0.00     0.022 A 
ATOM      8  C7  BZF d   1       0.569  -3.024   3.753  0.00  0.00     0.029 A 
ATOM      9  C7A BZF d   1       0.010  -3.110   2.501  0.00  0.00     0.058 A 
ENDROOT
TORSDOF 0
ENDMDL
