MODEL 1
REMARK minimizedAffinity 2.73352003
REMARK minimizedRMSD -1
REMARK  0 active torsions:
REMARK  status: ('A' for Active; 'I' for Inactive)
ROOT
ATOM      1  O1  BZF d   1      -4.095   4.972  -2.048  0.00  0.00    -0.204 OA
ATOM      2  C2  BZF d   1      -5.367   5.452  -1.805  0.00  0.00     0.174 A 
ATOM      3  C3  BZF d   1      -5.904   5.976  -2.926  0.00  0.00    -0.012 A 
ATOM      4  C3A BZF d   1      -4.940   5.729  -3.955  0.00  0.00    -0.107 A 
ATOM      5  C4  BZF d   1      -4.905   6.000  -5.293  0.00  0.00     0.055 A 
ATOM      6  C5  BZF d   1      -3.786   5.693  -6.000  0.00  0.00    -0.016 A 
ATOM      7  C6  BZF d   1      -2.683   5.121  -5.401  0.00  0.00     0.022 A 
ATOM      8  C7  BZF d   1      -2.672   4.829  -4.078  0.00  0.00     0.029 A 
ATOM      9  C7A BZF d   1      -3.814   5.108  -3.367  0.00  0.00     0.058 A 
ENDROOT
TORSDOF 0
ENDMDL
