MODEL 1
REMARK minimizedAffinity 4.81630611
REMARK minimizedRMSD -1
REMARK  0 active torsions:
REMARK  status: ('A' for Active; 'I' for Inactive)
ROOT
ATOM      1  O1  BZF d   1      -4.825   5.947  -4.725  0.00  0.00    -0.204 OA
ATOM      2  C2  BZF d   1      -5.135   5.972  -3.379  0.00  0.00     0.174 A 
ATOM      3  C3  BZF d   1      -4.014   5.940  -2.630  0.00  0.00    -0.012 A 
ATOM      4  C3A BZF d   1      -2.933   5.987  -3.567  0.00  0.00    -0.107 A 
ATOM      5  C4  BZF d   1      -1.574   6.000  -3.433  0.00  0.00     0.055 A 
ATOM      6  C5  BZF d   1      -0.801   5.974  -4.550  0.00  0.00    -0.016 A 
ATOM      7  C6  BZF d   1      -1.351   5.930  -5.814  0.00  0.00     0.022 A 
ATOM      8  C7  BZF d   1      -2.694   5.921  -5.997  0.00  0.00     0.029 A 
ATOM      9  C7A BZF d   1      -3.479   5.980  -4.872  0.00  0.00     0.058 A 
ENDROOT
TORSDOF 0
ENDMDL
