MODEL 1
REMARK minimizedAffinity 5.44829035
REMARK minimizedRMSD -1
REMARK  0 active torsions:
REMARK  status: ('A' for Active; 'I' for Inactive)
ROOT
ATOM      1  O1  BZF d   1      -4.406   0.960  -1.462  0.00  0.00    -0.204 OA
ATOM      2  C2  BZF d   1      -3.982   0.020  -2.382  0.00  0.00     0.174 A 
ATOM      3  C3  BZF d   1      -3.099  -0.832  -1.822  0.00  0.00    -0.012 A 
ATOM      4  C3A BZF d   1      -3.032  -0.454  -0.444  0.00  0.00    -0.107 A 
ATOM      5  C4  BZF d   1      -2.339  -0.935   0.630  0.00  0.00     0.055 A 
ATOM      6  C5  BZF d   1      -2.441  -0.295   1.823  0.00  0.00    -0.016 A 
ATOM      7  C6  BZF d   1      -3.222   0.832   1.978  0.00  0.00     0.022 A 
ATOM      8  C7  BZF d   1      -3.932   1.344   0.944  0.00  0.00     0.029 A 
ATOM      9  C7A BZF d   1      -3.857   0.680  -0.256  0.00  0.00     0.058 A 
ENDROOT
TORSDOF 0
ENDMDL
