MODEL 1
REMARK minimizedAffinity 7.86389589
REMARK minimizedRMSD -1
REMARK  0 active torsions:
REMARK  status: ('A' for Active; 'I' for Inactive)
ROOT
ATOM      1  O1  BZF d   1      -0.399   5.398  -5.992  0.00  0.00    -0.204 OA
ATOM      2  C2  BZF d   1       0.491   5.008  -5.010  0.00  0.00     0.174 A 
ATOM      3  C3  BZF d   1      -0.118   4.948  -3.808  0.00  0.00    -0.012 A 
ATOM      4  C3A BZF d   1      -1.496   5.235  -4.070  0.00  0.00    -0.107 A 
ATOM      5  C4  BZF d   1      -2.606   5.309  -3.278  0.00  0.00     0.055 A 
ATOM      6  C5  BZF d   1      -3.789   5.683  -3.833  0.00  0.00    -0.016 A 
ATOM      7  C6  BZF d   1      -3.896   5.995  -5.172  0.00  0.00     0.022 A 
ATOM      8  C7  BZF d   1      -2.823   5.931  -5.998  0.00  0.00     0.029 A 
ATOM      9  C7A BZF d   1      -1.634   5.522  -5.448  0.00  0.00     0.058 A 
ENDROOT
TORSDOF 0
ENDMDL
