MODEL 1
REMARK minimizedAffinity 12.6248331
REMARK minimizedRMSD -1
REMARK  0 active torsions:
REMARK  status: ('A' for Active; 'I' for Inactive)
ROOT
ATOM      1  O1  BZF d   1      -1.533  -0.160   2.191  0.00  0.00    -0.204 OA
ATOM      2  C2  BZF d   1      -1.439  -1.488   1.819  0.00  0.00     0.174 A 
ATOM      3  C3  BZF d   1      -2.330  -1.777   0.849  0.00  0.00    -0.012 A 
ATOM      4  C3A BZF d   1      -2.961  -0.531   0.534  0.00  0.00    -0.107 A 
ATOM      5  C4  BZF d   1      -3.924  -0.167  -0.363  0.00  0.00     0.055 A 
ATOM      6  C5  BZF d   1      -4.370   1.116  -0.368  0.00  0.00    -0.016 A 
ATOM      7  C6  BZF d   1      -3.879   2.059   0.511  0.00  0.00     0.022 A 
ATOM      8  C7  BZF d   1      -2.920   1.746   1.416  0.00  0.00     0.029 A 
ATOM      9  C7A BZF d   1      -2.443   0.458   1.401  0.00  0.00     0.058 A 
ENDROOT
TORSDOF 0
ENDMDL
