MODEL 1
REMARK minimizedAffinity 5.38424778
REMARK minimizedRMSD -1
REMARK  0 active torsions:
REMARK  status: ('A' for Active; 'I' for Inactive)
ROOT
ATOM      1  O1  BZF d   1      -1.536  -4.108  -4.509  0.00  0.00    -0.204 OA
ATOM      2  C2  BZF d   1      -0.752  -5.070  -5.115  0.00  0.00     0.174 A 
ATOM      3  C3  BZF d   1      -1.518  -5.989  -5.738  0.00  0.00    -0.012 A 
ATOM      4  C3A BZF d   1      -2.862  -5.524  -5.584  0.00  0.00    -0.107 A 
ATOM      5  C4  BZF d   1      -4.073  -6.000  -6.000  0.00  0.00     0.055 A 
ATOM      6  C5  BZF d   1      -5.204  -5.348  -5.622  0.00  0.00    -0.016 A 
ATOM      7  C6  BZF d   1      -5.161  -4.223  -4.825  0.00  0.00     0.022 A 
ATOM      8  C7  BZF d   1      -3.983  -3.711  -4.392  0.00  0.00     0.029 A 
ATOM      9  C7A BZF d   1      -2.837  -4.348  -4.800  0.00  0.00     0.058 A 
ENDROOT
TORSDOF 0
ENDMDL
