MODEL 1
REMARK minimizedAffinity 5.3819418
REMARK minimizedRMSD -1
REMARK  0 active torsions:
REMARK  status: ('A' for Active; 'I' for Inactive)
ROOT
ATOM      1  O1  BZF d   1      -2.682   0.117   2.490  0.00  0.00    -0.204 OA
ATOM      2  C2  BZF d   1      -1.869  -1.000   2.471  0.00  0.00     0.174 A 
ATOM      3  C3  BZF d   1      -1.777  -1.504   1.224  0.00  0.00    -0.012 A 
ATOM      4  C3A BZF d   1      -2.509  -0.595   0.396  0.00  0.00    -0.107 A 
ATOM      5  C4  BZF d   1      -2.768  -0.546  -0.944  0.00  0.00     0.055 A 
ATOM      6  C5  BZF d   1      -3.577   0.434  -1.425  0.00  0.00    -0.016 A 
ATOM      7  C6  BZF d   1      -4.147   1.378  -0.595  0.00  0.00     0.022 A 
ATOM      8  C7  BZF d   1      -3.915   1.373   0.740  0.00  0.00     0.029 A 
ATOM      9  C7A BZF d   1      -3.071   0.403   1.225  0.00  0.00     0.058 A 
ENDROOT
TORSDOF 0
ENDMDL
