MODEL 1
REMARK minimizedAffinity -5.39532566
REMARK minimizedRMSD -1
REMARK  1 active torsions:
REMARK  status: ('A' for Active; 'I' for Inactive)
REMARK    1  A    between atoms: C1_2  and  C2_3 
ROOT
ATOM      1  C2  UNL d   1       0.231   0.541   0.613  0.00  0.00    -0.077 A 
ATOM      2  C3  UNL d   1       0.010   1.639  -0.231  0.00  0.00     0.002 A 
ATOM      3  C4  UNL d   1       0.706   2.833  -0.033  0.00  0.00     0.002 A 
ATOM      4  C5  UNL d   1       1.630   2.940   1.004  0.00  0.00    -0.004 A 
ATOM      5  C6  UNL d   1       1.855   1.855   1.850  0.00  0.00     0.002 A 
ATOM      6  C7  UNL d   1       1.160   0.660   1.654  0.00  0.00     0.002 A 
ENDROOT
BRANCH   1   7
ATOM      7  C1  UNL d   1      -0.481  -0.763   0.371  0.00  0.00     0.055 C 
ATOM      8  C   UNL d   1       0.373  -1.717  -0.453  0.00  0.00     0.019 C 
ENDBRANCH   1   7
TORSDOF 1
ENDMDL
