MODEL 1
REMARK minimizedAffinity -2.98736763
REMARK minimizedRMSD -1
REMARK  1 active torsions:
REMARK  status: ('A' for Active; 'I' for Inactive)
REMARK    1  A    between atoms: C1_2  and  C2_3 
ROOT
ATOM      1  C2  UNL d   1       0.648   1.856   0.387  0.00  0.00    -0.077 A 
ATOM      2  C3  UNL d   1      -0.429   1.554   1.232  0.00  0.00     0.002 A 
ATOM      3  C4  UNL d   1      -1.052   0.306   1.165  0.00  0.00     0.002 A 
ATOM      4  C5  UNL d   1      -0.601  -0.651   0.258  0.00  0.00    -0.004 A 
ATOM      5  C6  UNL d   1       0.468  -0.360  -0.588  0.00  0.00     0.002 A 
ATOM      6  C7  UNL d   1       1.091   0.887  -0.523  0.00  0.00     0.002 A 
ENDROOT
BRANCH   1   7
ATOM      7  C1  UNL d   1       1.353   3.183   0.493  0.00  0.00     0.055 C 
ATOM      8  C   UNL d   1       2.284   3.222   1.695  0.00  0.00     0.019 C 
ENDBRANCH   1   7
TORSDOF 1
ENDMDL
