MODEL 1
REMARK minimizedAffinity -2.99527836
REMARK minimizedRMSD -1
REMARK  1 active torsions:
REMARK  status: ('A' for Active; 'I' for Inactive)
REMARK    1  A    between atoms: C1_2  and  C2_3 
ROOT
ATOM      1  C2  UNL d   1       0.320   1.076  -0.091  0.00  0.00    -0.077 A 
ATOM      2  C3  UNL d   1       0.760  -0.074  -0.761  0.00  0.00     0.002 A 
ATOM      3  C4  UNL d   1       0.250  -1.329  -0.420  0.00  0.00     0.002 A 
ATOM      4  C5  UNL d   1      -0.705  -1.444   0.587  0.00  0.00    -0.004 A 
ATOM      5  C6  UNL d   1      -1.148  -0.306   1.261  0.00  0.00     0.002 A 
ATOM      6  C7  UNL d   1      -0.639   0.948   0.922  0.00  0.00     0.002 A 
ENDROOT
BRANCH   1   7
ATOM      7  C1  UNL d   1       0.832   2.435  -0.490  0.00  0.00     0.055 C 
ATOM      8  C   UNL d   1       0.534   3.475   0.579  0.00  0.00     0.019 C 
ENDBRANCH   1   7
TORSDOF 1
ENDMDL
