MODEL 1
REMARK minimizedAffinity -4.26997423
REMARK minimizedRMSD -1
REMARK  1 active torsions:
REMARK  status: ('A' for Active; 'I' for Inactive)
REMARK    1  A    between atoms: C1_2  and  C2_3 
ROOT
ATOM      1  C2  UNL d   1       0.277  -0.009   0.166  0.00  0.00    -0.077 A 
ATOM      2  C3  UNL d   1       0.153  -1.249  -0.476  0.00  0.00     0.002 A 
ATOM      3  C4  UNL d   1      -0.435  -2.331   0.183  0.00  0.00     0.002 A 
ATOM      4  C5  UNL d   1      -0.907  -2.182   1.485  0.00  0.00    -0.004 A 
ATOM      5  C6  UNL d   1      -0.787  -0.953   2.133  0.00  0.00     0.002 A 
ATOM      6  C7  UNL d   1      -0.199   0.128   1.477  0.00  0.00     0.002 A 
ENDROOT
BRANCH   1   7
ATOM      7  C1  UNL d   1       0.866   1.171  -0.560  0.00  0.00     0.055 C 
ATOM      8  C   UNL d   1       0.977   2.384   0.353  0.00  0.00     0.019 C 
ENDBRANCH   1   7
TORSDOF 1
ENDMDL
