MODEL 1
REMARK minimizedAffinity -2.28732371
REMARK minimizedRMSD -1
REMARK  1 active torsions:
REMARK  status: ('A' for Active; 'I' for Inactive)
REMARK    1  A    between atoms: C1_2  and  C2_3 
ROOT
ATOM      1  C2  UNL d   1       0.380  -0.147   0.807  0.00  0.00    -0.077 A 
ATOM      2  C3  UNL d   1      -0.116   0.964   0.110  0.00  0.00     0.002 A 
ATOM      3  C4  UNL d   1      -0.215   0.938  -1.282  0.00  0.00     0.002 A 
ATOM      4  C5  UNL d   1       0.176  -0.197  -1.989  0.00  0.00    -0.004 A 
ATOM      5  C6  UNL d   1       0.673  -1.306  -1.306  0.00  0.00     0.002 A 
ATOM      6  C7  UNL d   1       0.774  -1.282   0.086  0.00  0.00     0.002 A 
ENDROOT
BRANCH   1   7
ATOM      7  C1  UNL d   1       0.442  -0.140   2.312  0.00  0.00     0.055 C 
ATOM      8  C   UNL d   1      -0.945  -0.275   2.923  0.00  0.00     0.019 C 
ENDBRANCH   1   7
TORSDOF 1
ENDMDL
