MODEL 1
REMARK minimizedAffinity -3.53824115
REMARK minimizedRMSD -1
REMARK  1 active torsions:
REMARK  status: ('A' for Active; 'I' for Inactive)
REMARK    1  A    between atoms: C1_2  and  C2_3 
ROOT
ATOM      1  C2  UNL d   1      -0.365  -0.771   0.163  0.00  0.00    -0.077 A 
ATOM      2  C3  UNL d   1       0.156  -1.413  -0.970  0.00  0.00     0.002 A 
ATOM      3  C4  UNL d   1      -0.010  -2.788  -1.142  0.00  0.00     0.002 A 
ATOM      4  C5  UNL d   1      -0.701  -3.533  -0.188  0.00  0.00    -0.004 A 
ATOM      5  C6  UNL d   1      -1.222  -2.905   0.943  0.00  0.00     0.002 A 
ATOM      6  C7  UNL d   1      -1.055  -1.530   1.117  0.00  0.00     0.002 A 
ENDROOT
BRANCH   1   7
ATOM      7  C1  UNL d   1      -0.228   0.720   0.327  0.00  0.00     0.055 C 
ATOM      8  C   UNL d   1       1.147   1.201  -0.112  0.00  0.00     0.019 C 
ENDBRANCH   1   7
TORSDOF 1
ENDMDL
