MODEL 1
REMARK minimizedAffinity -5.12261486
REMARK minimizedRMSD -1
REMARK  1 active torsions:
REMARK  status: ('A' for Active; 'I' for Inactive)
REMARK    1  A    between atoms: C1_2  and  C2_3 
ROOT
ATOM      1  C2  UNL d   1      -0.396  -2.058  -0.265  0.00  0.00    -0.077 A 
ATOM      2  C3  UNL d   1      -1.185  -1.746   0.851  0.00  0.00     0.002 A 
ATOM      3  C4  UNL d   1      -1.210  -0.444   1.355  0.00  0.00     0.002 A 
ATOM      4  C5  UNL d   1      -0.454   0.556   0.747  0.00  0.00    -0.004 A 
ATOM      5  C6  UNL d   1       0.335   0.254  -0.362  0.00  0.00     0.002 A 
ATOM      6  C7  UNL d   1       0.363  -1.047  -0.867  0.00  0.00     0.002 A 
ENDROOT
BRANCH   1   7
ATOM      7  C1  UNL d   1      -0.405  -3.451  -0.841  0.00  0.00     0.055 C 
ATOM      8  C   UNL d   1       0.050  -4.477   0.186  0.00  0.00     0.019 C 
ENDBRANCH   1   7
TORSDOF 1
ENDMDL
