MODEL 1
REMARK minimizedAffinity -2.91650534
REMARK minimizedRMSD -1
REMARK  1 active torsions:
REMARK  status: ('A' for Active; 'I' for Inactive)
REMARK    1  A    between atoms: C1_2  and  C2_3 
ROOT
ATOM      1  C2  UNL d   1       0.304  -1.683  -0.024  0.00  0.00    -0.077 A 
ATOM      2  C3  UNL d   1       0.594  -1.138  -1.283  0.00  0.00     0.002 A 
ATOM      3  C4  UNL d   1       0.334   0.209  -1.546  0.00  0.00     0.002 A 
ATOM      4  C5  UNL d   1      -0.213   1.021  -0.555  0.00  0.00    -0.004 A 
ATOM      5  C6  UNL d   1      -0.507   0.487   0.699  0.00  0.00     0.002 A 
ATOM      6  C7  UNL d   1      -0.249  -0.859   0.964  0.00  0.00     0.002 A 
ENDROOT
BRANCH   1   7
ATOM      7  C1  UNL d   1       0.629  -3.123   0.277  0.00  0.00     0.055 C 
ATOM      8  C   UNL d   1      -0.613  -3.895   0.696  0.00  0.00     0.019 C 
ENDBRANCH   1   7
TORSDOF 1
ENDMDL
