MODEL 1
REMARK minimizedAffinity -2.52621245
REMARK minimizedRMSD -1
REMARK  1 active torsions:
REMARK  status: ('A' for Active; 'I' for Inactive)
REMARK    1  A    between atoms: C1_2  and  C2_3 
ROOT
ATOM      1  C2  UNL d   1      -0.181   0.796   0.222  0.00  0.00    -0.077 A 
ATOM      2  C3  UNL d   1      -1.507   0.375   0.395  0.00  0.00     0.002 A 
ATOM      3  C4  UNL d   1      -1.787  -0.817   1.066  0.00  0.00     0.002 A 
ATOM      4  C5  UNL d   1      -0.748  -1.594   1.574  0.00  0.00    -0.004 A 
ATOM      5  C6  UNL d   1       0.574  -1.184   1.405  0.00  0.00     0.002 A 
ATOM      6  C7  UNL d   1       0.857   0.006   0.734  0.00  0.00     0.002 A 
ENDROOT
BRANCH   1   7
ATOM      7  C1  UNL d   1       0.122   2.106  -0.458  0.00  0.00     0.055 C 
ATOM      8  C   UNL d   1       1.117   2.930   0.345  0.00  0.00     0.019 C 
ENDBRANCH   1   7
TORSDOF 1
ENDMDL
