MODEL 1
REMARK minimizedAffinity -4.76630163
REMARK minimizedRMSD -1
REMARK  1 active torsions:
REMARK  status: ('A' for Active; 'I' for Inactive)
REMARK    1  A    between atoms: C1_2  and  C2_3 
ROOT
ATOM      1  C2  UNL d   1      -0.320  -0.098   0.050  0.00  0.00    -0.077 A 
ATOM      2  C3  UNL d   1      -0.159  -1.140  -0.874  0.00  0.00     0.002 A 
ATOM      3  C4  UNL d   1      -0.335  -2.467  -0.479  0.00  0.00     0.002 A 
ATOM      4  C5  UNL d   1      -0.677  -2.765   0.838  0.00  0.00    -0.004 A 
ATOM      5  C6  UNL d   1      -0.837  -1.735   1.765  0.00  0.00     0.002 A 
ATOM      6  C7  UNL d   1      -0.660  -0.408   1.373  0.00  0.00     0.002 A 
ENDROOT
BRANCH   1   7
ATOM      7  C1  UNL d   1      -0.178   1.338  -0.385  0.00  0.00     0.055 C 
ATOM      8  C   UNL d   1       1.001   2.011   0.301  0.00  0.00     0.019 C 
ENDBRANCH   1   7
TORSDOF 1
ENDMDL
