MODEL 1
REMARK minimizedAffinity -0.303205401
REMARK minimizedRMSD -1
REMARK  1 active torsions:
REMARK  status: ('A' for Active; 'I' for Inactive)
REMARK    1  A    between atoms: C1_2  and  C2_3 
ROOT
ATOM      1  C2  UNL d   1      -0.629  -2.492  -0.338  0.00  0.00    -0.077 A 
ATOM      2  C3  UNL d   1      -0.367  -1.201  -0.820  0.00  0.00     0.002 A 
ATOM      3  C4  UNL d   1      -0.277  -0.123   0.063  0.00  0.00     0.002 A 
ATOM      4  C5  UNL d   1      -0.442  -0.325   1.431  0.00  0.00    -0.004 A 
ATOM      5  C6  UNL d   1      -0.705  -1.604   1.920  0.00  0.00     0.002 A 
ATOM      6  C7  UNL d   1      -0.797  -2.683   1.039  0.00  0.00     0.002 A 
ENDROOT
BRANCH   1   7
ATOM      7  C1  UNL d   1      -0.678  -3.664  -1.283  0.00  0.00     0.055 C 
ATOM      8  C   UNL d   1      -0.465  -3.222  -2.724  0.00  0.00     0.019 C 
ENDBRANCH   1   7
TORSDOF 1
ENDMDL
