MODEL 1
REMARK minimizedAffinity -4.93645287
REMARK minimizedRMSD -1
REMARK  3 active torsions:
REMARK  status: ('A' for Active; 'I' for Inactive)
REMARK    1  A    between atoms: C3'_2  and  C2'_3 
REMARK    2  A    between atoms: C2'_3  and  C1'_4 
REMARK    3  A    between atoms: C1'_4  and  C1_5 
ROOT
ATOM      1  C1  N4B d   1       0.296  -0.151  -0.163  0.00  0.00    -0.075 A 
ATOM      2  C2  N4B d   1       0.086   1.068  -0.844  0.00  0.00     0.002 A 
ATOM      3  C3  N4B d   1      -0.046   2.237  -0.136  0.00  0.00     0.002 A 
ATOM      4  C4  N4B d   1       0.011   2.210   1.250  0.00  0.00    -0.004 A 
ATOM      5  C5  N4B d   1       0.240   1.032   1.899  0.00  0.00     0.002 A 
ATOM      6  C6  N4B d   1       0.378  -0.150   1.200  0.00  0.00     0.002 A 
ENDROOT
BRANCH   1   7
ATOM      7  C1' N4B d   1       0.360  -1.466  -0.890  0.00  0.00     0.057 C 
BRANCH   7   8
ATOM      8  C2' N4B d   1      -0.765  -1.525  -1.918  0.00  0.00     0.009 C 
BRANCH   8   9
ATOM      9  C3' N4B d   1      -1.444  -2.884  -1.941  0.00  0.00     0.004 C 
ATOM     10  C4' N4B d   1      -0.659  -3.937  -1.217  0.00  0.00     0.003 C 
ENDBRANCH   8   9
ENDBRANCH   7   8
ENDBRANCH   1   7
TORSDOF 3
ENDMDL
