MODEL 1
REMARK minimizedAffinity -6.91669655
REMARK minimizedRMSD -1
REMARK  3 active torsions:
REMARK  status: ('A' for Active; 'I' for Inactive)
REMARK    1  A    between atoms: C3'_2  and  C2'_3 
REMARK    2  A    between atoms: C2'_3  and  C1'_4 
REMARK    3  A    between atoms: C1'_4  and  C1_5 
ROOT
ATOM      1  C1  N4B d   1      -0.353   0.802   0.320  0.00  0.00    -0.075 A 
ATOM      2  C2  N4B d   1      -0.604   1.325   1.608  0.00  0.00     0.002 A 
ATOM      3  C3  N4B d   1      -1.158   2.574   1.746  0.00  0.00     0.002 A 
ATOM      4  C4  N4B d   1      -1.451   3.323   0.617  0.00  0.00    -0.004 A 
ATOM      5  C5  N4B d   1      -1.229   2.801  -0.624  0.00  0.00     0.002 A 
ATOM      6  C6  N4B d   1      -0.676   1.546  -0.778  0.00  0.00     0.002 A 
ENDROOT
BRANCH   1   7
ATOM      7  C1' N4B d   1       0.331  -0.523   0.120  0.00  0.00     0.057 C 
BRANCH   7   8
ATOM      8  C2' N4B d   1       0.098  -0.995  -1.313  0.00  0.00     0.009 C 
BRANCH   8   9
ATOM      9  C3' N4B d   1       0.330  -2.488  -1.463  0.00  0.00     0.004 C 
ATOM     10  C4' N4B d   1      -0.869  -3.211  -2.000  0.00  0.00     0.003 C 
ENDBRANCH   8   9
ENDBRANCH   7   8
ENDBRANCH   1   7
TORSDOF 3
ENDMDL
