MODEL 1
REMARK minimizedAffinity -1.05055654
REMARK minimizedRMSD -1
REMARK  3 active torsions:
REMARK  status: ('A' for Active; 'I' for Inactive)
REMARK    1  A    between atoms: C3'_2  and  C2'_3 
REMARK    2  A    between atoms: C2'_3  and  C1'_4 
REMARK    3  A    between atoms: C1'_4  and  C1_5 
ROOT
ATOM      1  C1  N4B d   1       0.404   2.453   0.460  0.00  0.00    -0.075 A 
ATOM      2  C2  N4B d   1       0.290   1.148  -0.069  0.00  0.00     0.002 A 
ATOM      3  C3  N4B d   1       0.400   0.059   0.761  0.00  0.00     0.002 A 
ATOM      4  C4  N4B d   1       0.641   0.249   2.113  0.00  0.00    -0.004 A 
ATOM      5  C5  N4B d   1       0.725   1.513   2.620  0.00  0.00     0.002 A 
ATOM      6  C6  N4B d   1       0.612   2.616   1.799  0.00  0.00     0.002 A 
ENDROOT
BRANCH   1   7
ATOM      7  C1' N4B d   1       0.377   3.672  -0.421  0.00  0.00     0.057 C 
BRANCH   7   8
ATOM      8  C2' N4B d   1       0.654   4.909   0.427  0.00  0.00     0.009 C 
BRANCH   8   9
ATOM      9  C3' N4B d   1      -0.378   6.000   0.196  0.00  0.00     0.004 C 
ATOM     10  C4' N4B d   1      -1.465   6.000   1.228  0.00  0.00     0.003 C 
ENDBRANCH   8   9
ENDBRANCH   7   8
ENDBRANCH   1   7
TORSDOF 3
ENDMDL
