MODEL 1
REMARK minimizedAffinity -0.347271502
REMARK minimizedRMSD -1
REMARK  3 active torsions:
REMARK  status: ('A' for Active; 'I' for Inactive)
REMARK    1  A    between atoms: C3'_2  and  C2'_3 
REMARK    2  A    between atoms: C2'_3  and  C1'_4 
REMARK    3  A    between atoms: C1'_4  and  C1_5 
ROOT
ATOM      1  C1  N4B d   1      -0.694   2.219   1.034  0.00  0.00    -0.075 A 
ATOM      2  C2  N4B d   1      -0.710   2.103  -0.373  0.00  0.00     0.002 A 
ATOM      3  C3  N4B d   1      -1.879   1.791  -1.022  0.00  0.00     0.002 A 
ATOM      4  C4  N4B d   1      -3.035   1.575  -0.287  0.00  0.00    -0.004 A 
ATOM      5  C5  N4B d   1      -3.017   1.714   1.069  0.00  0.00     0.002 A 
ATOM      6  C6  N4B d   1      -1.850   2.031   1.735  0.00  0.00     0.002 A 
ENDROOT
BRANCH   1   7
ATOM      7  C1' N4B d   1       0.579   2.473   1.795  0.00  0.00     0.057 C 
BRANCH   7   8
ATOM      8  C2' N4B d   1       0.769   1.373   2.835  0.00  0.00     0.009 C 
BRANCH   8   9
ATOM      9  C3' N4B d   1       0.704  -0.012   2.215  0.00  0.00     0.004 C 
ATOM     10  C4' N4B d   1      -0.013  -1.004   3.081  0.00  0.00     0.003 C 
ENDBRANCH   8   9
ENDBRANCH   7   8
ENDBRANCH   1   7
TORSDOF 3
ENDMDL
