MODEL 1
REMARK minimizedAffinity -5.53554344
REMARK minimizedRMSD -1
REMARK  1 active torsions:
REMARK  status: ('A' for Active; 'I' for Inactive)
REMARK    1  A    between atoms: C1_2  and  C2_3 
ROOT
ATOM      1  C2  UNL d   1      -0.148   1.181   0.014  0.00  0.00    -0.073 A 
ATOM      2  C3  UNL d   1      -0.542   2.521   0.096  0.00  0.00    -0.002 A 
ATOM      3  C4  UNL d   1       0.408   3.524   0.290  0.00  0.00     0.004 A 
ATOM      4  C5  UNL d   1       1.761   3.200   0.397  0.00  0.00    -0.004 A 
ATOM      5  C6  UNL d   1       2.175   1.867   0.305  0.00  0.00    -0.075 A 
ATOM      6  C7  UNL d   1       3.626   1.501   0.420  0.00  0.00     0.076 C 
ATOM      7  C8  UNL d   1       1.215   0.865   0.113  0.00  0.00     0.001 A 
ENDROOT
BRANCH   1   8
ATOM      8  C1  UNL d   1      -1.170   0.094  -0.202  0.00  0.00     0.053 C 
ATOM      9  C   UNL d   1      -0.520  -1.253  -0.477  0.00  0.00     0.018 C 
ENDBRANCH   1   8
TORSDOF 1
ENDMDL
