MODEL 1
REMARK minimizedAffinity -4.99204922
REMARK minimizedRMSD -1
REMARK  1 active torsions:
REMARK  status: ('A' for Active; 'I' for Inactive)
REMARK    1  A    between atoms: C1_2  and  C2_3 
ROOT
ATOM      1  C2  UNL d   1      -0.104   0.904   0.166  0.00  0.00    -0.073 A 
ATOM      2  C3  UNL d   1       1.208   0.673   0.595  0.00  0.00    -0.002 A 
ATOM      3  C4  UNL d   1       1.750  -0.612   0.546  0.00  0.00     0.004 A 
ATOM      4  C5  UNL d   1       0.990  -1.676   0.061  0.00  0.00    -0.004 A 
ATOM      5  C6  UNL d   1      -0.319  -1.463  -0.383  0.00  0.00    -0.075 A 
ATOM      6  C7  UNL d   1      -1.150  -2.598  -0.905  0.00  0.00     0.076 C 
ATOM      7  C8  UNL d   1      -0.857  -0.171  -0.328  0.00  0.00     0.001 A 
ENDROOT
BRANCH   1   8
ATOM      8  C1  UNL d   1      -0.691   2.291   0.212  0.00  0.00     0.053 C 
ATOM      9  C   UNL d   1       0.285   3.340  -0.295  0.00  0.00     0.018 C 
ENDBRANCH   1   8
TORSDOF 1
ENDMDL
