MODEL 1
REMARK minimizedAffinity -5.36807013
REMARK minimizedRMSD -1
REMARK  1 active torsions:
REMARK  status: ('A' for Active; 'I' for Inactive)
REMARK    1  A    between atoms: C1_2  and  C2_3 
ROOT
ATOM      1  C2  UNL d   1      -0.003  -0.181   0.049  0.00  0.00    -0.073 A 
ATOM      2  C3  UNL d   1      -1.196  -0.040   0.767  0.00  0.00    -0.002 A 
ATOM      3  C4  UNL d   1      -1.662   1.228   1.117  0.00  0.00     0.004 A 
ATOM      4  C5  UNL d   1      -0.945   2.366   0.748  0.00  0.00    -0.004 A 
ATOM      5  C6  UNL d   1       0.243   2.246   0.020  0.00  0.00    -0.075 A 
ATOM      6  C7  UNL d   1       1.028   3.460  -0.383  0.00  0.00     0.076 C 
ATOM      7  C8  UNL d   1       0.706   0.969  -0.325  0.00  0.00     0.001 A 
ENDROOT
BRANCH   1   8
ATOM      8  C1  UNL d   1       0.501  -1.548  -0.336  0.00  0.00     0.053 C 
ATOM      9  C   UNL d   1      -0.331  -2.171  -1.446  0.00  0.00     0.018 C 
ENDBRANCH   1   8
TORSDOF 1
ENDMDL
