MODEL 1
REMARK minimizedAffinity -1.94470537
REMARK minimizedRMSD -1
REMARK  1 active torsions:
REMARK  status: ('A' for Active; 'I' for Inactive)
REMARK    1  A    between atoms: C1_2  and  C2_3 
ROOT
ATOM      1  C2  UNL d   1       1.213   1.493   0.186  0.00  0.00    -0.073 A 
ATOM      2  C3  UNL d   1       0.316   2.561   0.294  0.00  0.00    -0.002 A 
ATOM      3  C4  UNL d   1      -1.060   2.327   0.305  0.00  0.00     0.004 A 
ATOM      4  C5  UNL d   1      -1.551   1.024   0.215  0.00  0.00    -0.004 A 
ATOM      5  C6  UNL d   1      -0.670  -0.057   0.119  0.00  0.00    -0.075 A 
ATOM      6  C7  UNL d   1      -1.182  -1.464   0.019  0.00  0.00     0.076 C 
ATOM      7  C8  UNL d   1       0.710   0.186   0.106  0.00  0.00     0.001 A 
ENDROOT
BRANCH   1   8
ATOM      8  C1  UNL d   1       2.700   1.740   0.180  0.00  0.00     0.053 C 
ATOM      9  C   UNL d   1       3.161   2.471   1.432  0.00  0.00     0.018 C 
ENDBRANCH   1   8
TORSDOF 1
ENDMDL
