MODEL 1
REMARK minimizedAffinity -6.90340853
REMARK minimizedRMSD -1
REMARK  1 active torsions:
REMARK  status: ('A' for Active; 'I' for Inactive)
REMARK    1  A    between atoms: C1_2  and  C2_3 
ROOT
ATOM      1  C2  UNL d   1       0.967   1.958   0.597  0.00  0.00    -0.073 A 
ATOM      2  C3  UNL d   1      -0.225   2.669   0.769  0.00  0.00    -0.002 A 
ATOM      3  C4  UNL d   1      -1.454   2.012   0.700  0.00  0.00     0.004 A 
ATOM      4  C5  UNL d   1      -1.504   0.638   0.465  0.00  0.00    -0.004 A 
ATOM      5  C6  UNL d   1      -0.322  -0.092   0.302  0.00  0.00    -0.075 A 
ATOM      6  C7  UNL d   1      -0.358  -1.570   0.047  0.00  0.00     0.076 C 
ATOM      7  C8  UNL d   1       0.908   0.575   0.370  0.00  0.00     0.001 A 
ENDROOT
BRANCH   1   8
ATOM      8  C1  UNL d   1       2.297   2.662   0.677  0.00  0.00     0.053 C 
ATOM      9  C   UNL d   1       3.463   1.691   0.581  0.00  0.00     0.018 C 
ENDBRANCH   1   8
TORSDOF 1
ENDMDL
