MODEL 1
REMARK minimizedAffinity -1.1805619
REMARK minimizedRMSD -1
REMARK  1 active torsions:
REMARK  status: ('A' for Active; 'I' for Inactive)
REMARK    1  A    between atoms: C1_2  and  C2_3 
ROOT
ATOM      1  C2  UNL d   1      -0.574  -1.327  -0.453  0.00  0.00    -0.073 A 
ATOM      2  C3  UNL d   1      -1.479  -0.274  -0.280  0.00  0.00    -0.002 A 
ATOM      3  C4  UNL d   1      -1.052   0.941   0.258  0.00  0.00     0.004 A 
ATOM      4  C5  UNL d   1       0.283   1.117   0.621  0.00  0.00    -0.004 A 
ATOM      5  C6  UNL d   1       1.205   0.081   0.444  0.00  0.00    -0.075 A 
ATOM      6  C7  UNL d   1       2.645   0.254   0.831  0.00  0.00     0.076 C 
ATOM      7  C8  UNL d   1       0.769  -1.137  -0.094  0.00  0.00     0.001 A 
ENDROOT
BRANCH   1   8
ATOM      8  C1  UNL d   1      -1.028  -2.639  -1.040  0.00  0.00     0.053 C 
ATOM      9  C   UNL d   1      -0.210  -3.033  -2.259  0.00  0.00     0.018 C 
ENDBRANCH   1   8
TORSDOF 1
ENDMDL
