MODEL 1
REMARK minimizedAffinity -1.90356433
REMARK minimizedRMSD -1
REMARK  1 active torsions:
REMARK  status: ('A' for Active; 'I' for Inactive)
REMARK    1  A    between atoms: C1_2  and  C2_3 
ROOT
ATOM      1  C2  UNL d   1      -0.472  -1.921  -0.600  0.00  0.00    -0.073 A 
ATOM      2  C3  UNL d   1       0.643  -1.867   0.245  0.00  0.00    -0.002 A 
ATOM      3  C4  UNL d   1       0.947  -0.694   0.936  0.00  0.00     0.004 A 
ATOM      4  C5  UNL d   1       0.138   0.434   0.796  0.00  0.00    -0.004 A 
ATOM      5  C6  UNL d   1      -0.987   0.396  -0.035  0.00  0.00    -0.075 A 
ATOM      6  C7  UNL d   1      -1.866   1.600  -0.198  0.00  0.00     0.076 C 
ATOM      7  C8  UNL d   1      -1.284  -0.786  -0.727  0.00  0.00     0.001 A 
ENDROOT
BRANCH   1   8
ATOM      8  C1  UNL d   1      -0.808  -3.188  -1.343  0.00  0.00     0.053 C 
ATOM      9  C   UNL d   1       0.030  -3.350  -2.601  0.00  0.00     0.018 C 
ENDBRANCH   1   8
TORSDOF 1
ENDMDL
