MODEL 1
REMARK minimizedAffinity -4.51554537
REMARK minimizedRMSD -1
REMARK  1 active torsions:
REMARK  status: ('A' for Active; 'I' for Inactive)
REMARK    1  A    between atoms: C1_2  and  C2_3 
ROOT
ATOM      1  C2  UNL d   1       1.614   2.069  -0.093  0.00  0.00    -0.073 A 
ATOM      2  C3  UNL d   1       0.977   3.195  -0.627  0.00  0.00    -0.002 A 
ATOM      3  C4  UNL d   1      -0.415   3.285  -0.622  0.00  0.00     0.004 A 
ATOM      4  C5  UNL d   1      -1.184   2.255  -0.079  0.00  0.00    -0.004 A 
ATOM      5  C6  UNL d   1      -0.565   1.128   0.470  0.00  0.00    -0.075 A 
ATOM      6  C7  UNL d   1      -1.377   0.010   1.056  0.00  0.00     0.076 C 
ATOM      7  C8  UNL d   1       0.834   1.043   0.459  0.00  0.00     0.001 A 
ENDROOT
BRANCH   1   8
ATOM      8  C1  UNL d   1       3.118   1.970  -0.090  0.00  0.00     0.053 C 
ATOM      9  C   UNL d   1       3.617   0.901   0.869  0.00  0.00     0.018 C 
ENDBRANCH   1   8
TORSDOF 1
ENDMDL
