MODEL 1
REMARK minimizedAffinity -4.48733759
REMARK minimizedRMSD -1
REMARK  1 active torsions:
REMARK  status: ('A' for Active; 'I' for Inactive)
REMARK    1  A    between atoms: C1_2  and  C2_3 
ROOT
ATOM      1  C2  UNL d   1       0.011   0.686  -0.109  0.00  0.00    -0.073 A 
ATOM      2  C3  UNL d   1      -0.769   1.848  -0.132  0.00  0.00    -0.002 A 
ATOM      3  C4  UNL d   1      -0.223   3.071   0.260  0.00  0.00     0.004 A 
ATOM      4  C5  UNL d   1       1.108   3.146   0.672  0.00  0.00    -0.004 A 
ATOM      5  C6  UNL d   1       1.906   1.998   0.690  0.00  0.00    -0.075 A 
ATOM      6  C7  UNL d   1       3.339   2.061   1.132  0.00  0.00     0.076 C 
ATOM      7  C8  UNL d   1       1.350   0.773   0.298  0.00  0.00     0.001 A 
ENDROOT
BRANCH   1   8
ATOM      8  C1  UNL d   1      -0.573  -0.636  -0.537  0.00  0.00     0.053 C 
ATOM      9  C   UNL d   1       0.259  -1.811  -0.049  0.00  0.00     0.018 C 
ENDBRANCH   1   8
TORSDOF 1
ENDMDL
