MODEL 1
REMARK minimizedAffinity -3.33111811
REMARK minimizedRMSD -1
REMARK  1 active torsions:
REMARK  status: ('A' for Active; 'I' for Inactive)
REMARK    1  A    between atoms: C1_2  and  C2_3 
ROOT
ATOM      1  C2  UNL d   1      -0.120   0.196   0.036  0.00  0.00    -0.073 A 
ATOM      2  C3  UNL d   1      -1.462   0.404   0.375  0.00  0.00    -0.002 A 
ATOM      3  C4  UNL d   1      -1.940   1.696   0.597  0.00  0.00     0.004 A 
ATOM      4  C5  UNL d   1      -1.086   2.792   0.477  0.00  0.00    -0.004 A 
ATOM      5  C6  UNL d   1       0.255   2.605   0.128  0.00  0.00    -0.075 A 
ATOM      6  C7  UNL d   1       1.188   3.774  -0.003  0.00  0.00     0.076 C 
ATOM      7  C8  UNL d   1       0.729   1.305  -0.091  0.00  0.00     0.001 A 
ENDROOT
BRANCH   1   8
ATOM      8  C1  UNL d   1       0.401  -1.196  -0.211  0.00  0.00     0.053 C 
ATOM      9  C   UNL d   1      -0.472  -1.965  -1.190  0.00  0.00     0.018 C 
ENDBRANCH   1   8
TORSDOF 1
ENDMDL
