MODEL 1
REMARK minimizedAffinity 12.216732
REMARK minimizedRMSD -1
REMARK  1 active torsions:
REMARK  status: ('A' for Active; 'I' for Inactive)
REMARK    1  A    between atoms: N_2  and  C1_3 
ROOT
ATOM      1  C1  UNL d   1       1.913   0.116   0.578  0.00  0.00     0.143 A 
ATOM      2  C2  UNL d   1       1.498   0.818   1.715  0.00  0.00    -0.057 A 
ATOM      3  C3  UNL d   1       0.973   0.150   2.828  0.00  0.00     0.033 A 
ATOM      4  C4  UNL d   1       0.827  -1.233   2.813  0.00  0.00    -0.042 A 
ATOM      5  C5  UNL d   1       1.210  -1.948   1.684  0.00  0.00     0.033 A 
ATOM      6  C6  UNL d   1       1.740  -1.277   0.578  0.00  0.00    -0.057 A 
ENDROOT
BRANCH   1   7
ATOM      7  N   UNL d   1       2.351   0.730  -0.598  0.00  0.00    -0.732 N 
ATOM      8  C   UNL d   1       1.597   0.593  -1.826  0.00  0.00     0.284 C 
ATOM      9  H3  UNL d   1       2.714   1.667  -0.435  0.00  0.00     0.395 HD
ENDBRANCH   1   7
TORSDOF 1
ENDMDL
