MODEL 1
REMARK minimizedAffinity 1.42433381
REMARK minimizedRMSD -1
REMARK  1 active torsions:
REMARK  status: ('A' for Active; 'I' for Inactive)
REMARK    1  A    between atoms: N_2  and  C1_3 
ROOT
ATOM      1  C1  UNL d   1       0.384  -1.096   1.159  0.00  0.00     0.143 A 
ATOM      2  C2  UNL d   1      -0.263  -1.500   2.332  0.00  0.00    -0.057 A 
ATOM      3  C3  UNL d   1       0.106  -2.676   2.997  0.00  0.00     0.033 A 
ATOM      4  C4  UNL d   1       1.113  -3.486   2.483  0.00  0.00    -0.042 A 
ATOM      5  C5  UNL d   1       1.753  -3.117   1.305  0.00  0.00     0.033 A 
ATOM      6  C6  UNL d   1       1.384  -1.938   0.649  0.00  0.00    -0.057 A 
ENDROOT
BRANCH   1   7
ATOM      7  N   UNL d   1      -0.004   0.010   0.399  0.00  0.00    -0.732 N 
ATOM      8  C   UNL d   1      -1.364   0.501   0.452  0.00  0.00     0.284 C 
ATOM      9  H3  UNL d   1       0.703   0.742   0.390  0.00  0.00     0.395 HD
ENDBRANCH   1   7
TORSDOF 1
ENDMDL
