MODEL 1
REMARK minimizedAffinity -1.2389679
REMARK minimizedRMSD -1
REMARK  1 active torsions:
REMARK  status: ('A' for Active; 'I' for Inactive)
REMARK    1  A    between atoms: N_2  and  C1_3 
ROOT
ATOM      1  C1  UNL d   1       2.673  -3.485   1.308  0.00  0.00     0.143 A 
ATOM      2  C2  UNL d   1       3.501  -4.147   0.396  0.00  0.00    -0.057 A 
ATOM      3  C3  UNL d   1       4.491  -5.038   0.827  0.00  0.00     0.033 A 
ATOM      4  C4  UNL d   1       4.692  -5.260   2.186  0.00  0.00    -0.042 A 
ATOM      5  C5  UNL d   1       3.898  -4.593   3.112  0.00  0.00     0.033 A 
ATOM      6  C6  UNL d   1       2.905  -3.710   2.674  0.00  0.00    -0.057 A 
ENDROOT
BRANCH   1   7
ATOM      7  N   UNL d   1       1.736  -2.514   0.946  0.00  0.00    -0.732 N 
ATOM      8  C   UNL d   1       2.100  -1.437   0.050  0.00  0.00     0.284 C 
ATOM      9  H3  UNL d   1       0.816  -2.909   0.770  0.00  0.00     0.395 HD
ENDBRANCH   1   7
TORSDOF 1
ENDMDL
