MODEL 1
REMARK minimizedAffinity -0.57578069
REMARK minimizedRMSD -1
REMARK  1 active torsions:
REMARK  status: ('A' for Active; 'I' for Inactive)
REMARK    1  A    between atoms: N_2  and  C1_3 
ROOT
ATOM      1  C1  UNL d   1       1.287  -2.497   1.062  0.00  0.00     0.143 A 
ATOM      2  C2  UNL d   1       1.490  -3.832   1.426  0.00  0.00    -0.057 A 
ATOM      3  C3  UNL d   1       0.873  -4.378   2.559  0.00  0.00     0.033 A 
ATOM      4  C4  UNL d   1       0.063  -3.587   3.366  0.00  0.00    -0.042 A 
ATOM      5  C5  UNL d   1      -0.133  -2.250   3.038  0.00  0.00     0.033 A 
ATOM      6  C6  UNL d   1       0.480  -1.713   1.902  0.00  0.00    -0.057 A 
ENDROOT
BRANCH   1   7
ATOM      7  N   UNL d   1       1.950  -1.870   0.004  0.00  0.00    -0.732 N 
ATOM      8  C   UNL d   1       1.377  -0.706  -0.637  0.00  0.00     0.284 C 
ATOM      9  H3  UNL d   1       2.954  -1.809   0.157  0.00  0.00     0.395 HD
ENDBRANCH   1   7
TORSDOF 1
ENDMDL
