MODEL 1
REMARK minimizedAffinity -0.0889882371
REMARK minimizedRMSD -1
REMARK  1 active torsions:
REMARK  status: ('A' for Active; 'I' for Inactive)
REMARK    1  A    between atoms: N_2  and  C1_3 
ROOT
ATOM      1  C1  UNL d   1       0.122  -1.418   2.245  0.00  0.00     0.143 A 
ATOM      2  C2  UNL d   1      -0.889  -2.013   3.007  0.00  0.00    -0.057 A 
ATOM      3  C3  UNL d   1      -0.787  -3.340   3.440  0.00  0.00     0.033 A 
ATOM      4  C4  UNL d   1       0.320  -4.108   3.093  0.00  0.00    -0.042 A 
ATOM      5  C5  UNL d   1       1.325  -3.545   2.315  0.00  0.00     0.033 A 
ATOM      6  C6  UNL d   1       1.220  -2.217   1.891  0.00  0.00    -0.057 A 
ENDROOT
BRANCH   1   7
ATOM      7  N   UNL d   1       0.033  -0.134   1.702  0.00  0.00    -0.732 N 
ATOM      8  C   UNL d   1      -1.082   0.233   0.856  0.00  0.00     0.284 C 
ATOM      9  H3  UNL d   1       0.308   0.588   2.364  0.00  0.00     0.395 HD
ENDBRANCH   1   7
TORSDOF 1
ENDMDL
