MODEL 1
REMARK minimizedAffinity -3.94734979
REMARK minimizedRMSD -1
REMARK  0 active torsions:
REMARK  status: ('A' for Active; 'I' for Inactive)
ROOT
ATOM      1  C   UNL d   1       1.517   1.178   0.042  0.00  0.00     0.172 C 
ATOM      2  N   UNL d   1       1.173  -0.220   0.152  0.00  0.00    -0.070 N 
ATOM      3  C1  UNL d   1      -0.068  -0.715   0.452  0.00  0.00    -0.004 A 
ATOM      4  C2  UNL d   1       0.018  -2.091   0.461  0.00  0.00    -0.047 A 
ATOM      5  C3  UNL d   1       1.357  -2.434   0.157  0.00  0.00    -0.047 A 
ATOM      6  C4  UNL d   1       2.050  -1.256  -0.030  0.00  0.00    -0.004 A 
ENDROOT
TORSDOF 0
ENDMDL
