MODEL 1
REMARK minimizedAffinity -3.49536514
REMARK minimizedRMSD -1
REMARK  0 active torsions:
REMARK  status: ('A' for Active; 'I' for Inactive)
ROOT
ATOM      1  C   UNL d   1      -0.517   0.772  -1.195  0.00  0.00     0.172 C 
ATOM      2  N   UNL d   1       0.239  -0.215  -0.461  0.00  0.00    -0.070 N 
ATOM      3  C1  UNL d   1       0.956  -1.244  -1.011  0.00  0.00    -0.004 A 
ATOM      4  C2  UNL d   1       1.529  -1.958   0.019  0.00  0.00    -0.047 A 
ATOM      5  C3  UNL d   1       1.144  -1.337   1.230  0.00  0.00    -0.047 A 
ATOM      6  C4  UNL d   1       0.345  -0.261   0.904  0.00  0.00    -0.004 A 
ENDROOT
TORSDOF 0
ENDMDL
