MODEL 1
REMARK minimizedAffinity -2.29276896
REMARK minimizedRMSD -1
REMARK  0 active torsions:
REMARK  status: ('A' for Active; 'I' for Inactive)
ROOT
ATOM      1  C   UNL d   1       1.974  -1.688   0.867  0.00  0.00     0.172 C 
ATOM      2  N   UNL d   1       0.986  -0.662   0.633  0.00  0.00    -0.070 N 
ATOM      3  C1  UNL d   1       1.138   0.420  -0.193  0.00  0.00    -0.004 A 
ATOM      4  C2  UNL d   1      -0.026   1.157  -0.142  0.00  0.00    -0.047 A 
ATOM      5  C3  UNL d   1      -0.907   0.496   0.746  0.00  0.00    -0.047 A 
ATOM      6  C4  UNL d   1      -0.256  -0.627   1.211  0.00  0.00    -0.004 A 
ENDROOT
TORSDOF 0
ENDMDL
