MODEL 1
REMARK minimizedAffinity -3.32360792
REMARK minimizedRMSD -1
REMARK  0 active torsions:
REMARK  status: ('A' for Active; 'I' for Inactive)
ROOT
ATOM      1  C   UNL d   1      -0.258  -0.161   0.162  0.00  0.00     0.172 C 
ATOM      2  N   UNL d   1      -0.985   0.203  -1.032  0.00  0.00    -0.070 N 
ATOM      3  C1  UNL d   1      -1.359  -0.655  -2.031  0.00  0.00    -0.004 A 
ATOM      4  C2  UNL d   1      -2.030   0.077  -2.987  0.00  0.00    -0.047 A 
ATOM      5  C3  UNL d   1      -2.060   1.421  -2.546  0.00  0.00    -0.047 A 
ATOM      6  C4  UNL d   1      -1.406   1.471  -1.333  0.00  0.00    -0.004 A 
ENDROOT
TORSDOF 0
ENDMDL
