MODEL 1
REMARK minimizedAffinity -2.70595837
REMARK minimizedRMSD -1
REMARK  0 active torsions:
REMARK  status: ('A' for Active; 'I' for Inactive)
ROOT
ATOM      1  C   UNL d   1       0.796  -2.512   0.613  0.00  0.00     0.172 C 
ATOM      2  N   UNL d   1       0.107  -1.256   0.437  0.00  0.00    -0.070 N 
ATOM      3  C1  UNL d   1       0.466  -0.263  -0.436  0.00  0.00    -0.004 A 
ATOM      4  C2  UNL d   1      -0.442   0.765  -0.301  0.00  0.00    -0.047 A 
ATOM      5  C3  UNL d   1      -1.377   0.378   0.687  0.00  0.00    -0.047 A 
ATOM      6  C4  UNL d   1      -1.014  -0.877   1.128  0.00  0.00    -0.004 A 
ENDROOT
TORSDOF 0
ENDMDL
