MODEL 1
REMARK minimizedAffinity -1.38230479
REMARK minimizedRMSD -1
REMARK  0 active torsions:
REMARK  status: ('A' for Active; 'I' for Inactive)
ROOT
ATOM      1  C   UNL d   1       1.751   0.294  -0.664  0.00  0.00     0.172 C 
ATOM      2  N   UNL d   1       1.434  -0.897   0.088  0.00  0.00    -0.070 N 
ATOM      3  C1  UNL d   1       2.344  -1.742   0.665  0.00  0.00    -0.004 A 
ATOM      4  C2  UNL d   1       1.645  -2.753   1.288  0.00  0.00    -0.047 A 
ATOM      5  C3  UNL d   1       0.267  -2.508   1.077  0.00  0.00    -0.047 A 
ATOM      6  C4  UNL d   1       0.165  -1.352   0.332  0.00  0.00    -0.004 A 
ENDROOT
TORSDOF 0
ENDMDL
