MODEL 1
REMARK minimizedAffinity -3.80446434
REMARK minimizedRMSD -1
REMARK  0 active torsions:
REMARK  status: ('A' for Active; 'I' for Inactive)
ROOT
ATOM      1  C   UNL d   1      -0.734   1.107  -0.536  0.00  0.00     0.172 C 
ATOM      2  N   UNL d   1       0.001  -0.105  -0.261  0.00  0.00    -0.070 N 
ATOM      3  C1  UNL d   1      -0.536  -1.276   0.201  0.00  0.00    -0.004 A 
ATOM      4  C2  UNL d   1       0.490  -2.188   0.334  0.00  0.00    -0.047 A 
ATOM      5  C3  UNL d   1       1.685  -1.541  -0.062  0.00  0.00    -0.047 A 
ATOM      6  C4  UNL d   1       1.353  -0.252  -0.425  0.00  0.00    -0.004 A 
ENDROOT
TORSDOF 0
ENDMDL
