MODEL 1
REMARK minimizedAffinity -3.44850349
REMARK minimizedRMSD -1
REMARK  0 active torsions:
REMARK  status: ('A' for Active; 'I' for Inactive)
ROOT
ATOM      1  C   UNL d   1       1.200   0.713  -0.113  0.00  0.00     0.172 C 
ATOM      2  N   UNL d   1       0.549  -0.460   0.422  0.00  0.00    -0.070 N 
ATOM      3  C1  UNL d   1       1.072  -1.725   0.439  0.00  0.00    -0.004 A 
ATOM      4  C2  UNL d   1       0.146  -2.557   1.031  0.00  0.00    -0.047 A 
ATOM      5  C3  UNL d   1      -0.973  -1.764   1.381  0.00  0.00    -0.047 A 
ATOM      6  C4  UNL d   1      -0.697  -0.470   0.992  0.00  0.00    -0.004 A 
ENDROOT
TORSDOF 0
ENDMDL
