MODEL 1
REMARK minimizedAffinity -2.9268055
REMARK minimizedRMSD -1
REMARK  0 active torsions:
REMARK  status: ('A' for Active; 'I' for Inactive)
ROOT
ATOM      1  C   UNL d   1       1.345   0.365  -0.792  0.00  0.00     0.172 C 
ATOM      2  N   UNL d   1       1.131  -0.791   0.046  0.00  0.00    -0.070 N 
ATOM      3  C1  UNL d   1      -0.052  -1.133   0.647  0.00  0.00    -0.004 A 
ATOM      4  C2  UNL d   1       0.156  -2.297   1.355  0.00  0.00    -0.047 A 
ATOM      5  C3  UNL d   1       1.511  -2.666   1.176  0.00  0.00    -0.047 A 
ATOM      6  C4  UNL d   1       2.090  -1.716   0.361  0.00  0.00    -0.004 A 
ENDROOT
TORSDOF 0
ENDMDL
