MODEL 1
REMARK minimizedAffinity -2.90123844
REMARK minimizedRMSD -1
REMARK  0 active torsions:
REMARK  status: ('A' for Active; 'I' for Inactive)
ROOT
ATOM      1  C   UNL d   1       1.504  -2.290   0.528  0.00  0.00     0.172 C 
ATOM      2  N   UNL d   1       0.715  -1.142   0.148  0.00  0.00    -0.070 N 
ATOM      3  C1  UNL d   1      -0.590  -0.919   0.497  0.00  0.00    -0.004 A 
ATOM      4  C2  UNL d   1      -0.977   0.281  -0.060  0.00  0.00    -0.047 A 
ATOM      5  C3  UNL d   1       0.134   0.797  -0.769  0.00  0.00    -0.047 A 
ATOM      6  C4  UNL d   1       1.168  -0.104  -0.623  0.00  0.00    -0.004 A 
ENDROOT
TORSDOF 0
ENDMDL
