MODEL 1
REMARK minimizedAffinity -3.67268538
REMARK minimizedRMSD -1
REMARK  0 active torsions:
REMARK  status: ('A' for Active; 'I' for Inactive)
ROOT
ATOM      1  C   UNL d   1       1.549  -2.552   0.734  0.00  0.00     0.172 C 
ATOM      2  N   UNL d   1       0.955  -1.305   0.315  0.00  0.00    -0.070 N 
ATOM      3  C1  UNL d   1       1.600  -0.300  -0.356  0.00  0.00    -0.004 A 
ATOM      4  C2  UNL d   1       0.692   0.714  -0.572  0.00  0.00    -0.047 A 
ATOM      5  C3  UNL d   1      -0.541   0.305  -0.010  0.00  0.00    -0.047 A 
ATOM      6  C4  UNL d   1      -0.350  -0.949   0.531  0.00  0.00    -0.004 A 
ENDROOT
TORSDOF 0
ENDMDL
