MODEL 1
REMARK minimizedAffinity -4.02775002
REMARK minimizedRMSD -1
REMARK  0 active torsions:
REMARK  status: ('A' for Active; 'I' for Inactive)
ROOT
ATOM      1  C   UNL d   1      -0.736   0.454  -0.325  0.00  0.00     0.172 C 
ATOM      2  N   UNL d   1       0.181  -0.617  -0.014  0.00  0.00    -0.070 N 
ATOM      3  C1  UNL d   1      -0.152  -1.808   0.574  0.00  0.00    -0.004 A 
ATOM      4  C2  UNL d   1       1.000  -2.554   0.699  0.00  0.00    -0.047 A 
ATOM      5  C3  UNL d   1       2.063  -1.783   0.169  0.00  0.00    -0.047 A 
ATOM      6  C4  UNL d   1       1.528  -0.589  -0.265  0.00  0.00    -0.004 A 
ENDROOT
TORSDOF 0
ENDMDL
