MODEL 1
REMARK minimizedAffinity -3.80309272
REMARK minimizedRMSD -1
REMARK  0 active torsions:
REMARK  status: ('A' for Active; 'I' for Inactive)
ROOT
ATOM      1  C   UNL d   1       1.194  -2.564   0.537  0.00  0.00     0.172 C 
ATOM      2  N   UNL d   1       0.536  -1.290   0.369  0.00  0.00    -0.070 N 
ATOM      3  C1  UNL d   1       1.029  -0.223  -0.335  0.00  0.00    -0.004 A 
ATOM      4  C2  UNL d   1       0.106   0.797  -0.256  0.00  0.00    -0.047 A 
ATOM      5  C3  UNL d   1      -0.979   0.328   0.522  0.00  0.00    -0.047 A 
ATOM      6  C4  UNL d   1      -0.687  -0.967   0.895  0.00  0.00    -0.004 A 
ENDROOT
TORSDOF 0
ENDMDL
