MODEL 1
REMARK minimizedAffinity -3.80679417
REMARK minimizedRMSD -1
REMARK  0 active torsions:
REMARK  status: ('A' for Active; 'I' for Inactive)
ROOT
ATOM      1  C   UNL d   1      -0.953   0.747  -0.554  0.00  0.00     0.172 C 
ATOM      2  N   UNL d   1       0.151  -0.068  -0.101  0.00  0.00    -0.070 N 
ATOM      3  C1  UNL d   1       1.477   0.261  -0.196  0.00  0.00    -0.004 A 
ATOM      4  C2  UNL d   1       2.208  -0.774   0.347  0.00  0.00    -0.047 A 
ATOM      5  C3  UNL d   1       1.289  -1.759   0.781  0.00  0.00    -0.047 A 
ATOM      6  C4  UNL d   1       0.023  -1.296   0.491  0.00  0.00    -0.004 A 
ENDROOT
TORSDOF 0
ENDMDL
