MODEL 1
REMARK minimizedAffinity 2.40458512
REMARK minimizedRMSD -1
REMARK  1 active torsions:
REMARK  status: ('A' for Active; 'I' for Inactive)
REMARK    1  A    between atoms: C1_2  and  C2_3 
ROOT
ATOM      1  C2  UNL d   1       3.887  -3.944  -4.447  0.00  0.00    -0.077 A 
ATOM      2  C3  UNL d   1       5.225  -3.638  -4.731  0.00  0.00     0.002 A 
ATOM      3  C4  UNL d   1       6.000  -4.507  -5.502  0.00  0.00     0.002 A 
ATOM      4  C5  UNL d   1       5.444  -5.685  -5.998  0.00  0.00    -0.004 A 
ATOM      5  C6  UNL d   1       4.115  -5.999  -5.719  0.00  0.00     0.002 A 
ATOM      6  C7  UNL d   1       3.339  -5.132  -4.948  0.00  0.00     0.002 A 
ENDROOT
BRANCH   1   7
ATOM      7  C1  UNL d   1       3.035  -2.984  -3.658  0.00  0.00     0.055 C 
ATOM      8  C   UNL d   1       3.783  -1.690  -3.368  0.00  0.00     0.019 C 
ENDBRANCH   1   7
TORSDOF 1
ENDMDL
