MODEL 1
REMARK minimizedAffinity 15.9781971
REMARK minimizedRMSD -1
REMARK  1 active torsions:
REMARK  status: ('A' for Active; 'I' for Inactive)
REMARK    1  A    between atoms: C1_2  and  C2_3 
ROOT
ATOM      1  C2  UNL d   1       3.224  -4.973  -4.865  0.00  0.00    -0.077 A 
ATOM      2  C3  UNL d   1       4.012  -3.903  -4.419  0.00  0.00     0.002 A 
ATOM      3  C4  UNL d   1       5.376  -3.859  -4.715  0.00  0.00     0.002 A 
ATOM      4  C5  UNL d   1       5.962  -4.879  -5.461  0.00  0.00    -0.004 A 
ATOM      5  C6  UNL d   1       5.187  -5.949  -5.907  0.00  0.00     0.002 A 
ATOM      6  C7  UNL d   1       3.824  -5.995  -5.612  0.00  0.00     0.002 A 
ENDROOT
BRANCH   1   7
ATOM      7  C1  UNL d   1       1.743  -4.998  -4.589  0.00  0.00     0.055 C 
ATOM      8  C   UNL d   1       0.972  -5.594  -5.758  0.00  0.00     0.019 C 
ENDBRANCH   1   7
TORSDOF 1
ENDMDL
