MODEL 1
REMARK minimizedAffinity 3.28329206
REMARK minimizedRMSD -1
REMARK  1 active torsions:
REMARK  status: ('A' for Active; 'I' for Inactive)
REMARK    1  A    between atoms: C1_2  and  C2_3 
ROOT
ATOM      1  C2  UNL d   1      -0.344   1.900   1.938  0.00  0.00    -0.077 A 
ATOM      2  C3  UNL d   1      -0.616   2.283   3.259  0.00  0.00     0.002 A 
ATOM      3  C4  UNL d   1       0.003   3.406   3.811  0.00  0.00     0.002 A 
ATOM      4  C5  UNL d   1       0.895   4.157   3.048  0.00  0.00    -0.004 A 
ATOM      5  C6  UNL d   1       1.174   3.783   1.735  0.00  0.00     0.002 A 
ATOM      6  C7  UNL d   1       0.557   2.660   1.182  0.00  0.00     0.002 A 
ENDROOT
BRANCH   1   7
ATOM      7  C1  UNL d   1      -1.048   0.718   1.325  0.00  0.00     0.055 C 
ATOM      8  C   UNL d   1      -1.732   1.097   0.020  0.00  0.00     0.019 C 
ENDBRANCH   1   7
TORSDOF 1
ENDMDL
