MODEL 1
REMARK minimizedAffinity -2.46722078
REMARK minimizedRMSD -1
REMARK  1 active torsions:
REMARK  status: ('A' for Active; 'I' for Inactive)
REMARK    1  A    between atoms: C1_2  and  C2_3 
ROOT
ATOM      1  C2  UNL d   1       0.575   3.371   2.467  0.00  0.00    -0.077 A 
ATOM      2  C3  UNL d   1      -0.254   2.653   1.594  0.00  0.00     0.002 A 
ATOM      3  C4  UNL d   1       0.294   1.940   0.526  0.00  0.00     0.002 A 
ATOM      4  C5  UNL d   1       1.672   1.936   0.323  0.00  0.00    -0.004 A 
ATOM      5  C6  UNL d   1       2.505   2.649   1.185  0.00  0.00     0.002 A 
ATOM      6  C7  UNL d   1       1.959   3.363   2.253  0.00  0.00     0.002 A 
ENDROOT
BRANCH   1   7
ATOM      7  C1  UNL d   1      -0.010   4.100   3.649  0.00  0.00     0.055 C 
ATOM      8  C   UNL d   1      -1.464   3.711   3.875  0.00  0.00     0.019 C 
ENDBRANCH   1   7
TORSDOF 1
ENDMDL
