MODEL 1
REMARK minimizedAffinity 2.87128782
REMARK minimizedRMSD -1
REMARK  1 active torsions:
REMARK  status: ('A' for Active; 'I' for Inactive)
REMARK    1  A    between atoms: C1_2  and  C2_3 
ROOT
ATOM      1  C2  UNL d   1       0.216   2.381   1.611  0.00  0.00    -0.077 A 
ATOM      2  C3  UNL d   1       0.532   3.746   1.569  0.00  0.00     0.002 A 
ATOM      3  C4  UNL d   1       0.018   4.620   2.530  0.00  0.00     0.002 A 
ATOM      4  C5  UNL d   1      -0.812   4.138   3.540  0.00  0.00    -0.004 A 
ATOM      5  C6  UNL d   1      -1.134   2.782   3.588  0.00  0.00     0.002 A 
ATOM      6  C7  UNL d   1      -0.622   1.907   2.629  0.00  0.00     0.002 A 
ENDROOT
BRANCH   1   7
ATOM      7  C1  UNL d   1       0.809   1.429   0.605  0.00  0.00     0.055 C 
ATOM      8  C   UNL d   1      -0.107   0.238   0.363  0.00  0.00     0.019 C 
ENDBRANCH   1   7
TORSDOF 1
ENDMDL
