MODEL 1
REMARK minimizedAffinity -3.86925268
REMARK minimizedRMSD -1
REMARK  1 active torsions:
REMARK  status: ('A' for Active; 'I' for Inactive)
REMARK    1  A    between atoms: C1_2  and  C2_3 
ROOT
ATOM      1  C2  UNL d   1      -3.396  -0.736   2.887  0.00  0.00    -0.077 A 
ATOM      2  C3  UNL d   1      -3.240   0.258   1.911  0.00  0.00     0.002 A 
ATOM      3  C4  UNL d   1      -2.227   0.157   0.956  0.00  0.00     0.002 A 
ATOM      4  C5  UNL d   1      -1.366  -0.939   0.964  0.00  0.00    -0.004 A 
ATOM      5  C6  UNL d   1      -1.512  -1.932   1.932  0.00  0.00     0.002 A 
ATOM      6  C7  UNL d   1      -2.523  -1.831   2.889  0.00  0.00     0.002 A 
ENDROOT
BRANCH   1   7
ATOM      7  C1  UNL d   1      -4.519  -0.653   3.888  0.00  0.00     0.055 C 
ATOM      8  C   UNL d   1      -5.771  -0.051   3.267  0.00  0.00     0.019 C 
ENDBRANCH   1   7
TORSDOF 1
ENDMDL
