MODEL 1
REMARK minimizedAffinity 0.389971823
REMARK minimizedRMSD -1
REMARK  1 active torsions:
REMARK  status: ('A' for Active; 'I' for Inactive)
REMARK    1  A    between atoms: C1_2  and  C2_3 
ROOT
ATOM      1  C2  UNL d   1       0.232   2.393   1.920  0.00  0.00    -0.077 A 
ATOM      2  C3  UNL d   1      -1.158   2.373   1.732  0.00  0.00     0.002 A 
ATOM      3  C4  UNL d   1      -1.723   1.590   0.724  0.00  0.00     0.002 A 
ATOM      4  C5  UNL d   1      -0.907   0.817  -0.100  0.00  0.00    -0.004 A 
ATOM      5  C6  UNL d   1       0.476   0.832   0.078  0.00  0.00     0.002 A 
ATOM      6  C7  UNL d   1       1.042   1.615   1.084  0.00  0.00     0.002 A 
ENDROOT
BRANCH   1   7
ATOM      7  C1  UNL d   1       0.839   3.199   3.038  0.00  0.00     0.055 C 
ATOM      8  C   UNL d   1      -0.155   4.204   3.600  0.00  0.00     0.019 C 
ENDBRANCH   1   7
TORSDOF 1
ENDMDL
