MODEL 1
REMARK minimizedAffinity -2.62501383
REMARK minimizedRMSD -1
REMARK  1 active torsions:
REMARK  status: ('A' for Active; 'I' for Inactive)
REMARK    1  A    between atoms: C1_2  and  C2_3 
ROOT
ATOM      1  C2  UNL d   1       3.237   2.997  -4.316  0.00  0.00    -0.077 A 
ATOM      2  C3  UNL d   1       4.140   2.961  -5.387  0.00  0.00     0.002 A 
ATOM      3  C4  UNL d   1       5.516   2.914  -5.151  0.00  0.00     0.002 A 
ATOM      4  C5  UNL d   1       6.000   2.898  -3.845  0.00  0.00    -0.004 A 
ATOM      5  C6  UNL d   1       5.110   2.936  -2.772  0.00  0.00     0.002 A 
ATOM      6  C7  UNL d   1       3.735   2.984  -3.006  0.00  0.00     0.002 A 
ENDROOT
BRANCH   1   7
ATOM      7  C1  UNL d   1       1.752   2.997  -4.568  0.00  0.00     0.055 C 
ATOM      8  C   UNL d   1       1.434   2.588  -5.999  0.00  0.00     0.019 C 
ENDBRANCH   1   7
TORSDOF 1
ENDMDL
