MODEL 1
REMARK minimizedAffinity -2.21346283
REMARK minimizedRMSD -1
REMARK  1 active torsions:
REMARK  status: ('A' for Active; 'I' for Inactive)
REMARK    1  A    between atoms: C1_2  and  C2_3 
ROOT
ATOM      1  C2  UNL d   1       2.968   3.066  -5.279  0.00  0.00    -0.077 A 
ATOM      2  C3  UNL d   1       3.015   3.061  -3.878  0.00  0.00     0.002 A 
ATOM      3  C4  UNL d   1       4.221   2.837  -3.212  0.00  0.00     0.002 A 
ATOM      4  C5  UNL d   1       5.390   2.621  -3.939  0.00  0.00    -0.004 A 
ATOM      5  C6  UNL d   1       5.354   2.622  -5.333  0.00  0.00     0.002 A 
ATOM      6  C7  UNL d   1       4.149   2.844  -6.000  0.00  0.00     0.002 A 
ENDROOT
BRANCH   1   7
ATOM      7  C1  UNL d   1       1.677   3.356  -5.999  0.00  0.00     0.055 C 
ATOM      8  C   UNL d   1       0.498   3.369  -5.038  0.00  0.00     0.019 C 
ENDBRANCH   1   7
TORSDOF 1
ENDMDL
