MODEL 1
REMARK minimizedAffinity 2.67243719
REMARK minimizedRMSD -1
REMARK  1 active torsions:
REMARK  status: ('A' for Active; 'I' for Inactive)
REMARK    1  A    between atoms: C1_2  and  C2_3 
ROOT
ATOM      1  C2  UNL d   1       1.030   3.969   3.234  0.00  0.00    -0.077 A 
ATOM      2  C3  UNL d   1       0.475   3.745   1.966  0.00  0.00     0.002 A 
ATOM      3  C4  UNL d   1      -0.909   3.648   1.808  0.00  0.00     0.002 A 
ATOM      4  C5  UNL d   1      -1.749   3.777   2.912  0.00  0.00    -0.004 A 
ATOM      5  C6  UNL d   1      -1.207   3.998   4.178  0.00  0.00     0.002 A 
ATOM      6  C7  UNL d   1       0.176   4.094   4.338  0.00  0.00     0.002 A 
ENDROOT
BRANCH   1   7
ATOM      7  C1  UNL d   1       2.519   4.124   3.399  0.00  0.00     0.055 C 
ATOM      8  C   UNL d   1       3.278   3.349   2.331  0.00  0.00     0.019 C 
ENDBRANCH   1   7
TORSDOF 1
ENDMDL
