MODEL 1
REMARK minimizedAffinity 5.34461689
REMARK minimizedRMSD -1
REMARK  1 active torsions:
REMARK  status: ('A' for Active; 'I' for Inactive)
REMARK    1  A    between atoms: C1_2  and  C2_3 
ROOT
ATOM      1  C2  UNL d   1       3.589   2.159  -3.831  0.00  0.00    -0.077 A 
ATOM      2  C3  UNL d   1       3.526   2.271  -5.227  0.00  0.00     0.002 A 
ATOM      3  C4  UNL d   1       4.688   2.185  -5.996  0.00  0.00     0.002 A 
ATOM      4  C5  UNL d   1       5.921   1.983  -5.378  0.00  0.00    -0.004 A 
ATOM      5  C6  UNL d   1       5.994   1.872  -3.990  0.00  0.00     0.002 A 
ATOM      6  C7  UNL d   1       4.833   1.959  -3.220  0.00  0.00     0.002 A 
ENDROOT
BRANCH   1   7
ATOM      7  C1  UNL d   1       2.330   2.202  -3.004  0.00  0.00     0.055 C 
ATOM      8  C   UNL d   1       2.248   1.013  -2.058  0.00  0.00     0.019 C 
ENDBRANCH   1   7
TORSDOF 1
ENDMDL
