MODEL 1
REMARK minimizedAffinity -0.353322744
REMARK minimizedRMSD -1
REMARK  1 active torsions:
REMARK  status: ('A' for Active; 'I' for Inactive)
REMARK    1  A    between atoms: C1_2  and  C2_3 
ROOT
ATOM      1  C2  UNL d   1      -1.798  -0.567   2.003  0.00  0.00    -0.077 A 
ATOM      2  C3  UNL d   1      -0.502  -0.639   1.472  0.00  0.00     0.002 A 
ATOM      3  C4  UNL d   1      -0.065   0.309   0.545  0.00  0.00     0.002 A 
ATOM      4  C5  UNL d   1      -0.914   1.338   0.145  0.00  0.00    -0.004 A 
ATOM      5  C6  UNL d   1      -2.205   1.417   0.666  0.00  0.00     0.002 A 
ATOM      6  C7  UNL d   1      -2.645   0.470   1.591  0.00  0.00     0.002 A 
ENDROOT
BRANCH   1   7
ATOM      7  C1  UNL d   1      -2.255  -1.560   3.040  0.00  0.00     0.055 C 
ATOM      8  C   UNL d   1      -3.465  -1.044   3.804  0.00  0.00     0.019 C 
ENDBRANCH   1   7
TORSDOF 1
ENDMDL
