MODEL 1
REMARK minimizedAffinity -0.22979711
REMARK minimizedRMSD -1
REMARK  1 active torsions:
REMARK  status: ('A' for Active; 'I' for Inactive)
REMARK    1  A    between atoms: C1_2  and  C2_3 
ROOT
ATOM      1  C2  UNL d   1       4.578   2.528  -3.434  0.00  0.00    -0.077 A 
ATOM      2  C3  UNL d   1       5.033   2.818  -4.728  0.00  0.00     0.002 A 
ATOM      3  C4  UNL d   1       4.125   2.990  -5.774  0.00  0.00     0.002 A 
ATOM      4  C5  UNL d   1       2.757   2.878  -5.537  0.00  0.00    -0.004 A 
ATOM      5  C6  UNL d   1       2.294   2.588  -4.254  0.00  0.00     0.002 A 
ATOM      6  C7  UNL d   1       3.201   2.414  -3.207  0.00  0.00     0.002 A 
ENDROOT
BRANCH   1   7
ATOM      7  C1  UNL d   1       5.553   2.390  -2.294  0.00  0.00     0.055 C 
ATOM      8  C   UNL d   1       5.740   3.712  -1.563  0.00  0.00     0.019 C 
ENDBRANCH   1   7
TORSDOF 1
ENDMDL
