MODEL 1
REMARK minimizedAffinity 17.1218758
REMARK minimizedRMSD -1
REMARK  0 active torsions:
REMARK  status: ('A' for Active; 'I' for Inactive)
ROOT
ATOM      1  C   UNL d   1       2.379   0.593   1.094  0.00  0.00     0.124 A 
ATOM      2  C1  UNL d   1       1.416   0.799   0.116  0.00  0.00     0.062 A 
ATOM      3  C2  UNL d   1       1.714   1.561  -1.010  0.00  0.00     0.162 A 
ATOM      4  C3  UNL d   1       2.981   2.122  -1.165  0.00  0.00    -0.034 A 
ATOM      5  C4  UNL d   1       3.944   1.912  -0.176  0.00  0.00     0.162 A 
ATOM      6  C5  UNL d   1       3.642   1.149   0.947  0.00  0.00     0.062 A 
ATOM      7  F   UNL d   1       4.574   0.951   1.891  0.00  0.00    -0.097 F 
ATOM      8  F1  UNL d   1       5.173   2.437  -0.293  0.00  0.00    -0.096 F 
ATOM      9  I   UNL d   1       3.431   3.262  -2.847  0.00  0.00    -0.060 I 
ATOM     10  F2  UNL d   1       0.764   1.743  -1.939  0.00  0.00    -0.096 F 
ATOM     11  F3  UNL d   1       0.195   0.263   0.256  0.00  0.00    -0.097 F 
ATOM     12  F4  UNL d   1       2.089  -0.140   2.177  0.00  0.00    -0.092 F 
ENDROOT
TORSDOF 0
ENDMDL
