MODEL 1
REMARK minimizedAffinity 20.426033
REMARK minimizedRMSD -1
REMARK  0 active torsions:
REMARK  status: ('A' for Active; 'I' for Inactive)
ROOT
ATOM      1  C   UNL d   1      -2.413   0.494   4.333  0.00  0.00     0.124 A 
ATOM      2  C1  UNL d   1      -1.158  -0.037   4.071  0.00  0.00     0.062 A 
ATOM      3  C2  UNL d   1      -0.938  -0.773   2.910  0.00  0.00     0.162 A 
ATOM      4  C3  UNL d   1      -1.975  -0.980   2.001  0.00  0.00    -0.034 A 
ATOM      5  C4  UNL d   1      -3.235  -0.443   2.272  0.00  0.00     0.162 A 
ATOM      6  C5  UNL d   1      -3.450   0.291   3.433  0.00  0.00     0.062 A 
ATOM      7  F   UNL d   1      -4.664   0.803   3.685  0.00  0.00    -0.097 F 
ATOM      8  F1  UNL d   1      -4.255  -0.624   1.419  0.00  0.00    -0.096 F 
ATOM      9  I   UNL d   1      -1.650  -2.079   0.263  0.00  0.00    -0.060 I 
ATOM     10  F2  UNL d   1       0.285  -1.275   2.682  0.00  0.00    -0.096 F 
ATOM     11  F3  UNL d   1      -0.155   0.157   4.939  0.00  0.00    -0.097 F 
ATOM     12  F4  UNL d   1      -2.623   1.200   5.451  0.00  0.00    -0.092 F 
ENDROOT
TORSDOF 0
ENDMDL
