MODEL 1
REMARK minimizedAffinity 4.25403404
REMARK minimizedRMSD -1
REMARK  0 active torsions:
REMARK  status: ('A' for Active; 'I' for Inactive)
ROOT
ATOM      1  C   UNL d   1      -1.344   0.190   3.740  0.00  0.00     0.124 A 
ATOM      2  C1  UNL d   1      -1.390  -0.844   2.815  0.00  0.00     0.062 A 
ATOM      3  C2  UNL d   1      -2.616  -1.305   2.342  0.00  0.00     0.162 A 
ATOM      4  C3  UNL d   1      -3.805  -0.731   2.791  0.00  0.00    -0.034 A 
ATOM      5  C4  UNL d   1      -3.750   0.308   3.722  0.00  0.00     0.162 A 
ATOM      6  C5  UNL d   1      -2.523   0.765   4.192  0.00  0.00     0.062 A 
ATOM      7  F   UNL d   1      -2.480   1.764   5.086  0.00  0.00    -0.097 F 
ATOM      8  F1  UNL d   1      -4.874   0.883   4.176  0.00  0.00    -0.096 F 
ATOM      9  I   UNL d   1      -5.639  -1.417   2.086  0.00  0.00    -0.060 I 
ATOM     10  F2  UNL d   1      -2.631  -2.305   1.449  0.00  0.00    -0.096 F 
ATOM     11  F3  UNL d   1      -0.253  -1.402   2.377  0.00  0.00    -0.097 F 
ATOM     12  F4  UNL d   1      -0.164   0.631   4.195  0.00  0.00    -0.092 F 
ENDROOT
TORSDOF 0
ENDMDL
