MODEL 1
REMARK minimizedAffinity 10.246706
REMARK minimizedRMSD -1
REMARK  0 active torsions:
REMARK  status: ('A' for Active; 'I' for Inactive)
ROOT
ATOM      1  C   UNL d   1      -4.043  -1.501   3.009  0.00  0.00     0.124 A 
ATOM      2  C1  UNL d   1      -4.737  -0.994   4.099  0.00  0.00     0.062 A 
ATOM      3  C2  UNL d   1      -4.127  -0.081   4.954  0.00  0.00     0.162 A 
ATOM      4  C3  UNL d   1      -2.814   0.332   4.723  0.00  0.00    -0.034 A 
ATOM      5  C4  UNL d   1      -2.122  -0.184   3.626  0.00  0.00     0.162 A 
ATOM      6  C5  UNL d   1      -2.736  -1.096   2.774  0.00  0.00     0.062 A 
ATOM      7  F   UNL d   1      -2.064  -1.585   1.721  0.00  0.00    -0.097 F 
ATOM      8  F1  UNL d   1      -0.859   0.192   3.374  0.00  0.00    -0.096 F 
ATOM      9  I   UNL d   1      -1.898   1.696   6.000  0.00  0.00    -0.060 I 
ATOM     10  F2  UNL d   1      -4.821   0.393   5.999  0.00  0.00    -0.096 F 
ATOM     11  F3  UNL d   1      -5.999  -1.384   4.329  0.00  0.00    -0.097 F 
ATOM     12  F4  UNL d   1      -4.632  -2.380   2.188  0.00  0.00    -0.092 F 
ENDROOT
TORSDOF 0
ENDMDL
