MODEL 1
REMARK minimizedAffinity 11.6176634
REMARK minimizedRMSD -1
REMARK  0 active torsions:
REMARK  status: ('A' for Active; 'I' for Inactive)
ROOT
ATOM      1  C   UNL d   1      -4.327   4.869  -2.543  0.00  0.00     0.124 A 
ATOM      2  C1  UNL d   1      -2.989   4.612  -2.279  0.00  0.00     0.062 A 
ATOM      3  C2  UNL d   1      -2.028   4.820  -3.264  0.00  0.00     0.162 A 
ATOM      4  C3  UNL d   1      -2.402   5.291  -4.523  0.00  0.00    -0.034 A 
ATOM      5  C4  UNL d   1      -3.750   5.547  -4.782  0.00  0.00     0.162 A 
ATOM      6  C5  UNL d   1      -4.706   5.337  -3.794  0.00  0.00     0.062 A 
ATOM      7  F   UNL d   1      -5.999   5.586  -4.050  0.00  0.00    -0.097 F 
ATOM      8  F1  UNL d   1      -4.144   5.999  -5.981  0.00  0.00    -0.096 F 
ATOM      9  I   UNL d   1      -0.969   5.604  -5.999  0.00  0.00    -0.060 I 
ATOM     10  F2  UNL d   1      -0.743   4.563  -2.981  0.00  0.00    -0.096 F 
ATOM     11  F3  UNL d   1      -2.620   4.159  -1.072  0.00  0.00    -0.097 F 
ATOM     12  F4  UNL d   1      -5.250   4.667  -1.593  0.00  0.00    -0.092 F 
ENDROOT
TORSDOF 0
ENDMDL
