MODEL 1
REMARK minimizedAffinity 16.7584095
REMARK minimizedRMSD -1
REMARK  0 active torsions:
REMARK  status: ('A' for Active; 'I' for Inactive)
ROOT
ATOM      1  C   UNL d   1       2.018   1.485  -0.902  0.00  0.00     0.124 A 
ATOM      2  C1  UNL d   1       2.798   2.343  -1.665  0.00  0.00     0.062 A 
ATOM      3  C2  UNL d   1       3.869   3.017  -1.086  0.00  0.00     0.162 A 
ATOM      4  C3  UNL d   1       4.166   2.836   0.265  0.00  0.00    -0.034 A 
ATOM      5  C4  UNL d   1       3.376   1.973   1.026  0.00  0.00     0.162 A 
ATOM      6  C5  UNL d   1       2.308   1.301   0.442  0.00  0.00     0.062 A 
ATOM      7  F   UNL d   1       1.555   0.472   1.181  0.00  0.00    -0.097 F 
ATOM      8  F1  UNL d   1       3.635   1.776   2.328  0.00  0.00    -0.096 F 
ATOM      9  I   UNL d   1       5.766   3.844   1.136  0.00  0.00    -0.060 I 
ATOM     10  F2  UNL d   1       4.605   3.840  -1.847  0.00  0.00    -0.096 F 
ATOM     11  F3  UNL d   1       2.520   2.523  -2.965  0.00  0.00    -0.097 F 
ATOM     12  F4  UNL d   1       0.988   0.837  -1.463  0.00  0.00    -0.092 F 
ENDROOT
TORSDOF 0
ENDMDL
