MODEL 1
REMARK minimizedAffinity 16.3023357
REMARK minimizedRMSD -1
REMARK  0 active torsions:
REMARK  status: ('A' for Active; 'I' for Inactive)
ROOT
ATOM      1  C   UNL d   1      -0.104  -2.626   3.774  0.00  0.00     0.124 A 
ATOM      2  C1  UNL d   1      -0.564  -2.415   2.481  0.00  0.00     0.062 A 
ATOM      3  C2  UNL d   1      -1.244  -1.242   2.163  0.00  0.00     0.162 A 
ATOM      4  C3  UNL d   1      -1.468  -0.272   3.140  0.00  0.00    -0.034 A 
ATOM      5  C4  UNL d   1      -1.003  -0.492   4.437  0.00  0.00     0.162 A 
ATOM      6  C5  UNL d   1      -0.324  -1.665   4.750  0.00  0.00     0.062 A 
ATOM      7  F   UNL d   1       0.119  -1.868   6.000  0.00  0.00    -0.097 F 
ATOM      8  F1  UNL d   1      -1.201   0.421   5.400  0.00  0.00    -0.096 F 
ATOM      9  I   UNL d   1      -2.484   1.482   2.668  0.00  0.00    -0.060 I 
ATOM     10  F2  UNL d   1      -1.677  -1.065   0.906  0.00  0.00    -0.096 F 
ATOM     11  F3  UNL d   1      -0.354  -3.342   1.536  0.00  0.00    -0.097 F 
ATOM     12  F4  UNL d   1       0.549  -3.755   4.077  0.00  0.00    -0.092 F 
ENDROOT
TORSDOF 0
ENDMDL
