MODEL 1
REMARK minimizedAffinity 18.0391655
REMARK minimizedRMSD -1
REMARK  0 active torsions:
REMARK  status: ('A' for Active; 'I' for Inactive)
ROOT
ATOM      1  C   UNL d   1      -2.354   4.318   0.368  0.00  0.00     0.124 A 
ATOM      2  C1  UNL d   1      -2.346   3.174   1.154  0.00  0.00     0.062 A 
ATOM      3  C2  UNL d   1      -1.139   2.599   1.542  0.00  0.00     0.162 A 
ATOM      4  C3  UNL d   1       0.071   3.168   1.146  0.00  0.00    -0.034 A 
ATOM      5  C4  UNL d   1       0.055   4.318   0.355  0.00  0.00     0.162 A 
ATOM      6  C5  UNL d   1      -1.153   4.889  -0.030  0.00  0.00     0.062 A 
ATOM      7  F   UNL d   1      -1.159   5.994  -0.790  0.00  0.00    -0.097 F 
ATOM      8  F1  UNL d   1       1.201   4.891  -0.044  0.00  0.00    -0.096 F 
ATOM      9  I   UNL d   1       1.877   2.311   1.724  0.00  0.00    -0.060 I 
ATOM     10  F2  UNL d   1      -1.162   1.493   2.302  0.00  0.00    -0.096 F 
ATOM     11  F3  UNL d   1      -3.505   2.620   1.540  0.00  0.00    -0.097 F 
ATOM     12  F4  UNL d   1      -3.516   4.868  -0.004  0.00  0.00    -0.092 F 
ENDROOT
TORSDOF 0
ENDMDL
