MODEL 1
REMARK minimizedAffinity 17.7392731
REMARK minimizedRMSD -1
REMARK  0 active torsions:
REMARK  status: ('A' for Active; 'I' for Inactive)
ROOT
ATOM      1  C   UNL d   1       3.490  -4.477  -0.542  0.00  0.00     0.124 A 
ATOM      2  C1  UNL d   1       4.615  -3.744  -0.189  0.00  0.00     0.062 A 
ATOM      3  C2  UNL d   1       4.477  -2.528   0.474  0.00  0.00     0.162 A 
ATOM      4  C3  UNL d   1       3.210  -2.038   0.790  0.00  0.00    -0.034 A 
ATOM      5  C4  UNL d   1       2.084  -2.781   0.431  0.00  0.00     0.162 A 
ATOM      6  C5  UNL d   1       2.227  -3.995  -0.232  0.00  0.00     0.062 A 
ATOM      7  F   UNL d   1       1.139  -4.703  -0.572  0.00  0.00    -0.097 F 
ATOM      8  F1  UNL d   1       0.851  -2.339   0.719  0.00  0.00    -0.096 F 
ATOM      9  I   UNL d   1       3.000  -0.220   1.782  0.00  0.00    -0.060 I 
ATOM     10  F2  UNL d   1       5.581  -1.840   0.803  0.00  0.00    -0.096 F 
ATOM     11  F3  UNL d   1       5.837  -4.207  -0.489  0.00  0.00    -0.097 F 
ATOM     12  F4  UNL d   1       3.625  -5.646  -1.182  0.00  0.00    -0.092 F 
ENDROOT
TORSDOF 0
ENDMDL
