MODEL 1
REMARK minimizedAffinity 15.3290539
REMARK minimizedRMSD -1
REMARK  0 active torsions:
REMARK  status: ('A' for Active; 'I' for Inactive)
ROOT
ATOM      1  C   UNL d   1       2.204  -2.393  -0.014  0.00  0.00     0.124 A 
ATOM      2  C1  UNL d   1       2.020  -3.731  -0.333  0.00  0.00     0.062 A 
ATOM      3  C2  UNL d   1       3.102  -4.606  -0.333  0.00  0.00     0.162 A 
ATOM      4  C3  UNL d   1       4.379  -4.146  -0.012  0.00  0.00    -0.034 A 
ATOM      5  C4  UNL d   1       4.557  -2.799   0.307  0.00  0.00     0.162 A 
ATOM      6  C5  UNL d   1       3.472  -1.928   0.306  0.00  0.00     0.062 A 
ATOM      7  F   UNL d   1       3.652  -0.636   0.614  0.00  0.00    -0.097 F 
ATOM      8  F1  UNL d   1       5.771  -2.323   0.620  0.00  0.00    -0.096 F 
ATOM      9  I   UNL d   1       6.000  -5.452  -0.012  0.00  0.00    -0.060 I 
ATOM     10  F2  UNL d   1       2.894  -5.894  -0.645  0.00  0.00    -0.096 F 
ATOM     11  F3  UNL d   1       0.795  -4.182  -0.643  0.00  0.00    -0.097 F 
ATOM     12  F4  UNL d   1       1.161  -1.553  -0.015  0.00  0.00    -0.092 F 
ENDROOT
TORSDOF 0
ENDMDL
