MODEL 1
REMARK minimizedAffinity 16.2096539
REMARK minimizedRMSD -1
REMARK  0 active torsions:
REMARK  status: ('A' for Active; 'I' for Inactive)
ROOT
ATOM      1  C   UNL d   1      -2.572   4.128  -0.376  0.00  0.00     0.124 A 
ATOM      2  C1  UNL d   1      -2.300   3.113   0.531  0.00  0.00     0.062 A 
ATOM      3  C2  UNL d   1      -1.027   2.987   1.080  0.00  0.00     0.162 A 
ATOM      4  C3  UNL d   1      -0.016   3.879   0.724  0.00  0.00    -0.034 A 
ATOM      5  C4  UNL d   1      -0.296   4.897  -0.189  0.00  0.00     0.162 A 
ATOM      6  C5  UNL d   1      -1.570   5.019  -0.735  0.00  0.00     0.062 A 
ATOM      7  F   UNL d   1      -1.831   6.000  -1.611  0.00  0.00    -0.097 F 
ATOM      8  F1  UNL d   1       0.653   5.772  -0.553  0.00  0.00    -0.096 F 
ATOM      9  I   UNL d   1       1.889   3.695   1.543  0.00  0.00    -0.060 I 
ATOM     10  F2  UNL d   1      -0.793   1.997   1.954  0.00  0.00    -0.096 F 
ATOM     11  F3  UNL d   1      -3.266   2.250   0.879  0.00  0.00    -0.097 F 
ATOM     12  F4  UNL d   1      -3.797   4.246  -0.903  0.00  0.00    -0.092 F 
ENDROOT
TORSDOF 0
ENDMDL
