MODEL 1
REMARK minimizedAffinity 15.1678782
REMARK minimizedRMSD -1
REMARK  0 active torsions:
REMARK  status: ('A' for Active; 'I' for Inactive)
ROOT
ATOM      1  C   UNL d   1       3.381  -2.700  -0.162  0.00  0.00     0.124 A 
ATOM      2  C1  UNL d   1       2.027  -2.984  -0.049  0.00  0.00     0.062 A 
ATOM      3  C2  UNL d   1       1.244  -2.303   0.879  0.00  0.00     0.162 A 
ATOM      4  C3  UNL d   1       1.813  -1.331   1.702  0.00  0.00    -0.034 A 
ATOM      5  C4  UNL d   1       3.176  -1.052   1.583  0.00  0.00     0.162 A 
ATOM      6  C5  UNL d   1       3.954  -1.735   0.654  0.00  0.00     0.062 A 
ATOM      7  F   UNL d   1       5.262  -1.460   0.547  0.00  0.00    -0.097 F 
ATOM      8  F1  UNL d   1       3.755  -0.124   2.359  0.00  0.00    -0.096 F 
ATOM      9  I   UNL d   1       0.646  -0.312   3.091  0.00  0.00    -0.060 I 
ATOM     10  F2  UNL d   1      -0.062  -2.598   0.966  0.00  0.00    -0.096 F 
ATOM     11  F3  UNL d   1       1.471  -3.917  -0.836  0.00  0.00    -0.097 F 
ATOM     12  F4  UNL d   1       4.132  -3.357  -1.055  0.00  0.00    -0.092 F 
ENDROOT
TORSDOF 0
ENDMDL
