MODEL 1
REMARK minimizedAffinity 13.8779545
REMARK minimizedRMSD -1
REMARK  0 active torsions:
REMARK  status: ('A' for Active; 'I' for Inactive)
ROOT
ATOM      1  C   UNL d   1       0.453  -1.666   1.640  0.00  0.00     0.124 A 
ATOM      2  C1  UNL d   1       1.783  -1.321   1.441  0.00  0.00     0.062 A 
ATOM      3  C2  UNL d   1       2.654  -2.214   0.825  0.00  0.00     0.162 A 
ATOM      4  C3  UNL d   1       2.198  -3.462   0.401  0.00  0.00    -0.034 A 
ATOM      5  C4  UNL d   1       0.860  -3.803   0.605  0.00  0.00     0.162 A 
ATOM      6  C5  UNL d   1      -0.007  -2.907   1.222  0.00  0.00     0.062 A 
ATOM      7  F   UNL d   1      -1.291  -3.243   1.413  0.00  0.00    -0.097 F 
ATOM      8  F1  UNL d   1       0.388  -4.995   0.210  0.00  0.00    -0.096 F 
ATOM      9  I   UNL d   1       3.498  -4.801  -0.521  0.00  0.00    -0.060 I 
ATOM     10  F2  UNL d   1       3.933  -1.853   0.646  0.00  0.00    -0.096 F 
ATOM     11  F3  UNL d   1       2.230  -0.123   1.845  0.00  0.00    -0.097 F 
ATOM     12  F4  UNL d   1      -0.382  -0.805   2.234  0.00  0.00    -0.092 F 
ENDROOT
TORSDOF 0
ENDMDL
