MODEL 1
REMARK minimizedAffinity 4.49428892
REMARK minimizedRMSD -1
REMARK  0 active torsions:
REMARK  status: ('A' for Active; 'I' for Inactive)
ROOT
ATOM      1  C   UNL d   1       0.722  -3.782  -0.208  0.00  0.00     0.124 A 
ATOM      2  C1  UNL d   1       1.619  -2.933   0.425  0.00  0.00     0.062 A 
ATOM      3  C2  UNL d   1       1.163  -1.992   1.344  0.00  0.00     0.162 A 
ATOM      4  C3  UNL d   1      -0.197  -1.896   1.637  0.00  0.00    -0.034 A 
ATOM      5  C4  UNL d   1      -1.094  -2.753   0.996  0.00  0.00     0.162 A 
ATOM      6  C5  UNL d   1      -0.633  -3.691   0.078  0.00  0.00     0.062 A 
ATOM      7  F   UNL d   1      -1.502  -4.511  -0.533  0.00  0.00    -0.097 F 
ATOM      8  F1  UNL d   1      -2.408  -2.687   1.254  0.00  0.00    -0.096 F 
ATOM      9  I   UNL d   1      -0.882  -0.491   3.011  0.00  0.00    -0.060 I 
ATOM     10  F2  UNL d   1       2.053  -1.185   1.940  0.00  0.00    -0.096 F 
ATOM     11  F3  UNL d   1       2.928  -3.018   0.149  0.00  0.00    -0.097 F 
ATOM     12  F4  UNL d   1       1.163  -4.686  -1.093  0.00  0.00    -0.092 F 
ENDROOT
TORSDOF 0
ENDMDL
