MODEL 1
REMARK minimizedAffinity 27.068325
REMARK minimizedRMSD -1
REMARK  0 active torsions:
REMARK  status: ('A' for Active; 'I' for Inactive)
ROOT
ATOM      1  C   UNL d   1       3.593   3.409   0.889  0.00  0.00     0.124 A 
ATOM      2  C1  UNL d   1       3.260   2.072   1.055  0.00  0.00     0.062 A 
ATOM      3  C2  UNL d   1       3.082   1.252  -0.056  0.00  0.00     0.162 A 
ATOM      4  C3  UNL d   1       3.238   1.767  -1.343  0.00  0.00    -0.034 A 
ATOM      5  C4  UNL d   1       3.573   3.113  -1.501  0.00  0.00     0.162 A 
ATOM      6  C5  UNL d   1       3.749   3.928  -0.388  0.00  0.00     0.062 A 
ATOM      7  F   UNL d   1       4.071   5.220  -0.550  0.00  0.00    -0.097 F 
ATOM      8  F1  UNL d   1       3.730   3.640  -2.725  0.00  0.00    -0.096 F 
ATOM      9  I   UNL d   1       2.973   0.544  -3.006  0.00  0.00    -0.060 I 
ATOM     10  F2  UNL d   1       2.760  -0.036   0.134  0.00  0.00    -0.096 F 
ATOM     11  F3  UNL d   1       3.108   1.568   2.288  0.00  0.00    -0.097 F 
ATOM     12  F4  UNL d   1       3.763   4.196   1.960  0.00  0.00    -0.092 F 
ENDROOT
TORSDOF 0
ENDMDL
