MODEL 1
REMARK minimizedAffinity 13.3639507
REMARK minimizedRMSD -1
REMARK  0 active torsions:
REMARK  status: ('A' for Active; 'I' for Inactive)
ROOT
ATOM      1  C   UNL d   1       3.283   3.376  -0.512  0.00  0.00     0.124 A 
ATOM      2  C1  UNL d   1       3.351   2.451  -1.546  0.00  0.00     0.062 A 
ATOM      3  C2  UNL d   1       3.034   1.116  -1.312  0.00  0.00     0.162 A 
ATOM      4  C3  UNL d   1       2.645   0.697  -0.040  0.00  0.00    -0.034 A 
ATOM      5  C4  UNL d   1       2.580   1.632   0.994  0.00  0.00     0.162 A 
ATOM      6  C5  UNL d   1       2.898   2.965   0.756  0.00  0.00     0.062 A 
ATOM      7  F   UNL d   1       2.831   3.857   1.756  0.00  0.00    -0.097 F 
ATOM      8  F1  UNL d   1       2.210   1.263   2.230  0.00  0.00    -0.096 F 
ATOM      9  I   UNL d   1       2.171  -1.299   0.313  0.00  0.00    -0.060 I 
ATOM     10  F2  UNL d   1       3.109   0.245  -2.329  0.00  0.00    -0.096 F 
ATOM     11  F3  UNL d   1       3.724   2.845  -2.772  0.00  0.00    -0.097 F 
ATOM     12  F4  UNL d   1       3.589   4.659  -0.739  0.00  0.00    -0.092 F 
ENDROOT
TORSDOF 0
ENDMDL
