MODEL 1
REMARK minimizedAffinity -5.17311573
REMARK minimizedRMSD -1
REMARK  2 active torsions:
REMARK  status: ('A' for Active; 'I' for Inactive)
REMARK    1  A    between atoms: C2'_3  and  C1'_4 
REMARK    2  A    between atoms: C1'_4  and  C1_5 
ROOT
ATOM      1  C1  I4B d   1      -0.192  -0.366  -0.224  0.00  0.00    -0.075 A 
ATOM      2  C2  I4B d   1      -1.360  -0.452   0.492  0.00  0.00     0.003 A 
ATOM      3  C3  I4B d   1      -1.324  -0.635   1.895  0.00  0.00     0.002 A 
ATOM      4  C4  I4B d   1      -0.107  -0.778   2.531  0.00  0.00    -0.004 A 
ATOM      5  C5  I4B d   1       1.076  -0.668   1.807  0.00  0.00     0.002 A 
ATOM      6  C6  I4B d   1       1.034  -0.448   0.422  0.00  0.00     0.003 A 
ENDROOT
BRANCH   1   7
ATOM      7  C1' I4B d   1      -0.268  -0.205  -1.709  0.00  0.00     0.060 C 
BRANCH   7   8
ATOM      8  C2' I4B d   1      -0.806   1.181  -2.002  0.00  0.00    -0.013 C 
ATOM      9  C4' I4B d   1       0.196   2.004  -2.769  0.00  0.00     0.013 C 
ATOM     10  C3' I4B d   1      -2.084   1.028  -2.771  0.00  0.00     0.013 C 
ENDBRANCH   7   8
ENDBRANCH   1   7
TORSDOF 2
ENDMDL
