MODEL 1
REMARK minimizedAffinity -1.81196642
REMARK minimizedRMSD -1
REMARK  2 active torsions:
REMARK  status: ('A' for Active; 'I' for Inactive)
REMARK    1  A    between atoms: C2'_3  and  C1'_4 
REMARK    2  A    between atoms: C1'_4  and  C1_5 
ROOT
ATOM      1  C1  I4B d   1      -0.239   0.487  -1.258  0.00  0.00    -0.075 A 
ATOM      2  C2  I4B d   1       0.794  -0.117  -1.930  0.00  0.00     0.003 A 
ATOM      3  C3  I4B d   1       1.871  -0.694  -1.213  0.00  0.00     0.002 A 
ATOM      4  C4  I4B d   1       1.898  -0.600   0.163  0.00  0.00    -0.004 A 
ATOM      5  C5  I4B d   1       0.838  -0.008   0.844  0.00  0.00     0.002 A 
ATOM      6  C6  I4B d   1      -0.244   0.528   0.130  0.00  0.00     0.003 A 
ENDROOT
BRANCH   1   7
ATOM      7  C1' I4B d   1      -1.343   1.114  -2.049  0.00  0.00     0.060 C 
BRANCH   7   8
ATOM      8  C2' I4B d   1      -1.247   2.616  -1.874  0.00  0.00    -0.013 C 
ATOM      9  C4' I4B d   1      -0.260   3.216  -2.840  0.00  0.00     0.013 C 
ATOM     10  C3' I4B d   1      -2.617   3.194  -2.071  0.00  0.00     0.013 C 
ENDBRANCH   7   8
ENDBRANCH   1   7
TORSDOF 2
ENDMDL
