MODEL 1
REMARK minimizedAffinity -4.43528748
REMARK minimizedRMSD -1
REMARK  2 active torsions:
REMARK  status: ('A' for Active; 'I' for Inactive)
REMARK    1  A    between atoms: C2'_3  and  C1'_4 
REMARK    2  A    between atoms: C1'_4  and  C1_5 
ROOT
ATOM      1  C1  I4B d   1      -0.054   0.332  -1.149  0.00  0.00    -0.075 A 
ATOM      2  C2  I4B d   1       0.905  -0.508  -1.658  0.00  0.00     0.003 A 
ATOM      3  C3  I4B d   1       1.866  -1.095  -0.801  0.00  0.00     0.002 A 
ATOM      4  C4  I4B d   1       1.863  -0.778   0.542  0.00  0.00    -0.004 A 
ATOM      5  C5  I4B d   1       0.876   0.056   1.061  0.00  0.00     0.002 A 
ATOM      6  C6  I4B d   1      -0.096   0.605   0.212  0.00  0.00     0.003 A 
ENDROOT
BRANCH   1   7
ATOM      7  C1' I4B d   1      -1.034   0.961  -2.088  0.00  0.00     0.060 C 
BRANCH   7   8
ATOM      8  C2' I4B d   1      -0.650   2.417  -2.257  0.00  0.00    -0.013 C 
ATOM      9  C4' I4B d   1       0.220   2.614  -3.470  0.00  0.00     0.013 C 
ATOM     10  C3' I4B d   1      -1.913   3.219  -2.359  0.00  0.00     0.013 C 
ENDBRANCH   7   8
ENDBRANCH   1   7
TORSDOF 2
ENDMDL
