MODEL 1
REMARK minimizedAffinity -3.14480305
REMARK minimizedRMSD -1
REMARK  2 active torsions:
REMARK  status: ('A' for Active; 'I' for Inactive)
REMARK    1  A    between atoms: C2'_3  and  C1'_4 
REMARK    2  A    between atoms: C1'_4  and  C1_5 
ROOT
ATOM      1  C1  I4B d   1      -0.453  -0.065   0.715  0.00  0.00    -0.075 A 
ATOM      2  C2  I4B d   1       0.867   0.235   0.941  0.00  0.00     0.003 A 
ATOM      3  C3  I4B d   1       1.594  -0.455   1.941  0.00  0.00     0.002 A 
ATOM      4  C4  I4B d   1       0.952  -1.395   2.721  0.00  0.00    -0.004 A 
ATOM      5  C5  I4B d   1      -0.381  -1.714   2.476  0.00  0.00     0.002 A 
ATOM      6  C6  I4B d   1      -1.085  -1.054   1.458  0.00  0.00     0.003 A 
ENDROOT
BRANCH   1   7
ATOM      7  C1' I4B d   1      -1.199   0.706  -0.327  0.00  0.00     0.060 C 
BRANCH   7   8
ATOM      8  C2' I4B d   1      -0.323   0.793  -1.560  0.00  0.00    -0.013 C 
ATOM      9  C4' I4B d   1      -0.243  -0.535  -2.266  0.00  0.00     0.013 C 
ATOM     10  C3' I4B d   1      -0.892   1.850  -2.459  0.00  0.00     0.013 C 
ENDBRANCH   7   8
ENDBRANCH   1   7
TORSDOF 2
ENDMDL
