MODEL 1
REMARK minimizedAffinity -3.26599884
REMARK minimizedRMSD -1
REMARK  2 active torsions:
REMARK  status: ('A' for Active; 'I' for Inactive)
REMARK    1  A    between atoms: C2'_3  and  C1'_4 
REMARK    2  A    between atoms: C1'_4  and  C1_5 
ROOT
ATOM      1  C1  I4B d   1       0.358  -0.226  -0.655  0.00  0.00    -0.075 A 
ATOM      2  C2  I4B d   1      -0.806  -0.407   0.049  0.00  0.00     0.003 A 
ATOM      3  C3  I4B d   1      -0.766  -0.655   1.443  0.00  0.00     0.002 A 
ATOM      4  C4  I4B d   1       0.454  -0.765   2.078  0.00  0.00    -0.004 A 
ATOM      5  C5  I4B d   1       1.633  -0.559   1.367  0.00  0.00     0.002 A 
ATOM      6  C6  I4B d   1       1.585  -0.276  -0.006  0.00  0.00     0.003 A 
ENDROOT
BRANCH   1   7
ATOM      7  C1' I4B d   1       0.279   0.002  -2.131  0.00  0.00     0.060 C 
BRANCH   7   8
ATOM      8  C2' I4B d   1       0.400   1.491  -2.381  0.00  0.00    -0.013 C 
ATOM      9  C4' I4B d   1       1.561   1.800  -3.289  0.00  0.00     0.013 C 
ATOM     10  C3' I4B d   1      -0.893   1.967  -2.973  0.00  0.00     0.013 C 
ENDBRANCH   7   8
ENDBRANCH   1   7
TORSDOF 2
ENDMDL
