MODEL 1
REMARK minimizedAffinity -1.33840573
REMARK minimizedRMSD -1
REMARK  2 active torsions:
REMARK  status: ('A' for Active; 'I' for Inactive)
REMARK    1  A    between atoms: C2'_3  and  C1'_4 
REMARK    2  A    between atoms: C1'_4  and  C1_5 
ROOT
ATOM      1  C1  I4B d   1      -0.240   0.431  -1.320  0.00  0.00    -0.075 A 
ATOM      2  C2  I4B d   1       0.644  -0.432  -1.917  0.00  0.00     0.003 A 
ATOM      3  C3  I4B d   1       1.643  -1.075  -1.147  0.00  0.00     0.002 A 
ATOM      4  C4  I4B d   1       1.753  -0.790   0.198  0.00  0.00    -0.004 A 
ATOM      5  C5  I4B d   1       0.841   0.068   0.807  0.00  0.00     0.002 A 
ATOM      6  C6  I4B d   1      -0.169   0.673   0.046  0.00  0.00     0.003 A 
ENDROOT
BRANCH   1   7
ATOM      7  C1' I4B d   1      -1.262   1.119  -2.169  0.00  0.00     0.060 C 
BRANCH   7   8
ATOM      8  C2' I4B d   1      -0.815   2.553  -2.367  0.00  0.00    -0.013 C 
ATOM      9  C4' I4B d   1      -0.112   2.728  -3.687  0.00  0.00     0.013 C 
ATOM     10  C3' I4B d   1      -2.027   3.431  -2.279  0.00  0.00     0.013 C 
ENDBRANCH   7   8
ENDBRANCH   1   7
TORSDOF 2
ENDMDL
