MODEL 1
REMARK minimizedAffinity 5.0768714
REMARK minimizedRMSD -1
REMARK  0 active torsions:
REMARK  status: ('A' for Active; 'I' for Inactive)
ROOT
ATOM      1  C2' OXE d   1       1.992  -1.663   3.784  0.00  0.00     0.078 C 
ATOM      2  C1' OXE d   1      -0.506  -2.851   3.302  0.00  0.00     0.078 C 
ATOM      3  C1  OXE d   1      -0.104  -1.682   2.438  0.00  0.00    -0.078 A 
ATOM      4  C2  OXE d   1       1.099  -1.077   2.711  0.00  0.00    -0.078 A 
ATOM      5  C3  OXE d   1       1.542  -0.030   1.909  0.00  0.00     0.003 A 
ATOM      6  C4  OXE d   1       0.706   0.513   0.926  0.00  0.00    -0.002 A 
ATOM      7  C5  OXE d   1      -0.540  -0.063   0.657  0.00  0.00    -0.002 A 
ATOM      8  C6  OXE d   1      -0.941  -1.185   1.374  0.00  0.00     0.003 A 
ENDROOT
TORSDOF 0
ENDMDL
