MODEL 1
REMARK minimizedAffinity -1.95896339
REMARK minimizedRMSD -1
REMARK  0 active torsions:
REMARK  status: ('A' for Active; 'I' for Inactive)
ROOT
ATOM      1  C2' OXE d   1       0.512  -0.147  -3.019  0.00  0.00     0.078 C 
ATOM      2  C1' OXE d   1      -0.792   0.272  -0.568  0.00  0.00     0.078 C 
ATOM      3  C1  OXE d   1      -0.930   1.335  -1.629  0.00  0.00    -0.078 A 
ATOM      4  C2  OXE d   1      -0.251   1.143  -2.808  0.00  0.00    -0.078 A 
ATOM      5  C3  OXE d   1      -0.388   2.067  -3.841  0.00  0.00     0.003 A 
ATOM      6  C4  OXE d   1      -1.087   3.262  -3.634  0.00  0.00    -0.002 A 
ATOM      7  C5  OXE d   1      -1.754   3.495  -2.427  0.00  0.00    -0.002 A 
ATOM      8  C6  OXE d   1      -1.721   2.525  -1.432  0.00  0.00     0.003 A 
ENDROOT
TORSDOF 0
ENDMDL
