MODEL 1
REMARK minimizedAffinity -5.04340887
REMARK minimizedRMSD -1
REMARK  0 active torsions:
REMARK  status: ('A' for Active; 'I' for Inactive)
ROOT
ATOM      1  C2' OXE d   1      -1.693   3.720  -4.249  0.00  0.00     0.078 C 
ATOM      2  C1' OXE d   1      -3.865   2.704  -2.790  0.00  0.00     0.078 C 
ATOM      3  C1  OXE d   1      -2.500   2.123  -2.516  0.00  0.00    -0.078 A 
ATOM      4  C2  OXE d   1      -1.450   2.594  -3.268  0.00  0.00    -0.078 A 
ATOM      5  C3  OXE d   1      -0.162   2.131  -3.018  0.00  0.00     0.003 A 
ATOM      6  C4  OXE d   1       0.052   1.082  -2.116  0.00  0.00    -0.002 A 
ATOM      7  C5  OXE d   1      -1.009   0.561  -1.368  0.00  0.00    -0.002 A 
ATOM      8  C6  OXE d   1      -2.282   1.098  -1.525  0.00  0.00     0.003 A 
ENDROOT
TORSDOF 0
ENDMDL
