MODEL 1
REMARK minimizedAffinity -5.15806723
REMARK minimizedRMSD -1
REMARK  0 active torsions:
REMARK  status: ('A' for Active; 'I' for Inactive)
ROOT
ATOM      1  C2' OXE d   1       0.206  -0.330  -1.719  0.00  0.00     0.078 C 
ATOM      2  C1' OXE d   1       2.181  -1.295   0.027  0.00  0.00     0.078 C 
ATOM      3  C1  OXE d   1       0.879  -0.825   0.627  0.00  0.00    -0.078 A 
ATOM      4  C2  OXE d   1      -0.064  -0.311  -0.230  0.00  0.00    -0.078 A 
ATOM      5  C3  OXE d   1      -1.303   0.085   0.265  0.00  0.00     0.003 A 
ATOM      6  C4  OXE d   1      -1.540   0.109   1.645  0.00  0.00    -0.002 A 
ATOM      7  C5  OXE d   1      -0.578  -0.373   2.539  0.00  0.00    -0.002 A 
ATOM      8  C6  OXE d   1       0.618  -0.882   2.044  0.00  0.00     0.003 A 
ENDROOT
TORSDOF 0
ENDMDL
