MODEL 1
REMARK minimizedAffinity -3.89862442
REMARK minimizedRMSD -1
REMARK  0 active torsions:
REMARK  status: ('A' for Active; 'I' for Inactive)
ROOT
ATOM      1  C2' OXE d   1       2.645  -2.371  -0.093  0.00  0.00     0.078 C 
ATOM      2  C1' OXE d   1       1.229  -1.919   2.289  0.00  0.00     0.078 C 
ATOM      3  C1  OXE d   1       0.758  -1.208   1.045  0.00  0.00    -0.078 A 
ATOM      4  C2  OXE d   1       1.484  -1.399  -0.106  0.00  0.00    -0.078 A 
ATOM      5  C3  OXE d   1       1.061  -0.810  -1.294  0.00  0.00     0.003 A 
ATOM      6  C4  OXE d   1      -0.007   0.095  -1.295  0.00  0.00    -0.002 A 
ATOM      7  C5  OXE d   1      -0.736   0.334  -0.125  0.00  0.00    -0.002 A 
ATOM      8  C6  OXE d   1      -0.394  -0.341   1.041  0.00  0.00     0.003 A 
ENDROOT
TORSDOF 0
ENDMDL
