MODEL 1
REMARK minimizedAffinity 7.59844446
REMARK minimizedRMSD -1
REMARK  0 active torsions:
REMARK  status: ('A' for Active; 'I' for Inactive)
ROOT
ATOM      1  C2' OXE d   1       2.107   3.123  -3.811  0.00  0.00     0.078 C 
ATOM      2  C1' OXE d   1       0.899   1.176  -2.189  0.00  0.00     0.078 C 
ATOM      3  C1  OXE d   1       0.017   2.251  -2.773  0.00  0.00    -0.078 A 
ATOM      4  C2  OXE d   1       0.624   3.226  -3.528  0.00  0.00    -0.078 A 
ATOM      5  C3  OXE d   1      -0.151   4.210  -4.135  0.00  0.00     0.003 A 
ATOM      6  C4  OXE d   1      -1.521   4.304  -3.859  0.00  0.00    -0.002 A 
ATOM      7  C5  OXE d   1      -2.152   3.344  -3.061  0.00  0.00    -0.002 A 
ATOM      8  C6  OXE d   1      -1.407   2.289  -2.546  0.00  0.00     0.003 A 
ENDROOT
TORSDOF 0
ENDMDL
