MODEL 1
REMARK minimizedAffinity -2.45888948
REMARK minimizedRMSD -1
REMARK  0 active torsions:
REMARK  status: ('A' for Active; 'I' for Inactive)
ROOT
ATOM      1  C2' OXE d   1      -0.660  -0.563  -1.639  0.00  0.00     0.078 C 
ATOM      2  C1' OXE d   1      -0.558   1.011   0.683  0.00  0.00     0.078 C 
ATOM      3  C1  OXE d   1      -0.763   1.714  -0.635  0.00  0.00    -0.078 A 
ATOM      4  C2  OXE d   1      -0.765   0.941  -1.771  0.00  0.00    -0.078 A 
ATOM      5  C3  OXE d   1      -1.005   1.533  -3.007  0.00  0.00     0.003 A 
ATOM      6  C4  OXE d   1      -1.091   2.926  -3.122  0.00  0.00    -0.002 A 
ATOM      7  C5  OXE d   1      -1.052   3.735  -1.982  0.00  0.00    -0.002 A 
ATOM      8  C6  OXE d   1      -0.932   3.143  -0.729  0.00  0.00     0.003 A 
ENDROOT
TORSDOF 0
ENDMDL
