MODEL 1
REMARK minimizedAffinity -4.05469513
REMARK minimizedRMSD -1
REMARK  0 active torsions:
REMARK  status: ('A' for Active; 'I' for Inactive)
ROOT
ATOM      1  C2' OXE d   1      -0.013  -0.064  -1.147  0.00  0.00     0.078 C 
ATOM      2  C1' OXE d   1      -1.351  -0.081   1.320  0.00  0.00     0.078 C 
ATOM      3  C1  OXE d   1      -0.077  -0.879   1.206  0.00  0.00    -0.078 A 
ATOM      4  C2  OXE d   1       0.547  -0.903  -0.019  0.00  0.00    -0.078 A 
ATOM      5  C3  OXE d   1       1.755  -1.579  -0.164  0.00  0.00     0.003 A 
ATOM      6  C4  OXE d   1       2.260  -2.361   0.882  0.00  0.00    -0.002 A 
ATOM      7  C5  OXE d   1       1.619  -2.382   2.125  0.00  0.00    -0.002 A 
ATOM      8  C6  OXE d   1       0.476  -1.615   2.316  0.00  0.00     0.003 A 
ENDROOT
TORSDOF 0
ENDMDL
