MODEL 1
REMARK minimizedAffinity -2.26047564
REMARK minimizedRMSD -1
REMARK  0 active torsions:
REMARK  status: ('A' for Active; 'I' for Inactive)
ROOT
ATOM      1  C2' OXE d   1      -1.473   1.359  -3.696  0.00  0.00     0.078 C 
ATOM      2  C1' OXE d   1      -0.709   3.428  -1.960  0.00  0.00     0.078 C 
ATOM      3  C1  OXE d   1      -0.666   2.016  -1.433  0.00  0.00    -0.078 A 
ATOM      4  C2  OXE d   1      -1.086   1.014  -2.274  0.00  0.00    -0.078 A 
ATOM      5  C3  OXE d   1      -1.014  -0.312  -1.857  0.00  0.00     0.003 A 
ATOM      6  C4  OXE d   1      -0.665  -0.622  -0.537  0.00  0.00    -0.002 A 
ATOM      7  C5  OXE d   1      -0.271   0.387   0.349  0.00  0.00    -0.002 A 
ATOM      8  C6  OXE d   1      -0.225   1.704  -0.096  0.00  0.00     0.003 A 
ENDROOT
TORSDOF 0
ENDMDL
