MODEL 1
REMARK minimizedAffinity -0.371143699
REMARK minimizedRMSD -1
REMARK  0 active torsions:
REMARK  status: ('A' for Active; 'I' for Inactive)
ROOT
ATOM      1  C2' OXE d   1      -0.410   0.278  -2.083  0.00  0.00     0.078 C 
ATOM      2  C1' OXE d   1       0.982   2.488  -3.111  0.00  0.00     0.078 C 
ATOM      3  C1  OXE d   1      -0.481   2.665  -2.792  0.00  0.00    -0.078 A 
ATOM      4  C2  OXE d   1      -1.166   1.565  -2.333  0.00  0.00    -0.078 A 
ATOM      5  C3  OXE d   1      -2.504   1.688  -1.971  0.00  0.00     0.003 A 
ATOM      6  C4  OXE d   1      -3.198   2.879  -2.215  0.00  0.00    -0.002 A 
ATOM      7  C5  OXE d   1      -2.529   4.000  -2.718  0.00  0.00    -0.002 A 
ATOM      8  C6  OXE d   1      -1.164   3.922  -2.972  0.00  0.00     0.003 A 
ENDROOT
TORSDOF 0
ENDMDL
