MODEL 1
REMARK minimizedAffinity -0.796042442
REMARK minimizedRMSD -1
REMARK  0 active torsions:
REMARK  status: ('A' for Active; 'I' for Inactive)
ROOT
ATOM      1  C2' OXE d   1      -0.460   1.028  -0.708  0.00  0.00     0.078 C 
ATOM      2  C1' OXE d   1      -1.892   0.882   1.702  0.00  0.00     0.078 C 
ATOM      3  C1  OXE d   1      -0.699  -0.025   1.536  0.00  0.00    -0.078 A 
ATOM      4  C2  OXE d   1      -0.032   0.020   0.336  0.00  0.00    -0.078 A 
ATOM      5  C3  OXE d   1       1.108  -0.757   0.151  0.00  0.00     0.003 A 
ATOM      6  C4  OXE d   1       1.491  -1.695   1.117  0.00  0.00    -0.002 A 
ATOM      7  C5  OXE d   1       0.803  -1.785   2.331  0.00  0.00    -0.002 A 
ATOM      8  C6  OXE d   1      -0.267  -0.929   2.574  0.00  0.00     0.003 A 
ENDROOT
TORSDOF 0
ENDMDL
