MODEL 1
REMARK minimizedAffinity 19.1087246
REMARK minimizedRMSD -1
REMARK  0 active torsions:
REMARK  status: ('A' for Active; 'I' for Inactive)
ROOT
ATOM      1  C   UNL d   1       3.562  -0.645   0.416  0.00  0.00     0.124 A 
ATOM      2  C1  UNL d   1       2.514  -0.064  -0.285  0.00  0.00     0.062 A 
ATOM      3  C2  UNL d   1       1.651  -0.857  -1.037  0.00  0.00     0.162 A 
ATOM      4  C3  UNL d   1       1.832  -2.239  -1.091  0.00  0.00    -0.034 A 
ATOM      5  C4  UNL d   1       2.889  -2.815  -0.384  0.00  0.00     0.162 A 
ATOM      6  C5  UNL d   1       3.749  -2.019   0.366  0.00  0.00     0.062 A 
ATOM      7  F   UNL d   1       4.761  -2.581   1.043  0.00  0.00    -0.097 F 
ATOM      8  F1  UNL d   1       3.092  -4.141  -0.413  0.00  0.00    -0.096 F 
ATOM      9  I   UNL d   1       0.544  -3.427  -2.213  0.00  0.00    -0.060 I 
ATOM     10  F2  UNL d   1       0.647  -0.269  -1.704  0.00  0.00    -0.096 F 
ATOM     11  F3  UNL d   1       2.332   1.263  -0.240  0.00  0.00    -0.097 F 
ATOM     12  F4  UNL d   1       4.392   0.120   1.137  0.00  0.00    -0.092 F 
ENDROOT
TORSDOF 0
ENDMDL
