MODEL 1
REMARK minimizedAffinity 29.4262791
REMARK minimizedRMSD -1
REMARK  0 active torsions:
REMARK  status: ('A' for Active; 'I' for Inactive)
ROOT
ATOM      1  C   UNL d   1       1.283  -1.908  -1.958  0.00  0.00     0.124 A 
ATOM      2  C1  UNL d   1       0.696  -3.128  -2.263  0.00  0.00     0.062 A 
ATOM      3  C2  UNL d   1       1.162  -4.297  -1.669  0.00  0.00     0.162 A 
ATOM      4  C3  UNL d   1       2.221  -4.252  -0.762  0.00  0.00    -0.034 A 
ATOM      5  C4  UNL d   1       2.807  -3.021  -0.461  0.00  0.00     0.162 A 
ATOM      6  C5  UNL d   1       2.338  -1.856  -1.057  0.00  0.00     0.062 A 
ATOM      7  F   UNL d   1       2.907  -0.678  -0.761  0.00  0.00    -0.097 F 
ATOM      8  F1  UNL d   1       3.827  -2.942   0.407  0.00  0.00    -0.096 F 
ATOM      9  I   UNL d   1       2.920  -5.998   0.129  0.00  0.00    -0.060 I 
ATOM     10  F2  UNL d   1       0.575  -5.462  -1.982  0.00  0.00    -0.096 F 
ATOM     11  F3  UNL d   1      -0.322  -3.181  -3.134  0.00  0.00    -0.097 F 
ATOM     12  F4  UNL d   1       0.834  -0.784  -2.532  0.00  0.00    -0.092 F 
ENDROOT
TORSDOF 0
ENDMDL
