MODEL 1
REMARK minimizedAffinity 39.3268929
REMARK minimizedRMSD -1
REMARK  0 active torsions:
REMARK  status: ('A' for Active; 'I' for Inactive)
ROOT
ATOM      1  C   UNL d   1       2.632   1.243   1.785  0.00  0.00     0.124 A 
ATOM      2  C1  UNL d   1       2.158   1.429   3.076  0.00  0.00     0.062 A 
ATOM      3  C2  UNL d   1       0.793   1.358   3.338  0.00  0.00     0.162 A 
ATOM      4  C3  UNL d   1      -0.109   1.098   2.307  0.00  0.00    -0.034 A 
ATOM      5  C4  UNL d   1       0.374   0.912   1.010  0.00  0.00     0.162 A 
ATOM      6  C5  UNL d   1       1.740   0.985   0.753  0.00  0.00     0.062 A 
ATOM      7  F   UNL d   1       2.195   0.804  -0.495  0.00  0.00    -0.097 F 
ATOM      8  F1  UNL d   1      -0.465   0.661  -0.005  0.00  0.00    -0.096 F 
ATOM      9  I   UNL d   1      -2.151   0.991   2.695  0.00  0.00    -0.060 I 
ATOM     10  F2  UNL d   1       0.364   1.543   4.596  0.00  0.00    -0.096 F 
ATOM     11  F3  UNL d   1       3.018   1.680   4.074  0.00  0.00    -0.097 F 
ATOM     12  F4  UNL d   1       3.945   1.313   1.535  0.00  0.00    -0.092 F 
ENDROOT
TORSDOF 0
ENDMDL
