MODEL 1
REMARK minimizedAffinity 7.37057161
REMARK minimizedRMSD -1
REMARK  0 active torsions:
REMARK  status: ('A' for Active; 'I' for Inactive)
ROOT
ATOM      1  C   UNL d   1       1.857   1.733  -1.907  0.00  0.00     0.124 A 
ATOM      2  C1  UNL d   1       2.267   1.570  -0.591  0.00  0.00     0.062 A 
ATOM      3  C2  UNL d   1       2.583   0.304  -0.108  0.00  0.00     0.162 A 
ATOM      4  C3  UNL d   1       2.492  -0.811  -0.942  0.00  0.00    -0.034 A 
ATOM      5  C4  UNL d   1       2.078  -0.639  -2.265  0.00  0.00     0.162 A 
ATOM      6  C5  UNL d   1       1.764   0.629  -2.743  0.00  0.00     0.062 A 
ATOM      7  F   UNL d   1       1.368   0.785  -4.015  0.00  0.00    -0.097 F 
ATOM      8  F1  UNL d   1       1.980  -1.689  -3.094  0.00  0.00    -0.096 F 
ATOM      9  I   UNL d   1       2.964  -2.706  -0.224  0.00  0.00    -0.060 I 
ATOM     10  F2  UNL d   1       2.975   0.176   1.168  0.00  0.00    -0.096 F 
ATOM     11  F3  UNL d   1       2.357   2.635   0.218  0.00  0.00    -0.097 F 
ATOM     12  F4  UNL d   1       1.553   2.953  -2.369  0.00  0.00    -0.092 F 
ENDROOT
TORSDOF 0
ENDMDL
