MODEL 1
REMARK minimizedAffinity 25.0772152
REMARK minimizedRMSD -1
REMARK  0 active torsions:
REMARK  status: ('A' for Active; 'I' for Inactive)
ROOT
ATOM      1  C   UNL d   1       2.520   3.513  -0.549  0.00  0.00     0.124 A 
ATOM      2  C1  UNL d   1       2.998   2.277  -0.133  0.00  0.00     0.062 A 
ATOM      3  C2  UNL d   1       2.873   1.165  -0.960  0.00  0.00     0.162 A 
ATOM      4  C3  UNL d   1       2.268   1.281  -2.211  0.00  0.00    -0.034 A 
ATOM      5  C4  UNL d   1       1.789   2.527  -2.621  0.00  0.00     0.162 A 
ATOM      6  C5  UNL d   1       1.916   3.636  -1.792  0.00  0.00     0.062 A 
ATOM      7  F   UNL d   1       1.453   4.828  -2.195  0.00  0.00    -0.097 F 
ATOM      8  F1  UNL d   1       1.202   2.674  -3.818  0.00  0.00    -0.096 F 
ATOM      9  I   UNL d   1       2.080  -0.380  -3.450  0.00  0.00    -0.060 I 
ATOM     10  F2  UNL d   1       3.344  -0.016  -0.532  0.00  0.00    -0.096 F 
ATOM     11  F3  UNL d   1       3.581   2.155   1.068  0.00  0.00    -0.097 F 
ATOM     12  F4  UNL d   1       2.640   4.582   0.249  0.00  0.00    -0.092 F 
ENDROOT
TORSDOF 0
ENDMDL
