MODEL 1
REMARK minimizedAffinity 27.5498104
REMARK minimizedRMSD -1
REMARK  0 active torsions:
REMARK  status: ('A' for Active; 'I' for Inactive)
ROOT
ATOM      1  C   UNL d   1       2.321   3.433  -2.320  0.00  0.00     0.124 A 
ATOM      2  C1  UNL d   1       2.264   2.236  -3.020  0.00  0.00     0.062 A 
ATOM      3  C2  UNL d   1       2.607   1.041  -2.394  0.00  0.00     0.162 A 
ATOM      4  C3  UNL d   1       3.009   1.037  -1.058  0.00  0.00    -0.034 A 
ATOM      5  C4  UNL d   1       3.065   2.245  -0.361  0.00  0.00     0.162 A 
ATOM      6  C5  UNL d   1       2.721   3.437  -0.992  0.00  0.00     0.062 A 
ATOM      7  F   UNL d   1       2.777   4.592  -0.314  0.00  0.00    -0.097 F 
ATOM      8  F1  UNL d   1       3.447   2.278   0.925  0.00  0.00    -0.096 F 
ATOM      9  I   UNL d   1       3.523  -0.747  -0.117  0.00  0.00    -0.060 I 
ATOM     10  F2  UNL d   1       2.542  -0.101  -3.094  0.00  0.00    -0.096 F 
ATOM     11  F3  UNL d   1       1.878   2.229  -4.304  0.00  0.00    -0.097 F 
ATOM     12  F4  UNL d   1       1.991   4.581  -2.926  0.00  0.00    -0.092 F 
ENDROOT
TORSDOF 0
ENDMDL
