MODEL 1
REMARK minimizedAffinity 34.5000343
REMARK minimizedRMSD -1
REMARK  0 active torsions:
REMARK  status: ('A' for Active; 'I' for Inactive)
ROOT
ATOM      1  C   UNL d   1       3.907  -0.465   0.098  0.00  0.00     0.124 A 
ATOM      2  C1  UNL d   1       3.973  -1.832   0.330  0.00  0.00     0.062 A 
ATOM      3  C2  UNL d   1       3.095  -2.695  -0.319  0.00  0.00     0.162 A 
ATOM      4  C3  UNL d   1       2.143  -2.194  -1.207  0.00  0.00    -0.034 A 
ATOM      5  C4  UNL d   1       2.082  -0.817  -1.434  0.00  0.00     0.162 A 
ATOM      6  C5  UNL d   1       2.962   0.041  -0.783  0.00  0.00     0.062 A 
ATOM      7  F   UNL d   1       2.897   1.361  -1.008  0.00  0.00    -0.097 F 
ATOM      8  F1  UNL d   1       1.179  -0.302  -2.282  0.00  0.00    -0.096 F 
ATOM      9  I   UNL d   1       0.828  -3.481  -2.179  0.00  0.00    -0.060 I 
ATOM     10  F2  UNL d   1       3.182  -4.011  -0.076  0.00  0.00    -0.096 F 
ATOM     11  F3  UNL d   1       4.885  -2.323   1.182  0.00  0.00    -0.097 F 
ATOM     12  F4  UNL d   1       4.753   0.364   0.725  0.00  0.00    -0.092 F 
ENDROOT
TORSDOF 0
ENDMDL
