MODEL 1
REMARK minimizedAffinity 6.504035
REMARK minimizedRMSD -1
REMARK  0 active torsions:
REMARK  status: ('A' for Active; 'I' for Inactive)
ROOT
ATOM      1  C   UNL d   1       1.360  -2.392  -2.090  0.00  0.00     0.124 A 
ATOM      2  C1  UNL d   1       1.216  -3.576  -2.800  0.00  0.00     0.062 A 
ATOM      3  C2  UNL d   1       2.136  -4.607  -2.636  0.00  0.00     0.162 A 
ATOM      4  C3  UNL d   1       3.210  -4.460  -1.758  0.00  0.00    -0.034 A 
ATOM      5  C4  UNL d   1       3.349  -3.266  -1.048  0.00  0.00     0.162 A 
ATOM      6  C5  UNL d   1       2.426  -2.238  -1.215  0.00  0.00     0.062 A 
ATOM      7  F   UNL d   1       2.567  -1.095  -0.528  0.00  0.00    -0.097 F 
ATOM      8  F1  UNL d   1       4.369  -3.091  -0.195  0.00  0.00    -0.096 F 
ATOM      9  I   UNL d   1       4.588  -5.999  -1.510  0.00  0.00    -0.060 I 
ATOM     10  F2  UNL d   1       1.972  -5.740  -3.335  0.00  0.00    -0.096 F 
ATOM     11  F3  UNL d   1       0.187  -3.727  -3.647  0.00  0.00    -0.097 F 
ATOM     12  F4  UNL d   1       0.474  -1.401  -2.250  0.00  0.00    -0.092 F 
ENDROOT
TORSDOF 0
ENDMDL
