MODEL 1
REMARK minimizedAffinity 25.0688686
REMARK minimizedRMSD -1
REMARK  0 active torsions:
REMARK  status: ('A' for Active; 'I' for Inactive)
ROOT
ATOM      1  C   UNL d   1      -2.710   1.237   2.607  0.00  0.00     0.124 A 
ATOM      2  C1  UNL d   1      -1.887   0.120   2.604  0.00  0.00     0.062 A 
ATOM      3  C2  UNL d   1      -0.524   0.255   2.356  0.00  0.00     0.162 A 
ATOM      4  C3  UNL d   1       0.025   1.513   2.110  0.00  0.00    -0.034 A 
ATOM      5  C4  UNL d   1      -0.809   2.633   2.114  0.00  0.00     0.162 A 
ATOM      6  C5  UNL d   1      -2.171   2.492   2.362  0.00  0.00     0.062 A 
ATOM      7  F   UNL d   1      -2.965   3.573   2.364  0.00  0.00    -0.097 F 
ATOM      8  F1  UNL d   1      -0.314   3.857   1.881  0.00  0.00    -0.096 F 
ATOM      9  I   UNL d   1       2.063   1.720   1.740  0.00  0.00    -0.060 I 
ATOM     10  F2  UNL d   1       0.248  -0.842   2.360  0.00  0.00    -0.096 F 
ATOM     11  F3  UNL d   1      -2.406  -1.094   2.839  0.00  0.00    -0.097 F 
ATOM     12  F4  UNL d   1      -4.021   1.104   2.844  0.00  0.00    -0.092 F 
ENDROOT
TORSDOF 0
ENDMDL
