MODEL 1
REMARK minimizedAffinity 26.6559544
REMARK minimizedRMSD -1
REMARK  0 active torsions:
REMARK  status: ('A' for Active; 'I' for Inactive)
ROOT
ATOM      1  C   UNL d   1      -3.132   1.481   2.852  0.00  0.00     0.124 A 
ATOM      2  C1  UNL d   1      -2.391   0.320   3.022  0.00  0.00     0.062 A 
ATOM      3  C2  UNL d   1      -1.022   0.320   2.768  0.00  0.00     0.162 A 
ATOM      4  C3  UNL d   1      -0.385   1.485   2.343  0.00  0.00    -0.034 A 
ATOM      5  C4  UNL d   1      -1.137   2.649   2.174  0.00  0.00     0.162 A 
ATOM      6  C5  UNL d   1      -2.505   2.644   2.428  0.00  0.00     0.062 A 
ATOM      7  F   UNL d   1      -3.219   3.767   2.264  0.00  0.00    -0.097 F 
ATOM      8  F1  UNL d   1      -0.556   3.787   1.766  0.00  0.00    -0.096 F 
ATOM      9  I   UNL d   1       1.661   1.489   1.963  0.00  0.00    -0.060 I 
ATOM     10  F2  UNL d   1      -0.331  -0.817   2.941  0.00  0.00    -0.096 F 
ATOM     11  F3  UNL d   1      -2.995  -0.806   3.430  0.00  0.00    -0.097 F 
ATOM     12  F4  UNL d   1      -4.449   1.478   3.095  0.00  0.00    -0.092 F 
ENDROOT
TORSDOF 0
ENDMDL
