MODEL 1
REMARK minimizedAffinity 25.1150532
REMARK minimizedRMSD -1
REMARK  0 active torsions:
REMARK  status: ('A' for Active; 'I' for Inactive)
ROOT
ATOM      1  C   UNL d   1      -0.586   1.657   3.737  0.00  0.00     0.124 A 
ATOM      2  C1  UNL d   1      -1.309   1.390   2.582  0.00  0.00     0.062 A 
ATOM      3  C2  UNL d   1      -2.693   1.540   2.572  0.00  0.00     0.162 A 
ATOM      4  C3  UNL d   1      -3.363   1.961   3.720  0.00  0.00    -0.034 A 
ATOM      5  C4  UNL d   1      -2.630   2.228   4.878  0.00  0.00     0.162 A 
ATOM      6  C5  UNL d   1      -1.247   2.076   4.883  0.00  0.00     0.062 A 
ATOM      7  F   UNL d   1      -0.551   2.335   5.999  0.00  0.00    -0.097 F 
ATOM      8  F1  UNL d   1      -3.243   2.635   5.999  0.00  0.00    -0.096 F 
ATOM      9  I   UNL d   1      -5.432   2.188   3.709  0.00  0.00    -0.060 I 
ATOM     10  F2  UNL d   1      -3.365   1.274   1.443  0.00  0.00    -0.096 F 
ATOM     11  F3  UNL d   1      -0.673   0.984   1.474  0.00  0.00    -0.097 F 
ATOM     12  F4  UNL d   1       0.745   1.511   3.744  0.00  0.00    -0.092 F 
ENDROOT
TORSDOF 0
ENDMDL
