MODEL 1
REMARK minimizedAffinity 27.1714783
REMARK minimizedRMSD -1
REMARK  0 active torsions:
REMARK  status: ('A' for Active; 'I' for Inactive)
ROOT
ATOM      1  C   UNL d   1       0.233   5.982  -1.574  0.00  0.00     0.124 A 
ATOM      2  C1  UNL d   1       1.533   5.983  -2.059  0.00  0.00     0.062 A 
ATOM      3  C2  UNL d   1       2.610   5.987  -1.176  0.00  0.00     0.162 A 
ATOM      4  C3  UNL d   1       2.390   5.990   0.201  0.00  0.00    -0.034 A 
ATOM      5  C4  UNL d   1       1.079   5.991   0.682  0.00  0.00     0.162 A 
ATOM      6  C5  UNL d   1       0.007   5.986  -0.204  0.00  0.00     0.062 A 
ATOM      7  F   UNL d   1      -1.249   5.986   0.266  0.00  0.00    -0.097 F 
ATOM      8  F1  UNL d   1       0.833   5.994   2.000  0.00  0.00    -0.096 F 
ATOM      9  I   UNL d   1       3.997   5.997   1.524  0.00  0.00    -0.060 I 
ATOM     10  F2  UNL d   1       3.855   5.988  -1.673  0.00  0.00    -0.096 F 
ATOM     11  F3  UNL d   1       1.754   5.980  -3.381  0.00  0.00    -0.097 F 
ATOM     12  F4  UNL d   1      -0.801   5.979  -2.425  0.00  0.00    -0.092 F 
ENDROOT
TORSDOF 0
ENDMDL
