MODEL 1
REMARK minimizedAffinity 33.7778244
REMARK minimizedRMSD -1
REMARK  0 active torsions:
REMARK  status: ('A' for Active; 'I' for Inactive)
ROOT
ATOM      1  C   UNL d   1       0.195  -3.591  -2.381  0.00  0.00     0.124 A 
ATOM      2  C1  UNL d   1      -0.287  -2.353  -2.782  0.00  0.00     0.062 A 
ATOM      3  C2  UNL d   1      -1.457  -2.268  -3.532  0.00  0.00     0.162 A 
ATOM      4  C3  UNL d   1      -2.153  -3.424  -3.885  0.00  0.00    -0.034 A 
ATOM      5  C4  UNL d   1      -1.661  -4.665  -3.478  0.00  0.00     0.162 A 
ATOM      6  C5  UNL d   1      -0.491  -4.746  -2.729  0.00  0.00     0.062 A 
ATOM      7  F   UNL d   1      -0.027  -5.942  -2.342  0.00  0.00    -0.097 F 
ATOM      8  F1  UNL d   1      -2.305  -5.797  -3.800  0.00  0.00    -0.096 F 
ATOM      9  I   UNL d   1      -3.902  -3.300  -5.006  0.00  0.00    -0.060 I 
ATOM     10  F2  UNL d   1      -1.900  -1.058  -3.906  0.00  0.00    -0.096 F 
ATOM     11  F3  UNL d   1       0.375  -1.236  -2.448  0.00  0.00    -0.097 F 
ATOM     12  F4  UNL d   1       1.321  -3.671  -1.660  0.00  0.00    -0.092 F 
ENDROOT
TORSDOF 0
ENDMDL
