MODEL 1
REMARK minimizedAffinity 24.4303131
REMARK minimizedRMSD -1
REMARK  0 active torsions:
REMARK  status: ('A' for Active; 'I' for Inactive)
ROOT
ATOM      1  C   UNL d   1      -3.775   1.498   3.774  0.00  0.00     0.124 A 
ATOM      2  C1  UNL d   1      -3.084   1.053   2.656  0.00  0.00     0.062 A 
ATOM      3  C2  UNL d   1      -1.692   1.030   2.656  0.00  0.00     0.162 A 
ATOM      4  C3  UNL d   1      -0.982   1.454   3.780  0.00  0.00    -0.034 A 
ATOM      5  C4  UNL d   1      -1.684   1.902   4.900  0.00  0.00     0.162 A 
ATOM      6  C5  UNL d   1      -3.075   1.922   4.894  0.00  0.00     0.062 A 
ATOM      7  F   UNL d   1      -3.742   2.353   5.975  0.00  0.00    -0.097 F 
ATOM      8  F1  UNL d   1      -1.033   2.316   5.997  0.00  0.00    -0.096 F 
ATOM      9  I   UNL d   1       1.099   1.422   3.784  0.00  0.00    -0.060 I 
ATOM     10  F2  UNL d   1      -1.050   0.595   1.562  0.00  0.00    -0.096 F 
ATOM     11  F3  UNL d   1      -3.758   0.644   1.571  0.00  0.00    -0.097 F 
ATOM     12  F4  UNL d   1      -5.114   1.520   3.770  0.00  0.00    -0.092 F 
ENDROOT
TORSDOF 0
ENDMDL
