MODEL 1
REMARK minimizedAffinity 27.2779408
REMARK minimizedRMSD -1
REMARK  0 active torsions:
REMARK  status: ('A' for Active; 'I' for Inactive)
ROOT
ATOM      1  C   UNL d   1       1.876  -0.133  -2.328  0.00  0.00     0.124 A 
ATOM      2  C1  UNL d   1       2.321   1.006  -1.671  0.00  0.00     0.062 A 
ATOM      3  C2  UNL d   1       2.092   1.162  -0.307  0.00  0.00     0.162 A 
ATOM      4  C3  UNL d   1       1.416   0.175   0.410  0.00  0.00    -0.034 A 
ATOM      5  C4  UNL d   1       0.971  -0.967  -0.257  0.00  0.00     0.162 A 
ATOM      6  C5  UNL d   1       1.202  -1.118  -1.621  0.00  0.00     0.062 A 
ATOM      7  F   UNL d   1       0.772  -2.220  -2.253  0.00  0.00    -0.097 F 
ATOM      8  F1  UNL d   1       0.317  -1.935   0.402  0.00  0.00    -0.096 F 
ATOM      9  I   UNL d   1       1.071   0.405   2.450  0.00  0.00    -0.060 I 
ATOM     10  F2  UNL d   1       2.533   2.273   0.301  0.00  0.00    -0.096 F 
ATOM     11  F3  UNL d   1       2.972   1.960  -2.353  0.00  0.00    -0.097 F 
ATOM     12  F4  UNL d   1       2.097  -0.280  -3.641  0.00  0.00    -0.092 F 
ENDROOT
TORSDOF 0
ENDMDL
