MODEL 1
REMARK minimizedAffinity 0.683307588
REMARK minimizedRMSD -1
REMARK  0 active torsions:
REMARK  status: ('A' for Active; 'I' for Inactive)
ROOT
ATOM      1  C   UNL d   1       2.969  -5.994   0.730  0.00  0.00     0.077 C 
ATOM      2  C1  UNL d   1       2.039  -4.831   0.910  0.00  0.00    -0.074 A 
ATOM      3  C2  UNL d   1       1.785  -4.304   2.181  0.00  0.00    -0.005 A 
ATOM      4  C3  UNL d   1       0.925  -3.216   2.332  0.00  0.00     0.006 A 
ATOM      5  C4  UNL d   1       0.313  -2.644   1.216  0.00  0.00    -0.005 A 
ATOM      6  C5  UNL d   1       0.556  -3.156  -0.062  0.00  0.00    -0.074 A 
ATOM      7  C6  UNL d   1      -0.086  -2.547  -1.273  0.00  0.00     0.077 C 
ATOM      8  C7  UNL d   1       1.426  -4.246  -0.207  0.00  0.00    -0.001 A 
ENDROOT
TORSDOF 0
ENDMDL
