MODEL 1
REMARK minimizedAffinity 6.16673136
REMARK minimizedRMSD -1
REMARK  0 active torsions:
REMARK  status: ('A' for Active; 'I' for Inactive)
ROOT
ATOM      1  C   UNL d   1       2.711   1.722   0.190  0.00  0.00     0.077 C 
ATOM      2  C1  UNL d   1       2.603   1.145   1.570  0.00  0.00    -0.074 A 
ATOM      3  C2  UNL d   1       2.907   1.916   2.697  0.00  0.00    -0.005 A 
ATOM      4  C3  UNL d   1       2.792   1.368   3.975  0.00  0.00     0.006 A 
ATOM      5  C4  UNL d   1       2.374   0.047   4.138  0.00  0.00    -0.005 A 
ATOM      6  C5  UNL d   1       2.065  -0.738   3.023  0.00  0.00    -0.074 A 
ATOM      7  C6  UNL d   1       1.604  -2.157   3.182  0.00  0.00     0.077 C 
ATOM      8  C7  UNL d   1       2.175  -0.179   1.743  0.00  0.00    -0.001 A 
ENDROOT
TORSDOF 0
ENDMDL
