MODEL 1
REMARK minimizedAffinity 1.21342528
REMARK minimizedRMSD -1
REMARK  0 active torsions:
REMARK  status: ('A' for Active; 'I' for Inactive)
ROOT
ATOM      1  C   UNL d   1      -0.388  -2.781   0.350  0.00  0.00     0.077 C 
ATOM      2  C1  UNL d   1       0.434  -2.259   1.491  0.00  0.00    -0.074 A 
ATOM      3  C2  UNL d   1       0.572  -2.994   2.673  0.00  0.00    -0.005 A 
ATOM      4  C3  UNL d   1       1.347  -2.500   3.722  0.00  0.00     0.006 A 
ATOM      5  C4  UNL d   1       1.990  -1.268   3.601  0.00  0.00    -0.005 A 
ATOM      6  C5  UNL d   1       1.864  -0.519   2.427  0.00  0.00    -0.074 A 
ATOM      7  C6  UNL d   1       2.557   0.803   2.276  0.00  0.00     0.077 C 
ATOM      8  C7  UNL d   1       1.089  -1.025   1.374  0.00  0.00    -0.001 A 
ENDROOT
TORSDOF 0
ENDMDL
