MODEL 1
REMARK minimizedAffinity 5.55600595
REMARK minimizedRMSD -1
REMARK  0 active torsions:
REMARK  status: ('A' for Active; 'I' for Inactive)
ROOT
ATOM      1  C   UNL d   1       2.085   0.816   1.088  0.00  0.00     0.077 C 
ATOM      2  C1  UNL d   1       1.454  -0.489   1.472  0.00  0.00    -0.074 A 
ATOM      3  C2  UNL d   1       0.473  -1.078   0.666  0.00  0.00    -0.005 A 
ATOM      4  C3  UNL d   1      -0.098  -2.297   1.032  0.00  0.00     0.006 A 
ATOM      5  C4  UNL d   1       0.304  -2.938   2.204  0.00  0.00    -0.005 A 
ATOM      6  C5  UNL d   1       1.284  -2.365   3.021  0.00  0.00    -0.074 A 
ATOM      7  C6  UNL d   1       1.735  -3.046   4.279  0.00  0.00     0.077 C 
ATOM      8  C7  UNL d   1       1.858  -1.144   2.644  0.00  0.00    -0.001 A 
ENDROOT
TORSDOF 0
ENDMDL
