MODEL 1
REMARK minimizedAffinity -0.599978089
REMARK minimizedRMSD -1
REMARK  0 active torsions:
REMARK  status: ('A' for Active; 'I' for Inactive)
ROOT
ATOM      1  C   UNL d   1       0.874   1.943  -0.540  0.00  0.00     0.077 C 
ATOM      2  C1  UNL d   1       1.477   1.301   0.673  0.00  0.00    -0.074 A 
ATOM      3  C2  UNL d   1       2.385   1.997   1.478  0.00  0.00    -0.005 A 
ATOM      4  C3  UNL d   1       2.931   1.390   2.609  0.00  0.00     0.006 A 
ATOM      5  C4  UNL d   1       2.575   0.083   2.946  0.00  0.00    -0.005 A 
ATOM      6  C5  UNL d   1       1.669  -0.628   2.154  0.00  0.00    -0.074 A 
ATOM      7  C6  UNL d   1       1.268  -2.029   2.507  0.00  0.00     0.077 C 
ATOM      8  C7  UNL d   1       1.119  -0.008   1.023  0.00  0.00    -0.001 A 
ENDROOT
TORSDOF 0
ENDMDL
