MODEL 1
REMARK minimizedAffinity 0.728835583
REMARK minimizedRMSD -1
REMARK  0 active torsions:
REMARK  status: ('A' for Active; 'I' for Inactive)
ROOT
ATOM      1  C   UNL d   1       3.752  -0.588  -6.000  0.00  0.00     0.077 C 
ATOM      2  C1  UNL d   1       3.864  -1.881  -5.248  0.00  0.00    -0.074 A 
ATOM      3  C2  UNL d   1       4.070  -1.892  -3.864  0.00  0.00    -0.005 A 
ATOM      4  C3  UNL d   1       4.163  -3.102  -3.177  0.00  0.00     0.006 A 
ATOM      5  C4  UNL d   1       4.052  -4.311  -3.864  0.00  0.00    -0.005 A 
ATOM      6  C5  UNL d   1       3.844  -4.320  -5.247  0.00  0.00    -0.074 A 
ATOM      7  C6  UNL d   1       3.712  -5.611  -6.000  0.00  0.00     0.077 C 
ATOM      8  C7  UNL d   1       3.745  -3.100  -5.930  0.00  0.00    -0.001 A 
ENDROOT
TORSDOF 0
ENDMDL
