MODEL 1
REMARK minimizedAffinity -2.56731439
REMARK minimizedRMSD -1
REMARK  0 active torsions:
REMARK  status: ('A' for Active; 'I' for Inactive)
ROOT
ATOM      1  C   UNL d   1      -0.488  -2.506   0.049  0.00  0.00     0.077 C 
ATOM      2  C1  UNL d   1       0.463  -1.853   1.008  0.00  0.00    -0.074 A 
ATOM      3  C2  UNL d   1       0.758  -2.442   2.241  0.00  0.00    -0.005 A 
ATOM      4  C3  UNL d   1       1.651  -1.828   3.118  0.00  0.00     0.006 A 
ATOM      5  C4  UNL d   1       2.259  -0.621   2.771  0.00  0.00    -0.005 A 
ATOM      6  C5  UNL d   1       1.977  -0.017   1.542  0.00  0.00    -0.074 A 
ATOM      7  C6  UNL d   1       2.629   1.276   1.149  0.00  0.00     0.077 C 
ATOM      8  C7  UNL d   1       1.083  -0.644   0.663  0.00  0.00    -0.001 A 
ENDROOT
TORSDOF 0
ENDMDL
