MODEL 1
REMARK minimizedAffinity -1.24817002
REMARK minimizedRMSD -1
REMARK  0 active torsions:
REMARK  status: ('A' for Active; 'I' for Inactive)
ROOT
ATOM      1  C   UNL d   1       4.164   0.952   5.987  0.00  0.00     0.172 C 
ATOM      2  N   UNL d   1       4.160   2.396   5.992  0.00  0.00    -0.070 N 
ATOM      3  C1  UNL d   1       3.045   3.191   5.995  0.00  0.00    -0.004 A 
ATOM      4  C2  UNL d   1       3.463   4.505   5.999  0.00  0.00    -0.047 A 
ATOM      5  C3  UNL d   1       4.878   4.499   5.998  0.00  0.00    -0.047 A 
ATOM      6  C4  UNL d   1       5.283   3.180   5.993  0.00  0.00    -0.004 A 
ENDROOT
TORSDOF 0
ENDMDL
