MODEL 1
REMARK minimizedAffinity -2.06178021
REMARK minimizedRMSD -1
REMARK  0 active torsions:
REMARK  status: ('A' for Active; 'I' for Inactive)
ROOT
ATOM      1  C   UNL d   1       5.913   5.649   5.998  0.00  0.00     0.172 C 
ATOM      2  N   UNL d   1       5.435   4.398   5.457  0.00  0.00    -0.070 N 
ATOM      3  C1  UNL d   1       4.448   3.620   6.000  0.00  0.00    -0.004 A 
ATOM      4  C2  UNL d   1       4.287   2.517   5.189  0.00  0.00    -0.047 A 
ATOM      5  C3  UNL d   1       5.211   2.636   4.124  0.00  0.00    -0.047 A 
ATOM      6  C4  UNL d   1       5.909   3.810   4.315  0.00  0.00    -0.004 A 
ENDROOT
TORSDOF 0
ENDMDL
