MODEL 1
REMARK minimizedAffinity -1.66285503
REMARK minimizedRMSD -1
REMARK  0 active torsions:
REMARK  status: ('A' for Active; 'I' for Inactive)
ROOT
ATOM      1  C   UNL d   1       4.867   5.848   5.982  0.00  0.00     0.172 C 
ATOM      2  N   UNL d   1       4.625   4.517   5.478  0.00  0.00    -0.070 N 
ATOM      3  C1  UNL d   1       5.264   3.937   4.414  0.00  0.00    -0.004 A 
ATOM      4  C2  UNL d   1       4.751   2.668   4.255  0.00  0.00    -0.047 A 
ATOM      5  C3  UNL d   1       3.770   2.478   5.257  0.00  0.00    -0.047 A 
ATOM      6  C4  UNL d   1       3.712   3.638   6.000  0.00  0.00    -0.004 A 
ENDROOT
TORSDOF 0
ENDMDL
