MODEL 1
REMARK minimizedAffinity -0.132205769
REMARK minimizedRMSD -1
REMARK  0 active torsions:
REMARK  status: ('A' for Active; 'I' for Inactive)
ROOT
ATOM      1  C   UNL d   1       4.080   2.406   4.135  0.00  0.00     0.172 C 
ATOM      2  N   UNL d   1       4.354   3.796   4.413  0.00  0.00    -0.070 N 
ATOM      3  C1  UNL d   1       4.908   4.285   5.566  0.00  0.00    -0.004 A 
ATOM      4  C2  UNL d   1       5.006   5.654   5.439  0.00  0.00    -0.047 A 
ATOM      5  C3  UNL d   1       4.492   5.999   4.167  0.00  0.00    -0.047 A 
ATOM      6  C4  UNL d   1       4.096   4.830   3.553  0.00  0.00    -0.004 A 
ENDROOT
TORSDOF 0
ENDMDL
