MODEL 1
REMARK minimizedAffinity -2.78665495
REMARK minimizedRMSD -1
REMARK  0 active torsions:
REMARK  status: ('A' for Active; 'I' for Inactive)
ROOT
ATOM      1  C   UNL d   1       5.715   4.863   5.999  0.00  0.00     0.172 C 
ATOM      2  N   UNL d   1       4.676   3.893   5.743  0.00  0.00    -0.070 N 
ATOM      3  C1  UNL d   1       4.864   2.641   5.221  0.00  0.00    -0.004 A 
ATOM      4  C2  UNL d   1       3.631   2.031   5.133  0.00  0.00    -0.047 A 
ATOM      5  C3  UNL d   1       2.669   2.949   5.617  0.00  0.00    -0.047 A 
ATOM      6  C4  UNL d   1       3.343   4.093   5.988  0.00  0.00    -0.004 A 
ENDROOT
TORSDOF 0
ENDMDL
