MODEL 1
REMARK minimizedAffinity -3.47487211
REMARK minimizedRMSD -1
REMARK  0 active torsions:
REMARK  status: ('A' for Active; 'I' for Inactive)
ROOT
ATOM      1  C   UNL d   1       5.028   5.228   4.778  0.00  0.00     0.172 C 
ATOM      2  N   UNL d   1       4.414   3.958   5.087  0.00  0.00    -0.070 N 
ATOM      3  C1  UNL d   1       4.877   3.048   6.000  0.00  0.00    -0.004 A 
ATOM      4  C2  UNL d   1       4.015   1.973   5.999  0.00  0.00    -0.047 A 
ATOM      5  C3  UNL d   1       3.000   2.245   5.051  0.00  0.00    -0.047 A 
ATOM      6  C4  UNL d   1       3.271   3.480   4.501  0.00  0.00    -0.004 A 
ENDROOT
TORSDOF 0
ENDMDL
