MODEL 1
REMARK minimizedAffinity -1.93223131
REMARK minimizedRMSD -1
REMARK  0 active torsions:
REMARK  status: ('A' for Active; 'I' for Inactive)
ROOT
ATOM      1  C   UNL d   1       2.586  -1.873  -0.299  0.00  0.00     0.172 C 
ATOM      2  N   UNL d   1       3.144  -0.542  -0.253  0.00  0.00    -0.070 N 
ATOM      3  C1  UNL d   1       2.951   0.370   0.751  0.00  0.00    -0.004 A 
ATOM      4  C2  UNL d   1       3.649   1.512   0.422  0.00  0.00    -0.047 A 
ATOM      5  C3  UNL d   1       4.282   1.279  -0.821  0.00  0.00    -0.047 A 
ATOM      6  C4  UNL d   1       3.953  -0.001  -1.217  0.00  0.00    -0.004 A 
ENDROOT
TORSDOF 0
ENDMDL
