MODEL 1
REMARK minimizedAffinity -3.56590223
REMARK minimizedRMSD -1
REMARK  0 active torsions:
REMARK  status: ('A' for Active; 'I' for Inactive)
ROOT
ATOM      1  C   UNL d   1       4.867   4.419   4.926  0.00  0.00     0.172 C 
ATOM      2  N   UNL d   1       3.942   3.316   5.042  0.00  0.00    -0.070 N 
ATOM      3  C1  UNL d   1       2.838   3.114   4.257  0.00  0.00    -0.004 A 
ATOM      4  C2  UNL d   1       2.222   1.958   4.684  0.00  0.00    -0.047 A 
ATOM      5  C3  UNL d   1       2.982   1.448   5.764  0.00  0.00    -0.047 A 
ATOM      6  C4  UNL d   1       4.040   2.308   5.964  0.00  0.00    -0.004 A 
ENDROOT
TORSDOF 0
ENDMDL
