MODEL 1
REMARK minimizedAffinity -3.42276835
REMARK minimizedRMSD -1
REMARK  0 active torsions:
REMARK  status: ('A' for Active; 'I' for Inactive)
ROOT
ATOM      1  C   UNL d   1       3.121   2.704   3.875  0.00  0.00     0.172 C 
ATOM      2  N   UNL d   1       4.160   3.452   4.543  0.00  0.00    -0.070 N 
ATOM      3  C1  UNL d   1       5.251   2.916   5.172  0.00  0.00    -0.004 A 
ATOM      4  C2  UNL d   1       5.999   3.956   5.680  0.00  0.00    -0.047 A 
ATOM      5  C3  UNL d   1       5.333   5.159   5.346  0.00  0.00    -0.047 A 
ATOM      6  C4  UNL d   1       4.197   4.818   4.643  0.00  0.00    -0.004 A 
ENDROOT
TORSDOF 0
ENDMDL
