MODEL 1
REMARK minimizedAffinity 0.71945411
REMARK minimizedRMSD -1
REMARK  0 active torsions:
REMARK  status: ('A' for Active; 'I' for Inactive)
ROOT
ATOM      1  C   UNL d   1       1.452   4.555   6.000  0.00  0.00     0.172 C 
ATOM      2  N   UNL d   1       2.758   4.274   5.452  0.00  0.00    -0.070 N 
ATOM      3  C1  UNL d   1       3.827   5.131   5.457  0.00  0.00    -0.004 A 
ATOM      4  C2  UNL d   1       4.882   4.492   4.843  0.00  0.00    -0.047 A 
ATOM      5  C3  UNL d   1       4.433   3.208   4.454  0.00  0.00    -0.047 A 
ATOM      6  C4  UNL d   1       3.114   3.100   4.844  0.00  0.00    -0.004 A 
ENDROOT
TORSDOF 0
ENDMDL
