MODEL 1
REMARK minimizedAffinity -3.70239472
REMARK minimizedRMSD -1
REMARK  0 active torsions:
REMARK  status: ('A' for Active; 'I' for Inactive)
ROOT
ATOM      1  C   UNL d   1       5.009   5.236   5.642  0.00  0.00     0.172 C 
ATOM      2  N   UNL d   1       4.089   4.480   4.825  0.00  0.00    -0.070 N 
ATOM      3  C1  UNL d   1       3.923   3.121   4.859  0.00  0.00    -0.004 A 
ATOM      4  C2  UNL d   1       2.957   2.791   3.933  0.00  0.00    -0.047 A 
ATOM      5  C3  UNL d   1       2.528   3.993   3.321  0.00  0.00    -0.047 A 
ATOM      6  C4  UNL d   1       3.245   5.023   3.892  0.00  0.00    -0.004 A 
ENDROOT
TORSDOF 0
ENDMDL
