MODEL 1
REMARK minimizedAffinity -3.18503642
REMARK minimizedRMSD -1
REMARK  0 active torsions:
REMARK  status: ('A' for Active; 'I' for Inactive)
ROOT
ATOM      1  C   UNL d   1       3.920   1.467   5.571  0.00  0.00     0.172 C 
ATOM      2  N   UNL d   1       3.922   2.819   5.064  0.00  0.00    -0.070 N 
ATOM      3  C1  UNL d   1       3.740   3.183   3.757  0.00  0.00    -0.004 A 
ATOM      4  C2  UNL d   1       3.811   4.557   3.687  0.00  0.00    -0.047 A 
ATOM      5  C3  UNL d   1       4.045   5.037   4.998  0.00  0.00    -0.047 A 
ATOM      6  C4  UNL d   1       4.109   3.940   5.831  0.00  0.00    -0.004 A 
ENDROOT
TORSDOF 0
ENDMDL
