MODEL 1
REMARK minimizedAffinity -0.279338241
REMARK minimizedRMSD -1
REMARK  0 active torsions:
REMARK  status: ('A' for Active; 'I' for Inactive)
ROOT
ATOM      1  C   UNL d   1       3.285   1.454   5.503  0.00  0.00     0.172 C 
ATOM      2  N   UNL d   1       3.793   2.749   5.118  0.00  0.00    -0.070 N 
ATOM      3  C1  UNL d   1       4.088   3.144   3.840  0.00  0.00    -0.004 A 
ATOM      4  C2  UNL d   1       4.544   4.443   3.894  0.00  0.00    -0.047 A 
ATOM      5  C3  UNL d   1       4.523   4.843   5.252  0.00  0.00    -0.047 A 
ATOM      6  C4  UNL d   1       4.054   3.775   5.987  0.00  0.00    -0.004 A 
ENDROOT
TORSDOF 0
ENDMDL
