MODEL 1
REMARK minimizedAffinity 3.8609519
REMARK minimizedRMSD -1
REMARK  0 active torsions:
REMARK  status: ('A' for Active; 'I' for Inactive)
ROOT
ATOM      1  N1  IND d   1      -4.204   4.207  -3.187  0.00  0.00    -0.196 N 
ATOM      2  C2  IND d   1      -4.674   4.619  -1.972  0.00  0.00     0.054 A 
ATOM      3  C3  IND d   1      -4.170   3.846  -0.985  0.00  0.00    -0.031 A 
ATOM      4  C4  IND d   1      -2.476   1.912  -1.125  0.00  0.00     0.051 A 
ATOM      5  C5  IND d   1      -1.788   1.146  -2.024  0.00  0.00    -0.031 A 
ATOM      6  C6  IND d   1      -1.870   1.367  -3.384  0.00  0.00     0.015 A 
ATOM      7  C7  IND d   1      -2.637   2.375  -3.897  0.00  0.00    -0.016 A 
ATOM      8  C8  IND d   1      -3.342   3.150  -2.988  0.00  0.00    -0.047 A 
ATOM      9  C9  IND d   1      -3.297   2.903  -1.610  0.00  0.00    -0.096 A 
ATOM     10  HN1 IND d   1      -4.411   4.549  -3.948  0.00  0.00     0.298 HD
ENDROOT
TORSDOF 0
ENDMDL
