MODEL 1
REMARK minimizedAffinity -1.26031017
REMARK minimizedRMSD -1
REMARK  0 active torsions:
REMARK  status: ('A' for Active; 'I' for Inactive)
ROOT
ATOM      1  N1  IND d   1      -0.298  -0.682   1.937  0.00  0.00    -0.196 N 
ATOM      2  C2  IND d   1       0.822  -1.128   2.582  0.00  0.00     0.054 A 
ATOM      3  C3  IND d   1       1.866  -0.304   2.338  0.00  0.00    -0.031 A 
ATOM      4  C4  IND d   1       1.937   1.889   0.992  0.00  0.00     0.051 A 
ATOM      5  C5  IND d   1       1.171   2.685   0.188  0.00  0.00    -0.031 A 
ATOM      6  C6  IND d   1      -0.152   2.396  -0.076  0.00  0.00     0.015 A 
ATOM      7  C7  IND d   1      -0.763   1.300   0.464  0.00  0.00    -0.016 A 
ATOM      8  C8  IND d   1       0.014   0.485   1.275  0.00  0.00    -0.047 A 
ATOM      9  C9  IND d   1       1.369   0.751   1.513  0.00  0.00    -0.096 A 
ATOM     10  HN1 IND d   1      -1.067  -1.066   1.944  0.00  0.00     0.298 HD
ENDROOT
TORSDOF 0
ENDMDL
