MODEL 1
REMARK minimizedAffinity 1.86069202
REMARK minimizedRMSD -1
REMARK  0 active torsions:
REMARK  status: ('A' for Active; 'I' for Inactive)
ROOT
ATOM      1  N1  IND d   1      -1.989  -1.797  -2.924  0.00  0.00    -0.196 N 
ATOM      2  C2  IND d   1      -2.368  -0.678  -3.611  0.00  0.00     0.054 A 
ATOM      3  C3  IND d   1      -2.148   0.428  -2.866  0.00  0.00    -0.031 A 
ATOM      4  C4  IND d   1      -1.079   0.644  -0.533  0.00  0.00     0.051 A 
ATOM      5  C5  IND d   1      -0.606  -0.104   0.508  0.00  0.00    -0.031 A 
ATOM      6  C6  IND d   1      -0.567  -1.483   0.457  0.00  0.00     0.015 A 
ATOM      7  C7  IND d   1      -0.990  -2.167  -0.648  0.00  0.00    -0.016 A 
ATOM      8  C8  IND d   1      -1.477  -1.411  -1.704  0.00  0.00    -0.047 A 
ATOM      9  C9  IND d   1      -1.560  -0.014  -1.641  0.00  0.00    -0.096 A 
ATOM     10  HN1 IND d   1      -2.058  -2.607  -3.206  0.00  0.00     0.298 HD
ENDROOT
TORSDOF 0
ENDMDL
