MODEL 1
REMARK minimizedAffinity 4.74713421
REMARK minimizedRMSD -1
REMARK  0 active torsions:
REMARK  status: ('A' for Active; 'I' for Inactive)
ROOT
ATOM      1  N1  IND d   1      -0.464  -1.304  -1.492  0.00  0.00    -0.196 N 
ATOM      2  C2  IND d   1      -0.244  -0.769  -0.254  0.00  0.00     0.054 A 
ATOM      3  C3  IND d   1      -0.877   0.420  -0.137  0.00  0.00    -0.031 A 
ATOM      4  C4  IND d   1      -2.413   1.628  -1.813  0.00  0.00     0.051 A 
ATOM      5  C5  IND d   1      -2.885   1.547  -3.093  0.00  0.00    -0.031 A 
ATOM      6  C6  IND d   1      -2.570   0.489  -3.920  0.00  0.00     0.015 A 
ATOM      7  C7  IND d   1      -1.777  -0.538  -3.493  0.00  0.00    -0.016 A 
ATOM      8  C8  IND d   1      -1.290  -0.456  -2.196  0.00  0.00    -0.047 A 
ATOM      9  C9  IND d   1      -1.571   0.637  -1.366  0.00  0.00    -0.096 A 
ATOM     10  HN1 IND d   1      -0.141  -2.046  -1.783  0.00  0.00     0.298 HD
ENDROOT
TORSDOF 0
ENDMDL
