MODEL 1
REMARK minimizedAffinity -1.37912273
REMARK minimizedRMSD -1
REMARK  0 active torsions:
REMARK  status: ('A' for Active; 'I' for Inactive)
ROOT
ATOM      1  N1  IND d   1       4.070  -2.184  -3.829  0.00  0.00    -0.196 N 
ATOM      2  C2  IND d   1       4.441  -1.561  -4.988  0.00  0.00     0.054 A 
ATOM      3  C3  IND d   1       4.515  -2.455  -5.999  0.00  0.00    -0.031 A 
ATOM      4  C4  IND d   1       3.972  -4.972  -6.000  0.00  0.00     0.051 A 
ATOM      5  C5  IND d   1       3.628  -6.000  -5.168  0.00  0.00    -0.031 A 
ATOM      6  C6  IND d   1       3.407  -5.804  -3.820  0.00  0.00     0.015 A 
ATOM      7  C7  IND d   1       3.511  -4.565  -3.254  0.00  0.00    -0.016 A 
ATOM      8  C8  IND d   1       3.867  -3.520  -4.094  0.00  0.00    -0.047 A 
ATOM      9  C9  IND d   1       4.134  -3.720  -5.455  0.00  0.00    -0.096 A 
ATOM     10  HN1 IND d   1       3.980  -1.804  -3.063  0.00  0.00     0.298 HD
ENDROOT
TORSDOF 0
ENDMDL
