MODEL 1
REMARK minimizedAffinity -1.61274421
REMARK minimizedRMSD -1
REMARK  0 active torsions:
REMARK  status: ('A' for Active; 'I' for Inactive)
ROOT
ATOM      1  C   UNL d   1       0.413   0.958   0.469  0.00  0.00     0.023 A 
ATOM      2  C1  UNL d   1       1.739   0.715   0.827  0.00  0.00     0.003 A 
ATOM      3  C2  UNL d   1       2.518   1.742   1.364  0.00  0.00     0.048 A 
ATOM      4  C3  UNL d   1       1.964   3.009   1.543  0.00  0.00     0.023 A 
ATOM      5  C4  UNL d   1       0.637   3.256   1.187  0.00  0.00     0.048 A 
ATOM      6  C5  UNL d   1      -0.138   2.227   0.649  0.00  0.00     0.003 A 
ATOM      7  I   UNL d   1       3.121   4.539   2.343  0.00  0.00    -0.146 I 
ENDROOT
TORSDOF 0
ENDMDL
