MODEL 1
REMARK minimizedAffinity 9.65528393
REMARK minimizedRMSD -1
REMARK  0 active torsions:
REMARK  status: ('A' for Active; 'I' for Inactive)
ROOT
ATOM      1  C   UNL d   1       1.191   1.063   1.556  0.00  0.00     0.023 A 
ATOM      2  C1  UNL d   1       1.400   2.112   2.452  0.00  0.00     0.003 A 
ATOM      3  C2  UNL d   1       2.563   2.881   2.369  0.00  0.00     0.048 A 
ATOM      4  C3  UNL d   1       3.512   2.596   1.388  0.00  0.00     0.023 A 
ATOM      5  C4  UNL d   1       3.306   1.549   0.488  0.00  0.00     0.048 A 
ATOM      6  C5  UNL d   1       2.142   0.782   0.575  0.00  0.00     0.003 A 
ATOM      7  I   UNL d   1       5.243   3.739   1.263  0.00  0.00    -0.146 I 
ENDROOT
TORSDOF 0
ENDMDL
