MODEL 1
REMARK minimizedAffinity 7.57090235
REMARK minimizedRMSD -1
REMARK  0 active torsions:
REMARK  status: ('A' for Active; 'I' for Inactive)
ROOT
ATOM      1  C   UNL d   1      -1.909   2.455   1.924  0.00  0.00     0.023 A 
ATOM      2  C1  UNL d   1      -1.326   2.401   3.189  0.00  0.00     0.003 A 
ATOM      3  C2  UNL d   1       0.036   2.668   3.344  0.00  0.00     0.048 A 
ATOM      4  C3  UNL d   1       0.808   2.991   2.228  0.00  0.00     0.023 A 
ATOM      5  C4  UNL d   1       0.228   3.047   0.960  0.00  0.00     0.048 A 
ATOM      6  C5  UNL d   1      -1.134   2.778   0.810  0.00  0.00     0.003 A 
ATOM      7  I   UNL d   1       2.835   3.389   2.455  0.00  0.00    -0.146 I 
ENDROOT
TORSDOF 0
ENDMDL
