MODEL 1
REMARK minimizedAffinity 3.64670634
REMARK minimizedRMSD -1
REMARK  0 active torsions:
REMARK  status: ('A' for Active; 'I' for Inactive)
ROOT
ATOM      1  C   UNL d   1      -1.517   1.452   0.343  0.00  0.00     0.023 A 
ATOM      2  C1  UNL d   1      -0.495   1.234  -0.582  0.00  0.00     0.003 A 
ATOM      3  C2  UNL d   1       0.833   1.472  -0.225  0.00  0.00     0.048 A 
ATOM      4  C3  UNL d   1       1.134   1.926   1.059  0.00  0.00     0.023 A 
ATOM      5  C4  UNL d   1       0.115   2.145   1.988  0.00  0.00     0.048 A 
ATOM      6  C5  UNL d   1      -1.212   1.907   1.626  0.00  0.00     0.003 A 
ATOM      7  I   UNL d   1       3.111   2.280   1.593  0.00  0.00    -0.146 I 
ENDROOT
TORSDOF 0
ENDMDL
