MODEL 1
REMARK minimizedAffinity 4.15105152
REMARK minimizedRMSD -1
REMARK  0 active torsions:
REMARK  status: ('A' for Active; 'I' for Inactive)
ROOT
ATOM      1  C   UNL d   1      -2.303   1.873  -0.782  0.00  0.00     0.023 A 
ATOM      2  C1  UNL d   1      -1.289   2.818  -0.937  0.00  0.00     0.003 A 
ATOM      3  C2  UNL d   1      -0.155   2.769  -0.124  0.00  0.00     0.048 A 
ATOM      4  C3  UNL d   1      -0.041   1.770   0.842  0.00  0.00     0.023 A 
ATOM      5  C4  UNL d   1      -1.052   0.821   1.001  0.00  0.00     0.048 A 
ATOM      6  C5  UNL d   1      -2.184   0.875   0.186  0.00  0.00     0.003 A 
ATOM      7  I   UNL d   1       1.646   1.693   2.054  0.00  0.00    -0.146 I 
ENDROOT
TORSDOF 0
ENDMDL
