MODEL 1
REMARK minimizedAffinity -0.296591252
REMARK minimizedRMSD -1
REMARK  0 active torsions:
REMARK  status: ('A' for Active; 'I' for Inactive)
ROOT
ATOM      1  C   UNL d   1      -0.163   0.909   0.881  0.00  0.00     0.023 A 
ATOM      2  C1  UNL d   1      -0.692   2.023   1.533  0.00  0.00     0.003 A 
ATOM      3  C2  UNL d   1       0.161   2.978   2.090  0.00  0.00     0.048 A 
ATOM      4  C3  UNL d   1       1.542   2.814   1.990  0.00  0.00     0.023 A 
ATOM      5  C4  UNL d   1       2.076   1.702   1.338  0.00  0.00     0.048 A 
ATOM      6  C5  UNL d   1       1.220   0.748   0.784  0.00  0.00     0.003 A 
ATOM      7  I   UNL d   1       2.813   4.235   2.817  0.00  0.00    -0.146 I 
ENDROOT
TORSDOF 0
ENDMDL
