MODEL 1
REMARK minimizedAffinity 7.31890202
REMARK minimizedRMSD -1
REMARK  0 active torsions:
REMARK  status: ('A' for Active; 'I' for Inactive)
ROOT
ATOM      1  C   UNL d   1       5.353   5.610   1.875  0.00  0.00     0.023 A 
ATOM      2  C1  UNL d   1       4.013   5.997   1.890  0.00  0.00     0.003 A 
ATOM      3  C2  UNL d   1       3.005   5.030   1.912  0.00  0.00     0.048 A 
ATOM      4  C3  UNL d   1       3.345   3.678   1.919  0.00  0.00     0.023 A 
ATOM      5  C4  UNL d   1       4.684   3.285   1.905  0.00  0.00     0.048 A 
ATOM      6  C5  UNL d   1       5.688   4.256   1.883  0.00  0.00     0.003 A 
ATOM      7  I   UNL d   1       1.847   2.237   1.951  0.00  0.00    -0.146 I 
ENDROOT
TORSDOF 0
ENDMDL
