MODEL 1
REMARK minimizedAffinity 3.21596551
REMARK minimizedRMSD -1
REMARK  0 active torsions:
REMARK  status: ('A' for Active; 'I' for Inactive)
ROOT
ATOM      1  C   UNL d   1       4.000   5.963   0.674  0.00  0.00     0.023 A 
ATOM      2  C1  UNL d   1       3.037   5.964   1.683  0.00  0.00     0.003 A 
ATOM      3  C2  UNL d   1       3.429   5.973   3.023  0.00  0.00     0.048 A 
ATOM      4  C3  UNL d   1       4.785   5.982   3.347  0.00  0.00     0.023 A 
ATOM      5  C4  UNL d   1       5.752   5.981   2.341  0.00  0.00     0.048 A 
ATOM      6  C5  UNL d   1       5.356   5.971   1.002  0.00  0.00     0.003 A 
ATOM      7  I   UNL d   1       5.371   5.995   5.341  0.00  0.00    -0.146 I 
ENDROOT
TORSDOF 0
ENDMDL
