MODEL 1
REMARK minimizedAffinity 7.04323244
REMARK minimizedRMSD -1
REMARK  0 active torsions:
REMARK  status: ('A' for Active; 'I' for Inactive)
ROOT
ATOM      1  C   UNL d   1       2.065   0.940   0.458  0.00  0.00     0.023 A 
ATOM      2  C1  UNL d   1       0.736   0.586   0.226  0.00  0.00     0.003 A 
ATOM      3  C2  UNL d   1      -0.280   1.123   1.020  0.00  0.00     0.048 A 
ATOM      4  C3  UNL d   1       0.041   2.013   2.044  0.00  0.00     0.023 A 
ATOM      5  C4  UNL d   1       1.369   2.371   2.279  0.00  0.00     0.048 A 
ATOM      6  C5  UNL d   1       2.381   1.831   1.483  0.00  0.00     0.003 A 
ATOM      7  I   UNL d   1      -1.469   2.814   3.227  0.00  0.00    -0.146 I 
ENDROOT
TORSDOF 0
ENDMDL
