MODEL 1
REMARK minimizedAffinity 2.98204923
REMARK minimizedRMSD -1
REMARK  0 active torsions:
REMARK  status: ('A' for Active; 'I' for Inactive)
ROOT
ATOM      1  C   UNL d   1       0.243   3.701   3.547  0.00  0.00     0.023 A 
ATOM      2  C1  UNL d   1       1.566   3.485   3.160  0.00  0.00     0.003 A 
ATOM      3  C2  UNL d   1       1.854   2.611   2.110  0.00  0.00     0.048 A 
ATOM      4  C3  UNL d   1       0.814   1.956   1.451  0.00  0.00     0.023 A 
ATOM      5  C4  UNL d   1      -0.511   2.170   1.834  0.00  0.00     0.048 A 
ATOM      6  C5  UNL d   1      -0.794   3.044   2.885  0.00  0.00     0.003 A 
ATOM      7  I   UNL d   1       1.240   0.655  -0.113  0.00  0.00    -0.146 I 
ENDROOT
TORSDOF 0
ENDMDL
