MODEL 1
REMARK minimizedAffinity 8.46857071
REMARK minimizedRMSD -1
REMARK  0 active torsions:
REMARK  status: ('A' for Active; 'I' for Inactive)
ROOT
ATOM      1  C   UNL d   1       1.949   2.422   2.410  0.00  0.00     0.023 A 
ATOM      2  C1  UNL d   1       0.698   2.915   2.780  0.00  0.00     0.003 A 
ATOM      3  C2  UNL d   1      -0.460   2.393   2.199  0.00  0.00     0.048 A 
ATOM      4  C3  UNL d   1      -0.359   1.377   1.249  0.00  0.00     0.023 A 
ATOM      5  C4  UNL d   1       0.891   0.880   0.876  0.00  0.00     0.048 A 
ATOM      6  C5  UNL d   1       2.046   1.405   1.460  0.00  0.00     0.003 A 
ATOM      7  I   UNL d   1      -2.080   0.599   0.382  0.00  0.00    -0.146 I 
ENDROOT
TORSDOF 0
ENDMDL
