MODEL 1
REMARK minimizedAffinity -1.48270822
REMARK minimizedRMSD -1
REMARK  0 active torsions:
REMARK  status: ('A' for Active; 'I' for Inactive)
ROOT
ATOM      1  O1  BZF d   1       0.436  -0.624   0.852  0.00  0.00    -0.204 OA
ATOM      2  C2  BZF d   1       1.394   0.370   0.799  0.00  0.00     0.174 A 
ATOM      3  C3  BZF d   1       1.248   1.116  -0.315  0.00  0.00    -0.012 A 
ATOM      4  C3A BZF d   1       0.072   0.611  -0.955  0.00  0.00    -0.107 A 
ATOM      5  C4  BZF d   1      -0.597   0.953  -2.095  0.00  0.00     0.055 A 
ATOM      6  C5  BZF d   1      -1.671   0.213  -2.478  0.00  0.00    -0.016 A 
ATOM      7  C6  BZF d   1      -2.099  -0.877  -1.749  0.00  0.00     0.022 A 
ATOM      8  C7  BZF d   1      -1.470  -1.251  -0.608  0.00  0.00     0.029 A 
ATOM      9  C7A BZF d   1      -0.405  -0.486  -0.201  0.00  0.00     0.058 A 
ENDROOT
TORSDOF 0
ENDMDL
