MODEL 1
REMARK minimizedAffinity -1.2389797
REMARK minimizedRMSD -1
REMARK  0 active torsions:
REMARK  status: ('A' for Active; 'I' for Inactive)
ROOT
ATOM      1  O1  BZF d   1       1.419  -0.533   0.330  0.00  0.00    -0.204 OA
ATOM      2  C2  BZF d   1       2.130   0.623   0.588  0.00  0.00     0.174 A 
ATOM      3  C3  BZF d   1       1.502   1.697   0.066  0.00  0.00    -0.012 A 
ATOM      4  C3A BZF d   1       0.279   1.192  -0.477  0.00  0.00    -0.107 A 
ATOM      5  C4  BZF d   1      -0.777   1.776  -1.115  0.00  0.00     0.055 A 
ATOM      6  C5  BZF d   1      -1.782   0.991  -1.584  0.00  0.00    -0.016 A 
ATOM      7  C6  BZF d   1      -1.761  -0.381  -1.438  0.00  0.00     0.022 A 
ATOM      8  C7  BZF d   1      -0.737  -1.006  -0.807  0.00  0.00     0.029 A 
ATOM      9  C7A BZF d   1       0.264  -0.212  -0.303  0.00  0.00     0.058 A 
ENDROOT
TORSDOF 0
ENDMDL
