MODEL 1
REMARK minimizedAffinity -4.83536148
REMARK minimizedRMSD -1
REMARK  0 active torsions:
REMARK  status: ('A' for Active; 'I' for Inactive)
ROOT
ATOM      1  O1  BZF d   1       1.931  -0.016   0.178  0.00  0.00    -0.204 OA
ATOM      2  C2  BZF d   1       0.612  -0.426   0.167  0.00  0.00     0.174 A 
ATOM      3  C3  BZF d   1      -0.174   0.473   0.795  0.00  0.00    -0.012 A 
ATOM      4  C3A BZF d   1       0.696   1.554   1.143  0.00  0.00    -0.107 A 
ATOM      5  C4  BZF d   1       0.501   2.751   1.771  0.00  0.00     0.055 A 
ATOM      6  C5  BZF d   1       1.574   3.548   2.021  0.00  0.00    -0.016 A 
ATOM      7  C6  BZF d   1       2.853   3.177   1.664  0.00  0.00     0.022 A 
ATOM      8  C7  BZF d   1       3.096   2.001   1.034  0.00  0.00     0.029 A 
ATOM      9  C7A BZF d   1       2.010   1.209   0.750  0.00  0.00     0.058 A 
ENDROOT
TORSDOF 0
ENDMDL
