MODEL 1
REMARK minimizedAffinity -3.73268509
REMARK minimizedRMSD -1
REMARK  0 active torsions:
REMARK  status: ('A' for Active; 'I' for Inactive)
ROOT
ATOM      1  O1  BZF d   1      -0.475  -2.664   1.307  0.00  0.00    -0.204 OA
ATOM      2  C2  BZF d   1      -1.498  -3.590   1.241  0.00  0.00     0.174 A 
ATOM      3  C3  BZF d   1      -2.413  -3.227   0.318  0.00  0.00    -0.012 A 
ATOM      4  C3A BZF d   1      -1.884  -2.045  -0.291  0.00  0.00    -0.107 A 
ATOM      5  C4  BZF d   1      -2.327  -1.224  -1.289  0.00  0.00     0.055 A 
ATOM      6  C5  BZF d   1      -1.610  -0.112  -1.596  0.00  0.00    -0.016 A 
ATOM      7  C6  BZF d   1      -0.450   0.213  -0.923  0.00  0.00     0.022 A 
ATOM      8  C7  BZF d   1       0.032  -0.573   0.070  0.00  0.00     0.029 A 
ATOM      9  C7A BZF d   1      -0.673  -1.715   0.361  0.00  0.00     0.058 A 
ENDROOT
TORSDOF 0
ENDMDL
