MODEL 1
REMARK minimizedAffinity -3.21016884
REMARK minimizedRMSD -1
REMARK  0 active torsions:
REMARK  status: ('A' for Active; 'I' for Inactive)
ROOT
ATOM      1  O1  BZF d   1       0.794  -0.933   0.860  0.00  0.00    -0.204 OA
ATOM      2  C2  BZF d   1       0.836   0.184   0.048  0.00  0.00     0.174 A 
ATOM      3  C3  BZF d   1      -0.358   0.390  -0.545  0.00  0.00    -0.012 A 
ATOM      4  C3A BZF d   1      -1.225  -0.611  -0.002  0.00  0.00    -0.107 A 
ATOM      5  C4  BZF d   1      -2.544  -0.912  -0.190  0.00  0.00     0.055 A 
ATOM      6  C5  BZF d   1      -3.069  -1.998   0.436  0.00  0.00    -0.016 A 
ATOM      7  C6  BZF d   1      -2.304  -2.806   1.252  0.00  0.00     0.022 A 
ATOM      8  C7  BZF d   1      -0.992  -2.544   1.473  0.00  0.00     0.029 A 
ATOM      9  C7A BZF d   1      -0.467  -1.429   0.867  0.00  0.00     0.058 A 
ENDROOT
TORSDOF 0
ENDMDL
