MODEL 1
REMARK minimizedAffinity -3.14253926
REMARK minimizedRMSD -1
REMARK  0 active torsions:
REMARK  status: ('A' for Active; 'I' for Inactive)
ROOT
ATOM      1  O1  BZF d   1      -0.561  -2.356   1.306  0.00  0.00    -0.204 OA
ATOM      2  C2  BZF d   1      -1.510  -3.337   1.097  0.00  0.00     0.174 A 
ATOM      3  C3  BZF d   1      -2.330  -3.001   0.080  0.00  0.00    -0.012 A 
ATOM      4  C3A BZF d   1      -1.807  -1.772  -0.434  0.00  0.00    -0.107 A 
ATOM      5  C4  BZF d   1      -2.179  -0.949  -1.459  0.00  0.00     0.055 A 
ATOM      6  C5  BZF d   1      -1.500   0.212  -1.653  0.00  0.00    -0.016 A 
ATOM      7  C6  BZF d   1      -0.450   0.583  -0.839  0.00  0.00     0.022 A 
ATOM      8  C7  BZF d   1      -0.041  -0.203   0.186  0.00  0.00     0.029 A 
ATOM      9  C7A BZF d   1      -0.704  -1.393   0.364  0.00  0.00     0.058 A 
ENDROOT
TORSDOF 0
ENDMDL
