MODEL 1
REMARK minimizedAffinity -3.29830194
REMARK minimizedRMSD -1
REMARK  0 active torsions:
REMARK  status: ('A' for Active; 'I' for Inactive)
ROOT
ATOM      1  O1  BZF d   1      -0.555  -2.627   1.198  0.00  0.00    -0.204 OA
ATOM      2  C2  BZF d   1      -1.596  -3.530   1.101  0.00  0.00     0.174 A 
ATOM      3  C3  BZF d   1      -2.514  -3.109   0.208  0.00  0.00    -0.012 A 
ATOM      4  C3A BZF d   1      -1.971  -1.910  -0.352  0.00  0.00    -0.107 A 
ATOM      5  C4  BZF d   1      -2.410  -1.036  -1.306  0.00  0.00     0.055 A 
ATOM      6  C5  BZF d   1      -1.676   0.077  -1.570  0.00  0.00    -0.016 A 
ATOM      7  C6  BZF d   1      -0.503   0.350  -0.898  0.00  0.00     0.022 A 
ATOM      8  C7  BZF d   1      -0.024  -0.490   0.052  0.00  0.00     0.029 A 
ATOM      9  C7A BZF d   1      -0.747  -1.632   0.299  0.00  0.00     0.058 A 
ENDROOT
TORSDOF 0
ENDMDL
