MODEL 1
REMARK minimizedAffinity -2.38583708
REMARK minimizedRMSD -1
REMARK  0 active torsions:
REMARK  status: ('A' for Active; 'I' for Inactive)
ROOT
ATOM      1  O1  BZF d   1      -1.251   1.557  -0.259  0.00  0.00    -0.204 OA
ATOM      2  C2  BZF d   1      -1.512   0.327  -0.833  0.00  0.00     0.174 A 
ATOM      3  C3  BZF d   1      -0.391  -0.418  -0.898  0.00  0.00    -0.012 A 
ATOM      4  C3A BZF d   1       0.617   0.360  -0.245  0.00  0.00    -0.107 A 
ATOM      5  C4  BZF d   1       1.939   0.149   0.024  0.00  0.00     0.055 A 
ATOM      6  C5  BZF d   1       2.659   1.139   0.613  0.00  0.00    -0.016 A 
ATOM      7  C6  BZF d   1       2.092   2.353   0.941  0.00  0.00     0.022 A 
ATOM      8  C7  BZF d   1       0.783   2.607   0.699  0.00  0.00     0.029 A 
ATOM      9  C7A BZF d   1       0.044   1.596   0.134  0.00  0.00     0.058 A 
ENDROOT
TORSDOF 0
ENDMDL
