MODEL 1
REMARK minimizedAffinity 0.347496331
REMARK minimizedRMSD -1
REMARK  0 active torsions:
REMARK  status: ('A' for Active; 'I' for Inactive)
ROOT
ATOM      1  O1  BZF d   1       2.621   1.145   0.655  0.00  0.00    -0.204 OA
ATOM      2  C2  BZF d   1       2.430   2.214   1.509  0.00  0.00     0.174 A 
ATOM      3  C3  BZF d   1       1.161   2.665   1.434  0.00  0.00    -0.012 A 
ATOM      4  C3A BZF d   1       0.495   1.767   0.541  0.00  0.00    -0.107 A 
ATOM      5  C4  BZF d   1      -0.787   1.683   0.078  0.00  0.00     0.055 A 
ATOM      6  C5  BZF d   1      -1.096   0.731  -0.841  0.00  0.00    -0.016 A 
ATOM      7  C6  BZF d   1      -0.148  -0.148  -1.322  0.00  0.00     0.022 A 
ATOM      8  C7  BZF d   1       1.135  -0.107  -0.889  0.00  0.00     0.029 A 
ATOM      9  C7A BZF d   1       1.443   0.833   0.064  0.00  0.00     0.058 A 
ENDROOT
TORSDOF 0
ENDMDL
