MODEL 1
REMARK minimizedAffinity -3.78120852
REMARK minimizedRMSD -1
REMARK  0 active torsions:
REMARK  status: ('A' for Active; 'I' for Inactive)
ROOT
ATOM      1  O1  BZF d   1       0.946  -2.088   1.279  0.00  0.00    -0.204 OA
ATOM      2  C2  BZF d   1       1.701  -1.017   0.841  0.00  0.00     0.174 A 
ATOM      3  C3  BZF d   1       1.071  -0.362  -0.155  0.00  0.00    -0.012 A 
ATOM      4  C3A BZF d   1      -0.197  -1.012  -0.290  0.00  0.00    -0.107 A 
ATOM      5  C4  BZF d   1      -1.275  -0.808  -1.102  0.00  0.00     0.055 A 
ATOM      6  C5  BZF d   1      -2.327  -1.665  -1.032  0.00  0.00    -0.016 A 
ATOM      7  C6  BZF d   1      -2.332  -2.739  -0.166  0.00  0.00     0.022 A 
ATOM      8  C7  BZF d   1      -1.287  -2.980   0.663  0.00  0.00     0.029 A 
ATOM      9  C7A BZF d   1      -0.237  -2.096   0.618  0.00  0.00     0.058 A 
ENDROOT
TORSDOF 0
ENDMDL
