MODEL 1
REMARK minimizedAffinity -2.73863006
REMARK minimizedRMSD -1
REMARK  0 active torsions:
REMARK  status: ('A' for Active; 'I' for Inactive)
ROOT
ATOM      1  O1  BZF d   1       0.955   3.244   1.415  0.00  0.00    -0.204 OA
ATOM      2  C2  BZF d   1       2.248   3.264   1.902  0.00  0.00     0.174 A 
ATOM      3  C3  BZF d   1       2.809   2.041   1.821  0.00  0.00    -0.012 A 
ATOM      4  C3A BZF d   1       1.837   1.223   1.162  0.00  0.00    -0.107 A 
ATOM      5  C4  BZF d   1       1.816  -0.087   0.779  0.00  0.00     0.055 A 
ATOM      6  C5  BZF d   1       0.685  -0.595   0.223  0.00  0.00    -0.016 A 
ATOM      7  C6  BZF d   1      -0.444   0.176   0.040  0.00  0.00     0.022 A 
ATOM      8  C7  BZF d   1      -0.470   1.483   0.399  0.00  0.00     0.029 A 
ATOM      9  C7A BZF d   1       0.683   2.008   0.931  0.00  0.00     0.058 A 
ENDROOT
TORSDOF 0
ENDMDL
