MODEL 1
REMARK minimizedAffinity -5.26234531
REMARK minimizedRMSD -1
REMARK  0 active torsions:
REMARK  status: ('A' for Active; 'I' for Inactive)
ROOT
ATOM      1  O1  BZF d   1      -0.595  -2.159   1.278  0.00  0.00    -0.204 OA
ATOM      2  C2  BZF d   1      -1.692  -2.998   1.299  0.00  0.00     0.174 A 
ATOM      3  C3  BZF d   1      -2.667  -2.532   0.492  0.00  0.00    -0.012 A 
ATOM      4  C3A BZF d   1      -2.111  -1.374  -0.139  0.00  0.00    -0.107 A 
ATOM      5  C4  BZF d   1      -2.589  -0.486  -1.060  0.00  0.00     0.055 A 
ATOM      6  C5  BZF d   1      -1.820   0.577  -1.414  0.00  0.00    -0.016 A 
ATOM      7  C6  BZF d   1      -0.572   0.785  -0.863  0.00  0.00     0.022 A 
ATOM      8  C7  BZF d   1      -0.054  -0.071   0.050  0.00  0.00     0.029 A 
ATOM      9  C7A BZF d   1      -0.815  -1.164   0.385  0.00  0.00     0.058 A 
ENDROOT
TORSDOF 0
ENDMDL
