MODEL 1
REMARK minimizedAffinity -3.15929914
REMARK minimizedRMSD -1
REMARK  0 active torsions:
REMARK  status: ('A' for Active; 'I' for Inactive)
ROOT
ATOM      1  O1  BZF d   1       0.963   1.507   0.155  0.00  0.00    -0.204 OA
ATOM      2  C2  BZF d   1       2.175   0.845   0.154  0.00  0.00     0.174 A 
ATOM      3  C3  BZF d   1       2.040  -0.400   0.654  0.00  0.00    -0.012 A 
ATOM      4  C3A BZF d   1       0.640  -0.556   0.902  0.00  0.00    -0.107 A 
ATOM      5  C4  BZF d   1      -0.119  -1.584   1.386  0.00  0.00     0.055 A 
ATOM      6  C5  BZF d   1      -1.451  -1.389   1.574  0.00  0.00    -0.016 A 
ATOM      7  C6  BZF d   1      -2.055  -0.180   1.296  0.00  0.00     0.022 A 
ATOM      8  C7  BZF d   1      -1.344   0.867   0.810  0.00  0.00     0.029 A 
ATOM      9  C7A BZF d   1      -0.004   0.663   0.587  0.00  0.00     0.058 A 
ENDROOT
TORSDOF 0
ENDMDL
