MODEL 1
REMARK minimizedAffinity -5.30596733
REMARK minimizedRMSD -1
REMARK  0 active torsions:
REMARK  status: ('A' for Active; 'I' for Inactive)
ROOT
ATOM      1  O1  BZF d   1      -0.892   1.308   0.330  0.00  0.00    -0.204 OA
ATOM      2  C2  BZF d   1      -0.768   0.175  -0.450  0.00  0.00     0.174 A 
ATOM      3  C3  BZF d   1       0.530  -0.133  -0.644  0.00  0.00    -0.012 A 
ATOM      4  C3A BZF d   1       1.263   0.817   0.135  0.00  0.00    -0.107 A 
ATOM      5  C4  BZF d   1       2.594   1.017   0.363  0.00  0.00     0.055 A 
ATOM      6  C5  BZF d   1       2.983   2.079   1.116  0.00  0.00    -0.016 A 
ATOM      7  C6  BZF d   1       2.069   2.963   1.652  0.00  0.00     0.022 A 
ATOM      8  C7  BZF d   1       0.738   2.803   1.457  0.00  0.00     0.029 A 
ATOM      9  C7A BZF d   1       0.340   1.712   0.724  0.00  0.00     0.058 A 
ENDROOT
TORSDOF 0
ENDMDL
