MODEL 1
REMARK minimizedAffinity -2.85334039
REMARK minimizedRMSD -1
REMARK  0 active torsions:
REMARK  status: ('A' for Active; 'I' for Inactive)
ROOT
ATOM      1  O1  BZF d   1       1.073  -1.118   0.781  0.00  0.00    -0.204 OA
ATOM      2  C2  BZF d   1       0.582  -2.034   1.692  0.00  0.00     0.174 A 
ATOM      3  C3  BZF d   1      -0.734  -2.251   1.489  0.00  0.00    -0.012 A 
ATOM      4  C3A BZF d   1      -1.066  -1.489   0.325  0.00  0.00    -0.107 A 
ATOM      5  C4  BZF d   1      -2.221  -1.310  -0.382  0.00  0.00     0.055 A 
ATOM      6  C5  BZF d   1      -2.228  -0.442  -1.428  0.00  0.00    -0.016 A 
ATOM      7  C6  BZF d   1      -1.101   0.266  -1.791  0.00  0.00     0.022 A 
ATOM      8  C7  BZF d   1       0.070   0.118  -1.123  0.00  0.00     0.029 A 
ATOM      9  C7A BZF d   1       0.088  -0.783  -0.086  0.00  0.00     0.058 A 
ENDROOT
TORSDOF 0
ENDMDL
