MODEL 1
REMARK minimizedAffinity -2.61971903
REMARK minimizedRMSD -1
REMARK  0 active torsions:
REMARK  status: ('A' for Active; 'I' for Inactive)
ROOT
ATOM      1  O1  BZF d   1       2.276   1.387   0.322  0.00  0.00    -0.204 OA
ATOM      2  C2  BZF d   1       2.217   2.723   0.670  0.00  0.00     0.174 A 
ATOM      3  C3  BZF d   1       0.994   3.230   0.412  0.00  0.00    -0.012 A 
ATOM      4  C3A BZF d   1       0.215   2.121  -0.045  0.00  0.00    -0.107 A 
ATOM      5  C4  BZF d   1      -1.085   1.986  -0.441  0.00  0.00     0.055 A 
ATOM      6  C5  BZF d   1      -1.515   0.781  -0.898  0.00  0.00    -0.016 A 
ATOM      7  C6  BZF d   1      -0.672  -0.308  -0.978  0.00  0.00     0.022 A 
ATOM      8  C7  BZF d   1       0.625  -0.225  -0.592  0.00  0.00     0.029 A 
ATOM      9  C7A BZF d   1       1.053   0.983  -0.098  0.00  0.00     0.058 A 
ENDROOT
TORSDOF 0
ENDMDL
