MODEL 1
REMARK minimizedAffinity -5.58853817
REMARK minimizedRMSD -1
REMARK  0 active torsions:
REMARK  status: ('A' for Active; 'I' for Inactive)
ROOT
ATOM      1  O1  BZF d   1       1.145  -0.239  -0.965  0.00  0.00    -0.204 OA
ATOM      2  C2  BZF d   1       1.860  -0.864   0.038  0.00  0.00     0.174 A 
ATOM      3  C3  BZF d   1       1.043  -1.251   1.039  0.00  0.00    -0.012 A 
ATOM      4  C3A BZF d   1      -0.277  -0.924   0.594  0.00  0.00    -0.107 A 
ATOM      5  C4  BZF d   1      -1.518  -1.079   1.142  0.00  0.00     0.055 A 
ATOM      6  C5  BZF d   1      -2.599  -0.586   0.481  0.00  0.00    -0.016 A 
ATOM      7  C6  BZF d   1      -2.475   0.070  -0.726  0.00  0.00     0.022 A 
ATOM      8  C7  BZF d   1      -1.265   0.243  -1.312  0.00  0.00     0.029 A 
ATOM      9  C7A BZF d   1      -0.175  -0.282  -0.662  0.00  0.00     0.058 A 
ENDROOT
TORSDOF 0
ENDMDL
