MODEL 1
REMARK minimizedAffinity 0.403051227
REMARK minimizedRMSD -1
REMARK  0 active torsions:
REMARK  status: ('A' for Active; 'I' for Inactive)
ROOT
ATOM      1  O1  BZF d   1       0.362   0.424   0.950  0.00  0.00    -0.204 OA
ATOM      2  C2  BZF d   1       1.238   1.323   0.372  0.00  0.00     0.174 A 
ATOM      3  C3  BZF d   1       1.013   1.425  -0.954  0.00  0.00    -0.012 A 
ATOM      4  C3A BZF d   1      -0.131   0.604  -1.206  0.00  0.00    -0.107 A 
ATOM      5  C4  BZF d   1      -0.845   0.309  -2.332  0.00  0.00     0.055 A 
ATOM      6  C5  BZF d   1      -1.864  -0.587  -2.252  0.00  0.00    -0.016 A 
ATOM      7  C6  BZF d   1      -2.191  -1.210  -1.066  0.00  0.00     0.022 A 
ATOM      8  C7  BZF d   1      -1.515  -0.947   0.078  0.00  0.00     0.029 A 
ATOM      9  C7A BZF d   1      -0.506  -0.017   0.008  0.00  0.00     0.058 A 
ENDROOT
TORSDOF 0
ENDMDL
