MODEL 1
REMARK minimizedAffinity -5.16470385
REMARK minimizedRMSD -1
REMARK  0 active torsions:
REMARK  status: ('A' for Active; 'I' for Inactive)
ROOT
ATOM      1  O1  BZF d   1       0.493  -0.383  -1.199  0.00  0.00    -0.204 OA
ATOM      2  C2  BZF d   1       1.378   0.220  -0.326  0.00  0.00     0.174 A 
ATOM      3  C3  BZF d   1       0.732   0.699   0.756  0.00  0.00    -0.012 A 
ATOM      4  C3A BZF d   1      -0.631   0.295   0.590  0.00  0.00    -0.107 A 
ATOM      5  C4  BZF d   1      -1.757   0.459   1.345  0.00  0.00     0.055 A 
ATOM      6  C5  BZF d   1      -2.945   0.006   0.865  0.00  0.00    -0.016 A 
ATOM      7  C6  BZF d   1      -3.044  -0.609  -0.366  0.00  0.00     0.022 A 
ATOM      8  C7  BZF d   1      -1.954  -0.799  -1.148  0.00  0.00     0.029 A 
ATOM      9  C7A BZF d   1      -0.746  -0.372  -0.651  0.00  0.00     0.058 A 
ENDROOT
TORSDOF 0
ENDMDL
