MODEL 1
REMARK minimizedAffinity -5.38498449
REMARK minimizedRMSD -1
REMARK  3 active torsions:
REMARK  status: ('A' for Active; 'I' for Inactive)
REMARK    1  A    between atoms: C3'_2  and  C2'_3 
REMARK    2  A    between atoms: C2'_3  and  C1'_4 
REMARK    3  A    between atoms: C1'_4  and  C1_5 
ROOT
ATOM      1  C1  N4B d   1       0.415  -0.289   0.107  0.00  0.00    -0.075 A 
ATOM      2  C2  N4B d   1       1.543  -1.138   0.104  0.00  0.00     0.002 A 
ATOM      3  C3  N4B d   1       1.597  -2.212   0.958  0.00  0.00     0.002 A 
ATOM      4  C4  N4B d   1       0.547  -2.444   1.835  0.00  0.00    -0.004 A 
ATOM      5  C5  N4B d   1      -0.550  -1.634   1.814  0.00  0.00     0.002 A 
ATOM      6  C6  N4B d   1      -0.619  -0.554   0.957  0.00  0.00     0.002 A 
ENDROOT
BRANCH   1   7
ATOM      7  C1' N4B d   1       0.348   0.946  -0.749  0.00  0.00     0.057 C 
BRANCH   7   8
ATOM      8  C2' N4B d   1      -1.011   1.614  -0.560  0.00  0.00     0.009 C 
BRANCH   8   9
ATOM      9  C3' N4B d   1      -1.737   1.808  -1.880  0.00  0.00     0.004 C 
ATOM     10  C4' N4B d   1      -3.052   1.089  -1.931  0.00  0.00     0.003 C 
ENDBRANCH   8   9
ENDBRANCH   7   8
ENDBRANCH   1   7
TORSDOF 3
ENDMDL
