MODEL 1
REMARK minimizedAffinity -4.89002991
REMARK minimizedRMSD -1
REMARK  3 active torsions:
REMARK  status: ('A' for Active; 'I' for Inactive)
REMARK    1  A    between atoms: C3'_2  and  C2'_3 
REMARK    2  A    between atoms: C2'_3  and  C1'_4 
REMARK    3  A    between atoms: C1'_4  and  C1_5 
ROOT
ATOM      1  C1  N4B d   1      -0.544  -0.869   0.708  0.00  0.00    -0.075 A 
ATOM      2  C2  N4B d   1       0.394  -1.415  -0.197  0.00  0.00     0.002 A 
ATOM      3  C3  N4B d   1       1.212  -2.444   0.200  0.00  0.00     0.002 A 
ATOM      4  C4  N4B d   1       1.124  -2.930   1.496  0.00  0.00    -0.004 A 
ATOM      5  C5  N4B d   1       0.199  -2.414   2.356  0.00  0.00     0.002 A 
ATOM      6  C6  N4B d   1      -0.633  -1.382   1.970  0.00  0.00     0.002 A 
ENDROOT
BRANCH   1   7
ATOM      7  C1' N4B d   1      -1.400   0.314   0.347  0.00  0.00     0.057 C 
BRANCH   7   8
ATOM      8  C2' N4B d   1      -0.692   1.135  -0.726  0.00  0.00     0.009 C 
BRANCH   8   9
ATOM      9  C3' N4B d   1      -1.669   1.711  -1.738  0.00  0.00     0.004 C 
ATOM     10  C4' N4B d   1      -2.882   0.850  -1.928  0.00  0.00     0.003 C 
ENDBRANCH   8   9
ENDBRANCH   7   8
ENDBRANCH   1   7
TORSDOF 3
ENDMDL
