MODEL 1
REMARK minimizedAffinity -5.97531939
REMARK minimizedRMSD -1
REMARK  3 active torsions:
REMARK  status: ('A' for Active; 'I' for Inactive)
REMARK    1  A    between atoms: C3'_2  and  C2'_3 
REMARK    2  A    between atoms: C2'_3  and  C1'_4 
REMARK    3  A    between atoms: C1'_4  and  C1_5 
ROOT
ATOM      1  C1  N4B d   1       0.691  -0.713   0.332  0.00  0.00    -0.075 A 
ATOM      2  C2  N4B d   1       1.812  -1.555   0.500  0.00  0.00     0.002 A 
ATOM      3  C3  N4B d   1       1.805  -2.523   1.474  0.00  0.00     0.002 A 
ATOM      4  C4  N4B d   1       0.699  -2.654   2.302  0.00  0.00    -0.004 A 
ATOM      5  C5  N4B d   1      -0.390  -1.854   2.116  0.00  0.00     0.002 A 
ATOM      6  C6  N4B d   1      -0.398  -0.880   1.139  0.00  0.00     0.002 A 
ENDROOT
BRANCH   1   7
ATOM      7  C1' N4B d   1       0.686   0.415  -0.663  0.00  0.00     0.057 C 
BRANCH   7   8
ATOM      8  C2' N4B d   1      -0.741   0.928  -0.832  0.00  0.00     0.009 C 
BRANCH   8   9
ATOM      9  C3' N4B d   1      -0.853   1.929  -1.968  0.00  0.00     0.004 C 
ATOM     10  C4' N4B d   1      -1.950   1.591  -2.933  0.00  0.00     0.003 C 
ENDBRANCH   8   9
ENDBRANCH   7   8
ENDBRANCH   1   7
TORSDOF 3
ENDMDL
