MODEL 1
REMARK minimizedAffinity -4.65700817
REMARK minimizedRMSD -1
REMARK  3 active torsions:
REMARK  status: ('A' for Active; 'I' for Inactive)
REMARK    1  A    between atoms: C3'_2  and  C2'_3 
REMARK    2  A    between atoms: C2'_3  and  C1'_4 
REMARK    3  A    between atoms: C1'_4  and  C1_5 
ROOT
ATOM      1  C1  N4B d   1      -0.532  -0.466   1.066  0.00  0.00    -0.075 A 
ATOM      2  C2  N4B d   1       0.639  -0.900   0.406  0.00  0.00     0.002 A 
ATOM      3  C3  N4B d   1       1.393  -1.915   0.943  0.00  0.00     0.002 A 
ATOM      4  C4  N4B d   1       1.009  -2.494   2.143  0.00  0.00    -0.004 A 
ATOM      5  C5  N4B d   1      -0.137  -2.086   2.761  0.00  0.00     0.002 A 
ATOM      6  C6  N4B d   1      -0.907  -1.071   2.231  0.00  0.00     0.002 A 
ENDROOT
BRANCH   1   7
ATOM      7  C1' N4B d   1      -1.342   0.697   0.563  0.00  0.00     0.057 C 
BRANCH   7   8
ATOM      8  C2' N4B d   1      -0.791   1.144  -0.788  0.00  0.00     0.009 C 
BRANCH   8   9
ATOM      9  C3' N4B d   1      -1.759   2.055  -1.523  0.00  0.00     0.004 C 
ATOM     10  C4' N4B d   1      -2.903   1.308  -2.141  0.00  0.00     0.003 C 
ENDBRANCH   8   9
ENDBRANCH   7   8
ENDBRANCH   1   7
TORSDOF 3
ENDMDL
