MODEL 1
REMARK minimizedAffinity -5.95840645
REMARK minimizedRMSD -1
REMARK  3 active torsions:
REMARK  status: ('A' for Active; 'I' for Inactive)
REMARK    1  A    between atoms: C3'_2  and  C2'_3 
REMARK    2  A    between atoms: C2'_3  and  C1'_4 
REMARK    3  A    between atoms: C1'_4  and  C1_5 
ROOT
ATOM      1  C1  N4B d   1       0.281  -0.371   0.426  0.00  0.00    -0.075 A 
ATOM      2  C2  N4B d   1      -0.581  -0.746   1.480  0.00  0.00     0.002 A 
ATOM      3  C3  N4B d   1      -0.336  -1.896   2.190  0.00  0.00     0.002 A 
ATOM      4  C4  N4B d   1       0.748  -2.693   1.853  0.00  0.00    -0.004 A 
ATOM      5  C5  N4B d   1       1.590  -2.310   0.850  0.00  0.00     0.002 A 
ATOM      6  C6  N4B d   1       1.358  -1.155   0.131  0.00  0.00     0.002 A 
ENDROOT
BRANCH   1   7
ATOM      7  C1' N4B d   1       0.005   0.832  -0.435  0.00  0.00     0.057 C 
BRANCH   7   8
ATOM      8  C2' N4B d   1      -1.429   0.761  -0.950  0.00  0.00     0.009 C 
BRANCH   8   9
ATOM      9  C3' N4B d   1      -1.623   1.592  -2.207  0.00  0.00     0.004 C 
ATOM     10  C4' N4B d   1      -2.785   1.131  -3.035  0.00  0.00     0.003 C 
ENDBRANCH   8   9
ENDBRANCH   7   8
ENDBRANCH   1   7
TORSDOF 3
ENDMDL
