MODEL 1
REMARK minimizedAffinity -3.8242321
REMARK minimizedRMSD -1
REMARK  1 active torsions:
REMARK  status: ('A' for Active; 'I' for Inactive)
REMARK    1  A    between atoms: C3_4  and  O_7 
ROOT
ATOM      1  C   UNL d   1      -0.435  -0.356  -0.363  0.00  0.00    -0.033 A 
ATOM      2  C1  UNL d   1       0.142   0.915  -0.310  0.00  0.00     0.039 A 
ATOM      3  C2  UNL d   1       1.494   1.057   0.007  0.00  0.00    -0.080 A 
ATOM      4  C3  UNL d   1       2.258  -0.077   0.268  0.00  0.00     0.150 A 
ATOM      5  C4  UNL d   1       1.691  -1.346   0.213  0.00  0.00    -0.007 A 
ATOM      6  C5  UNL d   1       0.340  -1.487  -0.103  0.00  0.00     0.039 A 
ENDROOT
BRANCH   4   7
ATOM      7  O   UNL d   1       3.580   0.012   0.586  0.00  0.00    -0.526 OA
ATOM      8  H5  UNL d   1       3.827   0.952   0.614  0.00  0.00     0.418 HD
ENDBRANCH   4   7
TORSDOF 1
ENDMDL
