MODEL 1
REMARK minimizedAffinity -0.64687562
REMARK minimizedRMSD -1
REMARK  1 active torsions:
REMARK  status: ('A' for Active; 'I' for Inactive)
REMARK    1  A    between atoms: C3_4  and  O_7 
ROOT
ATOM      1  C   UNL d   1      -3.381  -0.585  -3.211  0.00  0.00    -0.033 A 
ATOM      2  C1  UNL d   1      -2.144  -1.229  -3.150  0.00  0.00     0.039 A 
ATOM      3  C2  UNL d   1      -1.345  -1.104  -2.012  0.00  0.00    -0.080 A 
ATOM      4  C3  UNL d   1      -1.795  -0.335  -0.942  0.00  0.00     0.150 A 
ATOM      5  C4  UNL d   1      -3.028   0.306  -0.995  0.00  0.00    -0.007 A 
ATOM      6  C5  UNL d   1      -3.824   0.181  -2.132  0.00  0.00     0.039 A 
ENDROOT
BRANCH   4   7
ATOM      7  O   UNL d   1      -1.048  -0.180   0.188  0.00  0.00    -0.526 OA
ATOM      8  H5  UNL d   1      -0.209  -0.655   0.070  0.00  0.00     0.418 HD
ENDBRANCH   4   7
TORSDOF 1
ENDMDL
