MODEL 1
REMARK minimizedAffinity -2.55212879
REMARK minimizedRMSD -1
REMARK  1 active torsions:
REMARK  status: ('A' for Active; 'I' for Inactive)
REMARK    1  A    between atoms: C3_4  and  O_7 
ROOT
ATOM      1  C   UNL d   1       2.196   0.791   1.097  0.00  0.00    -0.033 A 
ATOM      2  C1  UNL d   1       1.372  -0.208   1.618  0.00  0.00     0.039 A 
ATOM      3  C2  UNL d   1       0.096  -0.411   1.088  0.00  0.00    -0.080 A 
ATOM      4  C3  UNL d   1      -0.342   0.389   0.036  0.00  0.00     0.150 A 
ATOM      5  C4  UNL d   1       0.476   1.384  -0.491  0.00  0.00    -0.007 A 
ATOM      6  C5  UNL d   1       1.748   1.586   0.041  0.00  0.00     0.039 A 
ENDROOT
BRANCH   4   7
ATOM      7  O   UNL d   1      -1.580   0.231  -0.512  0.00  0.00    -0.526 OA
ATOM      8  H5  UNL d   1      -2.043  -0.473  -0.028  0.00  0.00     0.418 HD
ENDBRANCH   4   7
TORSDOF 1
ENDMDL
