MODEL 1
REMARK minimizedAffinity -4.89359856
REMARK minimizedRMSD -1
REMARK  1 active torsions:
REMARK  status: ('A' for Active; 'I' for Inactive)
REMARK    1  A    between atoms: C3_4  and  O_7 
ROOT
ATOM      1  C   UNL d   1       2.421  -1.489   1.862  0.00  0.00    -0.033 A 
ATOM      2  C1  UNL d   1       1.246  -2.241   1.929  0.00  0.00     0.039 A 
ATOM      3  C2  UNL d   1       0.079  -1.772   1.324  0.00  0.00    -0.080 A 
ATOM      4  C3  UNL d   1       0.099  -0.551   0.656  0.00  0.00     0.150 A 
ATOM      5  C4  UNL d   1       1.266   0.202   0.581  0.00  0.00    -0.007 A 
ATOM      6  C5  UNL d   1       2.431  -0.268   1.186  0.00  0.00     0.039 A 
ENDROOT
BRANCH   4   7
ATOM      7  O   UNL d   1      -1.017  -0.049   0.054  0.00  0.00    -0.526 OA
ATOM      8  H5  UNL d   1      -1.754  -0.663   0.212  0.00  0.00     0.418 HD
ENDBRANCH   4   7
TORSDOF 1
ENDMDL
