MODEL 1
REMARK minimizedAffinity -4.44012976
REMARK minimizedRMSD -1
REMARK  1 active torsions:
REMARK  status: ('A' for Active; 'I' for Inactive)
REMARK    1  A    between atoms: C3_4  and  O_7 
ROOT
ATOM      1  C   UNL d   1      -0.242   0.344   0.356  0.00  0.00    -0.033 A 
ATOM      2  C1  UNL d   1       0.176  -0.987   0.419  0.00  0.00     0.039 A 
ATOM      3  C2  UNL d   1       1.537  -1.290   0.500  0.00  0.00    -0.080 A 
ATOM      4  C3  UNL d   1       2.467  -0.255   0.518  0.00  0.00     0.150 A 
ATOM      5  C4  UNL d   1       2.058   1.073   0.459  0.00  0.00    -0.007 A 
ATOM      6  C5  UNL d   1       0.699   1.374   0.377  0.00  0.00     0.039 A 
ENDROOT
BRANCH   4   7
ATOM      7  O   UNL d   1       3.806  -0.501   0.591  0.00  0.00    -0.526 OA
ATOM      8  H5  UNL d   1       3.942  -1.463   0.597  0.00  0.00     0.418 HD
ENDBRANCH   4   7
TORSDOF 1
ENDMDL
