MODEL 1
REMARK minimizedAffinity -4.94726849
REMARK minimizedRMSD -1
REMARK  1 active torsions:
REMARK  status: ('A' for Active; 'I' for Inactive)
REMARK    1  A    between atoms: C3_4  and  O_7 
ROOT
ATOM      1  C   UNL d   1       1.548   1.166  -0.284  0.00  0.00    -0.033 A 
ATOM      2  C1  UNL d   1       2.729   0.489   0.027  0.00  0.00     0.039 A 
ATOM      3  C2  UNL d   1       2.679  -0.808   0.541  0.00  0.00    -0.080 A 
ATOM      4  C3  UNL d   1       1.442  -1.417   0.738  0.00  0.00     0.150 A 
ATOM      5  C4  UNL d   1       0.262  -0.751   0.427  0.00  0.00    -0.007 A 
ATOM      6  C5  UNL d   1       0.314   0.545  -0.085  0.00  0.00     0.039 A 
ENDROOT
BRANCH   4   7
ATOM      7  O   UNL d   1       1.342  -2.680   1.242  0.00  0.00    -0.526 OA
ATOM      8  H5  UNL d   1       2.237  -3.005   1.437  0.00  0.00     0.418 HD
ENDBRANCH   4   7
TORSDOF 1
ENDMDL
