MODEL 1
REMARK minimizedAffinity -3.89290071
REMARK minimizedRMSD -1
REMARK  1 active torsions:
REMARK  status: ('A' for Active; 'I' for Inactive)
REMARK    1  A    between atoms: C3_4  and  O_7 
ROOT
ATOM      1  C   UNL d   1      -2.383  -1.043  -2.003  0.00  0.00    -0.033 A 
ATOM      2  C1  UNL d   1      -2.514  -0.872  -3.382  0.00  0.00     0.039 A 
ATOM      3  C2  UNL d   1      -2.736   0.400  -3.912  0.00  0.00    -0.080 A 
ATOM      4  C3  UNL d   1      -2.823   1.492  -3.053  0.00  0.00     0.150 A 
ATOM      5  C4  UNL d   1      -2.690   1.330  -1.678  0.00  0.00    -0.007 A 
ATOM      6  C5  UNL d   1      -2.469   0.058  -1.151  0.00  0.00     0.039 A 
ENDROOT
BRANCH   4   7
ATOM      7  O   UNL d   1      -3.044   2.753  -3.523  0.00  0.00    -0.526 OA
ATOM      8  H5  UNL d   1      -3.144   2.708  -4.489  0.00  0.00     0.418 HD
ENDBRANCH   4   7
TORSDOF 1
ENDMDL
