MODEL 1
REMARK minimizedAffinity -5.32338858
REMARK minimizedRMSD -1
REMARK  1 active torsions:
REMARK  status: ('A' for Active; 'I' for Inactive)
REMARK    1  A    between atoms: C3_4  and  O_7 
ROOT
ATOM      1  C   UNL d   1      -0.384  -0.642   0.149  0.00  0.00    -0.033 A 
ATOM      2  C1  UNL d   1       0.210   0.604   0.357  0.00  0.00     0.039 A 
ATOM      3  C2  UNL d   1       1.595   0.705   0.496  0.00  0.00    -0.080 A 
ATOM      4  C3  UNL d   1       2.375  -0.446   0.423  0.00  0.00     0.150 A 
ATOM      5  C4  UNL d   1       1.791  -1.690   0.212  0.00  0.00    -0.007 A 
ATOM      6  C5  UNL d   1       0.407  -1.790   0.075  0.00  0.00     0.039 A 
ENDROOT
BRANCH   4   7
ATOM      7  O   UNL d   1       3.731  -0.398   0.557  0.00  0.00    -0.526 OA
ATOM      8  H5  UNL d   1       3.991   0.523   0.726  0.00  0.00     0.418 HD
ENDBRANCH   4   7
TORSDOF 1
ENDMDL
