MODEL 1
REMARK minimizedAffinity 5.49387646
REMARK minimizedRMSD -1
REMARK  0 active torsions:
REMARK  status: ('A' for Active; 'I' for Inactive)
ROOT
ATOM      1  C   UNL d   1       6.000   3.172  -1.857  0.00  0.00    -0.002 A 
ATOM      2  C1  UNL d   1       5.202   2.595  -2.835  0.00  0.00     0.010 A 
ATOM      3  C2  UNL d   1       4.069   1.858  -2.484  0.00  0.00     0.041 A 
ATOM      4  C3  UNL d   1       3.747   1.712  -1.120  0.00  0.00    -0.075 A 
ATOM      5  S   UNL d   1       2.408   0.854  -0.454  0.00  0.00     0.015 SA
ATOM      6  C4  UNL d   1       2.862   1.235   1.143  0.00  0.00     0.022 A 
ATOM      7  C5  UNL d   1       4.006   1.997   1.187  0.00  0.00     0.026 A 
ATOM      8  C6  UNL d   1       4.534   2.285  -0.117  0.00  0.00    -0.082 A 
ATOM      9  C7  UNL d   1       5.677   3.025  -0.505  0.00  0.00     0.045 A 
ENDROOT
TORSDOF 0
ENDMDL
