MODEL 1
REMARK minimizedAffinity 9.55839157
REMARK minimizedRMSD -1
REMARK  0 active torsions:
REMARK  status: ('A' for Active; 'I' for Inactive)
ROOT
ATOM      1  C   UNL d   1       1.032   2.439  -0.717  0.00  0.00    -0.002 A 
ATOM      2  C1  UNL d   1       1.937   1.396  -0.579  0.00  0.00     0.010 A 
ATOM      3  C2  UNL d   1       2.525   1.125   0.658  0.00  0.00     0.041 A 
ATOM      4  C3  UNL d   1       2.183   1.927   1.765  0.00  0.00    -0.075 A 
ATOM      5  S   UNL d   1       2.776   1.780   3.378  0.00  0.00     0.015 SA
ATOM      6  C4  UNL d   1       1.841   3.098   3.921  0.00  0.00     0.022 A 
ATOM      7  C5  UNL d   1       1.089   3.648   2.910  0.00  0.00     0.026 A 
ATOM      8  C6  UNL d   1       1.273   2.982   1.651  0.00  0.00    -0.082 A 
ATOM      9  C7  UNL d   1       0.695   3.231   0.383  0.00  0.00     0.045 A 
ENDROOT
TORSDOF 0
ENDMDL
