MODEL 1
REMARK minimizedAffinity 18.820219
REMARK minimizedRMSD -1
REMARK  0 active torsions:
REMARK  status: ('A' for Active; 'I' for Inactive)
ROOT
ATOM      1  C   UNL d   1       5.593   2.682  -1.622  0.00  0.00    -0.002 A 
ATOM      2  C1  UNL d   1       6.000   2.839  -0.305  0.00  0.00     0.010 A 
ATOM      3  C2  UNL d   1       5.317   2.199   0.731  0.00  0.00     0.041 A 
ATOM      4  C3  UNL d   1       4.209   1.388   0.417  0.00  0.00    -0.075 A 
ATOM      5  S   UNL d   1       3.221   0.505   1.521  0.00  0.00     0.015 SA
ATOM      6  C4  UNL d   1       2.237  -0.103   0.270  0.00  0.00     0.022 A 
ATOM      7  C5  UNL d   1       2.637   0.346  -0.966  0.00  0.00     0.026 A 
ATOM      8  C6  UNL d   1       3.781   1.212  -0.902  0.00  0.00    -0.082 A 
ATOM      9  C7  UNL d   1       4.493   1.876  -1.929  0.00  0.00     0.045 A 
ENDROOT
TORSDOF 0
ENDMDL
