MODEL 1
REMARK minimizedAffinity -3.77498555
REMARK minimizedRMSD -1
REMARK  0 active torsions:
REMARK  status: ('A' for Active; 'I' for Inactive)
ROOT
ATOM      1  C4' PXY d   1       5.976   3.965   4.071  0.00  0.00     0.077 C 
ATOM      2  C1' PXY d   1       5.972  -1.686   5.290  0.00  0.00     0.077 C 
ATOM      3  C1  PXY d   1       5.968  -0.201   4.982  0.00  0.00    -0.082 A 
ATOM      4  C2  PXY d   1       5.967   0.206   3.723  0.00  0.00     0.003 A 
ATOM      5  C3  PXY d   1       5.996   1.544   3.427  0.00  0.00     0.003 A 
ATOM      6  C4  PXY d   1       5.970   2.476   4.429  0.00  0.00    -0.082 A 
ATOM      7  C5  PXY d   1       5.960   2.069   5.716  0.00  0.00     0.003 A 
ATOM      8  C6  PXY d   1       5.973   0.706   5.996  0.00  0.00     0.003 A 
ENDROOT
TORSDOF 0
ENDMDL
