MODEL 1
REMARK minimizedAffinity -1.33416104
REMARK minimizedRMSD -1
REMARK  0 active torsions:
REMARK  status: ('A' for Active; 'I' for Inactive)
ROOT
ATOM      1  C4' PXY d   1       6.000   4.100   4.405  0.00  0.00     0.077 C 
ATOM      2  C1' PXY d   1       4.979  -1.569   4.896  0.00  0.00     0.077 C 
ATOM      3  C1  PXY d   1       5.247  -0.084   4.754  0.00  0.00    -0.082 A 
ATOM      4  C2  PXY d   1       5.763   0.588   5.771  0.00  0.00     0.003 A 
ATOM      5  C3  PXY d   1       5.982   1.938   5.671  0.00  0.00     0.003 A 
ATOM      6  C4  PXY d   1       5.721   2.597   4.500  0.00  0.00    -0.082 A 
ATOM      7  C5  PXY d   1       5.204   1.917   3.454  0.00  0.00     0.003 A 
ATOM      8  C6  PXY d   1       4.951   0.555   3.590  0.00  0.00     0.003 A 
ENDROOT
TORSDOF 0
ENDMDL
