MODEL 1
REMARK minimizedAffinity -2.2442944
REMARK minimizedRMSD -1
REMARK  0 active torsions:
REMARK  status: ('A' for Active; 'I' for Inactive)
ROOT
ATOM      1  C4' PXY d   1       5.995   4.176   3.379  0.00  0.00     0.077 C 
ATOM      2  C1' PXY d   1       5.976  -1.281   5.285  0.00  0.00     0.077 C 
ATOM      3  C1  PXY d   1       5.976   0.154   4.796  0.00  0.00    -0.082 A 
ATOM      4  C2  PXY d   1       5.965   0.402   3.497  0.00  0.00     0.003 A 
ATOM      5  C3  PXY d   1       5.997   1.694   3.038  0.00  0.00     0.003 A 
ATOM      6  C4  PXY d   1       5.986   2.743   3.918  0.00  0.00    -0.082 A 
ATOM      7  C5  PXY d   1       5.986   2.497   5.245  0.00  0.00     0.003 A 
ATOM      8  C6  PXY d   1       5.995   1.179   5.691  0.00  0.00     0.003 A 
ENDROOT
TORSDOF 0
ENDMDL
