MODEL 1
REMARK minimizedAffinity -2.12623954
REMARK minimizedRMSD -1
REMARK  0 active torsions:
REMARK  status: ('A' for Active; 'I' for Inactive)
ROOT
ATOM      1  C4' PXY d   1       5.704  -2.636   5.417  0.00  0.00     0.077 C 
ATOM      2  C1' PXY d   1       5.640   2.943   3.907  0.00  0.00     0.077 C 
ATOM      3  C1  PXY d   1       5.658   1.483   4.315  0.00  0.00    -0.082 A 
ATOM      4  C2  PXY d   1       6.000   0.561   3.430  0.00  0.00     0.003 A 
ATOM      5  C3  PXY d   1       5.991  -0.767   3.774  0.00  0.00     0.003 A 
ATOM      6  C4  PXY d   1       5.680  -1.150   5.051  0.00  0.00    -0.082 A 
ATOM      7  C5  PXY d   1       5.340  -0.214   5.962  0.00  0.00     0.003 A 
ATOM      8  C6  PXY d   1       5.316   1.125   5.582  0.00  0.00     0.003 A 
ENDROOT
TORSDOF 0
ENDMDL
