MODEL 1
REMARK minimizedAffinity -3.75665236
REMARK minimizedRMSD -1
REMARK  0 active torsions:
REMARK  status: ('A' for Active; 'I' for Inactive)
ROOT
ATOM      1  C4' PXY d   1       6.000   3.969   4.458  0.00  0.00     0.077 C 
ATOM      2  C1' PXY d   1       5.285  -1.766   4.343  0.00  0.00     0.077 C 
ATOM      3  C1  PXY d   1       5.467  -0.261   4.385  0.00  0.00    -0.082 A 
ATOM      4  C2  PXY d   1       5.616   0.411   3.255  0.00  0.00     0.003 A 
ATOM      5  C3  PXY d   1       5.813   1.768   3.276  0.00  0.00     0.003 A 
ATOM      6  C4  PXY d   1       5.804   2.451   4.463  0.00  0.00    -0.082 A 
ATOM      7  C5  PXY d   1       5.642   1.773   5.619  0.00  0.00     0.003 A 
ATOM      8  C6  PXY d   1       5.484   0.391   5.579  0.00  0.00     0.003 A 
ENDROOT
TORSDOF 0
ENDMDL
