MODEL 1
REMARK minimizedAffinity -1.0930047
REMARK minimizedRMSD -1
REMARK  0 active torsions:
REMARK  status: ('A' for Active; 'I' for Inactive)
ROOT
ATOM      1  C4' PXY d   1       5.973  -0.962   4.662  0.00  0.00     0.077 C 
ATOM      2  C1' PXY d   1       5.998   4.685   3.431  0.00  0.00     0.077 C 
ATOM      3  C1  PXY d   1       5.986   3.202   3.742  0.00  0.00    -0.082 A 
ATOM      4  C2  PXY d   1       5.972   2.798   5.002  0.00  0.00     0.003 A 
ATOM      5  C3  PXY d   1       5.993   1.460   5.302  0.00  0.00     0.003 A 
ATOM      6  C4  PXY d   1       5.976   0.525   4.301  0.00  0.00    -0.082 A 
ATOM      7  C5  PXY d   1       5.980   0.930   3.013  0.00  0.00     0.003 A 
ATOM      8  C6  PXY d   1       6.000   2.292   2.730  0.00  0.00     0.003 A 
ENDROOT
TORSDOF 0
ENDMDL
