MODEL 1
REMARK minimizedAffinity -2.37663317
REMARK minimizedRMSD -1
REMARK  0 active torsions:
REMARK  status: ('A' for Active; 'I' for Inactive)
ROOT
ATOM      1  C4' PXY d   1       6.000  -2.213   5.262  0.00  0.00     0.077 C 
ATOM      2  C1' PXY d   1       5.966   3.252   3.378  0.00  0.00     0.077 C 
ATOM      3  C1  PXY d   1       5.980   1.823   3.883  0.00  0.00    -0.082 A 
ATOM      4  C2  PXY d   1       5.997   0.823   3.017  0.00  0.00     0.003 A 
ATOM      5  C3  PXY d   1       5.978  -0.476   3.456  0.00  0.00     0.003 A 
ATOM      6  C4  PXY d   1       5.995  -0.754   4.797  0.00  0.00    -0.082 A 
ATOM      7  C5  PXY d   1       5.988   0.261   5.687  0.00  0.00     0.003 A 
ATOM      8  C6  PXY d   1       5.966   1.572   5.220  0.00  0.00     0.003 A 
ENDROOT
TORSDOF 0
ENDMDL
