MODEL 1
REMARK minimizedAffinity -1.70125008
REMARK minimizedRMSD -1
REMARK  0 active torsions:
REMARK  status: ('A' for Active; 'I' for Inactive)
ROOT
ATOM      1  C4' PXY d   1       5.997   3.454   2.479  0.00  0.00     0.077 C 
ATOM      2  C1' PXY d   1       5.981  -1.245   5.846  0.00  0.00     0.077 C 
ATOM      3  C1  PXY d   1       5.990  -0.020   4.953  0.00  0.00    -0.082 A 
ATOM      4  C2  PXY d   1       6.000   1.186   5.498  0.00  0.00     0.003 A 
ATOM      5  C3  PXY d   1       5.976   2.305   4.705  0.00  0.00     0.003 A 
ATOM      6  C4  PXY d   1       5.997   2.188   3.341  0.00  0.00    -0.082 A 
ATOM      7  C5  PXY d   1       5.998   0.962   2.778  0.00  0.00     0.003 A 
ATOM      8  C6  PXY d   1       5.980  -0.162   3.600  0.00  0.00     0.003 A 
ENDROOT
TORSDOF 0
ENDMDL
