MODEL 1
REMARK minimizedAffinity -3.43591237
REMARK minimizedRMSD -1
REMARK  0 active torsions:
REMARK  status: ('A' for Active; 'I' for Inactive)
ROOT
ATOM      1  C4' PXY d   1       5.768  -1.523   5.289  0.00  0.00     0.077 C 
ATOM      2  C1' PXY d   1       6.000   4.050   3.772  0.00  0.00     0.077 C 
ATOM      3  C1  PXY d   1       5.945   2.591   4.181  0.00  0.00    -0.082 A 
ATOM      4  C2  PXY d   1       5.845   1.654   3.252  0.00  0.00     0.003 A 
ATOM      5  C3  PXY d   1       5.762   0.332   3.606  0.00  0.00     0.003 A 
ATOM      6  C4  PXY d   1       5.836  -0.038   4.922  0.00  0.00    -0.082 A 
ATOM      7  C5  PXY d   1       5.950   0.911   5.875  0.00  0.00     0.003 A 
ATOM      8  C6  PXY d   1       5.991   2.250   5.497  0.00  0.00     0.003 A 
ENDROOT
TORSDOF 0
ENDMDL
