MODEL 1
REMARK minimizedAffinity 5.18948507
REMARK minimizedRMSD -1
REMARK  0 active torsions:
REMARK  status: ('A' for Active; 'I' for Inactive)
ROOT
ATOM      1  C4' PXY d   1       5.893   0.643   2.342  0.00  0.00     0.077 C 
ATOM      2  C1' PXY d   1       5.999   5.506   5.465  0.00  0.00     0.077 C 
ATOM      3  C1  PXY d   1       5.977   4.224   4.656  0.00  0.00    -0.082 A 
ATOM      4  C2  PXY d   1       5.988   4.284   3.335  0.00  0.00     0.003 A 
ATOM      5  C3  PXY d   1       5.935   3.136   2.587  0.00  0.00     0.003 A 
ATOM      6  C4  PXY d   1       5.925   1.911   3.199  0.00  0.00    -0.082 A 
ATOM      7  C5  PXY d   1       5.924   1.841   4.547  0.00  0.00     0.003 A 
ATOM      8  C6  PXY d   1       5.936   3.019   5.288  0.00  0.00     0.003 A 
ENDROOT
TORSDOF 0
ENDMDL
