MODEL 1
REMARK minimizedAffinity -0.0290813539
REMARK minimizedRMSD -1
REMARK  0 active torsions:
REMARK  status: ('A' for Active; 'I' for Inactive)
ROOT
ATOM      1  C4' PXY d   1       5.990   3.759   3.980  0.00  0.00     0.077 C 
ATOM      2  C1' PXY d   1       5.988  -1.988   4.607  0.00  0.00     0.077 C 
ATOM      3  C1  PXY d   1       5.994  -0.482   4.431  0.00  0.00    -0.082 A 
ATOM      4  C2  PXY d   1       5.998   0.301   5.497  0.00  0.00     0.003 A 
ATOM      5  C3  PXY d   1       5.971   1.665   5.356  0.00  0.00     0.003 A 
ATOM      6  C4  PXY d   1       5.993   2.233   4.110  0.00  0.00    -0.082 A 
ATOM      7  C5  PXY d   1       6.000   1.440   3.017  0.00  0.00     0.003 A 
ATOM      8  C6  PXY d   1       5.986   0.058   3.182  0.00  0.00     0.003 A 
ENDROOT
TORSDOF 0
ENDMDL
