MODEL 1
REMARK minimizedAffinity -3.35498405
REMARK minimizedRMSD -1
REMARK  0 active torsions:
REMARK  status: ('A' for Active; 'I' for Inactive)
ROOT
ATOM      1  C4' PXY d   1       5.249  -1.335   5.106  0.00  0.00     0.077 C 
ATOM      2  C1' PXY d   1       6.000   4.372   4.578  0.00  0.00     0.077 C 
ATOM      3  C1  PXY d   1       5.795   2.876   4.706  0.00  0.00    -0.082 A 
ATOM      4  C2  PXY d   1       5.996   2.286   5.873  0.00  0.00     0.003 A 
ATOM      5  C3  PXY d   1       5.846   0.928   5.999  0.00  0.00     0.003 A 
ATOM      6  C4  PXY d   1       5.435   0.175   4.932  0.00  0.00    -0.082 A 
ATOM      7  C5  PXY d   1       5.217   0.771   3.741  0.00  0.00     0.003 A 
ATOM      8  C6  PXY d   1       5.415   2.144   3.624  0.00  0.00     0.003 A 
ENDROOT
TORSDOF 0
ENDMDL
