MODEL 1
REMARK minimizedAffinity -0.196309626
REMARK minimizedRMSD -1
REMARK  0 active torsions:
REMARK  status: ('A' for Active; 'I' for Inactive)
ROOT
ATOM      1  C4' PXY d   1       5.973   2.589   3.730  0.00  0.00     0.077 C 
ATOM      2  C1' PXY d   1       6.000  -2.998   5.215  0.00  0.00     0.077 C 
ATOM      3  C1  PXY d   1       5.998  -1.536   4.814  0.00  0.00    -0.082 A 
ATOM      4  C2  PXY d   1       5.997  -0.601   5.750  0.00  0.00     0.003 A 
ATOM      5  C3  PXY d   1       5.963   0.726   5.405  0.00  0.00     0.003 A 
ATOM      6  C4  PXY d   1       5.984   1.100   4.088  0.00  0.00    -0.082 A 
ATOM      7  C5  PXY d   1       5.996   0.152   3.127  0.00  0.00     0.003 A 
ATOM      8  C6  PXY d   1       5.988  -1.189   3.498  0.00  0.00     0.003 A 
ENDROOT
TORSDOF 0
ENDMDL
