MODEL 1
REMARK minimizedAffinity -3.48380733
REMARK minimizedRMSD -1
REMARK  0 active torsions:
REMARK  status: ('A' for Active; 'I' for Inactive)
ROOT
ATOM      1  C4' PXY d   1       5.465  -1.480   4.878  0.00  0.00     0.077 C 
ATOM      2  C1' PXY d   1       5.999   4.263   4.497  0.00  0.00     0.077 C 
ATOM      3  C1  PXY d   1       5.866   2.757   4.608  0.00  0.00    -0.082 A 
ATOM      4  C2  PXY d   1       5.629   2.040   3.521  0.00  0.00     0.003 A 
ATOM      5  C3  PXY d   1       5.474   0.680   3.608  0.00  0.00     0.003 A 
ATOM      6  C4  PXY d   1       5.616   0.043   4.812  0.00  0.00    -0.082 A 
ATOM      7  C5  PXY d   1       5.869   0.766   5.923  0.00  0.00     0.003 A 
ATOM      8  C6  PXY d   1       5.982   2.150   5.819  0.00  0.00     0.003 A 
ENDROOT
TORSDOF 0
ENDMDL
