MODEL 1
REMARK minimizedAffinity -1.46030951
REMARK minimizedRMSD -1
REMARK  0 active torsions:
REMARK  status: ('A' for Active; 'I' for Inactive)
ROOT
ATOM      1  C4' PXY d   1       5.966   3.630   4.874  0.00  0.00     0.077 C 
ATOM      2  C1' PXY d   1       5.869  -2.150   4.839  0.00  0.00     0.077 C 
ATOM      3  C1  PXY d   1       5.900  -0.634   4.836  0.00  0.00    -0.082 A 
ATOM      4  C2  PXY d   1       5.858   0.023   5.984  0.00  0.00     0.003 A 
ATOM      5  C3  PXY d   1       5.854   1.394   5.999  0.00  0.00     0.003 A 
ATOM      6  C4  PXY d   1       5.946   2.099   4.829  0.00  0.00    -0.082 A 
ATOM      7  C5  PXY d   1       6.000   1.436   3.654  0.00  0.00     0.003 A 
ATOM      8  C6  PXY d   1       5.962   0.045   3.659  0.00  0.00     0.003 A 
ENDROOT
TORSDOF 0
ENDMDL
