MODEL 1
REMARK minimizedAffinity -4.08700562
REMARK minimizedRMSD -1
REMARK  0 active torsions:
REMARK  status: ('A' for Active; 'I' for Inactive)
ROOT
ATOM      1  C4' PXY d   1       5.641   3.559   4.257  0.00  0.00     0.077 C 
ATOM      2  C1' PXY d   1       5.643  -2.167   5.046  0.00  0.00     0.077 C 
ATOM      3  C1  PXY d   1       5.634  -0.664   4.849  0.00  0.00    -0.082 A 
ATOM      4  C2  PXY d   1       5.971  -0.157   3.675  0.00  0.00     0.003 A 
ATOM      5  C3  PXY d   1       5.999   1.201   3.488  0.00  0.00     0.003 A 
ATOM      6  C4  PXY d   1       5.627   2.047   4.499  0.00  0.00    -0.082 A 
ATOM      7  C5  PXY d   1       5.271   1.537   5.697  0.00  0.00     0.003 A 
ATOM      8  C6  PXY d   1       5.289   0.157   5.878  0.00  0.00     0.003 A 
ENDROOT
TORSDOF 0
ENDMDL
