MODEL 1
REMARK minimizedAffinity -3.04804993
REMARK minimizedRMSD -1
REMARK  0 active torsions:
REMARK  status: ('A' for Active; 'I' for Inactive)
ROOT
ATOM      1  C4' PXY d   1       5.961  -1.422   5.408  0.00  0.00     0.077 C 
ATOM      2  C1' PXY d   1       6.000   4.112   3.735  0.00  0.00     0.077 C 
ATOM      3  C1  PXY d   1       5.995   2.664   4.185  0.00  0.00    -0.082 A 
ATOM      4  C2  PXY d   1       5.982   1.698   3.281  0.00  0.00     0.003 A 
ATOM      5  C3  PXY d   1       5.946   0.384   3.671  0.00  0.00     0.003 A 
ATOM      6  C4  PXY d   1       5.976   0.054   4.999  0.00  0.00    -0.082 A 
ATOM      7  C5  PXY d   1       5.999   1.034   5.928  0.00  0.00     0.003 A 
ATOM      8  C6  PXY d   1       5.995   2.362   5.512  0.00  0.00     0.003 A 
ENDROOT
TORSDOF 0
ENDMDL
