MODEL 1
REMARK minimizedAffinity 0.633396864
REMARK minimizedRMSD -1
REMARK  0 active torsions:
REMARK  status: ('A' for Active; 'I' for Inactive)
ROOT
ATOM      1  C4' PXY d   1       5.975   3.752   3.750  0.00  0.00     0.077 C 
ATOM      2  C1' PXY d   1       6.000  -1.892   5.002  0.00  0.00     0.077 C 
ATOM      3  C1  PXY d   1       5.999  -0.414   4.662  0.00  0.00    -0.082 A 
ATOM      4  C2  PXY d   1       5.995   0.481   5.636  0.00  0.00     0.003 A 
ATOM      5  C3  PXY d   1       5.962   1.821   5.346  0.00  0.00     0.003 A 
ATOM      6  C4  PXY d   1       5.986   2.249   4.046  0.00  0.00    -0.082 A 
ATOM      7  C5  PXY d   1       6.000   1.342   3.047  0.00  0.00     0.003 A 
ATOM      8  C6  PXY d   1       5.992  -0.014   3.361  0.00  0.00     0.003 A 
ENDROOT
TORSDOF 0
ENDMDL
