MODEL 1
REMARK minimizedAffinity -2.55660224
REMARK minimizedRMSD -1
REMARK  0 active torsions:
REMARK  status: ('A' for Active; 'I' for Inactive)
ROOT
ATOM      1  C4' PXY d   1       5.999   3.500   3.788  0.00  0.00     0.077 C 
ATOM      2  C1' PXY d   1       5.890  -2.234   4.512  0.00  0.00     0.077 C 
ATOM      3  C1  PXY d   1       5.924  -0.732   4.311  0.00  0.00    -0.082 A 
ATOM      4  C2  PXY d   1       5.911   0.070   5.363  0.00  0.00     0.003 A 
ATOM      5  C3  PXY d   1       5.909   1.431   5.198  0.00  0.00     0.003 A 
ATOM      6  C4  PXY d   1       5.975   1.977   3.945  0.00  0.00    -0.082 A 
ATOM      7  C5  PXY d   1       6.000   1.166   2.866  0.00  0.00     0.003 A 
ATOM      8  C6  PXY d   1       5.959  -0.213   3.054  0.00  0.00     0.003 A 
ENDROOT
TORSDOF 0
ENDMDL
