MODEL 1
REMARK minimizedAffinity -4.12775707
REMARK minimizedRMSD -1
REMARK  0 active torsions:
REMARK  status: ('A' for Active; 'I' for Inactive)
ROOT
ATOM      1  C4' PXY d   1       5.240   3.041   3.436  0.00  0.00     0.077 C 
ATOM      2  C1' PXY d   1       5.724  -2.121   5.992  0.00  0.00     0.077 C 
ATOM      3  C1  PXY d   1       5.599  -0.773   5.310  0.00  0.00    -0.082 A 
ATOM      4  C2  PXY d   1       5.834   0.332   5.998  0.00  0.00     0.003 A 
ATOM      5  C3  PXY d   1       5.695   1.561   5.406  0.00  0.00     0.003 A 
ATOM      6  C4  PXY d   1       5.363   1.658   4.081  0.00  0.00    -0.082 A 
ATOM      7  C5  PXY d   1       5.131   0.534   3.370  0.00  0.00     0.003 A 
ATOM      8  C6  PXY d   1       5.238  -0.702   4.000  0.00  0.00     0.003 A 
ENDROOT
TORSDOF 0
ENDMDL
