MODEL 1
REMARK minimizedAffinity -1.53503156
REMARK minimizedRMSD -1
REMARK  1 active torsions:
REMARK  status: ('A' for Active; 'I' for Inactive)
REMARK    1  A    between atoms: C1_2  and  C2_3 
ROOT
ATOM      1  C2  UNL d   1      -0.016  -0.582  -1.799  0.00  0.00    -0.081 A 
ATOM      2  C3  UNL d   1       0.885  -0.733  -0.738  0.00  0.00     0.006 A 
ATOM      3  C4  UNL d   1       0.494  -0.438   0.570  0.00  0.00     0.002 A 
ATOM      4  C5  UNL d   1      -0.805   0.006   0.840  0.00  0.00    -0.080 A 
ATOM      5  C6  UNL d   1      -1.247   0.297   2.243  0.00  0.00     0.076 C 
ATOM      6  C7  UNL d   1      -1.700   0.174  -0.223  0.00  0.00     0.002 A 
ATOM      7  C8  UNL d   1      -1.309  -0.121  -1.531  0.00  0.00     0.006 A 
ENDROOT
BRANCH   1   8
ATOM      8  C1  UNL d   1       0.383  -0.961  -3.203  0.00  0.00     0.054 C 
ATOM      9  C   UNL d   1       0.779   0.264  -4.016  0.00  0.00     0.018 C 
ENDBRANCH   1   8
TORSDOF 1
ENDMDL
