MODEL 1
REMARK minimizedAffinity -4.59847975
REMARK minimizedRMSD -1
REMARK  1 active torsions:
REMARK  status: ('A' for Active; 'I' for Inactive)
REMARK    1  A    between atoms: C1_2  and  C2_3 
ROOT
ATOM      1  C2  UNL d   1       0.205  -0.821  -0.661  0.00  0.00    -0.081 A 
ATOM      2  C3  UNL d   1      -1.156  -0.656  -0.379  0.00  0.00     0.006 A 
ATOM      3  C4  UNL d   1      -1.564   0.013   0.778  0.00  0.00     0.002 A 
ATOM      4  C5  UNL d   1      -0.618   0.534   1.667  0.00  0.00    -0.080 A 
ATOM      5  C6  UNL d   1      -1.042   1.281   2.897  0.00  0.00     0.076 C 
ATOM      6  C7  UNL d   1       0.742   0.355   1.394  0.00  0.00     0.002 A 
ATOM      7  C8  UNL d   1       1.150  -0.314   0.238  0.00  0.00     0.006 A 
ENDROOT
BRANCH   1   8
ATOM      8  C1  UNL d   1       0.648  -1.484  -1.940  0.00  0.00     0.054 C 
ATOM      9  C   UNL d   1       1.052  -0.456  -2.986  0.00  0.00     0.018 C 
ENDBRANCH   1   8
TORSDOF 1
ENDMDL
