MODEL 1
REMARK minimizedAffinity -4.43665409
REMARK minimizedRMSD -1
REMARK  1 active torsions:
REMARK  status: ('A' for Active; 'I' for Inactive)
REMARK    1  A    between atoms: C1_2  and  C2_3 
ROOT
ATOM      1  C2  UNL d   1       0.226  -0.419  -0.608  0.00  0.00    -0.081 A 
ATOM      2  C3  UNL d   1       1.180  -0.123   0.373  0.00  0.00     0.006 A 
ATOM      3  C4  UNL d   1       0.794   0.460   1.583  0.00  0.00     0.002 A 
ATOM      4  C5  UNL d   1      -0.552   0.750   1.833  0.00  0.00    -0.080 A 
ATOM      5  C6  UNL d   1      -0.984   1.348   3.139  0.00  0.00     0.076 C 
ATOM      6  C7  UNL d   1      -1.502   0.470   0.846  0.00  0.00     0.002 A 
ATOM      7  C8  UNL d   1      -1.117  -0.113  -0.364  0.00  0.00     0.006 A 
ENDROOT
BRANCH   1   8
ATOM      8  C1  UNL d   1       0.631  -1.107  -1.887  0.00  0.00     0.054 C 
ATOM      9  C   UNL d   1       0.983  -0.098  -2.971  0.00  0.00     0.018 C 
ENDBRANCH   1   8
TORSDOF 1
ENDMDL
