MODEL 1
REMARK minimizedAffinity -3.9564898
REMARK minimizedRMSD -1
REMARK  1 active torsions:
REMARK  status: ('A' for Active; 'I' for Inactive)
REMARK    1  A    between atoms: C1_2  and  C2_3 
ROOT
ATOM      1  C2  UNL d   1      -0.862   0.363   0.951  0.00  0.00    -0.081 A 
ATOM      2  C3  UNL d   1       0.255  -0.441   0.691  0.00  0.00     0.006 A 
ATOM      3  C4  UNL d   1       0.640  -0.713  -0.624  0.00  0.00     0.002 A 
ATOM      4  C5  UNL d   1      -0.080  -0.182  -1.700  0.00  0.00    -0.080 A 
ATOM      5  C6  UNL d   1       0.341  -0.442  -3.115  0.00  0.00     0.076 C 
ATOM      6  C7  UNL d   1      -1.206   0.606  -1.440  0.00  0.00     0.002 A 
ATOM      7  C8  UNL d   1      -1.592   0.879  -0.126  0.00  0.00     0.006 A 
ENDROOT
BRANCH   1   8
ATOM      8  C1  UNL d   1      -1.242   0.712   2.367  0.00  0.00     0.054 C 
ATOM      9  C   UNL d   1      -0.254   1.694   2.979  0.00  0.00     0.018 C 
ENDBRANCH   1   8
TORSDOF 1
ENDMDL
