MODEL 1
REMARK minimizedAffinity -4.32730103
REMARK minimizedRMSD -1
REMARK  1 active torsions:
REMARK  status: ('A' for Active; 'I' for Inactive)
REMARK    1  A    between atoms: C1_2  and  C2_3 
ROOT
ATOM      1  C2  UNL d   1      -1.069   0.377   0.992  0.00  0.00    -0.081 A 
ATOM      2  C3  UNL d   1      -0.611  -0.938   0.848  0.00  0.00     0.006 A 
ATOM      3  C4  UNL d   1       0.527  -1.212   0.085  0.00  0.00     0.002 A 
ATOM      4  C5  UNL d   1       1.228  -0.176  -0.541  0.00  0.00    -0.080 A 
ATOM      5  C6  UNL d   1       2.468  -0.453  -1.338  0.00  0.00     0.076 C 
ATOM      6  C7  UNL d   1       0.760   1.136  -0.412  0.00  0.00     0.002 A 
ATOM      7  C8  UNL d   1      -0.378   1.410   0.351  0.00  0.00     0.006 A 
ENDROOT
BRANCH   1   8
ATOM      8  C1  UNL d   1      -2.258   0.683   1.867  0.00  0.00     0.054 C 
ATOM      9  C   UNL d   1      -1.907   1.705   2.939  0.00  0.00     0.018 C 
ENDBRANCH   1   8
TORSDOF 1
ENDMDL
