MODEL 1
REMARK minimizedAffinity -3.81168914
REMARK minimizedRMSD -1
REMARK  1 active torsions:
REMARK  status: ('A' for Active; 'I' for Inactive)
REMARK    1  A    between atoms: C1_2  and  C2_3 
ROOT
ATOM      1  C2  UNL d   1       0.631  -0.885   0.225  0.00  0.00    -0.081 A 
ATOM      2  C3  UNL d   1      -0.456  -0.098  -0.172  0.00  0.00     0.006 A 
ATOM      3  C4  UNL d   1      -0.251   1.078  -0.898  0.00  0.00     0.002 A 
ATOM      4  C5  UNL d   1       1.042   1.481  -1.246  0.00  0.00    -0.080 A 
ATOM      5  C6  UNL d   1       1.274   2.725  -2.051  0.00  0.00     0.076 C 
ATOM      6  C7  UNL d   1       2.130   0.704  -0.834  0.00  0.00     0.002 A 
ATOM      7  C8  UNL d   1       1.926  -0.471  -0.107  0.00  0.00     0.006 A 
ENDROOT
BRANCH   1   8
ATOM      8  C1  UNL d   1       0.410  -2.187   0.952  0.00  0.00     0.054 C 
ATOM      9  C   UNL d   1      -0.106  -3.266   0.011  0.00  0.00     0.018 C 
ENDBRANCH   1   8
TORSDOF 1
ENDMDL
