MODEL 1
REMARK minimizedAffinity -6.30525398
REMARK minimizedRMSD -1
REMARK  1 active torsions:
REMARK  status: ('A' for Active; 'I' for Inactive)
REMARK    1  A    between atoms: C1_2  and  C2_3 
ROOT
ATOM      1  C2  UNL d   1       1.053   0.492  -0.663  0.00  0.00    -0.081 A 
ATOM      2  C3  UNL d   1       0.986  -0.009   0.643  0.00  0.00     0.006 A 
ATOM      3  C4  UNL d   1      -0.241  -0.094   1.306  0.00  0.00     0.002 A 
ATOM      4  C5  UNL d   1      -1.420   0.312   0.673  0.00  0.00    -0.080 A 
ATOM      5  C6  UNL d   1      -2.747   0.198   1.362  0.00  0.00     0.076 C 
ATOM      6  C7  UNL d   1      -1.350   0.829  -0.625  0.00  0.00     0.002 A 
ATOM      7  C8  UNL d   1      -0.124   0.915  -1.289  0.00  0.00     0.006 A 
ENDROOT
BRANCH   1   8
ATOM      8  C1  UNL d   1       2.366   0.525  -1.404  0.00  0.00     0.054 C 
ATOM      9  C   UNL d   1       2.762  -0.862  -1.889  0.00  0.00     0.018 C 
ENDBRANCH   1   8
TORSDOF 1
ENDMDL
