MODEL 1
REMARK minimizedAffinity -5.2470808
REMARK minimizedRMSD -1
REMARK  1 active torsions:
REMARK  status: ('A' for Active; 'I' for Inactive)
REMARK    1  A    between atoms: C1_2  and  C2_3 
ROOT
ATOM      1  C2  UNL d   1      -0.595   0.012   0.380  0.00  0.00    -0.081 A 
ATOM      2  C3  UNL d   1      -0.064  -1.271   0.197  0.00  0.00     0.006 A 
ATOM      3  C4  UNL d   1       1.193  -1.439  -0.390  0.00  0.00     0.002 A 
ATOM      4  C5  UNL d   1       1.941  -0.329  -0.795  0.00  0.00    -0.080 A 
ATOM      5  C6  UNL d   1       3.305  -0.494  -1.399  0.00  0.00     0.076 C 
ATOM      6  C7  UNL d   1       1.403   0.951  -0.628  0.00  0.00     0.002 A 
ATOM      7  C8  UNL d   1       0.147   1.120  -0.042  0.00  0.00     0.006 A 
ENDROOT
BRANCH   1   8
ATOM      8  C1  UNL d   1      -1.922   0.200   1.071  0.00  0.00     0.054 C 
ATOM      9  C   UNL d   1      -1.756   0.928   2.397  0.00  0.00     0.018 C 
ENDBRANCH   1   8
TORSDOF 1
ENDMDL
