MODEL 1
REMARK minimizedAffinity -5.48987961
REMARK minimizedRMSD -1
REMARK  1 active torsions:
REMARK  status: ('A' for Active; 'I' for Inactive)
REMARK    1  A    between atoms: C1_2  and  C2_3 
ROOT
ATOM      1  C2  UNL d   1      -0.753   0.273   0.703  0.00  0.00    -0.081 A 
ATOM      2  C3  UNL d   1      -0.052  -0.929   0.859  0.00  0.00     0.006 A 
ATOM      3  C4  UNL d   1       1.056  -1.212   0.057  0.00  0.00     0.002 A 
ATOM      4  C5  UNL d   1       1.486  -0.295  -0.908  0.00  0.00    -0.080 A 
ATOM      5  C6  UNL d   1       2.692  -0.573  -1.756  0.00  0.00     0.076 C 
ATOM      6  C7  UNL d   1       0.776   0.899  -1.076  0.00  0.00     0.002 A 
ATOM      7  C8  UNL d   1      -0.333   1.182  -0.274  0.00  0.00     0.006 A 
ENDROOT
BRANCH   1   8
ATOM      8  C1  UNL d   1      -1.908   0.610   1.611  0.00  0.00     0.054 C 
ATOM      9  C   UNL d   1      -1.452   1.434   2.806  0.00  0.00     0.018 C 
ENDBRANCH   1   8
TORSDOF 1
ENDMDL
