MODEL 1
REMARK minimizedAffinity -5.2622757
REMARK minimizedRMSD -1
REMARK  1 active torsions:
REMARK  status: ('A' for Active; 'I' for Inactive)
REMARK    1  A    between atoms: C1_2  and  C2_3 
ROOT
ATOM      1  C2  UNL d   1      -0.389   0.223  -0.178  0.00  0.00    -0.081 A 
ATOM      2  C3  UNL d   1       0.151   1.256  -0.955  0.00  0.00     0.006 A 
ATOM      3  C4  UNL d   1       1.351   1.071  -1.645  0.00  0.00     0.002 A 
ATOM      4  C5  UNL d   1       2.028  -0.152  -1.576  0.00  0.00    -0.080 A 
ATOM      5  C6  UNL d   1       3.301  -0.374  -2.336  0.00  0.00     0.076 C 
ATOM      6  C7  UNL d   1       1.498  -1.178  -0.786  0.00  0.00     0.002 A 
ATOM      7  C8  UNL d   1       0.298  -0.993  -0.096  0.00  0.00     0.006 A 
ENDROOT
BRANCH   1   8
ATOM      8  C1  UNL d   1      -1.716   0.398   0.515  0.00  0.00     0.054 C 
ATOM      9  C   UNL d   1      -1.554   1.119   1.846  0.00  0.00     0.018 C 
ENDBRANCH   1   8
TORSDOF 1
ENDMDL
