MODEL 1
REMARK minimizedAffinity -3.54460716
REMARK minimizedRMSD -1
REMARK  1 active torsions:
REMARK  status: ('A' for Active; 'I' for Inactive)
REMARK    1  A    between atoms: C1_2  and  C2_3 
ROOT
ATOM      1  C2  UNL d   1      -1.224   0.057   1.084  0.00  0.00    -0.081 A 
ATOM      2  C3  UNL d   1      -0.725  -1.251   1.125  0.00  0.00     0.006 A 
ATOM      3  C4  UNL d   1       0.309  -1.641   0.271  0.00  0.00     0.002 A 
ATOM      4  C5  UNL d   1       0.868  -0.729  -0.631  0.00  0.00    -0.080 A 
ATOM      5  C6  UNL d   1       1.999  -1.127  -1.531  0.00  0.00     0.076 C 
ATOM      6  C7  UNL d   1       0.358   0.572  -0.684  0.00  0.00     0.002 A 
ATOM      7  C8  UNL d   1      -0.677   0.963   0.169  0.00  0.00     0.006 A 
ENDROOT
BRANCH   1   8
ATOM      8  C1  UNL d   1      -2.295   0.499   2.048  0.00  0.00     0.054 C 
ATOM      9  C   UNL d   1      -1.774   1.560   3.006  0.00  0.00     0.018 C 
ENDBRANCH   1   8
TORSDOF 1
ENDMDL
