MODEL 1
REMARK minimizedAffinity -3.62235069
REMARK minimizedRMSD -1
REMARK  1 active torsions:
REMARK  status: ('A' for Active; 'I' for Inactive)
REMARK    1  A    between atoms: C1_2  and  C2_3 
ROOT
ATOM      1  C2  UNL d   1      -0.780   0.661   1.133  0.00  0.00    -0.081 A 
ATOM      2  C3  UNL d   1       0.249  -0.193   1.548  0.00  0.00     0.006 A 
ATOM      3  C4  UNL d   1       1.268  -0.556   0.663  0.00  0.00     0.002 A 
ATOM      4  C5  UNL d   1       1.278  -0.066  -0.647  0.00  0.00    -0.080 A 
ATOM      5  C6  UNL d   1       2.382  -0.424  -1.597  0.00  0.00     0.076 C 
ATOM      6  C7  UNL d   1       0.241   0.773  -1.067  0.00  0.00     0.002 A 
ATOM      7  C8  UNL d   1      -0.778   1.136  -0.183  0.00  0.00     0.006 A 
ENDROOT
BRANCH   1   8
ATOM      8  C1  UNL d   1      -1.844   1.106   2.103  0.00  0.00     0.054 C 
ATOM      9  C   UNL d   1      -1.858   0.231   3.349  0.00  0.00     0.018 C 
ENDBRANCH   1   8
TORSDOF 1
ENDMDL
