MODEL 1
REMARK minimizedAffinity -4.48490906
REMARK minimizedRMSD -1
REMARK  1 active torsions:
REMARK  status: ('A' for Active; 'I' for Inactive)
REMARK    1  A    between atoms: C1_2  and  C2_3 
ROOT
ATOM      1  C2  UNL d   1      -0.806  -0.402   1.155  0.00  0.00    -0.073 A 
ATOM      2  C3  UNL d   1      -2.166  -0.133   0.965  0.00  0.00    -0.002 A 
ATOM      3  C4  UNL d   1      -2.623   0.360  -0.257  0.00  0.00     0.004 A 
ATOM      4  C5  UNL d   1      -1.728   0.581  -1.304  0.00  0.00    -0.004 A 
ATOM      5  C6  UNL d   1      -0.367   0.306  -1.139  0.00  0.00    -0.075 A 
ATOM      6  C7  UNL d   1       0.609   0.541  -2.254  0.00  0.00     0.076 C 
ATOM      7  C8  UNL d   1       0.085  -0.186   0.093  0.00  0.00     0.001 A 
ENDROOT
BRANCH   1   8
ATOM      8  C1  UNL d   1      -0.308  -0.941   2.471  0.00  0.00     0.053 C 
ATOM      9  C   UNL d   1      -1.276  -0.653   3.607  0.00  0.00     0.018 C 
ENDBRANCH   1   8
TORSDOF 1
ENDMDL
