MODEL 1
REMARK minimizedAffinity -6.19643021
REMARK minimizedRMSD -1
REMARK  1 active torsions:
REMARK  status: ('A' for Active; 'I' for Inactive)
REMARK    1  A    between atoms: C1_2  and  C2_3 
ROOT
ATOM      1  C2  UNL d   1      -0.341  -0.141   1.233  0.00  0.00    -0.073 A 
ATOM      2  C3  UNL d   1      -0.118  -0.327   2.602  0.00  0.00    -0.002 A 
ATOM      3  C4  UNL d   1      -1.149  -0.119   3.519  0.00  0.00     0.004 A 
ATOM      4  C5  UNL d   1      -2.413   0.270   3.078  0.00  0.00    -0.004 A 
ATOM      5  C6  UNL d   1      -2.659   0.449   1.713  0.00  0.00    -0.075 A 
ATOM      6  C7  UNL d   1      -4.014   0.869   1.221  0.00  0.00     0.076 C 
ATOM      7  C8  UNL d   1      -1.618   0.241   0.798  0.00  0.00     0.001 A 
ENDROOT
BRANCH   1   8
ATOM      8  C1  UNL d   1       0.767  -0.371   0.239  0.00  0.00     0.053 C 
ATOM      9  C   UNL d   1       0.506   0.339  -1.080  0.00  0.00     0.018 C 
ENDBRANCH   1   8
TORSDOF 1
ENDMDL
