MODEL 1
REMARK minimizedAffinity -3.86356616
REMARK minimizedRMSD -1
REMARK  1 active torsions:
REMARK  status: ('A' for Active; 'I' for Inactive)
REMARK    1  A    between atoms: C1_2  and  C2_3 
ROOT
ATOM      1  C2  UNL d   1       0.705  -0.039  -2.124  0.00  0.00    -0.073 A 
ATOM      2  C3  UNL d   1      -0.001  -1.138  -2.626  0.00  0.00    -0.002 A 
ATOM      3  C4  UNL d   1       0.569  -1.956  -3.602  0.00  0.00     0.004 A 
ATOM      4  C5  UNL d   1       1.851  -1.688  -4.081  0.00  0.00    -0.004 A 
ATOM      5  C6  UNL d   1       2.578  -0.602  -3.582  0.00  0.00    -0.075 A 
ATOM      6  C7  UNL d   1       3.958  -0.300  -4.088  0.00  0.00     0.076 C 
ATOM      7  C8  UNL d   1       1.998   0.216  -2.604  0.00  0.00     0.001 A 
ENDROOT
BRANCH   1   8
ATOM      8  C1  UNL d   1       0.096   0.843  -1.064  0.00  0.00     0.053 C 
ATOM      9  C   UNL d   1       0.408   0.347   0.339  0.00  0.00     0.018 C 
ENDBRANCH   1   8
TORSDOF 1
ENDMDL
