MODEL 1
REMARK minimizedAffinity -0.851752877
REMARK minimizedRMSD -1
REMARK  1 active torsions:
REMARK  status: ('A' for Active; 'I' for Inactive)
REMARK    1  A    between atoms: C1_2  and  C2_3 
ROOT
ATOM      1  C2  UNL d   1       0.762   0.425   0.799  0.00  0.00    -0.073 A 
ATOM      2  C3  UNL d   1       0.630   0.348   2.190  0.00  0.00    -0.002 A 
ATOM      3  C4  UNL d   1      -0.635   0.272   2.775  0.00  0.00     0.004 A 
ATOM      4  C5  UNL d   1      -1.779   0.265   1.976  0.00  0.00    -0.004 A 
ATOM      5  C6  UNL d   1      -1.667   0.330   0.583  0.00  0.00    -0.075 A 
ATOM      6  C7  UNL d   1      -2.887   0.326  -0.290  0.00  0.00     0.076 C 
ATOM      7  C8  UNL d   1      -0.393   0.409   0.004  0.00  0.00     0.001 A 
ENDROOT
BRANCH   1   8
ATOM      8  C1  UNL d   1       2.126   0.501   0.162  0.00  0.00     0.053 C 
ATOM      9  C   UNL d   1       3.101   1.313   0.999  0.00  0.00     0.018 C 
ENDBRANCH   1   8
TORSDOF 1
ENDMDL
