MODEL 1
REMARK minimizedAffinity -2.46774578
REMARK minimizedRMSD -1
REMARK  1 active torsions:
REMARK  status: ('A' for Active; 'I' for Inactive)
REMARK    1  A    between atoms: C1_2  and  C2_3 
ROOT
ATOM      1  C2  UNL d   1       0.432  -2.025  -0.642  0.00  0.00    -0.073 A 
ATOM      2  C3  UNL d   1      -0.455  -3.002  -0.175  0.00  0.00    -0.002 A 
ATOM      3  C4  UNL d   1      -1.170  -2.797   1.006  0.00  0.00     0.004 A 
ATOM      4  C5  UNL d   1      -1.013  -1.613   1.726  0.00  0.00    -0.004 A 
ATOM      5  C6  UNL d   1      -0.141  -0.620   1.269  0.00  0.00    -0.075 A 
ATOM      6  C7  UNL d   1       0.042   0.658   2.034  0.00  0.00     0.076 C 
ATOM      7  C8  UNL d   1       0.576  -0.834   0.084  0.00  0.00     0.001 A 
ENDROOT
BRANCH   1   8
ATOM      8  C1  UNL d   1       1.201  -2.238  -1.920  0.00  0.00     0.053 C 
ATOM      9  C   UNL d   1       0.282  -2.506  -3.101  0.00  0.00     0.018 C 
ENDBRANCH   1   8
TORSDOF 1
ENDMDL
