MODEL 1
REMARK minimizedAffinity -3.44726157
REMARK minimizedRMSD -1
REMARK  1 active torsions:
REMARK  status: ('A' for Active; 'I' for Inactive)
REMARK    1  A    between atoms: C1_2  and  C2_3 
ROOT
ATOM      1  C2  UNL d   1       0.283  -0.138   0.512  0.00  0.00    -0.073 A 
ATOM      2  C3  UNL d   1      -0.772  -0.442  -0.356  0.00  0.00    -0.002 A 
ATOM      3  C4  UNL d   1      -2.017  -0.817   0.151  0.00  0.00     0.004 A 
ATOM      4  C5  UNL d   1      -2.222  -0.886   1.529  0.00  0.00    -0.004 A 
ATOM      5  C6  UNL d   1      -1.183  -0.575   2.413  0.00  0.00    -0.075 A 
ATOM      6  C7  UNL d   1      -1.386  -0.646   3.898  0.00  0.00     0.076 C 
ATOM      7  C8  UNL d   1       0.065  -0.202   1.896  0.00  0.00     0.001 A 
ENDROOT
BRANCH   1   8
ATOM      8  C1  UNL d   1       1.626   0.274  -0.031  0.00  0.00     0.053 C 
ATOM      9  C   UNL d   1       2.485   0.951   1.026  0.00  0.00     0.018 C 
ENDBRANCH   1   8
TORSDOF 1
ENDMDL
