MODEL 1
REMARK minimizedAffinity -1.13154268
REMARK minimizedRMSD -1
REMARK  1 active torsions:
REMARK  status: ('A' for Active; 'I' for Inactive)
REMARK    1  A    between atoms: C1_2  and  C2_3 
ROOT
ATOM      1  C2  UNL d   1      -1.115   0.267   0.723  0.00  0.00    -0.073 A 
ATOM      2  C3  UNL d   1      -0.344   0.197   1.889  0.00  0.00    -0.002 A 
ATOM      3  C4  UNL d   1       1.004  -0.156   1.823  0.00  0.00     0.004 A 
ATOM      4  C5  UNL d   1       1.597  -0.436   0.591  0.00  0.00    -0.004 A 
ATOM      5  C6  UNL d   1       0.846  -0.360  -0.586  0.00  0.00    -0.075 A 
ATOM      6  C7  UNL d   1       1.468  -0.660  -1.919  0.00  0.00     0.076 C 
ATOM      7  C8  UNL d   1      -0.508  -0.007  -0.511  0.00  0.00     0.001 A 
ENDROOT
BRANCH   1   8
ATOM      8  C1  UNL d   1      -2.570   0.655   0.790  0.00  0.00     0.053 C 
ATOM      9  C   UNL d   1      -3.186   0.792  -0.593  0.00  0.00     0.018 C 
ENDBRANCH   1   8
TORSDOF 1
ENDMDL
