MODEL 1
REMARK minimizedAffinity -3.30385661
REMARK minimizedRMSD -1
REMARK  1 active torsions:
REMARK  status: ('A' for Active; 'I' for Inactive)
REMARK    1  A    between atoms: C1_2  and  C2_3 
ROOT
ATOM      1  C2  UNL d   1       0.509  -0.079  -0.488  0.00  0.00    -0.073 A 
ATOM      2  C3  UNL d   1       1.778   0.474  -0.280  0.00  0.00    -0.002 A 
ATOM      3  C4  UNL d   1       2.196   0.816   1.007  0.00  0.00     0.004 A 
ATOM      4  C5  UNL d   1       1.355   0.601   2.098  0.00  0.00    -0.004 A 
ATOM      5  C6  UNL d   1       0.088   0.038   1.913  0.00  0.00    -0.075 A 
ATOM      6  C7  UNL d   1      -0.830  -0.197   3.076  0.00  0.00     0.076 C 
ATOM      7  C8  UNL d   1      -0.326  -0.300   0.617  0.00  0.00     0.001 A 
ENDROOT
BRANCH   1   8
ATOM      8  C1  UNL d   1       0.056  -0.456  -1.874  0.00  0.00     0.053 C 
ATOM      9  C   UNL d   1       1.206  -0.956  -2.734  0.00  0.00     0.018 C 
ENDBRANCH   1   8
TORSDOF 1
ENDMDL
