MODEL 1
REMARK minimizedAffinity -3.61181116
REMARK minimizedRMSD -1
REMARK  1 active torsions:
REMARK  status: ('A' for Active; 'I' for Inactive)
REMARK    1  A    between atoms: C1_2  and  C2_3 
ROOT
ATOM      1  C2  UNL d   1       0.420  -0.142  -1.207  0.00  0.00    -0.073 A 
ATOM      2  C3  UNL d   1      -0.953   0.108  -1.309  0.00  0.00    -0.002 A 
ATOM      3  C4  UNL d   1      -1.711   0.358  -0.164  0.00  0.00     0.004 A 
ATOM      4  C5  UNL d   1      -1.103   0.367   1.092  0.00  0.00    -0.004 A 
ATOM      5  C6  UNL d   1       0.270   0.130   1.213  0.00  0.00    -0.075 A 
ATOM      6  C7  UNL d   1       0.938   0.134   2.556  0.00  0.00     0.076 C 
ATOM      7  C8  UNL d   1       1.023  -0.122   0.058  0.00  0.00     0.001 A 
ENDROOT
BRANCH   1   8
ATOM      8  C1  UNL d   1       1.243  -0.406  -2.441  0.00  0.00     0.053 C 
ATOM      9  C   UNL d   1       0.860  -1.715  -3.113  0.00  0.00     0.018 C 
ENDBRANCH   1   8
TORSDOF 1
ENDMDL
