MODEL 1
REMARK minimizedAffinity -2.15963578
REMARK minimizedRMSD -1
REMARK  1 active torsions:
REMARK  status: ('A' for Active; 'I' for Inactive)
REMARK    1  A    between atoms: C1_2  and  C2_3 
ROOT
ATOM      1  C2  UNL d   1       0.643   0.108  -0.698  0.00  0.00    -0.073 A 
ATOM      2  C3  UNL d   1       1.291   0.074   0.542  0.00  0.00    -0.002 A 
ATOM      3  C4  UNL d   1       0.556   0.174   1.724  0.00  0.00     0.004 A 
ATOM      4  C5  UNL d   1      -0.833   0.301   1.679  0.00  0.00    -0.004 A 
ATOM      5  C6  UNL d   1      -1.499   0.325   0.450  0.00  0.00    -0.075 A 
ATOM      6  C7  UNL d   1      -2.992   0.464   0.384  0.00  0.00     0.076 C 
ATOM      7  C8  UNL d   1      -0.754   0.227  -0.733  0.00  0.00     0.001 A 
ENDROOT
BRANCH   1   8
ATOM      8  C1  UNL d   1       1.432  -0.005  -1.977  0.00  0.00     0.053 C 
ATOM      9  C   UNL d   1       1.082  -1.266  -2.752  0.00  0.00     0.018 C 
ENDBRANCH   1   8
TORSDOF 1
ENDMDL
