MODEL 1
REMARK minimizedAffinity 3.74450016
REMARK minimizedRMSD -1
REMARK  0 active torsions:
REMARK  status: ('A' for Active; 'I' for Inactive)
ROOT
ATOM      1  C   UNL d   1       2.966  -1.676   2.595  0.00  0.00     0.124 A 
ATOM      2  C1  UNL d   1       4.052  -2.246   3.244  0.00  0.00     0.062 A 
ATOM      3  C2  UNL d   1       3.853  -3.222   4.216  0.00  0.00     0.162 A 
ATOM      4  C3  UNL d   1       2.562  -3.636   4.545  0.00  0.00    -0.034 A 
ATOM      5  C4  UNL d   1       1.474  -3.057   3.889  0.00  0.00     0.162 A 
ATOM      6  C5  UNL d   1       1.678  -2.082   2.918  0.00  0.00     0.062 A 
ATOM      7  F   UNL d   1       0.627  -1.532   2.292  0.00  0.00    -0.097 F 
ATOM      8  F1  UNL d   1       0.220  -3.431   4.180  0.00  0.00    -0.096 F 
ATOM      9  I   UNL d   1       2.261  -5.095   5.998  0.00  0.00    -0.060 I 
ATOM     10  F2  UNL d   1       4.921  -3.756   4.827  0.00  0.00    -0.096 F 
ATOM     11  F3  UNL d   1       5.297  -1.856   2.934  0.00  0.00    -0.097 F 
ATOM     12  F4  UNL d   1       3.160  -0.737   1.660  0.00  0.00    -0.092 F 
ENDROOT
TORSDOF 0
ENDMDL
