MODEL 1
REMARK minimizedAffinity 18.6938229
REMARK minimizedRMSD -1
REMARK  0 active torsions:
REMARK  status: ('A' for Active; 'I' for Inactive)
ROOT
ATOM      1  C   UNL d   1      -4.988   4.217   1.109  0.00  0.00     0.124 A 
ATOM      2  C1  UNL d   1      -4.865   3.152   1.991  0.00  0.00     0.062 A 
ATOM      3  C2  UNL d   1      -3.815   2.249   1.855  0.00  0.00     0.162 A 
ATOM      4  C3  UNL d   1      -2.878   2.407   0.833  0.00  0.00    -0.034 A 
ATOM      5  C4  UNL d   1      -3.009   3.480  -0.050  0.00  0.00     0.162 A 
ATOM      6  C5  UNL d   1      -4.060   4.380   0.090  0.00  0.00     0.062 A 
ATOM      7  F   UNL d   1      -4.178   5.409  -0.762  0.00  0.00    -0.097 F 
ATOM      8  F1  UNL d   1      -2.126   3.662  -1.043  0.00  0.00    -0.096 F 
ATOM      9  I   UNL d   1      -1.306   1.059   0.627  0.00  0.00    -0.060 I 
ATOM     10  F2  UNL d   1      -3.720   1.229   2.721  0.00  0.00    -0.096 F 
ATOM     11  F3  UNL d   1      -5.760   2.992   2.975  0.00  0.00    -0.097 F 
ATOM     12  F4  UNL d   1      -6.000   5.084   1.242  0.00  0.00    -0.092 F 
ENDROOT
TORSDOF 0
ENDMDL
