MODEL 1
REMARK minimizedAffinity 11.4106808
REMARK minimizedRMSD -1
REMARK  0 active torsions:
REMARK  status: ('A' for Active; 'I' for Inactive)
ROOT
ATOM      1  C   UNL d   1       2.223  -1.529   2.901  0.00  0.00     0.124 A 
ATOM      2  C1  UNL d   1       3.560  -1.248   2.657  0.00  0.00     0.062 A 
ATOM      3  C2  UNL d   1       4.540  -1.691   3.541  0.00  0.00     0.162 A 
ATOM      4  C3  UNL d   1       4.187  -2.420   4.676  0.00  0.00    -0.034 A 
ATOM      5  C4  UNL d   1       2.840  -2.697   4.915  0.00  0.00     0.162 A 
ATOM      6  C5  UNL d   1       1.864  -2.253   4.029  0.00  0.00     0.062 A 
ATOM      7  F   UNL d   1       0.572  -2.525   4.266  0.00  0.00    -0.097 F 
ATOM      8  F1  UNL d   1       2.465  -3.396   5.997  0.00  0.00    -0.096 F 
ATOM      9  I   UNL d   1       5.650  -3.083   6.000  0.00  0.00    -0.060 I 
ATOM     10  F2  UNL d   1       5.825  -1.405   3.280  0.00  0.00    -0.096 F 
ATOM     11  F3  UNL d   1       3.909  -0.548   1.568  0.00  0.00    -0.097 F 
ATOM     12  F4  UNL d   1       1.281  -1.101   2.050  0.00  0.00    -0.092 F 
ENDROOT
TORSDOF 0
ENDMDL
