MODEL 1
REMARK minimizedAffinity 17.9129486
REMARK minimizedRMSD -1
REMARK  0 active torsions:
REMARK  status: ('A' for Active; 'I' for Inactive)
ROOT
ATOM      1  C   UNL d   1      -1.885  -1.132  -1.130  0.00  0.00     0.124 A 
ATOM      2  C1  UNL d   1      -2.585  -0.497  -2.147  0.00  0.00     0.062 A 
ATOM      3  C2  UNL d   1      -2.888   0.858  -2.048  0.00  0.00     0.162 A 
ATOM      4  C3  UNL d   1      -2.489   1.588  -0.928  0.00  0.00    -0.034 A 
ATOM      5  C4  UNL d   1      -1.786   0.943   0.091  0.00  0.00     0.162 A 
ATOM      6  C5  UNL d   1      -1.487  -0.412  -0.013  0.00  0.00     0.062 A 
ATOM      7  F   UNL d   1      -0.810  -1.024   0.971  0.00  0.00    -0.097 F 
ATOM      8  F1  UNL d   1      -1.388   1.615   1.181  0.00  0.00    -0.096 F 
ATOM      9  I   UNL d   1      -2.939   3.615  -0.777  0.00  0.00    -0.060 I 
ATOM     10  F2  UNL d   1      -3.565   1.446  -3.045  0.00  0.00    -0.096 F 
ATOM     11  F3  UNL d   1      -2.972  -1.191  -3.227  0.00  0.00    -0.097 F 
ATOM     12  F4  UNL d   1      -1.597  -2.436  -1.227  0.00  0.00    -0.092 F 
ENDROOT
TORSDOF 0
ENDMDL
