MODEL 1
REMARK minimizedAffinity 24.0583134
REMARK minimizedRMSD -1
REMARK  0 active torsions:
REMARK  status: ('A' for Active; 'I' for Inactive)
ROOT
ATOM      1  C   UNL d   1       1.195  -1.238  -0.621  0.00  0.00     0.124 A 
ATOM      2  C1  UNL d   1       0.720  -0.135   0.075  0.00  0.00     0.062 A 
ATOM      3  C2  UNL d   1      -0.249   0.687  -0.492  0.00  0.00     0.162 A 
ATOM      4  C3  UNL d   1      -0.752   0.408  -1.763  0.00  0.00    -0.034 A 
ATOM      5  C4  UNL d   1      -0.269  -0.702  -2.458  0.00  0.00     0.162 A 
ATOM      6  C5  UNL d   1       0.700  -1.521  -1.886  0.00  0.00     0.062 A 
ATOM      7  F   UNL d   1       1.157  -2.586  -2.561  0.00  0.00    -0.097 F 
ATOM      8  F1  UNL d   1      -0.731  -0.999  -3.682  0.00  0.00    -0.096 F 
ATOM      9  I   UNL d   1      -2.202   1.634  -2.615  0.00  0.00    -0.060 I 
ATOM     10  F2  UNL d   1      -0.690   1.746   0.203  0.00  0.00    -0.096 F 
ATOM     11  F3  UNL d   1       1.197   0.141   1.297  0.00  0.00    -0.097 F 
ATOM     12  F4  UNL d   1       2.128  -2.026  -0.073  0.00  0.00    -0.092 F 
ENDROOT
TORSDOF 0
ENDMDL
