MODEL 1
REMARK minimizedAffinity 21.6688595
REMARK minimizedRMSD -1
REMARK  0 active torsions:
REMARK  status: ('A' for Active; 'I' for Inactive)
ROOT
ATOM      1  C   UNL d   1       2.514   1.156   2.482  0.00  0.00     0.124 A 
ATOM      2  C1  UNL d   1       2.591  -0.052   1.804  0.00  0.00     0.062 A 
ATOM      3  C2  UNL d   1       2.239  -1.238   2.442  0.00  0.00     0.162 A 
ATOM      4  C3  UNL d   1       1.805  -1.221   3.768  0.00  0.00    -0.034 A 
ATOM      5  C4  UNL d   1       1.732  -0.002   4.445  0.00  0.00     0.162 A 
ATOM      6  C5  UNL d   1       2.085   1.180   3.802  0.00  0.00     0.062 A 
ATOM      7  F   UNL d   1       2.010   2.347   4.459  0.00  0.00    -0.097 F 
ATOM      8  F1  UNL d   1       1.319   0.051   5.720  0.00  0.00    -0.096 F 
ATOM      9  I   UNL d   1       1.278  -2.991   4.727  0.00  0.00    -0.060 I 
ATOM     10  F2  UNL d   1       2.323  -2.391   1.762  0.00  0.00    -0.096 F 
ATOM     11  F3  UNL d   1       3.007  -0.079   0.529  0.00  0.00    -0.097 F 
ATOM     12  F4  UNL d   1       2.855   2.295   1.865  0.00  0.00    -0.092 F 
ENDROOT
TORSDOF 0
ENDMDL
