MODEL 1
REMARK minimizedAffinity 13.3283777
REMARK minimizedRMSD -1
REMARK  0 active torsions:
REMARK  status: ('A' for Active; 'I' for Inactive)
ROOT
ATOM      1  C   UNL d   1       3.096   1.788   2.585  0.00  0.00     0.124 A 
ATOM      2  C1  UNL d   1       2.520   1.714   3.846  0.00  0.00     0.062 A 
ATOM      3  C2  UNL d   1       2.011   0.506   4.313  0.00  0.00     0.162 A 
ATOM      4  C3  UNL d   1       2.077  -0.639   3.519  0.00  0.00    -0.034 A 
ATOM      5  C4  UNL d   1       2.657  -0.557   2.252  0.00  0.00     0.162 A 
ATOM      6  C5  UNL d   1       3.164   0.653   1.790  0.00  0.00     0.062 A 
ATOM      7  F   UNL d   1       3.720   0.723   0.571  0.00  0.00    -0.097 F 
ATOM      8  F1  UNL d   1       2.736  -1.639   1.463  0.00  0.00    -0.096 F 
ATOM      9  I   UNL d   1       1.317  -2.448   4.214  0.00  0.00    -0.060 I 
ATOM     10  F2  UNL d   1       1.460   0.463   5.535  0.00  0.00    -0.096 F 
ATOM     11  F3  UNL d   1       2.453   2.810   4.616  0.00  0.00    -0.097 F 
ATOM     12  F4  UNL d   1       3.584   2.952   2.138  0.00  0.00    -0.092 F 
ENDROOT
TORSDOF 0
ENDMDL
