MODEL 1
REMARK minimizedAffinity 12.5057955
REMARK minimizedRMSD -1
REMARK  0 active torsions:
REMARK  status: ('A' for Active; 'I' for Inactive)
ROOT
ATOM      1  C   UNL d   1       2.973   1.150  -5.944  0.00  0.00     0.124 A 
ATOM      2  C1  UNL d   1       4.097   1.965  -5.945  0.00  0.00     0.062 A 
ATOM      3  C2  UNL d   1       3.958   3.350  -5.955  0.00  0.00     0.162 A 
ATOM      4  C3  UNL d   1       2.689   3.930  -5.964  0.00  0.00    -0.034 A 
ATOM      5  C4  UNL d   1       1.564   3.104  -5.964  0.00  0.00     0.162 A 
ATOM      6  C5  UNL d   1       1.708   1.720  -5.953  0.00  0.00     0.062 A 
ATOM      7  F   UNL d   1       0.621   0.935  -5.953  0.00  0.00    -0.097 F 
ATOM      8  F1  UNL d   1       0.329   3.628  -5.972  0.00  0.00    -0.096 F 
ATOM      9  I   UNL d   1       2.477   6.000  -5.980  0.00  0.00    -0.060 I 
ATOM     10  F2  UNL d   1       5.061   4.112  -5.956  0.00  0.00    -0.096 F 
ATOM     11  F3  UNL d   1       5.321   1.417  -5.936  0.00  0.00    -0.097 F 
ATOM     12  F4  UNL d   1       3.110  -0.182  -5.934  0.00  0.00    -0.092 F 
ENDROOT
TORSDOF 0
ENDMDL
