MODEL 1
REMARK minimizedAffinity 22.1374226
REMARK minimizedRMSD -1
REMARK  0 active torsions:
REMARK  status: ('A' for Active; 'I' for Inactive)
ROOT
ATOM      1  C   UNL d   1       0.080  -0.440   3.849  0.00  0.00     0.124 A 
ATOM      2  C1  UNL d   1       0.962  -0.096   2.834  0.00  0.00     0.062 A 
ATOM      3  C2  UNL d   1       0.763  -0.575   1.542  0.00  0.00     0.162 A 
ATOM      4  C3  UNL d   1      -0.322  -1.404   1.258  0.00  0.00    -0.034 A 
ATOM      5  C4  UNL d   1      -1.203  -1.747   2.285  0.00  0.00     0.162 A 
ATOM      6  C5  UNL d   1      -1.001  -1.265   3.574  0.00  0.00     0.062 A 
ATOM      7  F   UNL d   1      -1.853  -1.599   4.554  0.00  0.00    -0.097 F 
ATOM      8  F1  UNL d   1      -2.257  -2.542   2.046  0.00  0.00    -0.096 F 
ATOM      9  I   UNL d   1      -0.622  -2.123  -0.672  0.00  0.00    -0.060 I 
ATOM     10  F2  UNL d   1       1.631  -0.226   0.581  0.00  0.00    -0.096 F 
ATOM     11  F3  UNL d   1       2.008   0.701   3.097  0.00  0.00    -0.097 F 
ATOM     12  F4  UNL d   1       0.274   0.022   5.091  0.00  0.00    -0.092 F 
ENDROOT
TORSDOF 0
ENDMDL
