MODEL 1
REMARK minimizedAffinity 22.443325
REMARK minimizedRMSD -1
REMARK  0 active torsions:
REMARK  status: ('A' for Active; 'I' for Inactive)
ROOT
ATOM      1  C   UNL d   1      -0.718  -3.671  -1.592  0.00  0.00     0.124 A 
ATOM      2  C1  UNL d   1      -0.897  -2.375  -2.057  0.00  0.00     0.062 A 
ATOM      3  C2  UNL d   1      -1.452  -2.152  -3.314  0.00  0.00     0.162 A 
ATOM      4  C3  UNL d   1      -1.832  -3.228  -4.116  0.00  0.00    -0.034 A 
ATOM      5  C4  UNL d   1      -1.649  -4.529  -3.642  0.00  0.00     0.162 A 
ATOM      6  C5  UNL d   1      -1.094  -4.746  -2.385  0.00  0.00     0.062 A 
ATOM      7  F   UNL d   1      -0.922  -5.998  -1.938  0.00  0.00    -0.097 F 
ATOM      8  F1  UNL d   1      -2.004  -5.586  -4.387  0.00  0.00    -0.096 F 
ATOM      9  I   UNL d   1      -2.662  -2.900  -5.996  0.00  0.00    -0.060 I 
ATOM     10  F2  UNL d   1      -1.613  -0.890  -3.737  0.00  0.00    -0.096 F 
ATOM     11  F3  UNL d   1      -0.534  -1.334  -1.293  0.00  0.00    -0.097 F 
ATOM     12  F4  UNL d   1      -0.184  -3.882  -0.383  0.00  0.00    -0.092 F 
ENDROOT
TORSDOF 0
ENDMDL
