MODEL 1
REMARK minimizedAffinity 14.6568327
REMARK minimizedRMSD -1
REMARK  0 active torsions:
REMARK  status: ('A' for Active; 'I' for Inactive)
ROOT
ATOM      1  C   UNL d   1      -0.856  -2.148  -1.927  0.00  0.00     0.124 A 
ATOM      2  C1  UNL d   1       0.138  -2.679  -1.116  0.00  0.00     0.062 A 
ATOM      3  C2  UNL d   1      -0.031  -2.718   0.265  0.00  0.00     0.162 A 
ATOM      4  C3  UNL d   1      -1.200  -2.224   0.845  0.00  0.00    -0.034 A 
ATOM      5  C4  UNL d   1      -2.194  -1.690   0.023  0.00  0.00     0.162 A 
ATOM      6  C5  UNL d   1      -2.020  -1.654  -1.357  0.00  0.00     0.062 A 
ATOM      7  F   UNL d   1      -2.981  -1.140  -2.138  0.00  0.00    -0.097 F 
ATOM      8  F1  UNL d   1      -3.330  -1.207   0.547  0.00  0.00    -0.096 F 
ATOM      9  I   UNL d   1      -1.457  -2.280   2.909  0.00  0.00    -0.060 I 
ATOM     10  F2  UNL d   1       0.945  -3.237   1.024  0.00  0.00    -0.096 F 
ATOM     11  F3  UNL d   1       1.265  -3.156  -1.665  0.00  0.00    -0.097 F 
ATOM     12  F4  UNL d   1      -0.690  -2.111  -3.255  0.00  0.00    -0.092 F 
ENDROOT
TORSDOF 0
ENDMDL
