MODEL 1
REMARK minimizedAffinity 14.983613
REMARK minimizedRMSD -1
REMARK  0 active torsions:
REMARK  status: ('A' for Active; 'I' for Inactive)
ROOT
ATOM      1  C   UNL d   1      -0.884  -2.804   0.228  0.00  0.00     0.124 A 
ATOM      2  C1  UNL d   1      -1.774  -1.914  -0.358  0.00  0.00     0.062 A 
ATOM      3  C2  UNL d   1      -2.256  -2.149  -1.642  0.00  0.00     0.162 A 
ATOM      4  C3  UNL d   1      -1.850  -3.281  -2.350  0.00  0.00    -0.034 A 
ATOM      5  C4  UNL d   1      -0.954  -4.171  -1.755  0.00  0.00     0.162 A 
ATOM      6  C5  UNL d   1      -0.475  -3.931  -0.471  0.00  0.00     0.062 A 
ATOM      7  F   UNL d   1       0.384  -4.792   0.093  0.00  0.00    -0.097 F 
ATOM      8  F1  UNL d   1      -0.543  -5.268  -2.407  0.00  0.00    -0.096 F 
ATOM      9  I   UNL d   1      -2.569  -3.637  -4.271  0.00  0.00    -0.060 I 
ATOM     10  F2  UNL d   1      -3.115  -1.273  -2.184  0.00  0.00    -0.096 F 
ATOM     11  F3  UNL d   1      -2.170  -0.824   0.314  0.00  0.00    -0.097 F 
ATOM     12  F4  UNL d   1      -0.421  -2.574   1.463  0.00  0.00    -0.092 F 
ENDROOT
TORSDOF 0
ENDMDL
