MODEL 1
REMARK minimizedAffinity 17.8950939
REMARK minimizedRMSD -1
REMARK  0 active torsions:
REMARK  status: ('A' for Active; 'I' for Inactive)
ROOT
ATOM      1  C   UNL d   1      -1.587  -1.576   3.435  0.00  0.00     0.124 A 
ATOM      2  C1  UNL d   1      -1.044  -1.715   2.166  0.00  0.00     0.062 A 
ATOM      3  C2  UNL d   1       0.040  -0.932   1.779  0.00  0.00     0.162 A 
ATOM      4  C3  UNL d   1       0.589  -0.003   2.663  0.00  0.00    -0.034 A 
ATOM      5  C4  UNL d   1       0.036   0.132   3.937  0.00  0.00     0.162 A 
ATOM      6  C5  UNL d   1      -1.047  -0.653   4.320  0.00  0.00     0.062 A 
ATOM      7  F   UNL d   1      -1.571  -0.517   5.546  0.00  0.00    -0.097 F 
ATOM      8  F1  UNL d   1       0.539   1.015   4.813  0.00  0.00    -0.096 F 
ATOM      9  I   UNL d   1       2.209   1.169   2.088  0.00  0.00    -0.060 I 
ATOM     10  F2  UNL d   1       0.545  -1.088   0.546  0.00  0.00    -0.096 F 
ATOM     11  F3  UNL d   1      -1.564  -2.606   1.309  0.00  0.00    -0.097 F 
ATOM     12  F4  UNL d   1      -2.630  -2.330   3.805  0.00  0.00    -0.092 F 
ENDROOT
TORSDOF 0
ENDMDL
