MODEL 1
REMARK minimizedAffinity 16.3671474
REMARK minimizedRMSD -1
REMARK  0 active torsions:
REMARK  status: ('A' for Active; 'I' for Inactive)
ROOT
ATOM      1  C   UNL d   1      -2.646  -1.305   1.357  0.00  0.00     0.124 A 
ATOM      2  C1  UNL d   1      -2.201  -1.493   0.056  0.00  0.00     0.062 A 
ATOM      3  C2  UNL d   1      -1.332  -2.539  -0.242  0.00  0.00     0.162 A 
ATOM      4  C3  UNL d   1      -0.903  -3.405   0.763  0.00  0.00    -0.034 A 
ATOM      5  C4  UNL d   1      -1.354  -3.209   2.070  0.00  0.00     0.162 A 
ATOM      6  C5  UNL d   1      -2.223  -2.163   2.362  0.00  0.00     0.062 A 
ATOM      7  F   UNL d   1      -2.652  -1.982   3.620  0.00  0.00    -0.097 F 
ATOM      8  F1  UNL d   1      -0.962  -4.024   3.060  0.00  0.00    -0.096 F 
ATOM      9  I   UNL d   1       0.397  -4.970   0.322  0.00  0.00    -0.060 I 
ATOM     10  F2  UNL d   1      -0.917  -2.697  -1.508  0.00  0.00    -0.096 F 
ATOM     11  F3  UNL d   1      -2.608  -0.665  -0.917  0.00  0.00    -0.097 F 
ATOM     12  F4  UNL d   1      -3.482  -0.297   1.641  0.00  0.00    -0.092 F 
ENDROOT
TORSDOF 0
ENDMDL
