MODEL 1
REMARK minimizedAffinity 4.45954704
REMARK minimizedRMSD -1
REMARK  0 active torsions:
REMARK  status: ('A' for Active; 'I' for Inactive)
ROOT
ATOM      1  C   UNL d   1       5.095   1.804  -2.384  0.00  0.00     0.124 A 
ATOM      2  C1  UNL d   1       5.263   1.399  -3.701  0.00  0.00     0.062 A 
ATOM      3  C2  UNL d   1       4.668   2.116  -4.735  0.00  0.00     0.162 A 
ATOM      4  C3  UNL d   1       3.899   3.246  -4.457  0.00  0.00    -0.034 A 
ATOM      5  C4  UNL d   1       3.734   3.647  -3.130  0.00  0.00     0.162 A 
ATOM      6  C5  UNL d   1       4.330   2.927  -2.100  0.00  0.00     0.062 A 
ATOM      7  F   UNL d   1       4.167   3.319  -0.828  0.00  0.00    -0.097 F 
ATOM      8  F1  UNL d   1       3.001   4.729  -2.826  0.00  0.00    -0.096 F 
ATOM      9  I   UNL d   1       3.007   4.321  -6.000  0.00  0.00    -0.060 I 
ATOM     10  F2  UNL d   1       4.847   1.702  -5.999  0.00  0.00    -0.096 F 
ATOM     11  F3  UNL d   1       6.000   0.314  -3.979  0.00  0.00    -0.097 F 
ATOM     12  F4  UNL d   1       5.668   1.112  -1.391  0.00  0.00    -0.092 F 
ENDROOT
TORSDOF 0
ENDMDL
