MODEL 1
REMARK minimizedAffinity 21.4897308
REMARK minimizedRMSD -1
REMARK  0 active torsions:
REMARK  status: ('A' for Active; 'I' for Inactive)
ROOT
ATOM      1  C   UNL d   1      -0.759  -2.281  -0.766  0.00  0.00     0.124 A 
ATOM      2  C1  UNL d   1      -0.435  -3.184   0.237  0.00  0.00     0.062 A 
ATOM      3  C2  UNL d   1      -1.043  -3.092   1.486  0.00  0.00     0.162 A 
ATOM      4  C3  UNL d   1      -1.983  -2.094   1.738  0.00  0.00    -0.034 A 
ATOM      5  C4  UNL d   1      -2.304  -1.189   0.725  0.00  0.00     0.162 A 
ATOM      6  C5  UNL d   1      -1.693  -1.285  -0.521  0.00  0.00     0.062 A 
ATOM      7  F   UNL d   1      -2.008  -0.411  -1.489  0.00  0.00    -0.097 F 
ATOM      8  F1  UNL d   1      -3.204  -0.216   0.934  0.00  0.00    -0.096 F 
ATOM      9  I   UNL d   1      -2.895  -1.953   3.604  0.00  0.00    -0.060 I 
ATOM     10  F2  UNL d   1      -0.710  -3.978   2.436  0.00  0.00    -0.096 F 
ATOM     11  F3  UNL d   1       0.468  -4.147   0.003  0.00  0.00    -0.097 F 
ATOM     12  F4  UNL d   1      -0.172  -2.371  -1.966  0.00  0.00    -0.092 F 
ENDROOT
TORSDOF 0
ENDMDL
