MODEL 1
REMARK minimizedAffinity 20.77705
REMARK minimizedRMSD -1
REMARK  0 active torsions:
REMARK  status: ('A' for Active; 'I' for Inactive)
ROOT
ATOM      1  C   UNL d   1       5.094   0.774  -3.780  0.00  0.00     0.124 A 
ATOM      2  C1  UNL d   1       5.011   1.393  -2.540  0.00  0.00     0.062 A 
ATOM      3  C2  UNL d   1       4.071   2.395  -2.319  0.00  0.00     0.162 A 
ATOM      4  C3  UNL d   1       3.205   2.786  -3.341  0.00  0.00    -0.034 A 
ATOM      5  C4  UNL d   1       3.295   2.160  -4.586  0.00  0.00     0.162 A 
ATOM      6  C5  UNL d   1       4.236   1.158  -4.801  0.00  0.00     0.062 A 
ATOM      7  F   UNL d   1       4.315   0.562  -6.000  0.00  0.00    -0.097 F 
ATOM      8  F1  UNL d   1       2.478   2.511  -5.590  0.00  0.00    -0.096 F 
ATOM      9  I   UNL d   1       1.798   4.284  -3.015  0.00  0.00    -0.060 I 
ATOM     10  F2  UNL d   1       4.013   2.975  -1.111  0.00  0.00    -0.096 F 
ATOM     11  F3  UNL d   1       5.839   1.024  -1.552  0.00  0.00    -0.097 F 
ATOM     12  F4  UNL d   1       6.000  -0.189  -3.990  0.00  0.00    -0.092 F 
ENDROOT
TORSDOF 0
ENDMDL
