MODEL 1
REMARK minimizedAffinity 21.7745647
REMARK minimizedRMSD -1
REMARK  0 active torsions:
REMARK  status: ('A' for Active; 'I' for Inactive)
ROOT
ATOM      1  C   UNL d   1      -2.948  -2.245  -1.071  0.00  0.00     0.124 A 
ATOM      2  C1  UNL d   1      -1.746  -2.028  -1.731  0.00  0.00     0.062 A 
ATOM      3  C2  UNL d   1      -1.586  -2.445  -3.049  0.00  0.00     0.162 A 
ATOM      4  C3  UNL d   1      -2.632  -3.083  -3.717  0.00  0.00    -0.034 A 
ATOM      5  C4  UNL d   1      -3.837  -3.299  -3.047  0.00  0.00     0.162 A 
ATOM      6  C5  UNL d   1      -3.992  -2.880  -1.729  0.00  0.00     0.062 A 
ATOM      7  F   UNL d   1      -5.153  -3.091  -1.093  0.00  0.00    -0.097 F 
ATOM      8  F1  UNL d   1      -4.862  -3.909  -3.659  0.00  0.00    -0.096 F 
ATOM      9  I   UNL d   1      -2.396  -3.708  -5.688  0.00  0.00    -0.060 I 
ATOM     10  F2  UNL d   1      -0.414  -2.222  -3.662  0.00  0.00    -0.096 F 
ATOM     11  F3  UNL d   1      -0.736  -1.415  -1.097  0.00  0.00    -0.097 F 
ATOM     12  F4  UNL d   1      -3.099  -1.844   0.198  0.00  0.00    -0.092 F 
ENDROOT
TORSDOF 0
ENDMDL
