MODEL 1
REMARK minimizedAffinity 4.82863235
REMARK minimizedRMSD -1
REMARK  0 active torsions:
REMARK  status: ('A' for Active; 'I' for Inactive)
ROOT
ATOM      1  C   UNL d   1       2.280   2.380  -5.956  0.00  0.00     0.124 A 
ATOM      2  C1  UNL d   1       3.626   2.044  -5.972  0.00  0.00     0.062 A 
ATOM      3  C2  UNL d   1       4.596   3.042  -5.984  0.00  0.00     0.162 A 
ATOM      4  C3  UNL d   1       4.224   4.386  -5.979  0.00  0.00    -0.034 A 
ATOM      5  C4  UNL d   1       2.867   4.716  -5.964  0.00  0.00     0.162 A 
ATOM      6  C5  UNL d   1       1.901   3.715  -5.952  0.00  0.00     0.062 A 
ATOM      7  F   UNL d   1       0.601   4.042  -5.937  0.00  0.00    -0.097 F 
ATOM      8  F1  UNL d   1       2.474   5.999  -5.959  0.00  0.00    -0.096 F 
ATOM      9  I   UNL d   1       5.671   5.882  -5.997  0.00  0.00    -0.060 I 
ATOM     10  F2  UNL d   1       5.890   2.689  -5.999  0.00  0.00    -0.096 F 
ATOM     11  F3  UNL d   1       3.994   0.755  -5.977  0.00  0.00    -0.097 F 
ATOM     12  F4  UNL d   1       1.348   1.418  -5.946  0.00  0.00    -0.092 F 
ENDROOT
TORSDOF 0
ENDMDL
