MODEL 1
REMARK minimizedAffinity -1.99772525
REMARK minimizedRMSD -1
REMARK  0 active torsions:
REMARK  status: ('A' for Active; 'I' for Inactive)
ROOT
ATOM      1  C   UNL d   1       2.419   4.355  -5.498  0.00  0.00     0.124 A 
ATOM      2  C1  UNL d   1       3.734   4.718  -5.243  0.00  0.00     0.062 A 
ATOM      3  C2  UNL d   1       4.738   3.754  -5.240  0.00  0.00     0.162 A 
ATOM      4  C3  UNL d   1       4.431   2.417  -5.495  0.00  0.00    -0.034 A 
ATOM      5  C4  UNL d   1       3.106   2.060  -5.751  0.00  0.00     0.162 A 
ATOM      6  C5  UNL d   1       2.106   3.027  -5.752  0.00  0.00     0.062 A 
ATOM      7  F   UNL d   1       0.836   2.675  -5.999  0.00  0.00    -0.097 F 
ATOM      8  F1  UNL d   1       2.776   0.784  -6.000  0.00  0.00    -0.096 F 
ATOM      9  I   UNL d   1       5.930   0.973  -5.492  0.00  0.00    -0.060 I 
ATOM     10  F2  UNL d   1       6.000   4.133  -4.990  0.00  0.00    -0.096 F 
ATOM     11  F3  UNL d   1       4.038   6.000  -4.996  0.00  0.00    -0.097 F 
ATOM     12  F4  UNL d   1       1.454   5.284  -5.499  0.00  0.00    -0.092 F 
ENDROOT
TORSDOF 0
ENDMDL
