MODEL 1
REMARK minimizedAffinity 10.4134722
REMARK minimizedRMSD -1
REMARK  0 active torsions:
REMARK  status: ('A' for Active; 'I' for Inactive)
ROOT
ATOM      1  C   UNL d   1       2.379   1.073  -5.945  0.00  0.00     0.124 A 
ATOM      2  C1  UNL d   1       2.062   2.424  -5.930  0.00  0.00     0.062 A 
ATOM      3  C2  UNL d   1       3.073   3.380  -5.893  0.00  0.00     0.162 A 
ATOM      4  C3  UNL d   1       4.412   2.988  -5.873  0.00  0.00    -0.034 A 
ATOM      5  C4  UNL d   1       4.723   1.627  -5.887  0.00  0.00     0.162 A 
ATOM      6  C5  UNL d   1       3.709   0.676  -5.924  0.00  0.00     0.062 A 
ATOM      7  F   UNL d   1       4.017  -0.630  -5.939  0.00  0.00    -0.097 F 
ATOM      8  F1  UNL d   1       5.999   1.215  -5.868  0.00  0.00    -0.096 F 
ATOM      9  I   UNL d   1       5.927   4.414  -5.818  0.00  0.00    -0.060 I 
ATOM     10  F2  UNL d   1       2.738   4.678  -5.879  0.00  0.00    -0.096 F 
ATOM     11  F3  UNL d   1       0.778   2.810  -5.949  0.00  0.00    -0.097 F 
ATOM     12  F4  UNL d   1       1.404   0.155  -5.979  0.00  0.00    -0.092 F 
ENDROOT
TORSDOF 0
ENDMDL
