MODEL 1
REMARK minimizedAffinity 19.6350784
REMARK minimizedRMSD -1
REMARK  0 active torsions:
REMARK  status: ('A' for Active; 'I' for Inactive)
ROOT
ATOM      1  C   UNL d   1       4.398   1.352  -5.575  0.00  0.00     0.124 A 
ATOM      2  C1  UNL d   1       3.107   0.853  -5.675  0.00  0.00     0.062 A 
ATOM      3  C2  UNL d   1       2.027   1.723  -5.789  0.00  0.00     0.162 A 
ATOM      4  C3  UNL d   1       2.233   3.102  -5.805  0.00  0.00    -0.034 A 
ATOM      5  C4  UNL d   1       3.534   3.597  -5.703  0.00  0.00     0.162 A 
ATOM      6  C5  UNL d   1       4.610   2.724  -5.589  0.00  0.00     0.062 A 
ATOM      7  F   UNL d   1       5.857   3.208  -5.492  0.00  0.00    -0.097 F 
ATOM      8  F1  UNL d   1       3.768   4.918  -5.715  0.00  0.00    -0.096 F 
ATOM      9  I   UNL d   1       0.620   4.407  -5.977  0.00  0.00    -0.060 I 
ATOM     10  F2  UNL d   1       0.790   1.212  -5.885  0.00  0.00    -0.096 F 
ATOM     11  F3  UNL d   1       2.899  -0.472  -5.660  0.00  0.00    -0.097 F 
ATOM     12  F4  UNL d   1       5.435   0.513  -5.464  0.00  0.00    -0.092 F 
ENDROOT
TORSDOF 0
ENDMDL
