MODEL 1
REMARK minimizedAffinity 6.46244383
REMARK minimizedRMSD -1
REMARK  0 active torsions:
REMARK  status: ('A' for Active; 'I' for Inactive)
ROOT
ATOM      1  C   UNL d   1       4.886   1.383   1.257  0.00  0.00     0.124 A 
ATOM      2  C1  UNL d   1       3.731   2.101   0.981  0.00  0.00     0.062 A 
ATOM      3  C2  UNL d   1       2.572   1.871   1.717  0.00  0.00     0.162 A 
ATOM      4  C3  UNL d   1       2.563   0.920   2.737  0.00  0.00    -0.034 A 
ATOM      5  C4  UNL d   1       3.729   0.202   3.009  0.00  0.00     0.162 A 
ATOM      6  C5  UNL d   1       4.884   0.435   2.270  0.00  0.00     0.062 A 
ATOM      7  F   UNL d   1       6.000  -0.260   2.538  0.00  0.00    -0.097 F 
ATOM      8  F1  UNL d   1       3.755  -0.720   3.983  0.00  0.00    -0.096 F 
ATOM      9  I   UNL d   1       0.832   0.574   3.840  0.00  0.00    -0.060 I 
ATOM     10  F2  UNL d   1       1.470   2.579   1.428  0.00  0.00    -0.096 F 
ATOM     11  F3  UNL d   1       3.730   3.017   0.002  0.00  0.00    -0.097 F 
ATOM     12  F4  UNL d   1       6.000   1.605   0.547  0.00  0.00    -0.092 F 
ENDROOT
TORSDOF 0
ENDMDL
