MODEL 1
REMARK minimizedAffinity 10.9617977
REMARK minimizedRMSD -1
REMARK  1 active torsions:
REMARK  status: ('A' for Active; 'I' for Inactive)
REMARK    1  A    between atoms: C1_2  and  C2_3 
ROOT
ATOM      1  C2  UNL d   1      -0.982   4.489  -0.429  0.00  0.00    -0.081 A 
ATOM      2  C3  UNL d   1      -1.780   5.492  -0.994  0.00  0.00     0.006 A 
ATOM      3  C4  UNL d   1      -1.493   5.992  -2.266  0.00  0.00     0.002 A 
ATOM      4  C5  UNL d   1      -0.409   5.493  -2.998  0.00  0.00    -0.080 A 
ATOM      5  C6  UNL d   1      -0.109   6.000  -4.377  0.00  0.00     0.076 C 
ATOM      6  C7  UNL d   1       0.398   4.504  -2.426  0.00  0.00     0.002 A 
ATOM      7  C8  UNL d   1       0.112   4.004  -1.154  0.00  0.00     0.006 A 
ENDROOT
BRANCH   1   8
ATOM      8  C1  UNL d   1      -1.327   3.902   0.916  0.00  0.00     0.054 C 
ATOM      9  C   UNL d   1      -0.772   2.493   1.063  0.00  0.00     0.018 C 
ENDBRANCH   1   8
TORSDOF 1
ENDMDL
