MODEL 1
REMARK minimizedAffinity 11.2551451
REMARK minimizedRMSD -1
REMARK  1 active torsions:
REMARK  status: ('A' for Active; 'I' for Inactive)
REMARK    1  A    between atoms: C1_2  and  C2_3 
ROOT
ATOM      1  C2  UNL d   1      -2.443   4.884  -2.296  0.00  0.00    -0.081 A 
ATOM      2  C3  UNL d   1      -1.822   3.635  -2.180  0.00  0.00     0.006 A 
ATOM      3  C4  UNL d   1      -0.651   3.494  -1.432  0.00  0.00     0.002 A 
ATOM      4  C5  UNL d   1      -0.086   4.596  -0.781  0.00  0.00    -0.080 A 
ATOM      5  C6  UNL d   1       1.154   4.452   0.050  0.00  0.00     0.076 C 
ATOM      6  C7  UNL d   1      -0.698   5.848  -0.912  0.00  0.00     0.002 A 
ATOM      7  C8  UNL d   1      -1.868   5.990  -1.660  0.00  0.00     0.006 A 
ENDROOT
BRANCH   1   8
ATOM      8  C1  UNL d   1      -3.742   5.027  -3.049  0.00  0.00     0.054 C 
ATOM      9  C   UNL d   1      -4.823   4.132  -2.462  0.00  0.00     0.018 C 
ENDBRANCH   1   8
TORSDOF 1
ENDMDL
