MODEL 1
REMARK minimizedAffinity 2.8293829
REMARK minimizedRMSD -1
REMARK  0 active torsions:
REMARK  status: ('A' for Active; 'I' for Inactive)
ROOT
ATOM      1  C   UNL d   1       2.459  -1.461   5.342  0.00  0.00     0.078 C 
ATOM      2  C1  UNL d   1       2.219  -1.201   3.885  0.00  0.00    -0.077 A 
ATOM      3  C2  UNL d   1       1.952  -2.252   2.999  0.00  0.00    -0.001 A 
ATOM      4  C3  UNL d   1       1.741  -1.996   1.644  0.00  0.00     0.003 A 
ATOM      5  C4  UNL d   1       1.795  -0.690   1.161  0.00  0.00    -0.005 A 
ATOM      6  C5  UNL d   1       2.062   0.362   2.035  0.00  0.00     0.003 A 
ATOM      7  C6  UNL d   1       2.274   0.108   3.391  0.00  0.00    -0.001 A 
ENDROOT
TORSDOF 0
ENDMDL
