MODEL 1
REMARK minimizedAffinity 0.680868149
REMARK minimizedRMSD -1
REMARK  0 active torsions:
REMARK  status: ('A' for Active; 'I' for Inactive)
ROOT
ATOM      1  C   UNL d   1       5.871  -2.493   5.989  0.00  0.00     0.078 C 
ATOM      2  C1  UNL d   1       4.572  -2.298   5.266  0.00  0.00    -0.077 A 
ATOM      3  C2  UNL d   1       3.352  -2.334   5.953  0.00  0.00    -0.001 A 
ATOM      4  C3  UNL d   1       2.150  -2.160   5.266  0.00  0.00     0.003 A 
ATOM      5  C4  UNL d   1       2.155  -1.950   3.888  0.00  0.00    -0.005 A 
ATOM      6  C5  UNL d   1       3.364  -1.914   3.196  0.00  0.00     0.003 A 
ATOM      7  C6  UNL d   1       4.567  -2.088   3.881  0.00  0.00    -0.001 A 
ENDROOT
TORSDOF 0
ENDMDL
