MODEL 1
REMARK minimizedAffinity 13.1948748
REMARK minimizedRMSD -1
REMARK  0 active torsions:
REMARK  status: ('A' for Active; 'I' for Inactive)
ROOT
ATOM      1  C   UNL d   1       1.509  -2.026   4.068  0.00  0.00     0.078 C 
ATOM      2  C1  UNL d   1       1.086  -3.395   4.510  0.00  0.00    -0.077 A 
ATOM      3  C2  UNL d   1       1.559  -4.541   3.860  0.00  0.00    -0.001 A 
ATOM      4  C3  UNL d   1       1.148  -5.809   4.275  0.00  0.00     0.003 A 
ATOM      5  C4  UNL d   1       0.262  -5.943   5.342  0.00  0.00    -0.005 A 
ATOM      6  C5  UNL d   1      -0.216  -4.808   5.994  0.00  0.00     0.003 A 
ATOM      7  C6  UNL d   1       0.193  -3.539   5.580  0.00  0.00    -0.001 A 
ENDROOT
TORSDOF 0
ENDMDL
