MODEL 1
REMARK minimizedAffinity -1.98751485
REMARK minimizedRMSD -1
REMARK  0 active torsions:
REMARK  status: ('A' for Active; 'I' for Inactive)
ROOT
ATOM      1  C   UNL d   1       5.995  -2.036   3.988  0.00  0.00     0.078 C 
ATOM      2  C1  UNL d   1       4.549  -1.924   3.609  0.00  0.00    -0.077 A 
ATOM      3  C2  UNL d   1       3.592  -2.791   4.153  0.00  0.00    -0.001 A 
ATOM      4  C3  UNL d   1       2.250  -2.681   3.784  0.00  0.00     0.003 A 
ATOM      5  C4  UNL d   1       1.853  -1.708   2.869  0.00  0.00    -0.005 A 
ATOM      6  C5  UNL d   1       2.798  -0.843   2.321  0.00  0.00     0.003 A 
ATOM      7  C6  UNL d   1       4.140  -0.951   2.689  0.00  0.00    -0.001 A 
ENDROOT
TORSDOF 0
ENDMDL
