MODEL 1
REMARK minimizedAffinity 5.75879335
REMARK minimizedRMSD -1
REMARK  0 active torsions:
REMARK  status: ('A' for Active; 'I' for Inactive)
ROOT
ATOM      1  C   UNL d   1       5.757  -2.080   5.902  0.00  0.00     0.078 C 
ATOM      2  C1  UNL d   1       4.498  -2.144   5.090  0.00  0.00    -0.077 A 
ATOM      3  C2  UNL d   1       3.860  -3.366   4.844  0.00  0.00    -0.001 A 
ATOM      4  C3  UNL d   1       2.694  -3.411   4.078  0.00  0.00     0.003 A 
ATOM      5  C4  UNL d   1       2.156  -2.238   3.551  0.00  0.00    -0.005 A 
ATOM      6  C5  UNL d   1       2.786  -1.018   3.789  0.00  0.00     0.003 A 
ATOM      7  C6  UNL d   1       3.952  -0.971   4.554  0.00  0.00    -0.001 A 
ENDROOT
TORSDOF 0
ENDMDL
