MODEL 1
REMARK minimizedAffinity -1.03673768
REMARK minimizedRMSD -1
REMARK  0 active torsions:
REMARK  status: ('A' for Active; 'I' for Inactive)
ROOT
ATOM      1  C   UNL d   1       5.853  -2.635   5.996  0.00  0.00     0.078 C 
ATOM      2  C1  UNL d   1       4.539  -2.384   5.318  0.00  0.00    -0.077 A 
ATOM      3  C2  UNL d   1       4.486  -1.888   4.009  0.00  0.00    -0.001 A 
ATOM      4  C3  UNL d   1       3.257  -1.649   3.394  0.00  0.00     0.003 A 
ATOM      5  C4  UNL d   1       2.070  -1.903   4.080  0.00  0.00    -0.005 A 
ATOM      6  C5  UNL d   1       2.113  -2.394   5.383  0.00  0.00     0.003 A 
ATOM      7  C6  UNL d   1       3.342  -2.633   6.000  0.00  0.00    -0.001 A 
ENDROOT
TORSDOF 0
ENDMDL
