MODEL 1
REMARK minimizedAffinity 11.7726612
REMARK minimizedRMSD -1
REMARK  0 active torsions:
REMARK  status: ('A' for Active; 'I' for Inactive)
ROOT
ATOM      1  C   UNL d   1       2.388   0.260   1.869  0.00  0.00     0.078 C 
ATOM      2  C1  UNL d   1       1.250  -0.057   0.946  0.00  0.00    -0.077 A 
ATOM      3  C2  UNL d   1       0.001   0.555   1.103  0.00  0.00    -0.001 A 
ATOM      4  C3  UNL d   1      -1.052   0.242   0.243  0.00  0.00     0.003 A 
ATOM      5  C4  UNL d   1      -0.868  -0.684  -0.781  0.00  0.00    -0.005 A 
ATOM      6  C5  UNL d   1       0.371  -1.301  -0.945  0.00  0.00     0.003 A 
ATOM      7  C6  UNL d   1       1.426  -0.989  -0.085  0.00  0.00    -0.001 A 
ENDROOT
TORSDOF 0
ENDMDL
