MODEL 1
REMARK minimizedAffinity 6.16902781
REMARK minimizedRMSD -1
REMARK  0 active torsions:
REMARK  status: ('A' for Active; 'I' for Inactive)
ROOT
ATOM      1  C   UNL d   1      -5.814   5.882  -0.001  0.00  0.00     0.078 C 
ATOM      2  C1  UNL d   1      -5.821   4.542   0.671  0.00  0.00    -0.077 A 
ATOM      3  C2  UNL d   1      -5.641   4.427   2.055  0.00  0.00    -0.001 A 
ATOM      4  C3  UNL d   1      -5.640   3.172   2.666  0.00  0.00     0.003 A 
ATOM      5  C4  UNL d   1      -5.819   2.022   1.900  0.00  0.00    -0.005 A 
ATOM      6  C5  UNL d   1      -5.997   2.125   0.522  0.00  0.00     0.003 A 
ATOM      7  C6  UNL d   1      -5.998   3.379  -0.090  0.00  0.00    -0.001 A 
ENDROOT
TORSDOF 0
ENDMDL
