MODEL 1
REMARK minimizedAffinity 9.62074089
REMARK minimizedRMSD -1
REMARK  0 active torsions:
REMARK  status: ('A' for Active; 'I' for Inactive)
ROOT
ATOM      1  C   UNL d   1       5.999  -2.553   4.509  0.00  0.00     0.078 C 
ATOM      2  C1  UNL d   1       4.513  -2.371   4.419  0.00  0.00    -0.077 A 
ATOM      3  C2  UNL d   1       3.687  -2.626   5.520  0.00  0.00    -0.001 A 
ATOM      4  C3  UNL d   1       2.304  -2.461   5.418  0.00  0.00     0.003 A 
ATOM      5  C4  UNL d   1       1.736  -2.042   4.217  0.00  0.00    -0.005 A 
ATOM      6  C5  UNL d   1       2.550  -1.787   3.115  0.00  0.00     0.003 A 
ATOM      7  C6  UNL d   1       3.933  -1.951   3.215  0.00  0.00    -0.001 A 
ENDROOT
TORSDOF 0
ENDMDL
