MODEL 1
REMARK minimizedAffinity 6.03000832
REMARK minimizedRMSD -1
REMARK  0 active torsions:
REMARK  status: ('A' for Active; 'I' for Inactive)
ROOT
ATOM      1  C   UNL d   1       3.564  -3.819   4.514  0.00  0.00     0.078 C 
ATOM      2  C1  UNL d   1       2.796  -3.072   3.465  0.00  0.00    -0.077 A 
ATOM      3  C2  UNL d   1       2.558  -3.637   2.206  0.00  0.00    -0.001 A 
ATOM      4  C3  UNL d   1       1.850  -2.926   1.236  0.00  0.00     0.003 A 
ATOM      5  C4  UNL d   1       1.376  -1.646   1.513  0.00  0.00    -0.005 A 
ATOM      6  C5  UNL d   1       1.611  -1.074   2.762  0.00  0.00     0.003 A 
ATOM      7  C6  UNL d   1       2.318  -1.783   3.734  0.00  0.00    -0.001 A 
ENDROOT
TORSDOF 0
ENDMDL
