MODEL 1
REMARK minimizedAffinity -2.6780746
REMARK minimizedRMSD -1
REMARK  0 active torsions:
REMARK  status: ('A' for Active; 'I' for Inactive)
ROOT
ATOM      1  C1  BNZ d   1      -5.526   4.331  -5.455  0.00  0.00     0.000 A 
ATOM      2  C2  BNZ d   1      -4.798   5.480  -5.614  0.00  0.00     0.000 A 
ATOM      3  C3  BNZ d   1      -4.062   5.992  -4.582  0.00  0.00     0.000 A 
ATOM      4  C4  BNZ d   1      -4.088   5.378  -3.382  0.00  0.00     0.000 A 
ATOM      5  C5  BNZ d   1      -4.824   4.224  -3.202  0.00  0.00     0.000 A 
ATOM      6  C6  BNZ d   1      -5.532   3.690  -4.254  0.00  0.00     0.000 A 
ENDROOT
TORSDOF 0
ENDMDL
