MODEL 1
REMARK minimizedAffinity -1.59265685
REMARK minimizedRMSD -1
REMARK  0 active torsions:
REMARK  status: ('A' for Active; 'I' for Inactive)
ROOT
ATOM      1  C1  BNZ d   1       4.947  -4.781  -1.477  0.00  0.00     0.000 A 
ATOM      2  C2  BNZ d   1       5.102  -3.753  -0.586  0.00  0.00     0.000 A 
ATOM      3  C3  BNZ d   1       4.610  -2.508  -0.861  0.00  0.00     0.000 A 
ATOM      4  C4  BNZ d   1       4.000  -2.282  -2.043  0.00  0.00     0.000 A 
ATOM      5  C5  BNZ d   1       3.845  -3.306  -2.956  0.00  0.00     0.000 A 
ATOM      6  C6  BNZ d   1       4.307  -4.568  -2.659  0.00  0.00     0.000 A 
ENDROOT
TORSDOF 0
ENDMDL
