MODEL 1
REMARK minimizedAffinity 1.6426239
REMARK minimizedRMSD -1
REMARK  0 active torsions:
REMARK  status: ('A' for Active; 'I' for Inactive)
ROOT
ATOM      1  C1  BNZ d   1       4.705  -5.053  -1.716  0.00  0.00     0.000 A 
ATOM      2  C2  BNZ d   1       4.975  -4.115  -0.756  0.00  0.00     0.000 A 
ATOM      3  C3  BNZ d   1       4.622  -2.807  -0.937  0.00  0.00     0.000 A 
ATOM      4  C4  BNZ d   1       4.037  -2.432  -2.092  0.00  0.00     0.000 A 
ATOM      5  C5  BNZ d   1       3.766  -3.364  -3.074  0.00  0.00     0.000 A 
ATOM      6  C6  BNZ d   1       4.087  -4.687  -2.872  0.00  0.00     0.000 A 
ENDROOT
TORSDOF 0
ENDMDL
