MODEL 1
REMARK minimizedAffinity -4.8033905
REMARK minimizedRMSD -1
REMARK  0 active torsions:
REMARK  status: ('A' for Active; 'I' for Inactive)
ROOT
ATOM      1  C1  BNZ d   1       3.802  -2.417  -2.384  0.00  0.00     0.000 A 
ATOM      2  C2  BNZ d   1       3.629  -3.559  -3.121  0.00  0.00     0.000 A 
ATOM      3  C3  BNZ d   1       4.425  -4.651  -2.916  0.00  0.00     0.000 A 
ATOM      4  C4  BNZ d   1       5.417  -4.587  -2.005  0.00  0.00     0.000 A 
ATOM      5  C5  BNZ d   1       5.610  -3.440  -1.261  0.00  0.00     0.000 A 
ATOM      6  C6  BNZ d   1       4.783  -2.356  -1.442  0.00  0.00     0.000 A 
ENDROOT
TORSDOF 0
ENDMDL
