MODEL 1
REMARK minimizedAffinity -0.1602166
REMARK minimizedRMSD -1
REMARK  0 active torsions:
REMARK  status: ('A' for Active; 'I' for Inactive)
ROOT
ATOM      1  C1  BNZ d   1      -6.000   2.249  -1.876  0.00  0.00     0.000 A 
ATOM      2  C2  BNZ d   1      -5.462   1.003  -1.696  0.00  0.00     0.000 A 
ATOM      3  C3  BNZ d   1      -4.126   0.783  -1.880  0.00  0.00     0.000 A 
ATOM      4  C4  BNZ d   1      -3.336   1.800  -2.282  0.00  0.00     0.000 A 
ATOM      5  C5  BNZ d   1      -3.865   3.061  -2.476  0.00  0.00     0.000 A 
ATOM      6  C6  BNZ d   1      -5.204   3.287  -2.253  0.00  0.00     0.000 A 
ENDROOT
TORSDOF 0
ENDMDL
