MODEL 1
REMARK minimizedAffinity 1.59244561
REMARK minimizedRMSD -1
REMARK  0 active torsions:
REMARK  status: ('A' for Active; 'I' for Inactive)
ROOT
ATOM      1  C1  BNZ d   1       5.604  -3.165  -2.427  0.00  0.00     0.000 A 
ATOM      2  C2  BNZ d   1       5.754  -3.268  -1.069  0.00  0.00     0.000 A 
ATOM      3  C3  BNZ d   1       4.734  -2.927  -0.225  0.00  0.00     0.000 A 
ATOM      4  C4  BNZ d   1       3.582  -2.447  -0.736  0.00  0.00     0.000 A 
ATOM      5  C5  BNZ d   1       3.420  -2.328  -2.102  0.00  0.00     0.000 A 
ATOM      6  C6  BNZ d   1       4.434  -2.709  -2.951  0.00  0.00     0.000 A 
ENDROOT
TORSDOF 0
ENDMDL
