MODEL 1
REMARK minimizedAffinity 4.81745768
REMARK minimizedRMSD -1
REMARK  0 active torsions:
REMARK  status: ('A' for Active; 'I' for Inactive)
ROOT
ATOM      1  C1  BNZ d   1      -0.253   2.339  -1.314  0.00  0.00     0.000 A 
ATOM      2  C2  BNZ d   1       0.002   3.630  -1.692  0.00  0.00     0.000 A 
ATOM      3  C3  BNZ d   1       0.272   4.592  -0.759  0.00  0.00     0.000 A 
ATOM      4  C4  BNZ d   1       0.248   4.271   0.551  0.00  0.00     0.000 A 
ATOM      5  C5  BNZ d   1      -0.016   2.975   0.948  0.00  0.00     0.000 A 
ATOM      6  C6  BNZ d   1      -0.249   2.001   0.005  0.00  0.00     0.000 A 
ENDROOT
TORSDOF 0
ENDMDL
