MODEL 1
REMARK minimizedAffinity 3.65240788
REMARK minimizedRMSD -1
REMARK  0 active torsions:
REMARK  status: ('A' for Active; 'I' for Inactive)
ROOT
ATOM      1  O1  BZF d   1      -3.593   1.492   1.396  0.00  0.00    -0.204 OA
ATOM      2  C2  BZF d   1      -4.192   2.734   1.306  0.00  0.00     0.174 A 
ATOM      3  C3  BZF d   1      -3.428   3.677   1.893  0.00  0.00    -0.012 A 
ATOM      4  C3A BZF d   1      -2.236   2.997   2.299  0.00  0.00    -0.107 A 
ATOM      5  C4  BZF d   1      -1.090   3.402   2.922  0.00  0.00     0.055 A 
ATOM      6  C5  BZF d   1      -0.149   2.475   3.241  0.00  0.00    -0.016 A 
ATOM      7  C6  BZF d   1      -0.322   1.137   2.956  0.00  0.00     0.022 A 
ATOM      8  C7  BZF d   1      -1.440   0.688   2.334  0.00  0.00     0.029 A 
ATOM      9  C7A BZF d   1      -2.378   1.627   1.981  0.00  0.00     0.058 A 
ENDROOT
TORSDOF 0
ENDMDL
