MODEL 1
REMARK minimizedAffinity 8.62615108
REMARK minimizedRMSD -1
REMARK  0 active torsions:
REMARK  status: ('A' for Active; 'I' for Inactive)
ROOT
ATOM      1  O1  BZF d   1       3.761  -0.083  -1.872  0.00  0.00    -0.204 OA
ATOM      2  C2  BZF d   1       3.965   0.727  -0.772  0.00  0.00     0.174 A 
ATOM      3  C3  BZF d   1       3.349   0.221   0.315  0.00  0.00    -0.012 A 
ATOM      4  C3A BZF d   1       2.797  -1.028  -0.112  0.00  0.00    -0.107 A 
ATOM      5  C4  BZF d   1       2.083  -2.004   0.522  0.00  0.00     0.055 A 
ATOM      6  C5  BZF d   1       1.632  -3.065  -0.198  0.00  0.00    -0.016 A 
ATOM      7  C6  BZF d   1       1.873  -3.179  -1.552  0.00  0.00     0.022 A 
ATOM      8  C7  BZF d   1       2.581  -2.238  -2.223  0.00  0.00     0.029 A 
ATOM      9  C7A BZF d   1       3.066  -1.182  -1.491  0.00  0.00     0.058 A 
ENDROOT
TORSDOF 0
ENDMDL
