MODEL 1
REMARK minimizedAffinity 12.2928123
REMARK minimizedRMSD -1
REMARK  0 active torsions:
REMARK  status: ('A' for Active; 'I' for Inactive)
ROOT
ATOM      1  O1  BZF d   1       4.657   2.513  -0.845  0.00  0.00    -0.204 OA
ATOM      2  C2  BZF d   1       5.940   2.200  -0.439  0.00  0.00     0.174 A 
ATOM      3  C3  BZF d   1       6.000   0.936   0.026  0.00  0.00    -0.012 A 
ATOM      4  C3A BZF d   1       4.692   0.395  -0.184  0.00  0.00    -0.107 A 
ATOM      5  C4  BZF d   1       4.130  -0.826   0.058  0.00  0.00     0.055 A 
ATOM      6  C5  BZF d   1       2.807  -1.007  -0.195  0.00  0.00    -0.016 A 
ATOM      7  C6  BZF d   1       2.016   0.012  -0.685  0.00  0.00     0.022 A 
ATOM      8  C7  BZF d   1       2.529   1.239  -0.946  0.00  0.00     0.029 A 
ATOM      9  C7A BZF d   1       3.873   1.415  -0.722  0.00  0.00     0.058 A 
ENDROOT
TORSDOF 0
ENDMDL
