MODEL 1
REMARK minimizedAffinity 6.37069225
REMARK minimizedRMSD -1
REMARK  0 active torsions:
REMARK  status: ('A' for Active; 'I' for Inactive)
ROOT
ATOM      1  O1  BZF d   1       2.217  -2.608   0.523  0.00  0.00    -0.204 OA
ATOM      2  C2  BZF d   1       2.864  -1.457   0.118  0.00  0.00     0.174 A 
ATOM      3  C3  BZF d   1       2.304  -0.963  -1.005  0.00  0.00    -0.012 A 
ATOM      4  C3A BZF d   1       1.183  -1.811  -1.271  0.00  0.00    -0.107 A 
ATOM      5  C4  BZF d   1       0.224  -1.823  -2.243  0.00  0.00     0.055 A 
ATOM      6  C5  BZF d   1      -0.688  -2.831  -2.260  0.00  0.00    -0.016 A 
ATOM      7  C6  BZF d   1      -0.667  -3.844  -1.324  0.00  0.00     0.022 A 
ATOM      8  C7  BZF d   1       0.262  -3.872  -0.337  0.00  0.00     0.029 A 
ATOM      9  C7A BZF d   1       1.165  -2.838  -0.298  0.00  0.00     0.058 A 
ENDROOT
TORSDOF 0
ENDMDL
