MODEL 1
REMARK minimizedAffinity 10.0398502
REMARK minimizedRMSD -1
REMARK  0 active torsions:
REMARK  status: ('A' for Active; 'I' for Inactive)
ROOT
ATOM      1  O1  BZF d   1       4.337   0.307  -1.921  0.00  0.00    -0.204 OA
ATOM      2  C2  BZF d   1       4.205   1.164  -0.846  0.00  0.00     0.174 A 
ATOM      3  C3  BZF d   1       3.362   0.651   0.074  0.00  0.00    -0.012 A 
ATOM      4  C3A BZF d   1       3.013  -0.646  -0.418  0.00  0.00    -0.107 A 
ATOM      5  C4  BZF d   1       2.219  -1.649   0.061  0.00  0.00     0.055 A 
ATOM      6  C5  BZF d   1       2.031  -2.761  -0.697  0.00  0.00    -0.016 A 
ATOM      7  C6  BZF d   1       2.616  -2.902  -1.938  0.00  0.00     0.022 A 
ATOM      8  C7  BZF d   1       3.416  -1.936  -2.453  0.00  0.00     0.029 A 
ATOM      9  C7A BZF d   1       3.635  -0.825  -1.675  0.00  0.00     0.058 A 
ENDROOT
TORSDOF 0
ENDMDL
