MODEL 1
REMARK minimizedAffinity 8.95576763
REMARK minimizedRMSD -1
REMARK  0 active torsions:
REMARK  status: ('A' for Active; 'I' for Inactive)
ROOT
ATOM      1  O1  BZF d   1       0.131  -0.103   3.011  0.00  0.00    -0.204 OA
ATOM      2  C2  BZF d   1       1.111   0.071   3.969  0.00  0.00     0.174 A 
ATOM      3  C3  BZF d   1       1.307   1.381   4.221  0.00  0.00    -0.012 A 
ATOM      4  C3A BZF d   1       0.328   2.066   3.434  0.00  0.00    -0.107 A 
ATOM      5  C4  BZF d   1       0.010   3.384   3.269  0.00  0.00     0.055 A 
ATOM      6  C5  BZF d   1      -0.951   3.725   2.370  0.00  0.00    -0.016 A 
ATOM      7  C6  BZF d   1      -1.610   2.775   1.617  0.00  0.00     0.022 A 
ATOM      8  C7  BZF d   1      -1.333   1.455   1.750  0.00  0.00     0.029 A 
ATOM      9  C7A BZF d   1      -0.385   1.105   2.680  0.00  0.00     0.058 A 
ENDROOT
TORSDOF 0
ENDMDL
