MODEL 1
REMARK minimizedAffinity 4.95313454
REMARK minimizedRMSD -1
REMARK  0 active torsions:
REMARK  status: ('A' for Active; 'I' for Inactive)
ROOT
ATOM      1  O1  BZF d   1       3.344  -1.906   0.475  0.00  0.00    -0.204 OA
ATOM      2  C2  BZF d   1       2.265  -1.839  -0.384  0.00  0.00     0.174 A 
ATOM      3  C3  BZF d   1       2.351  -0.751  -1.177  0.00  0.00    -0.012 A 
ATOM      4  C3A BZF d   1       3.607  -0.148  -0.853  0.00  0.00    -0.107 A 
ATOM      5  C4  BZF d   1       4.267   0.954  -1.317  0.00  0.00     0.055 A 
ATOM      6  C5  BZF d   1       5.444   1.311  -0.739  0.00  0.00    -0.016 A 
ATOM      7  C6  BZF d   1       5.986   0.593   0.307  0.00  0.00     0.022 A 
ATOM      8  C7  BZF d   1       5.371  -0.510   0.798  0.00  0.00     0.029 A 
ATOM      9  C7A BZF d   1       4.199  -0.893   0.194  0.00  0.00     0.058 A 
ENDROOT
TORSDOF 0
ENDMDL
