MODEL 1
REMARK minimizedAffinity 7.86452055
REMARK minimizedRMSD -1
REMARK  0 active torsions:
REMARK  status: ('A' for Active; 'I' for Inactive)
ROOT
ATOM      1  O1  BZF d   1       4.195  -1.901   0.756  0.00  0.00    -0.204 OA
ATOM      2  C2  BZF d   1       3.002  -2.235   0.145  0.00  0.00     0.174 A 
ATOM      3  C3  BZF d   1       2.652  -1.301  -0.763  0.00  0.00    -0.012 A 
ATOM      4  C3A BZF d   1       3.738  -0.369  -0.783  0.00  0.00    -0.107 A 
ATOM      5  C4  BZF d   1       3.985   0.770  -1.494  0.00  0.00     0.055 A 
ATOM      6  C5  BZF d   1       5.107   1.488  -1.223  0.00  0.00    -0.016 A 
ATOM      7  C6  BZF d   1       5.999   1.099  -0.245  0.00  0.00     0.022 A 
ATOM      8  C7  BZF d   1       5.799  -0.026   0.484  0.00  0.00     0.029 A 
ATOM      9  C7A BZF d   1       4.683  -0.771   0.189  0.00  0.00     0.058 A 
ENDROOT
TORSDOF 0
ENDMDL
