MODEL 1
REMARK minimizedAffinity 5.80698156
REMARK minimizedRMSD -1
REMARK  0 active torsions:
REMARK  status: ('A' for Active; 'I' for Inactive)
ROOT
ATOM      1  O1  BZF d   1       3.388   0.010  -2.098  0.00  0.00    -0.204 OA
ATOM      2  C2  BZF d   1       4.233   0.605  -1.181  0.00  0.00     0.174 A 
ATOM      3  C3  BZF d   1       4.039   0.092   0.051  0.00  0.00    -0.012 A 
ATOM      4  C3A BZF d   1       3.073  -0.949  -0.122  0.00  0.00    -0.107 A 
ATOM      5  C4  BZF d   1       2.485  -1.836   0.733  0.00  0.00     0.055 A 
ATOM      6  C5  BZF d   1       1.527  -2.675   0.259  0.00  0.00    -0.016 A 
ATOM      7  C6  BZF d   1       1.130  -2.651  -1.062  0.00  0.00     0.022 A 
ATOM      8  C7  BZF d   1       1.688  -1.793  -1.949  0.00  0.00     0.029 A 
ATOM      9  C7A BZF d   1       2.679  -0.966  -1.480  0.00  0.00     0.058 A 
ENDROOT
TORSDOF 0
ENDMDL
