MODEL 1
REMARK minimizedAffinity 5.43131447
REMARK minimizedRMSD -1
REMARK  0 active torsions:
REMARK  status: ('A' for Active; 'I' for Inactive)
ROOT
ATOM      1  O1  BZF d   1      -3.893   3.524  -3.705  0.00  0.00    -0.204 OA
ATOM      2  C2  BZF d   1      -5.123   4.149  -3.624  0.00  0.00     0.174 A 
ATOM      3  C3  BZF d   1      -5.997   3.395  -2.926  0.00  0.00    -0.012 A 
ATOM      4  C3A BZF d   1      -5.242   2.269  -2.469  0.00  0.00    -0.107 A 
ATOM      5  C4  BZF d   1      -5.551   1.176  -1.711  0.00  0.00     0.055 A 
ATOM      6  C5  BZF d   1      -4.604   0.224  -1.508  0.00  0.00    -0.016 A 
ATOM      7  C6  BZF d   1      -3.340   0.329  -2.050  0.00  0.00     0.022 A 
ATOM      8  C7  BZF d   1      -2.984   1.397  -2.805  0.00  0.00     0.029 A 
ATOM      9  C7A BZF d   1      -3.929   2.378  -2.985  0.00  0.00     0.058 A 
ENDROOT
TORSDOF 0
ENDMDL
