MODEL 1
REMARK minimizedAffinity 8.05124187
REMARK minimizedRMSD -1
REMARK  0 active torsions:
REMARK  status: ('A' for Active; 'I' for Inactive)
ROOT
ATOM      1  O1  BZF d   1       3.585   1.486  -1.171  0.00  0.00    -0.204 OA
ATOM      2  C2  BZF d   1       4.949   1.301  -1.061  0.00  0.00     0.174 A 
ATOM      3  C3  BZF d   1       5.239   0.007  -0.816  0.00  0.00    -0.012 A 
ATOM      4  C3A BZF d   1       3.982  -0.675  -0.861  0.00  0.00    -0.107 A 
ATOM      5  C4  BZF d   1       3.617  -1.982  -0.710  0.00  0.00     0.055 A 
ATOM      6  C5  BZF d   1       2.298  -2.307  -0.740  0.00  0.00    -0.016 A 
ATOM      7  C6  BZF d   1       1.318  -1.352  -0.914  0.00  0.00     0.022 A 
ATOM      8  C7  BZF d   1       1.632  -0.043  -1.073  0.00  0.00     0.029 A 
ATOM      9  C7A BZF d   1       2.966   0.285  -1.076  0.00  0.00     0.058 A 
ENDROOT
TORSDOF 0
ENDMDL
