MODEL 1
REMARK minimizedAffinity 7.94843102
REMARK minimizedRMSD -1
REMARK  0 active torsions:
REMARK  status: ('A' for Active; 'I' for Inactive)
ROOT
ATOM      1  O1  BZF d   1       2.170  -2.863  -1.449  0.00  0.00    -0.204 OA
ATOM      2  C2  BZF d   1       1.501  -2.745  -0.246  0.00  0.00     0.174 A 
ATOM      3  C3  BZF d   1       1.797  -1.573   0.353  0.00  0.00    -0.012 A 
ATOM      4  C3A BZF d   1       2.636  -0.878  -0.575  0.00  0.00    -0.107 A 
ATOM      5  C4  BZF d   1       3.241   0.346  -0.559  0.00  0.00     0.055 A 
ATOM      6  C5  BZF d   1       4.053   0.695  -1.591  0.00  0.00    -0.016 A 
ATOM      7  C6  BZF d   1       4.286  -0.156  -2.651  0.00  0.00     0.022 A 
ATOM      8  C7  BZF d   1       3.704  -1.378  -2.714  0.00  0.00     0.029 A 
ATOM      9  C7A BZF d   1       2.857  -1.721  -1.689  0.00  0.00     0.058 A 
ENDROOT
TORSDOF 0
ENDMDL
