MODEL 1
REMARK minimizedAffinity 8.54666138
REMARK minimizedRMSD -1
REMARK  0 active torsions:
REMARK  status: ('A' for Active; 'I' for Inactive)
ROOT
ATOM      1  C1  BNZ d   1       0.149  -2.178   2.120  0.00  0.00     0.000 A 
ATOM      2  C2  BNZ d   1       0.593  -0.916   2.414  0.00  0.00     0.000 A 
ATOM      3  C3  BNZ d   1       0.101  -0.234   3.492  0.00  0.00     0.000 A 
ATOM      4  C4  BNZ d   1      -0.862  -0.797   4.249  0.00  0.00     0.000 A 
ATOM      5  C5  BNZ d   1      -1.327  -2.065   3.960  0.00  0.00     0.000 A 
ATOM      6  C6  BNZ d   1      -0.801  -2.764   2.898  0.00  0.00     0.000 A 
ENDROOT
TORSDOF 0
ENDMDL
