MODEL 1
REMARK minimizedAffinity 7.17977285
REMARK minimizedRMSD -1
REMARK  0 active torsions:
REMARK  status: ('A' for Active; 'I' for Inactive)
ROOT
ATOM      1  C1  BNZ d   1      -2.575   2.706  -2.887  0.00  0.00     0.000 A 
ATOM      2  C2  BNZ d   1      -1.213   2.576  -2.831  0.00  0.00     0.000 A 
ATOM      3  C3  BNZ d   1      -0.566   2.491  -1.630  0.00  0.00     0.000 A 
ATOM      4  C4  BNZ d   1      -1.278   2.576  -0.487  0.00  0.00     0.000 A 
ATOM      5  C5  BNZ d   1      -2.650   2.716  -0.527  0.00  0.00     0.000 A 
ATOM      6  C6  BNZ d   1      -3.302   2.762  -1.738  0.00  0.00     0.000 A 
ENDROOT
TORSDOF 0
ENDMDL
