MODEL 1
REMARK minimizedAffinity 0.777618051
REMARK minimizedRMSD -1
REMARK  0 active torsions:
REMARK  status: ('A' for Active; 'I' for Inactive)
ROOT
ATOM      1  C1  BNZ d   1      -0.671  -1.270   5.510  0.00  0.00     0.000 A 
ATOM      2  C2  BNZ d   1       0.344  -0.655   4.827  0.00  0.00     0.000 A 
ATOM      3  C3  BNZ d   1       0.713  -1.086   3.584  0.00  0.00     0.000 A 
ATOM      4  C4  BNZ d   1       0.095  -2.156   3.042  0.00  0.00     0.000 A 
ATOM      5  C5  BNZ d   1      -0.923  -2.793   3.722  0.00  0.00     0.000 A 
ATOM      6  C6  BNZ d   1      -1.319  -2.332   4.957  0.00  0.00     0.000 A 
ENDROOT
TORSDOF 0
ENDMDL
