MODEL 1
REMARK minimizedAffinity -0.818381488
REMARK minimizedRMSD -1
REMARK  0 active torsions:
REMARK  status: ('A' for Active; 'I' for Inactive)
ROOT
ATOM      1  C1  BNZ d   1       0.553  -5.066  -3.241  0.00  0.00     0.000 A 
ATOM      2  C2  BNZ d   1       0.369  -6.000  -4.225  0.00  0.00     0.000 A 
ATOM      3  C3  BNZ d   1       1.152  -6.000  -5.346  0.00  0.00     0.000 A 
ATOM      4  C4  BNZ d   1       2.090  -5.043  -5.499  0.00  0.00     0.000 A 
ATOM      5  C5  BNZ d   1       2.282  -4.089  -4.519  0.00  0.00     0.000 A 
ATOM      6  C6  BNZ d   1       1.518  -4.116  -3.375  0.00  0.00     0.000 A 
ENDROOT
TORSDOF 0
ENDMDL
