MODEL 1
REMARK minimizedAffinity 8.47879314
REMARK minimizedRMSD -1
REMARK  0 active torsions:
REMARK  status: ('A' for Active; 'I' for Inactive)
ROOT
ATOM      1  C1  BNZ d   1      -0.076  -2.232   2.368  0.00  0.00     0.000 A 
ATOM      2  C2  BNZ d   1       0.506  -1.039   2.705  0.00  0.00     0.000 A 
ATOM      3  C3  BNZ d   1       0.059  -0.322   3.780  0.00  0.00     0.000 A 
ATOM      4  C4  BNZ d   1      -0.994  -0.778   4.490  0.00  0.00     0.000 A 
ATOM      5  C5  BNZ d   1      -1.597  -1.974   4.156  0.00  0.00     0.000 A 
ATOM      6  C6  BNZ d   1      -1.119  -2.713   3.098  0.00  0.00     0.000 A 
ENDROOT
TORSDOF 0
ENDMDL
