MODEL 1
REMARK minimizedAffinity 7.5065484
REMARK minimizedRMSD -1
REMARK  0 active torsions:
REMARK  status: ('A' for Active; 'I' for Inactive)
ROOT
ATOM      1  C1  BNZ d   1       1.315   4.050  -1.244  0.00  0.00     0.000 A 
ATOM      2  C2  BNZ d   1       1.501   5.377  -0.961  0.00  0.00     0.000 A 
ATOM      3  C3  BNZ d   1       0.758   5.998   0.004  0.00  0.00     0.000 A 
ATOM      4  C4  BNZ d   1      -0.197   5.302   0.656  0.00  0.00     0.000 A 
ATOM      5  C5  BNZ d   1      -0.402   3.966   0.375  0.00  0.00     0.000 A 
ATOM      6  C6  BNZ d   1       0.374   3.335  -0.569  0.00  0.00     0.000 A 
ENDROOT
TORSDOF 0
ENDMDL
