MODEL 1
REMARK minimizedAffinity 9.47071266
REMARK minimizedRMSD -1
REMARK  0 active torsions:
REMARK  status: ('A' for Active; 'I' for Inactive)
ROOT
ATOM      1  C1  BNZ d   1      -2.373  -3.702   3.129  0.00  0.00     0.000 A 
ATOM      2  C2  BNZ d   1      -3.222  -2.723   3.574  0.00  0.00     0.000 A 
ATOM      3  C3  BNZ d   1      -4.349  -2.403   2.871  0.00  0.00     0.000 A 
ATOM      4  C4  BNZ d   1      -4.606  -3.032   1.705  0.00  0.00     0.000 A 
ATOM      5  C5  BNZ d   1      -3.755  -4.014   1.239  0.00  0.00     0.000 A 
ATOM      6  C6  BNZ d   1      -2.641  -4.361   1.969  0.00  0.00     0.000 A 
ENDROOT
TORSDOF 0
ENDMDL
