MODEL 1
REMARK minimizedAffinity -0.593498707
REMARK minimizedRMSD -1
REMARK  0 active torsions:
REMARK  status: ('A' for Active; 'I' for Inactive)
ROOT
ATOM      1  C1  BNZ d   1       1.354  -5.246  -3.033  0.00  0.00     0.000 A 
ATOM      2  C2  BNZ d   1       2.246  -6.000  -3.748  0.00  0.00     0.000 A 
ATOM      3  C3  BNZ d   1       2.228  -5.999  -5.114  0.00  0.00     0.000 A 
ATOM      4  C4  BNZ d   1       1.292  -5.276  -5.764  0.00  0.00     0.000 A 
ATOM      5  C5  BNZ d   1       0.379  -4.518  -5.058  0.00  0.00     0.000 A 
ATOM      6  C6  BNZ d   1       0.426  -4.492  -3.683  0.00  0.00     0.000 A 
ENDROOT
TORSDOF 0
ENDMDL
