MODEL 1
REMARK minimizedAffinity 3.34019947
REMARK minimizedRMSD -1
REMARK  0 active torsions:
REMARK  status: ('A' for Active; 'I' for Inactive)
ROOT
ATOM      1  C1  BNZ d   1       3.671  -0.447   0.618  0.00  0.00     0.000 A 
ATOM      2  C2  BNZ d   1       2.632   0.279   1.137  0.00  0.00     0.000 A 
ATOM      3  C3  BNZ d   1       1.458  -0.328   1.484  0.00  0.00     0.000 A 
ATOM      4  C4  BNZ d   1       1.309  -1.652   1.276  0.00  0.00     0.000 A 
ATOM      5  C5  BNZ d   1       2.344  -2.397   0.746  0.00  0.00     0.000 A 
ATOM      6  C6  BNZ d   1       3.538  -1.789   0.433  0.00  0.00     0.000 A 
ENDROOT
TORSDOF 0
ENDMDL
