MODEL 1
REMARK minimizedAffinity 6.12353468
REMARK minimizedRMSD -1
REMARK  0 active torsions:
REMARK  status: ('A' for Active; 'I' for Inactive)
ROOT
ATOM      1  C1  BNZ d   1      -1.215  -1.011   4.812  0.00  0.00     0.000 A 
ATOM      2  C2  BNZ d   1      -0.546  -0.812   3.634  0.00  0.00     0.000 A 
ATOM      3  C3  BNZ d   1       0.744  -0.360   3.630  0.00  0.00     0.000 A 
ATOM      4  C4  BNZ d   1       1.348  -0.069   4.800  0.00  0.00     0.000 A 
ATOM      5  C5  BNZ d   1       0.683  -0.255   5.996  0.00  0.00     0.000 A 
ATOM      6  C6  BNZ d   1      -0.602  -0.748   5.997  0.00  0.00     0.000 A 
ENDROOT
TORSDOF 0
ENDMDL
