MODEL 1
REMARK minimizedAffinity 0.945971012
REMARK minimizedRMSD -1
REMARK  0 active torsions:
REMARK  status: ('A' for Active; 'I' for Inactive)
ROOT
ATOM      1  C1  BNZ d   1      -6.000  -4.989   5.254  0.00  0.00     0.000 A 
ATOM      2  C2  BNZ d   1      -5.998  -6.000   4.330  0.00  0.00     0.000 A 
ATOM      3  C3  BNZ d   1      -5.144  -5.971   3.263  0.00  0.00     0.000 A 
ATOM      4  C4  BNZ d   1      -4.323  -4.914   3.100  0.00  0.00     0.000 A 
ATOM      5  C5  BNZ d   1      -4.319  -3.883   4.018  0.00  0.00     0.000 A 
ATOM      6  C6  BNZ d   1      -5.152  -3.934   5.112  0.00  0.00     0.000 A 
ENDROOT
TORSDOF 0
ENDMDL
