MODEL 1
REMARK minimizedAffinity 6.71654367
REMARK minimizedRMSD -1
REMARK  0 active torsions:
REMARK  status: ('A' for Active; 'I' for Inactive)
ROOT
ATOM      1  C1  BNZ d   1       5.046  -2.203  -3.417  0.00  0.00     0.000 A 
ATOM      2  C2  BNZ d   1       5.999  -3.066  -3.889  0.00  0.00     0.000 A 
ATOM      3  C3  BNZ d   1       5.974  -3.496  -5.187  0.00  0.00     0.000 A 
ATOM      4  C4  BNZ d   1       4.974  -3.095  -5.998  0.00  0.00     0.000 A 
ATOM      5  C5  BNZ d   1       4.000  -2.233  -5.534  0.00  0.00     0.000 A 
ATOM      6  C6  BNZ d   1       4.051  -1.772  -4.239  0.00  0.00     0.000 A 
ENDROOT
TORSDOF 0
ENDMDL
