MODEL 1
REMARK minimizedAffinity -5.06593227
REMARK minimizedRMSD -1
REMARK  0 active torsions:
REMARK  status: ('A' for Active; 'I' for Inactive)
ROOT
ATOM      1  C1  BNZ d   1       0.061  -2.125   2.118  0.00  0.00     0.000 A 
ATOM      2  C2  BNZ d   1       0.640  -3.320   1.783  0.00  0.00     0.000 A 
ATOM      3  C3  BNZ d   1       1.915  -3.368   1.295  0.00  0.00     0.000 A 
ATOM      4  C4  BNZ d   1       2.595  -2.219   1.104  0.00  0.00     0.000 A 
ATOM      5  C5  BNZ d   1       2.022  -1.005   1.428  0.00  0.00     0.000 A 
ATOM      6  C6  BNZ d   1       0.752  -0.964   1.956  0.00  0.00     0.000 A 
ENDROOT
TORSDOF 0
ENDMDL
