MODEL 1
REMARK minimizedAffinity 9.76982689
REMARK minimizedRMSD -1
REMARK  0 active torsions:
REMARK  status: ('A' for Active; 'I' for Inactive)
ROOT
ATOM      1  C1  BNZ d   1       4.849  -1.067  -2.492  0.00  0.00     0.000 A 
ATOM      2  C2  BNZ d   1       5.983  -1.573  -3.071  0.00  0.00     0.000 A 
ATOM      3  C3  BNZ d   1       5.992  -1.940  -4.388  0.00  0.00     0.000 A 
ATOM      4  C4  BNZ d   1       4.859  -1.839  -5.112  0.00  0.00     0.000 A 
ATOM      5  C5  BNZ d   1       3.706  -1.340  -4.540  0.00  0.00     0.000 A 
ATOM      6  C6  BNZ d   1       3.711  -0.935  -3.225  0.00  0.00     0.000 A 
ENDROOT
TORSDOF 0
ENDMDL
