MODEL 1
REMARK minimizedAffinity 10.3994684
REMARK minimizedRMSD -1
REMARK  0 active torsions:
REMARK  status: ('A' for Active; 'I' for Inactive)
ROOT
ATOM      1  C1  BNZ d   1      -0.053   2.521  -2.095  0.00  0.00     0.000 A 
ATOM      2  C2  BNZ d   1      -1.084   2.127  -2.905  0.00  0.00     0.000 A 
ATOM      3  C3  BNZ d   1      -1.847   3.048  -3.567  0.00  0.00     0.000 A 
ATOM      4  C4  BNZ d   1      -1.603   4.362  -3.387  0.00  0.00     0.000 A 
ATOM      5  C5  BNZ d   1      -0.573   4.776  -2.566  0.00  0.00     0.000 A 
ATOM      6  C6  BNZ d   1       0.217   3.845  -1.933  0.00  0.00     0.000 A 
ENDROOT
TORSDOF 0
ENDMDL
