MODEL 1
REMARK minimizedAffinity 5.6330843
REMARK minimizedRMSD -1
REMARK  0 active torsions:
REMARK  status: ('A' for Active; 'I' for Inactive)
ROOT
ATOM      1  C1  BNZ d   1       1.406   3.695   0.806  0.00  0.00     0.000 A 
ATOM      2  C2  BNZ d   1       1.512   5.054   0.934  0.00  0.00     0.000 A 
ATOM      3  C3  BNZ d   1       0.939   5.890   0.018  0.00  0.00     0.000 A 
ATOM      4  C4  BNZ d   1       0.295   5.367  -1.046  0.00  0.00     0.000 A 
ATOM      5  C5  BNZ d   1       0.187   3.999  -1.194  0.00  0.00     0.000 A 
ATOM      6  C6  BNZ d   1       0.732   3.160  -0.249  0.00  0.00     0.000 A 
ENDROOT
TORSDOF 0
ENDMDL
