MODEL 1
REMARK minimizedAffinity -2.14631891
REMARK minimizedRMSD -1
REMARK  0 active torsions:
REMARK  status: ('A' for Active; 'I' for Inactive)
ROOT
ATOM      1  C1  BNZ d   1       1.554  -2.944   1.452  0.00  0.00     0.000 A 
ATOM      2  C2  BNZ d   1       0.504  -2.068   1.526  0.00  0.00     0.000 A 
ATOM      3  C3  BNZ d   1      -0.612  -2.373   2.254  0.00  0.00     0.000 A 
ATOM      4  C4  BNZ d   1      -0.693  -3.568   2.873  0.00  0.00     0.000 A 
ATOM      5  C5  BNZ d   1       0.353  -4.466   2.800  0.00  0.00     0.000 A 
ATOM      6  C6  BNZ d   1       1.491  -4.140   2.099  0.00  0.00     0.000 A 
ENDROOT
TORSDOF 0
ENDMDL
