MODEL 1
REMARK minimizedAffinity -0.0736176893
REMARK minimizedRMSD -1
REMARK  0 active torsions:
REMARK  status: ('A' for Active; 'I' for Inactive)
ROOT
ATOM      1  C1  BNZ d   1       0.696   0.325   1.804  0.00  0.00     0.000 A 
ATOM      2  C2  BNZ d   1       1.877   0.245   1.115  0.00  0.00     0.000 A 
ATOM      3  C3  BNZ d   1       2.102  -0.770   0.228  0.00  0.00     0.000 A 
ATOM      4  C4  BNZ d   1       1.165  -1.725   0.061  0.00  0.00     0.000 A 
ATOM      5  C5  BNZ d   1      -0.027  -1.664   0.755  0.00  0.00     0.000 A 
ATOM      6  C6  BNZ d   1      -0.267  -0.619   1.618  0.00  0.00     0.000 A 
ENDROOT
TORSDOF 0
ENDMDL
