MODEL 1
REMARK minimizedAffinity -3.60773349
REMARK minimizedRMSD -1
REMARK  0 active torsions:
REMARK  status: ('A' for Active; 'I' for Inactive)
ROOT
ATOM      1  C1  BNZ d   1       0.635  -1.761   1.408  0.00  0.00     0.000 A 
ATOM      2  C2  BNZ d   1       1.164  -3.006   1.624  0.00  0.00     0.000 A 
ATOM      3  C3  BNZ d   1       2.111  -3.519   0.782  0.00  0.00     0.000 A 
ATOM      4  C4  BNZ d   1       2.498  -2.805  -0.295  0.00  0.00     0.000 A 
ATOM      5  C5  BNZ d   1       1.967  -1.553  -0.531  0.00  0.00     0.000 A 
ATOM      6  C6  BNZ d   1       1.043  -1.023   0.340  0.00  0.00     0.000 A 
ENDROOT
TORSDOF 0
ENDMDL
