MODEL 1
REMARK minimizedAffinity -1.61271334
REMARK minimizedRMSD -1
REMARK  0 active torsions:
REMARK  status: ('A' for Active; 'I' for Inactive)
ROOT
ATOM      1  C1  BNZ d   1      -5.980   2.274   5.229  0.00  0.00     0.000 A 
ATOM      2  C2  BNZ d   1      -5.771   3.391   5.994  0.00  0.00     0.000 A 
ATOM      3  C3  BNZ d   1      -4.557   4.018   5.999  0.00  0.00     0.000 A 
ATOM      4  C4  BNZ d   1      -3.543   3.506   5.273  0.00  0.00     0.000 A 
ATOM      5  C5  BNZ d   1      -3.735   2.376   4.504  0.00  0.00     0.000 A 
ATOM      6  C6  BNZ d   1      -4.969   1.769   4.470  0.00  0.00     0.000 A 
ENDROOT
TORSDOF 0
ENDMDL
