MODEL 1
REMARK minimizedAffinity 2.6166513
REMARK minimizedRMSD -1
REMARK  0 active torsions:
REMARK  status: ('A' for Active; 'I' for Inactive)
ROOT
ATOM      1  C1  BNZ d   1       2.035  -3.800   1.111  0.00  0.00     0.000 A 
ATOM      2  C2  BNZ d   1       1.308  -3.343   2.178  0.00  0.00     0.000 A 
ATOM      3  C3  BNZ d   1       0.661  -2.140   2.121  0.00  0.00     0.000 A 
ATOM      4  C4  BNZ d   1       0.775  -1.378   1.014  0.00  0.00     0.000 A 
ATOM      5  C5  BNZ d   1       1.512  -1.820  -0.067  0.00  0.00     0.000 A 
ATOM      6  C6  BNZ d   1       2.130  -3.049  -0.021  0.00  0.00     0.000 A 
ENDROOT
TORSDOF 0
ENDMDL
