MODEL 1
REMARK minimizedAffinity -0.459629625
REMARK minimizedRMSD -1
REMARK  0 active torsions:
REMARK  status: ('A' for Active; 'I' for Inactive)
ROOT
ATOM      1  C1  BNZ d   1       0.035   4.031  -5.996  0.00  0.00     0.000 A 
ATOM      2  C2  BNZ d   1      -1.046   3.283  -5.611  0.00  0.00     0.000 A 
ATOM      3  C3  BNZ d   1      -2.216   3.884  -5.238  0.00  0.00     0.000 A 
ATOM      4  C4  BNZ d   1      -2.291   5.231  -5.212  0.00  0.00     0.000 A 
ATOM      5  C5  BNZ d   1      -1.206   5.998  -5.588  0.00  0.00     0.000 A 
ATOM      6  C6  BNZ d   1      -0.043   5.390  -6.000  0.00  0.00     0.000 A 
ENDROOT
TORSDOF 0
ENDMDL
