MODEL 1
REMARK minimizedAffinity -0.412065357
REMARK minimizedRMSD -1
REMARK  0 active torsions:
REMARK  status: ('A' for Active; 'I' for Inactive)
ROOT
ATOM      1  C1  BNZ d   1       2.676  -3.051  -0.475  0.00  0.00     0.000 A 
ATOM      2  C2  BNZ d   1       1.839  -2.063  -0.029  0.00  0.00     0.000 A 
ATOM      3  C3  BNZ d   1       1.168  -2.197   1.155  0.00  0.00     0.000 A 
ATOM      4  C4  BNZ d   1       1.305  -3.332   1.870  0.00  0.00     0.000 A 
ATOM      5  C5  BNZ d   1       2.138  -4.340   1.429  0.00  0.00     0.000 A 
ATOM      6  C6  BNZ d   1       2.841  -4.187   0.256  0.00  0.00     0.000 A 
ENDROOT
TORSDOF 0
ENDMDL
