MODEL 1
REMARK minimizedAffinity -3.14224911
REMARK minimizedRMSD -1
REMARK  0 active torsions:
REMARK  status: ('A' for Active; 'I' for Inactive)
ROOT
ATOM      1  C1  BNZ d   1       0.044  -1.707   2.061  0.00  0.00     0.000 A 
ATOM      2  C2  BNZ d   1       0.661  -2.880   2.403  0.00  0.00     0.000 A 
ATOM      3  C3  BNZ d   1       1.539  -3.484   1.546  0.00  0.00     0.000 A 
ATOM      4  C4  BNZ d   1       1.766  -2.937   0.335  0.00  0.00     0.000 A 
ATOM      5  C5  BNZ d   1       1.144  -1.759  -0.028  0.00  0.00     0.000 A 
ATOM      6  C6  BNZ d   1       0.291  -1.133   0.852  0.00  0.00     0.000 A 
ENDROOT
TORSDOF 0
ENDMDL
