MODEL 1
REMARK minimizedAffinity 10.9981403
REMARK minimizedRMSD -1
REMARK  0 active torsions:
REMARK  status: ('A' for Active; 'I' for Inactive)
ROOT
ATOM      1  C   UNL d   1       5.053   2.277   1.603  0.00  0.00     0.124 A 
ATOM      2  C1  UNL d   1       5.051   0.913   1.858  0.00  0.00     0.062 A 
ATOM      3  C2  UNL d   1       4.068   0.098   1.304  0.00  0.00     0.162 A 
ATOM      4  C3  UNL d   1       3.079   0.646   0.487  0.00  0.00    -0.034 A 
ATOM      5  C4  UNL d   1       3.087   2.019   0.236  0.00  0.00     0.162 A 
ATOM      6  C5  UNL d   1       4.071   2.829   0.793  0.00  0.00     0.062 A 
ATOM      7  F   UNL d   1       4.071   4.147   0.546  0.00  0.00    -0.097 F 
ATOM      8  F1  UNL d   1       2.150   2.579  -0.545  0.00  0.00    -0.096 F 
ATOM      9  I   UNL d   1       1.607  -0.568  -0.345  0.00  0.00    -0.060 I 
ATOM     10  F2  UNL d   1       4.091  -1.217   1.567  0.00  0.00    -0.096 F 
ATOM     11  F3  UNL d   1       5.998   0.377   2.642  0.00  0.00    -0.097 F 
ATOM     12  F4  UNL d   1       6.000   3.059   2.139  0.00  0.00    -0.092 F 
ENDROOT
TORSDOF 0
ENDMDL
