MODEL 1
REMARK minimizedAffinity 6.23854017
REMARK minimizedRMSD -1
REMARK  0 active torsions:
REMARK  status: ('A' for Active; 'I' for Inactive)
ROOT
ATOM      1  C   UNL d   1       2.522   4.509  -5.729  0.00  0.00     0.124 A 
ATOM      2  C1  UNL d   1       2.027   3.212  -5.728  0.00  0.00     0.062 A 
ATOM      3  C2  UNL d   1       2.870   2.141  -5.448  0.00  0.00     0.162 A 
ATOM      4  C3  UNL d   1       4.218   2.361  -5.165  0.00  0.00    -0.034 A 
ATOM      5  C4  UNL d   1       4.709   3.668  -5.169  0.00  0.00     0.162 A 
ATOM      6  C5  UNL d   1       3.862   4.735  -5.450  0.00  0.00     0.062 A 
ATOM      7  F   UNL d   1       4.343   5.987  -5.450  0.00  0.00    -0.097 F 
ATOM      8  F1  UNL d   1       6.000   3.916  -4.901  0.00  0.00    -0.096 F 
ATOM      9  I   UNL d   1       5.482   0.762  -4.746  0.00  0.00    -0.060 I 
ATOM     10  F2  UNL d   1       2.364   0.898  -5.454  0.00  0.00    -0.096 F 
ATOM     11  F3  UNL d   1       0.732   2.990  -5.999  0.00  0.00    -0.097 F 
ATOM     12  F4  UNL d   1       1.709   5.538  -6.000  0.00  0.00    -0.092 F 
ENDROOT
TORSDOF 0
ENDMDL
