MODEL 1
REMARK minimizedAffinity 9.31437778
REMARK minimizedRMSD -1
REMARK  0 active torsions:
REMARK  status: ('A' for Active; 'I' for Inactive)
ROOT
ATOM      1  C   UNL d   1       4.695   2.496  -5.848  0.00  0.00     0.124 A 
ATOM      2  C1  UNL d   1       4.788   3.880  -5.899  0.00  0.00     0.062 A 
ATOM      3  C2  UNL d   1       3.635   4.660  -5.897  0.00  0.00     0.162 A 
ATOM      4  C3  UNL d   1       2.378   4.058  -5.844  0.00  0.00    -0.034 A 
ATOM      5  C4  UNL d   1       2.292   2.665  -5.794  0.00  0.00     0.162 A 
ATOM      6  C5  UNL d   1       3.448   1.890  -5.796  0.00  0.00     0.062 A 
ATOM      7  F   UNL d   1       3.356   0.553  -5.747  0.00  0.00    -0.097 F 
ATOM      8  F1  UNL d   1       1.100   2.053  -5.742  0.00  0.00    -0.096 F 
ATOM      9  I   UNL d   1       0.652   5.220  -5.842  0.00  0.00    -0.060 I 
ATOM     10  F2  UNL d   1       3.755   5.995  -5.947  0.00  0.00    -0.096 F 
ATOM     11  F3  UNL d   1       5.992   4.468  -5.950  0.00  0.00    -0.097 F 
ATOM     12  F4  UNL d   1       5.806   1.749  -5.850  0.00  0.00    -0.092 F 
ENDROOT
TORSDOF 0
ENDMDL
