MODEL 1
REMARK minimizedAffinity 4.55300331
REMARK minimizedRMSD -1
REMARK  0 active torsions:
REMARK  status: ('A' for Active; 'I' for Inactive)
ROOT
ATOM      1  C   UNL d   1       4.783   2.564  -5.358  0.00  0.00     0.124 A 
ATOM      2  C1  UNL d   1       4.824   3.945  -5.489  0.00  0.00     0.062 A 
ATOM      3  C2  UNL d   1       3.648   4.665  -5.673  0.00  0.00     0.162 A 
ATOM      4  C3  UNL d   1       2.419   4.006  -5.725  0.00  0.00    -0.034 A 
ATOM      5  C4  UNL d   1       2.387   2.617  -5.593  0.00  0.00     0.162 A 
ATOM      6  C5  UNL d   1       3.565   1.901  -5.410  0.00  0.00     0.062 A 
ATOM      7  F   UNL d   1       3.524   0.567  -5.283  0.00  0.00    -0.097 F 
ATOM      8  F1  UNL d   1       1.223   1.951  -5.639  0.00  0.00    -0.096 F 
ATOM      9  I   UNL d   1       0.658   5.080  -6.000  0.00  0.00    -0.060 I 
ATOM     10  F2  UNL d   1       3.717   5.999  -5.796  0.00  0.00    -0.096 F 
ATOM     11  F3  UNL d   1       6.000   4.587  -5.440  0.00  0.00    -0.097 F 
ATOM     12  F4  UNL d   1       5.917   1.873  -5.182  0.00  0.00    -0.092 F 
ENDROOT
TORSDOF 0
ENDMDL
