MODEL 1
REMARK minimizedAffinity 5.70518684
REMARK minimizedRMSD -1
REMARK  0 active torsions:
REMARK  status: ('A' for Active; 'I' for Inactive)
ROOT
ATOM      1  C   UNL d   1       4.574   2.446  -5.761  0.00  0.00     0.124 A 
ATOM      2  C1  UNL d   1       4.759   3.818  -5.850  0.00  0.00     0.062 A 
ATOM      3  C2  UNL d   1       3.660   4.670  -5.913  0.00  0.00     0.162 A 
ATOM      4  C3  UNL d   1       2.366   4.152  -5.887  0.00  0.00    -0.034 A 
ATOM      5  C4  UNL d   1       2.187   2.771  -5.798  0.00  0.00     0.162 A 
ATOM      6  C5  UNL d   1       3.288   1.923  -5.735  0.00  0.00     0.062 A 
ATOM      7  F   UNL d   1       3.107   0.597  -5.649  0.00  0.00    -0.097 F 
ATOM      8  F1  UNL d   1       0.956   2.239  -5.770  0.00  0.00    -0.096 F 
ATOM      9  I   UNL d   1       0.720   5.423  -5.981  0.00  0.00    -0.060 I 
ATOM     10  F2  UNL d   1       3.869   5.992  -5.999  0.00  0.00    -0.096 F 
ATOM     11  F3  UNL d   1       6.000   4.325  -5.877  0.00  0.00    -0.097 F 
ATOM     12  F4  UNL d   1       5.633   1.628  -5.701  0.00  0.00    -0.092 F 
ENDROOT
TORSDOF 0
ENDMDL
