MODEL 1
REMARK minimizedAffinity 5.04103279
REMARK minimizedRMSD -1
REMARK  0 active torsions:
REMARK  status: ('A' for Active; 'I' for Inactive)
ROOT
ATOM      1  C   UNL d   1       4.432   2.405  -5.655  0.00  0.00     0.124 A 
ATOM      2  C1  UNL d   1       3.111   1.981  -5.687  0.00  0.00     0.062 A 
ATOM      3  C2  UNL d   1       2.080   2.911  -5.785  0.00  0.00     0.162 A 
ATOM      4  C3  UNL d   1       2.365   4.275  -5.852  0.00  0.00    -0.034 A 
ATOM      5  C4  UNL d   1       3.697   4.693  -5.818  0.00  0.00     0.162 A 
ATOM      6  C5  UNL d   1       4.724   3.760  -5.721  0.00  0.00     0.062 A 
ATOM      7  F   UNL d   1       6.000   4.172  -5.690  0.00  0.00    -0.097 F 
ATOM      8  F1  UNL d   1       4.007   5.997  -5.881  0.00  0.00    -0.096 F 
ATOM      9  I   UNL d   1       0.826   5.668  -5.998  0.00  0.00    -0.060 I 
ATOM     10  F2  UNL d   1       0.812   2.473  -5.814  0.00  0.00    -0.096 F 
ATOM     11  F3  UNL d   1       2.827   0.673  -5.623  0.00  0.00    -0.097 F 
ATOM     12  F4  UNL d   1       5.422   1.509  -5.561  0.00  0.00    -0.092 F 
ENDROOT
TORSDOF 0
ENDMDL
