MODEL 1
REMARK minimizedAffinity 0.702817738
REMARK minimizedRMSD -1
REMARK  0 active torsions:
REMARK  status: ('A' for Active; 'I' for Inactive)
ROOT
ATOM      1  C   UNL d   1       4.230   2.378  -5.438  0.00  0.00     0.124 A 
ATOM      2  C1  UNL d   1       4.660   3.697  -5.430  0.00  0.00     0.062 A 
ATOM      3  C2  UNL d   1       3.744   4.733  -5.590  0.00  0.00     0.162 A 
ATOM      4  C3  UNL d   1       2.388   4.453  -5.759  0.00  0.00    -0.034 A 
ATOM      5  C4  UNL d   1       1.963   3.124  -5.767  0.00  0.00     0.162 A 
ATOM      6  C5  UNL d   1       2.882   2.092  -5.606  0.00  0.00     0.062 A 
ATOM      7  F   UNL d   1       2.465   0.818  -5.615  0.00  0.00    -0.097 F 
ATOM      8  F1  UNL d   1       0.667   2.819  -5.927  0.00  0.00    -0.096 F 
ATOM      9  I   UNL d   1       1.015   5.999  -5.999  0.00  0.00    -0.060 I 
ATOM     10  F2  UNL d   1       4.188   5.999  -5.578  0.00  0.00    -0.096 F 
ATOM     11  F3  UNL d   1       5.961   3.976  -5.268  0.00  0.00    -0.097 F 
ATOM     12  F4  UNL d   1       5.113   1.383  -5.285  0.00  0.00    -0.092 F 
ENDROOT
TORSDOF 0
ENDMDL
