MODEL 1
REMARK minimizedAffinity 9.48410988
REMARK minimizedRMSD -1
REMARK  0 active torsions:
REMARK  status: ('A' for Active; 'I' for Inactive)
ROOT
ATOM      1  C   UNL d   1       4.370   2.167  -5.781  0.00  0.00     0.124 A 
ATOM      2  C1  UNL d   1       3.079   1.657  -5.764  0.00  0.00     0.062 A 
ATOM      3  C2  UNL d   1       1.986   2.517  -5.826  0.00  0.00     0.162 A 
ATOM      4  C3  UNL d   1       2.179   3.896  -5.907  0.00  0.00    -0.034 A 
ATOM      5  C4  UNL d   1       3.480   4.401  -5.922  0.00  0.00     0.162 A 
ATOM      6  C5  UNL d   1       4.569   3.538  -5.860  0.00  0.00     0.062 A 
ATOM      7  F   UNL d   1       5.816   4.032  -5.877  0.00  0.00    -0.097 F 
ATOM      8  F1  UNL d   1       3.702   5.722  -5.999  0.00  0.00    -0.096 F 
ATOM      9  I   UNL d   1       0.548   5.185  -5.999  0.00  0.00    -0.060 I 
ATOM     10  F2  UNL d   1       0.750   1.996  -5.808  0.00  0.00    -0.096 F 
ATOM     11  F3  UNL d   1       2.884   0.333  -5.687  0.00  0.00    -0.097 F 
ATOM     12  F4  UNL d   1       5.420   1.338  -5.720  0.00  0.00    -0.092 F 
ENDROOT
TORSDOF 0
ENDMDL
