MODEL 1
REMARK minimizedAffinity 8.63634777
REMARK minimizedRMSD -1
REMARK  0 active torsions:
REMARK  status: ('A' for Active; 'I' for Inactive)
ROOT
ATOM      1  C   UNL d   1       2.486   4.779  -5.669  0.00  0.00     0.124 A 
ATOM      2  C1  UNL d   1       3.863   4.821  -5.836  0.00  0.00     0.062 A 
ATOM      3  C2  UNL d   1       4.605   3.644  -5.834  0.00  0.00     0.162 A 
ATOM      4  C3  UNL d   1       3.971   2.413  -5.666  0.00  0.00    -0.034 A 
ATOM      5  C4  UNL d   1       2.586   2.378  -5.497  0.00  0.00     0.162 A 
ATOM      6  C5  UNL d   1       1.849   3.558  -5.499  0.00  0.00     0.062 A 
ATOM      7  F   UNL d   1       0.518   3.515  -5.337  0.00  0.00    -0.097 F 
ATOM      8  F1  UNL d   1       1.944   1.212  -5.332  0.00  0.00    -0.096 F 
ATOM      9  I   UNL d   1       5.077   0.650  -5.662  0.00  0.00    -0.060 I 
ATOM     10  F2  UNL d   1       5.934   3.715  -5.998  0.00  0.00    -0.096 F 
ATOM     11  F3  UNL d   1       4.481   6.000  -5.999  0.00  0.00    -0.097 F 
ATOM     12  F4  UNL d   1       1.775   5.914  -5.670  0.00  0.00    -0.092 F 
ENDROOT
TORSDOF 0
ENDMDL
