MODEL 1
REMARK minimizedAffinity 15.7343378
REMARK minimizedRMSD -1
REMARK  0 active torsions:
REMARK  status: ('A' for Active; 'I' for Inactive)
ROOT
ATOM      1  C   UNL d   1       3.916   2.392  -5.994  0.00  0.00     0.124 A 
ATOM      2  C1  UNL d   1       4.123   3.764  -5.994  0.00  0.00     0.062 A 
ATOM      3  C2  UNL d   1       3.038   4.635  -5.996  0.00  0.00     0.162 A 
ATOM      4  C3  UNL d   1       1.735   4.137  -5.996  0.00  0.00    -0.034 A 
ATOM      5  C4  UNL d   1       1.535   2.755  -5.997  0.00  0.00     0.162 A 
ATOM      6  C5  UNL d   1       2.623   1.889  -5.995  0.00  0.00     0.062 A 
ATOM      7  F   UNL d   1       2.421   0.563  -5.994  0.00  0.00    -0.097 F 
ATOM      8  F1  UNL d   1       0.295   2.242  -5.997  0.00  0.00    -0.096 F 
ATOM      9  I   UNL d   1       0.109   5.437  -5.999  0.00  0.00    -0.060 I 
ATOM     10  F2  UNL d   1       3.267   5.957  -5.997  0.00  0.00    -0.096 F 
ATOM     11  F3  UNL d   1       5.372   4.252  -5.994  0.00  0.00    -0.097 F 
ATOM     12  F4  UNL d   1       4.962   1.555  -5.993  0.00  0.00    -0.092 F 
ENDROOT
TORSDOF 0
ENDMDL
