MODEL 1
REMARK minimizedAffinity 5.3636694
REMARK minimizedRMSD -1
REMARK  0 active torsions:
REMARK  status: ('A' for Active; 'I' for Inactive)
ROOT
ATOM      1  C   UNL d   1       4.584   2.428  -5.882  0.00  0.00     0.124 A 
ATOM      2  C1  UNL d   1       3.301   1.898  -5.917  0.00  0.00     0.062 A 
ATOM      3  C2  UNL d   1       2.195   2.743  -5.922  0.00  0.00     0.162 A 
ATOM      4  C3  UNL d   1       2.366   4.127  -5.891  0.00  0.00    -0.034 A 
ATOM      5  C4  UNL d   1       3.659   4.652  -5.855  0.00  0.00     0.162 A 
ATOM      6  C5  UNL d   1       4.761   3.804  -5.851  0.00  0.00     0.062 A 
ATOM      7  F   UNL d   1       5.999   4.318  -5.816  0.00  0.00    -0.097 F 
ATOM      8  F1  UNL d   1       3.859   5.978  -5.825  0.00  0.00    -0.096 F 
ATOM      9  I   UNL d   1       0.714   5.393  -5.897  0.00  0.00    -0.060 I 
ATOM     10  F2  UNL d   1       0.967   2.203  -5.956  0.00  0.00    -0.096 F 
ATOM     11  F3  UNL d   1       3.127   0.569  -5.947  0.00  0.00    -0.097 F 
ATOM     12  F4  UNL d   1       5.646   1.613  -5.877  0.00  0.00    -0.092 F 
ENDROOT
TORSDOF 0
ENDMDL
