MODEL 1
REMARK minimizedAffinity 9.30724621
REMARK minimizedRMSD -1
REMARK  0 active torsions:
REMARK  status: ('A' for Active; 'I' for Inactive)
ROOT
ATOM      1  C   UNL d   1       4.843   0.816   1.710  0.00  0.00     0.124 A 
ATOM      2  C1  UNL d   1       3.642   1.295   1.205  0.00  0.00     0.062 A 
ATOM      3  C2  UNL d   1       2.438   0.945   1.810  0.00  0.00     0.162 A 
ATOM      4  C3  UNL d   1       2.429   0.112   2.928  0.00  0.00    -0.034 A 
ATOM      5  C4  UNL d   1       3.641  -0.367   3.431  0.00  0.00     0.162 A 
ATOM      6  C5  UNL d   1       4.841  -0.014   2.822  0.00  0.00     0.062 A 
ATOM      7  F   UNL d   1       6.000  -0.478   3.312  0.00  0.00    -0.097 F 
ATOM      8  F1  UNL d   1       3.668  -1.170   4.505  0.00  0.00    -0.096 F 
ATOM      9  I   UNL d   1       0.631  -0.414   3.836  0.00  0.00    -0.060 I 
ATOM     10  F2  UNL d   1       1.293   1.423   1.300  0.00  0.00    -0.096 F 
ATOM     11  F3  UNL d   1       3.641   2.097   0.130  0.00  0.00    -0.097 F 
ATOM     12  F4  UNL d   1       5.999   1.153   1.126  0.00  0.00    -0.092 F 
ENDROOT
TORSDOF 0
ENDMDL
