MODEL 1
REMARK minimizedAffinity 5.64227629
REMARK minimizedRMSD -1
REMARK  0 active torsions:
REMARK  status: ('A' for Active; 'I' for Inactive)
ROOT
ATOM      1  C   UNL d   1       2.396   4.247  -5.847  0.00  0.00     0.124 A 
ATOM      2  C1  UNL d   1       3.708   4.679  -5.711  0.00  0.00     0.062 A 
ATOM      3  C2  UNL d   1       4.737   3.755  -5.559  0.00  0.00     0.162 A 
ATOM      4  C3  UNL d   1       4.459   2.388  -5.544  0.00  0.00    -0.034 A 
ATOM      5  C4  UNL d   1       3.137   1.961  -5.680  0.00  0.00     0.162 A 
ATOM      6  C5  UNL d   1       2.112   2.889  -5.831  0.00  0.00     0.062 A 
ATOM      7  F   UNL d   1       0.845   2.469  -5.962  0.00  0.00    -0.097 F 
ATOM      8  F1  UNL d   1       2.834   0.654  -5.669  0.00  0.00    -0.096 F 
ATOM      9  I   UNL d   1       5.996   1.002  -5.318  0.00  0.00    -0.060 I 
ATOM     10  F2  UNL d   1       5.996   4.201  -5.430  0.00  0.00    -0.096 F 
ATOM     11  F3  UNL d   1       3.985   5.991  -5.725  0.00  0.00    -0.097 F 
ATOM     12  F4  UNL d   1       1.407   5.138  -5.991  0.00  0.00    -0.092 F 
ENDROOT
TORSDOF 0
ENDMDL
