MODEL 1
REMARK minimizedAffinity 5.36841774
REMARK minimizedRMSD -1
REMARK  0 active torsions:
REMARK  status: ('A' for Active; 'I' for Inactive)
ROOT
ATOM      1  C   UNL d   1       1.728   0.005   2.715  0.00  0.00     0.124 A 
ATOM      2  C1  UNL d   1       2.945  -0.618   2.475  0.00  0.00     0.062 A 
ATOM      3  C2  UNL d   1       3.971  -0.532   3.412  0.00  0.00     0.162 A 
ATOM      4  C3  UNL d   1       3.785   0.179   4.597  0.00  0.00    -0.034 A 
ATOM      5  C4  UNL d   1       2.558   0.803   4.831  0.00  0.00     0.162 A 
ATOM      6  C5  UNL d   1       1.536   0.715   3.892  0.00  0.00     0.062 A 
ATOM      7  F   UNL d   1       0.360   1.317   4.125  0.00  0.00    -0.097 F 
ATOM      8  F1  UNL d   1       2.345   1.495   5.960  0.00  0.00    -0.096 F 
ATOM      9  I   UNL d   1       5.317   0.310   6.000  0.00  0.00    -0.060 I 
ATOM     10  F2  UNL d   1       5.137  -1.143   3.154  0.00  0.00    -0.096 F 
ATOM     11  F3  UNL d   1       3.134  -1.303   1.339  0.00  0.00    -0.097 F 
ATOM     12  F4  UNL d   1       0.743  -0.078   1.812  0.00  0.00    -0.092 F 
ENDROOT
TORSDOF 0
ENDMDL
