MODEL 1
REMARK minimizedAffinity 6.92337227
REMARK minimizedRMSD -1
REMARK  0 active torsions:
REMARK  status: ('A' for Active; 'I' for Inactive)
ROOT
ATOM      1  C   UNL d   1       4.328   2.442  -5.312  0.00  0.00     0.124 A 
ATOM      2  C1  UNL d   1       4.701   3.758  -5.550  0.00  0.00     0.062 A 
ATOM      3  C2  UNL d   1       3.730   4.736  -5.747  0.00  0.00     0.162 A 
ATOM      4  C3  UNL d   1       2.376   4.402  -5.705  0.00  0.00    -0.034 A 
ATOM      5  C4  UNL d   1       2.009   3.077  -5.466  0.00  0.00     0.162 A 
ATOM      6  C5  UNL d   1       2.983   2.103  -5.270  0.00  0.00     0.062 A 
ATOM      7  F   UNL d   1       2.621   0.832  -5.039  0.00  0.00    -0.097 F 
ATOM      8  F1  UNL d   1       0.716   2.721  -5.419  0.00  0.00    -0.096 F 
ATOM      9  I   UNL d   1       0.922   5.861  -5.999  0.00  0.00    -0.060 I 
ATOM     10  F2  UNL d   1       4.119   5.999  -5.976  0.00  0.00    -0.096 F 
ATOM     11  F3  UNL d   1       5.999   4.088  -5.592  0.00  0.00    -0.097 F 
ATOM     12  F4  UNL d   1       5.264   1.503  -5.124  0.00  0.00    -0.092 F 
ENDROOT
TORSDOF 0
ENDMDL
