MODEL 1
REMARK minimizedAffinity -0.540742815
REMARK minimizedRMSD -1
REMARK  1 active torsions:
REMARK  status: ('A' for Active; 'I' for Inactive)
REMARK    1  A    between atoms: C3_4  and  O_7 
ROOT
ATOM      1  C   UNL d   1       0.357  -0.791   0.502  0.00  0.00    -0.033 A 
ATOM      2  C1  UNL d   1       1.113   0.360   0.271  0.00  0.00     0.039 A 
ATOM      3  C2  UNL d   1       0.591   1.395  -0.507  0.00  0.00    -0.080 A 
ATOM      4  C3  UNL d   1      -0.686   1.268  -1.046  0.00  0.00     0.150 A 
ATOM      5  C4  UNL d   1      -1.446   0.126  -0.816  0.00  0.00    -0.007 A 
ATOM      6  C5  UNL d   1      -0.923  -0.907  -0.040  0.00  0.00     0.039 A 
ENDROOT
BRANCH   4   7
ATOM      7  O   UNL d   1      -1.236   2.250  -1.816  0.00  0.00    -0.526 OA
ATOM      8  H5  UNL d   1      -0.585   2.965  -1.913  0.00  0.00     0.418 HD
ENDBRANCH   4   7
TORSDOF 1
ENDMDL
