MODEL 1
REMARK minimizedAffinity -4.88632441
REMARK minimizedRMSD -1
REMARK  1 active torsions:
REMARK  status: ('A' for Active; 'I' for Inactive)
REMARK    1  A    between atoms: C3_4  and  O_7 
ROOT
ATOM      1  C   UNL d   1      -0.940  -0.051  -0.150  0.00  0.00    -0.033 A 
ATOM      2  C1  UNL d   1       0.432   0.200  -0.210  0.00  0.00     0.039 A 
ATOM      3  C2  UNL d   1       1.228   0.010   0.922  0.00  0.00    -0.080 A 
ATOM      4  C3  UNL d   1       0.640  -0.431   2.104  0.00  0.00     0.150 A 
ATOM      5  C4  UNL d   1      -0.726  -0.686   2.170  0.00  0.00    -0.007 A 
ATOM      6  C5  UNL d   1      -1.519  -0.495   1.039  0.00  0.00     0.039 A 
ENDROOT
BRANCH   4   7
ATOM      7  O   UNL d   1       1.375  -0.626   3.236  0.00  0.00    -0.526 OA
ATOM      8  H5  UNL d   1       2.297  -0.382   3.050  0.00  0.00     0.418 HD
ENDBRANCH   4   7
TORSDOF 1
ENDMDL
