MODEL 1
REMARK minimizedAffinity -0.755036831
REMARK minimizedRMSD -1
REMARK  1 active torsions:
REMARK  status: ('A' for Active; 'I' for Inactive)
REMARK    1  A    between atoms: C3_4  and  O_7 
ROOT
ATOM      1  C   UNL d   1       0.440   2.540  -2.673  0.00  0.00    -0.033 A 
ATOM      2  C1  UNL d   1      -0.654   1.701  -2.895  0.00  0.00     0.039 A 
ATOM      3  C2  UNL d   1      -1.953   2.198  -2.775  0.00  0.00    -0.080 A 
ATOM      4  C3  UNL d   1      -2.144   3.534  -2.433  0.00  0.00     0.150 A 
ATOM      5  C4  UNL d   1      -1.059   4.377  -2.214  0.00  0.00    -0.007 A 
ATOM      6  C5  UNL d   1       0.238   3.878  -2.334  0.00  0.00     0.039 A 
ENDROOT
BRANCH   4   7
ATOM      7  O   UNL d   1      -3.393   4.064  -2.299  0.00  0.00    -0.526 OA
ATOM      8  H5  UNL d   1      -4.044   3.359  -2.452  0.00  0.00     0.418 HD
ENDBRANCH   4   7
TORSDOF 1
ENDMDL
