MODEL 1
REMARK minimizedAffinity -4.69708824
REMARK minimizedRMSD -1
REMARK  1 active torsions:
REMARK  status: ('A' for Active; 'I' for Inactive)
REMARK    1  A    between atoms: C3_4  and  O_7 
ROOT
ATOM      1  C   UNL d   1       1.431  -1.310   2.405  0.00  0.00    -0.033 A 
ATOM      2  C1  UNL d   1       0.333  -0.450   2.472  0.00  0.00     0.039 A 
ATOM      3  C2  UNL d   1      -0.277  -0.000   1.299  0.00  0.00    -0.080 A 
ATOM      4  C3  UNL d   1       0.220  -0.418   0.068  0.00  0.00     0.150 A 
ATOM      5  C4  UNL d   1       1.311  -1.277  -0.006  0.00  0.00    -0.007 A 
ATOM      6  C5  UNL d   1       1.919  -1.724   1.166  0.00  0.00     0.039 A 
ENDROOT
BRANCH   4   7
ATOM      7  O   UNL d   1      -0.339  -0.001  -1.104  0.00  0.00    -0.526 OA
ATOM      8  H5  UNL d   1      -1.065   0.611  -0.899  0.00  0.00     0.418 HD
ENDBRANCH   4   7
TORSDOF 1
ENDMDL
