MODEL 1
REMARK minimizedAffinity -4.21171665
REMARK minimizedRMSD -1
REMARK  1 active torsions:
REMARK  status: ('A' for Active; 'I' for Inactive)
REMARK    1  A    between atoms: C3_4  and  O_7 
ROOT
ATOM      1  C   UNL d   1      -1.281   0.254  -1.079  0.00  0.00    -0.033 A 
ATOM      2  C1  UNL d   1       0.072  -0.038  -0.898  0.00  0.00     0.039 A 
ATOM      3  C2  UNL d   1       0.564  -0.319   0.378  0.00  0.00    -0.080 A 
ATOM      4  C3  UNL d   1      -0.307  -0.305   1.464  0.00  0.00     0.150 A 
ATOM      5  C4  UNL d   1      -1.658  -0.018   1.291  0.00  0.00    -0.007 A 
ATOM      6  C5  UNL d   1      -2.146   0.262   0.016  0.00  0.00     0.039 A 
ENDROOT
BRANCH   4   7
ATOM      7  O   UNL d   1       0.127  -0.568   2.729  0.00  0.00    -0.526 OA
ATOM      8  H5  UNL d   1       1.086  -0.720   2.700  0.00  0.00     0.418 HD
ENDBRANCH   4   7
TORSDOF 1
ENDMDL
