MODEL 1
REMARK minimizedAffinity -3.31393027
REMARK minimizedRMSD -1
REMARK  1 active torsions:
REMARK  status: ('A' for Active; 'I' for Inactive)
REMARK    1  A    between atoms: C3_4  and  O_7 
ROOT
ATOM      1  C   UNL d   1       0.116   2.253  -2.289  0.00  0.00    -0.033 A 
ATOM      2  C1  UNL d   1      -0.560   1.501  -1.327  0.00  0.00     0.039 A 
ATOM      3  C2  UNL d   1      -1.853   1.859  -0.939  0.00  0.00    -0.080 A 
ATOM      4  C3  UNL d   1      -2.458   2.969  -1.522  0.00  0.00     0.150 A 
ATOM      5  C4  UNL d   1      -1.791   3.721  -2.484  0.00  0.00    -0.007 A 
ATOM      6  C5  UNL d   1      -0.500   3.363  -2.868  0.00  0.00     0.039 A 
ENDROOT
BRANCH   4   7
ATOM      7  O   UNL d   1      -3.716   3.361  -1.172  0.00  0.00    -0.526 OA
ATOM      8  H5  UNL d   1      -4.041   2.765  -0.477  0.00  0.00     0.418 HD
ENDBRANCH   4   7
TORSDOF 1
ENDMDL
