MODEL 1
REMARK minimizedAffinity -5.63971901
REMARK minimizedRMSD -1
REMARK  2 active torsions:
REMARK  status: ('A' for Active; 'I' for Inactive)
REMARK    1  A    between atoms: C1_2  and  C2_3 
REMARK    2  A    between atoms: C2_3  and  C3_4 
ROOT
ATOM      1  C3  UNL d   1      -0.034  -0.167   0.298  0.00  0.00    -0.075 A 
ATOM      2  C4  UNL d   1      -1.358  -0.338   0.729  0.00  0.00     0.002 A 
ATOM      3  C5  UNL d   1      -1.771  -1.550   1.283  0.00  0.00     0.002 A 
ATOM      4  C6  UNL d   1      -0.872  -2.607   1.403  0.00  0.00    -0.004 A 
ATOM      5  C7  UNL d   1       0.441  -2.454   0.962  0.00  0.00     0.002 A 
ATOM      6  C8  UNL d   1       0.859  -1.241   0.412  0.00  0.00     0.002 A 
ENDROOT
BRANCH   1   7
ATOM      7  C2  UNL d   1       0.427   1.152  -0.275  0.00  0.00     0.056 C 
BRANCH   7   8
ATOM      8  C1  UNL d   1       1.162   1.028  -1.614  0.00  0.00     0.007 C 
ATOM      9  C   UNL d   1       0.528   1.854  -2.725  0.00  0.00     0.009 C 
ENDBRANCH   7   8
ENDBRANCH   1   7
TORSDOF 2
ENDMDL
