MODEL 1
REMARK minimizedAffinity -2.8220005
REMARK minimizedRMSD -1
REMARK  2 active torsions:
REMARK  status: ('A' for Active; 'I' for Inactive)
REMARK    1  A    between atoms: C1_2  and  C2_3 
REMARK    2  A    between atoms: C2_3  and  C3_4 
ROOT
ATOM      1  C3  UNL d   1      -0.379   0.273  -0.215  0.00  0.00    -0.075 A 
ATOM      2  C4  UNL d   1      -0.841  -1.041  -0.377  0.00  0.00     0.002 A 
ATOM      3  C5  UNL d   1      -2.018  -1.459   0.245  0.00  0.00     0.002 A 
ATOM      4  C6  UNL d   1      -2.741  -0.575   1.042  0.00  0.00    -0.004 A 
ATOM      5  C7  UNL d   1      -2.282   0.728   1.223  0.00  0.00     0.002 A 
ATOM      6  C8  UNL d   1      -1.108   1.151   0.598  0.00  0.00     0.002 A 
ENDROOT
BRANCH   1   7
ATOM      7  C2  UNL d   1       0.878   0.741  -0.909  0.00  0.00     0.056 C 
BRANCH   7   8
ATOM      8  C1  UNL d   1       0.654   1.227  -2.345  0.00  0.00     0.007 C 
ATOM      9  C   UNL d   1       1.928   1.721  -3.018  0.00  0.00     0.009 C 
ENDBRANCH   7   8
ENDBRANCH   1   7
TORSDOF 2
ENDMDL
