MODEL 1
REMARK minimizedAffinity -2.50260997
REMARK minimizedRMSD -1
REMARK  2 active torsions:
REMARK  status: ('A' for Active; 'I' for Inactive)
REMARK    1  A    between atoms: C1_2  and  C2_3 
REMARK    2  A    between atoms: C2_3  and  C3_4 
ROOT
ATOM      1  C3  UNL d   1      -0.487  -0.872   0.522  0.00  0.00    -0.075 A 
ATOM      2  C4  UNL d   1       0.716  -0.503  -0.098  0.00  0.00     0.002 A 
ATOM      3  C5  UNL d   1       0.985   0.837  -0.379  0.00  0.00     0.002 A 
ATOM      4  C6  UNL d   1       0.055   1.821  -0.054  0.00  0.00    -0.004 A 
ATOM      5  C7  UNL d   1      -1.150   1.464   0.547  0.00  0.00     0.002 A 
ATOM      6  C8  UNL d   1      -1.421   0.125   0.834  0.00  0.00     0.002 A 
ENDROOT
BRANCH   1   7
ATOM      7  C2  UNL d   1      -0.772  -2.317   0.856  0.00  0.00     0.056 C 
BRANCH   7   8
ATOM      8  C1  UNL d   1      -0.566  -2.668   2.334  0.00  0.00     0.007 C 
ATOM      9  C   UNL d   1       0.876  -3.022   2.671  0.00  0.00     0.009 C 
ENDBRANCH   7   8
ENDBRANCH   1   7
TORSDOF 2
ENDMDL
