MODEL 1
REMARK minimizedAffinity -1.84072471
REMARK minimizedRMSD -1
REMARK  2 active torsions:
REMARK  status: ('A' for Active; 'I' for Inactive)
REMARK    1  A    between atoms: C1_2  and  C2_3 
REMARK    2  A    between atoms: C2_3  and  C3_4 
ROOT
ATOM      1  C3  UNL d   1       0.236   0.044   0.259  0.00  0.00    -0.075 A 
ATOM      2  C4  UNL d   1       0.461  -1.076   1.072  0.00  0.00     0.002 A 
ATOM      3  C5  UNL d   1      -0.583  -1.950   1.379  0.00  0.00     0.002 A 
ATOM      4  C6  UNL d   1      -1.864  -1.709   0.887  0.00  0.00    -0.004 A 
ATOM      5  C7  UNL d   1      -2.102  -0.590   0.092  0.00  0.00     0.002 A 
ATOM      6  C8  UNL d   1      -1.059   0.283  -0.220  0.00  0.00     0.002 A 
ENDROOT
BRANCH   1   7
ATOM      7  C2  UNL d   1       1.368   0.977  -0.101  0.00  0.00     0.056 C 
BRANCH   7   8
ATOM      8  C1  UNL d   1       1.628   1.089  -1.607  0.00  0.00     0.007 C 
ATOM      9  C   UNL d   1       2.790   2.013  -1.948  0.00  0.00     0.009 C 
ENDBRANCH   7   8
ENDBRANCH   1   7
TORSDOF 2
ENDMDL
