MODEL 1
REMARK minimizedAffinity -5.7868185
REMARK minimizedRMSD -1
REMARK  2 active torsions:
REMARK  status: ('A' for Active; 'I' for Inactive)
REMARK    1  A    between atoms: C1_2  and  C2_3 
REMARK    2  A    between atoms: C2_3  and  C3_4 
ROOT
ATOM      1  C3  UNL d   1       0.228   0.032   0.095  0.00  0.00    -0.075 A 
ATOM      2  C4  UNL d   1      -1.063  -0.483   0.283  0.00  0.00     0.002 A 
ATOM      3  C5  UNL d   1      -1.249  -1.829   0.599  0.00  0.00     0.002 A 
ATOM      4  C6  UNL d   1      -0.151  -2.677   0.722  0.00  0.00    -0.004 A 
ATOM      5  C7  UNL d   1       1.135  -2.180   0.522  0.00  0.00     0.002 A 
ATOM      6  C8  UNL d   1       1.325  -0.832   0.209  0.00  0.00     0.002 A 
ENDROOT
BRANCH   1   7
ATOM      7  C2  UNL d   1       0.438   1.494  -0.218  0.00  0.00     0.056 C 
BRANCH   7   8
ATOM      8  C1  UNL d   1       1.312   1.749  -1.451  0.00  0.00     0.007 C 
ATOM      9  C   UNL d   1       0.564   1.568  -2.765  0.00  0.00     0.009 C 
ENDBRANCH   7   8
ENDBRANCH   1   7
TORSDOF 2
ENDMDL
