MODEL 1
REMARK minimizedAffinity -5.03422356
REMARK minimizedRMSD -1
REMARK  2 active torsions:
REMARK  status: ('A' for Active; 'I' for Inactive)
REMARK    1  A    between atoms: C1_2  and  C2_3 
REMARK    2  A    between atoms: C2_3  and  C3_4 
ROOT
ATOM      1  C3  UNL d   1      -0.164   0.846  -0.527  0.00  0.00    -0.075 A 
ATOM      2  C4  UNL d   1      -0.145  -0.555  -0.490  0.00  0.00     0.002 A 
ATOM      3  C5  UNL d   1      -1.149  -1.261   0.174  0.00  0.00     0.002 A 
ATOM      4  C6  UNL d   1      -2.177  -0.576   0.817  0.00  0.00    -0.004 A 
ATOM      5  C7  UNL d   1      -2.197   0.817   0.802  0.00  0.00     0.002 A 
ATOM      6  C8  UNL d   1      -1.196   1.526   0.134  0.00  0.00     0.002 A 
ENDROOT
BRANCH   1   7
ATOM      7  C2  UNL d   1       0.903   1.615  -1.269  0.00  0.00     0.056 C 
BRANCH   7   8
ATOM      8  C1  UNL d   1       0.427   2.223  -2.592  0.00  0.00     0.007 C 
ATOM      9  C   UNL d   1       1.301   1.839  -3.778  0.00  0.00     0.009 C 
ENDBRANCH   7   8
ENDBRANCH   1   7
TORSDOF 2
ENDMDL
