MODEL 1
REMARK minimizedAffinity -2.46198773
REMARK minimizedRMSD -1
REMARK  2 active torsions:
REMARK  status: ('A' for Active; 'I' for Inactive)
REMARK    1  A    between atoms: C1_2  and  C2_3 
REMARK    2  A    between atoms: C2_3  and  C3_4 
ROOT
ATOM      1  C3  UNL d   1       0.255  -1.054   0.452  0.00  0.00    -0.075 A 
ATOM      2  C4  UNL d   1      -1.072  -1.332   0.092  0.00  0.00     0.002 A 
ATOM      3  C5  UNL d   1      -1.798  -2.314   0.766  0.00  0.00     0.002 A 
ATOM      4  C6  UNL d   1      -1.206  -3.036   1.799  0.00  0.00    -0.004 A 
ATOM      5  C7  UNL d   1       0.116  -2.779   2.155  0.00  0.00     0.002 A 
ATOM      6  C8  UNL d   1       0.844  -1.794   1.486  0.00  0.00     0.002 A 
ENDROOT
BRANCH   1   7
ATOM      7  C2  UNL d   1       1.037   0.028  -0.253  0.00  0.00     0.056 C 
BRANCH   7   8
ATOM      8  C1  UNL d   1       0.272   1.346  -0.416  0.00  0.00     0.007 C 
ATOM      9  C   UNL d   1       0.685   2.131  -1.654  0.00  0.00     0.009 C 
ENDBRANCH   7   8
ENDBRANCH   1   7
TORSDOF 2
ENDMDL
