MODEL 1
REMARK minimizedAffinity -4.23405075
REMARK minimizedRMSD -1
REMARK  2 active torsions:
REMARK  status: ('A' for Active; 'I' for Inactive)
REMARK    1  A    between atoms: C1_2  and  C2_3 
REMARK    2  A    between atoms: C2_3  and  C3_4 
ROOT
ATOM      1  C3  UNL d   1       0.482   1.452  -0.189  0.00  0.00    -0.075 A 
ATOM      2  C4  UNL d   1       0.412   0.051  -0.196  0.00  0.00     0.002 A 
ATOM      3  C5  UNL d   1      -0.743  -0.602   0.234  0.00  0.00     0.002 A 
ATOM      4  C6  UNL d   1      -1.836   0.134   0.686  0.00  0.00    -0.004 A 
ATOM      5  C7  UNL d   1      -1.772   1.526   0.713  0.00  0.00     0.002 A 
ATOM      6  C8  UNL d   1      -0.619   2.182   0.279  0.00  0.00     0.002 A 
ENDROOT
BRANCH   1   7
ATOM      7  C2  UNL d   1       1.719   2.166  -0.681  0.00  0.00     0.056 C 
BRANCH   7   8
ATOM      8  C1  UNL d   1       1.528   2.895  -2.015  0.00  0.00     0.007 C 
ATOM      9  C   UNL d   1       1.115   1.969  -3.152  0.00  0.00     0.009 C 
ENDBRANCH   7   8
ENDBRANCH   1   7
TORSDOF 2
ENDMDL
