MODEL 1
REMARK minimizedAffinity -5.25081778
REMARK minimizedRMSD -1
REMARK  2 active torsions:
REMARK  status: ('A' for Active; 'I' for Inactive)
REMARK    1  A    between atoms: C1_2  and  C2_3 
REMARK    2  A    between atoms: C2_3  and  C3_4 
ROOT
ATOM      1  C3  UNL d   1       0.213   0.479  -0.018  0.00  0.00    -0.075 A 
ATOM      2  C4  UNL d   1       1.282  -0.428  -0.054  0.00  0.00     0.002 A 
ATOM      3  C5  UNL d   1       1.082  -1.772   0.265  0.00  0.00     0.002 A 
ATOM      4  C6  UNL d   1      -0.184  -2.222   0.633  0.00  0.00    -0.004 A 
ATOM      5  C7  UNL d   1      -1.250  -1.326   0.688  0.00  0.00     0.002 A 
ATOM      6  C8  UNL d   1      -1.053   0.018   0.365  0.00  0.00     0.002 A 
ENDROOT
BRANCH   1   7
ATOM      7  C2  UNL d   1       0.417   1.928  -0.390  0.00  0.00     0.056 C 
BRANCH   7   8
ATOM      8  C1  UNL d   1       1.195   2.133  -1.695  0.00  0.00     0.007 C 
ATOM      9  C   UNL d   1       0.350   2.736  -2.809  0.00  0.00     0.009 C 
ENDBRANCH   7   8
ENDBRANCH   1   7
TORSDOF 2
ENDMDL
