MODEL 1
REMARK minimizedAffinity -4.27937031
REMARK minimizedRMSD -1
REMARK  2 active torsions:
REMARK  status: ('A' for Active; 'I' for Inactive)
REMARK    1  A    between atoms: C1_2  and  C2_3 
REMARK    2  A    between atoms: C2_3  and  C3_4 
ROOT
ATOM      1  C3  UNL d   1      -0.944  -0.962   0.850  0.00  0.00    -0.075 A 
ATOM      2  C4  UNL d   1       0.172  -0.754   0.026  0.00  0.00     0.002 A 
ATOM      3  C5  UNL d   1       0.389   0.487  -0.572  0.00  0.00     0.002 A 
ATOM      4  C6  UNL d   1      -0.509   1.531  -0.362  0.00  0.00    -0.004 A 
ATOM      5  C7  UNL d   1      -1.630   1.331   0.441  0.00  0.00     0.002 A 
ATOM      6  C8  UNL d   1      -1.847   0.091   1.044  0.00  0.00     0.002 A 
ENDROOT
BRANCH   1   7
ATOM      7  C2  UNL d   1      -1.169  -2.295   1.523  0.00  0.00     0.056 C 
BRANCH   7   8
ATOM      8  C1  UNL d   1       0.017  -2.776   2.366  0.00  0.00     0.007 C 
ATOM      9  C   UNL d   1      -0.053  -2.318   3.817  0.00  0.00     0.009 C 
ENDBRANCH   7   8
ENDBRANCH   1   7
TORSDOF 2
ENDMDL
