MODEL 1
REMARK minimizedAffinity -4.87037134
REMARK minimizedRMSD -1
REMARK  2 active torsions:
REMARK  status: ('A' for Active; 'I' for Inactive)
REMARK    1  A    between atoms: C1_2  and  C2_3 
REMARK    2  A    between atoms: C2_3  and  C3_4 
ROOT
ATOM      1  C3  UNL d   1      -0.073   0.212   0.524  0.00  0.00    -0.075 A 
ATOM      2  C4  UNL d   1       0.315  -1.115   0.757  0.00  0.00     0.002 A 
ATOM      3  C5  UNL d   1      -0.432  -1.933   1.606  0.00  0.00     0.002 A 
ATOM      4  C6  UNL d   1      -1.568  -1.432   2.239  0.00  0.00    -0.004 A 
ATOM      5  C7  UNL d   1      -1.953  -0.110   2.027  0.00  0.00     0.002 A 
ATOM      6  C8  UNL d   1      -1.209   0.709   1.175  0.00  0.00     0.002 A 
ENDROOT
BRANCH   1   7
ATOM      7  C2  UNL d   1       0.715   1.093  -0.417  0.00  0.00     0.056 C 
BRANCH   7   8
ATOM      8  C1  UNL d   1       0.597   0.693  -1.891  0.00  0.00     0.007 C 
ATOM      9  C   UNL d   1       0.457   1.887  -2.827  0.00  0.00     0.009 C 
ENDBRANCH   7   8
ENDBRANCH   1   7
TORSDOF 2
ENDMDL
