MODEL 1
REMARK minimizedAffinity 10.6856346
REMARK minimizedRMSD -1
REMARK  0 active torsions:
REMARK  status: ('A' for Active; 'I' for Inactive)
ROOT
ATOM      1  O1  BZF d   1      -0.454   1.169  -0.866  0.00  0.00    -0.204 OA
ATOM      2  C2  BZF d   1      -1.804   1.459  -0.896  0.00  0.00     0.174 A 
ATOM      3  C3  BZF d   1      -2.298   1.567   0.354  0.00  0.00    -0.012 A 
ATOM      4  C3A BZF d   1      -1.168   1.420   1.220  0.00  0.00    -0.107 A 
ATOM      5  C4  BZF d   1      -1.014   1.448   2.576  0.00  0.00     0.055 A 
ATOM      6  C5  BZF d   1       0.211   1.198   3.108  0.00  0.00    -0.016 A 
ATOM      7  C6  BZF d   1       1.302   0.911   2.313  0.00  0.00     0.022 A 
ATOM      8  C7  BZF d   1       1.200   0.877   0.962  0.00  0.00     0.029 A 
ATOM      9  C7A BZF d   1      -0.030   1.162   0.421  0.00  0.00     0.058 A 
ENDROOT
TORSDOF 0
ENDMDL
