MODEL 1
REMARK minimizedAffinity 6.44756174
REMARK minimizedRMSD -1
REMARK  0 active torsions:
REMARK  status: ('A' for Active; 'I' for Inactive)
ROOT
ATOM      1  O1  BZF d   1       2.133  -2.946   0.960  0.00  0.00    -0.204 OA
ATOM      2  C2  BZF d   1       2.804  -1.849   0.453  0.00  0.00     0.174 A 
ATOM      3  C3  BZF d   1       2.277  -1.471  -0.729  0.00  0.00    -0.012 A 
ATOM      4  C3A BZF d   1       1.151  -2.331  -0.932  0.00  0.00    -0.107 A 
ATOM      5  C4  BZF d   1       0.215  -2.434  -1.921  0.00  0.00     0.055 A 
ATOM      6  C5  BZF d   1      -0.708  -3.429  -1.855  0.00  0.00    -0.016 A 
ATOM      7  C6  BZF d   1      -0.722  -4.339  -0.818  0.00  0.00     0.022 A 
ATOM      8  C7  BZF d   1       0.183  -4.273   0.189  0.00  0.00     0.029 A 
ATOM      9  C7A BZF d   1       1.097  -3.249   0.141  0.00  0.00     0.058 A 
ENDROOT
TORSDOF 0
ENDMDL
