MODEL 1
REMARK minimizedAffinity 2.3734076
REMARK minimizedRMSD -1
REMARK  0 active torsions:
REMARK  status: ('A' for Active; 'I' for Inactive)
ROOT
ATOM      1  O1  BZF d   1       4.122   0.860  -1.025  0.00  0.00    -0.204 OA
ATOM      2  C2  BZF d   1       3.410   1.654  -0.146  0.00  0.00     0.174 A 
ATOM      3  C3  BZF d   1       2.363   0.978   0.369  0.00  0.00    -0.012 A 
ATOM      4  C3A BZF d   1       2.478  -0.349  -0.154  0.00  0.00    -0.107 A 
ATOM      5  C4  BZF d   1       1.742  -1.488   0.006  0.00  0.00     0.055 A 
ATOM      6  C5  BZF d   1       2.079  -2.597  -0.704  0.00  0.00    -0.016 A 
ATOM      7  C6  BZF d   1       3.141  -2.601  -1.584  0.00  0.00     0.022 A 
ATOM      8  C7  BZF d   1       3.903  -1.496  -1.772  0.00  0.00     0.029 A 
ATOM      9  C7A BZF d   1       3.585  -0.384  -1.032  0.00  0.00     0.058 A 
ENDROOT
TORSDOF 0
ENDMDL
