MODEL 1
REMARK minimizedAffinity 9.08866405
REMARK minimizedRMSD -1
REMARK  0 active torsions:
REMARK  status: ('A' for Active; 'I' for Inactive)
ROOT
ATOM      1  O1  BZF d   1      -4.105  -0.044  -2.218  0.00  0.00    -0.204 OA
ATOM      2  C2  BZF d   1      -5.193   0.205  -1.405  0.00  0.00     0.174 A 
ATOM      3  C3  BZF d   1      -4.868   1.069  -0.422  0.00  0.00    -0.012 A 
ATOM      4  C3A BZF d   1      -3.514   1.450  -0.688  0.00  0.00    -0.107 A 
ATOM      5  C4  BZF d   1      -2.639   2.297  -0.071  0.00  0.00     0.055 A 
ATOM      6  C5  BZF d   1      -1.367   2.388  -0.541  0.00  0.00    -0.016 A 
ATOM      7  C6  BZF d   1      -0.936   1.645  -1.620  0.00  0.00     0.022 A 
ATOM      8  C7  BZF d   1      -1.769   0.795  -2.267  0.00  0.00     0.029 A 
ATOM      9  C7A BZF d   1      -3.065   0.725  -1.816  0.00  0.00     0.058 A 
ENDROOT
TORSDOF 0
ENDMDL
