MODEL 1
REMARK minimizedAffinity 5.66451311
REMARK minimizedRMSD -1
REMARK  0 active torsions:
REMARK  status: ('A' for Active; 'I' for Inactive)
ROOT
ATOM      1  O1  BZF d   1       3.877   2.054   0.156  0.00  0.00    -0.204 OA
ATOM      2  C2  BZF d   1       5.239   1.901  -0.015  0.00  0.00     0.174 A 
ATOM      3  C3  BZF d   1       5.573   0.594  -0.039  0.00  0.00    -0.012 A 
ATOM      4  C3A BZF d   1       4.332  -0.114   0.036  0.00  0.00    -0.107 A 
ATOM      5  C4  BZF d   1       4.006  -1.440   0.038  0.00  0.00     0.055 A 
ATOM      6  C5  BZF d   1       2.706  -1.800   0.198  0.00  0.00    -0.016 A 
ATOM      7  C6  BZF d   1       1.707  -0.862   0.362  0.00  0.00     0.022 A 
ATOM      8  C7  BZF d   1       1.981   0.465   0.361  0.00  0.00     0.029 A 
ATOM      9  C7A BZF d   1       3.290   0.833   0.168  0.00  0.00     0.058 A 
ENDROOT
TORSDOF 0
ENDMDL
