MODEL 1
REMARK minimizedAffinity 11.037056
REMARK minimizedRMSD -1
REMARK  0 active torsions:
REMARK  status: ('A' for Active; 'I' for Inactive)
ROOT
ATOM      1  O1  BZF d   1       3.401   0.316  -1.354  0.00  0.00    -0.204 OA
ATOM      2  C2  BZF d   1       3.314   1.137  -0.247  0.00  0.00     0.174 A 
ATOM      3  C3  BZF d   1       2.633   0.531   0.747  0.00  0.00    -0.012 A 
ATOM      4  C3A BZF d   1       2.353  -0.786   0.262  0.00  0.00    -0.107 A 
ATOM      5  C4  BZF d   1       1.716  -1.868   0.798  0.00  0.00     0.055 A 
ATOM      6  C5  BZF d   1       1.547  -2.980   0.035  0.00  0.00    -0.016 A 
ATOM      7  C6  BZF d   1       1.996  -3.042  -1.268  0.00  0.00     0.022 A 
ATOM      8  C7  BZF d   1       2.638  -1.995  -1.842  0.00  0.00     0.029 A 
ATOM      9  C7A BZF d   1       2.840  -0.882  -1.063  0.00  0.00     0.058 A 
ENDROOT
TORSDOF 0
ENDMDL
