MODEL 1
REMARK minimizedAffinity 2.32040691
REMARK minimizedRMSD -1
REMARK  0 active torsions:
REMARK  status: ('A' for Active; 'I' for Inactive)
ROOT
ATOM      1  O1  BZF d   1      -0.940   0.646   3.531  0.00  0.00    -0.204 OA
ATOM      2  C2  BZF d   1      -0.069  -0.090   4.311  0.00  0.00     0.174 A 
ATOM      3  C3  BZF d   1       0.998  -0.490   3.590  0.00  0.00    -0.012 A 
ATOM      4  C3A BZF d   1       0.827   0.107   2.301  0.00  0.00    -0.107 A 
ATOM      5  C4  BZF d   1       1.568   0.093   1.154  0.00  0.00     0.055 A 
ATOM      6  C5  BZF d   1       1.084   0.718   0.048  0.00  0.00    -0.016 A 
ATOM      7  C6  BZF d   1      -0.136   1.361   0.053  0.00  0.00     0.022 A 
ATOM      8  C7  BZF d   1      -0.904   1.406   1.168  0.00  0.00     0.029 A 
ATOM      9  C7A BZF d   1      -0.404   0.804   2.296  0.00  0.00     0.058 A 
ENDROOT
TORSDOF 0
ENDMDL
