MODEL 1
REMARK minimizedAffinity 4.62025261
REMARK minimizedRMSD -1
REMARK  0 active torsions:
REMARK  status: ('A' for Active; 'I' for Inactive)
ROOT
ATOM      1  O1  BZF d   1      -1.816   1.006   1.589  0.00  0.00    -0.204 OA
ATOM      2  C2  BZF d   1      -2.036   1.402   0.284  0.00  0.00     0.174 A 
ATOM      3  C3  BZF d   1      -0.913   1.272  -0.451  0.00  0.00    -0.012 A 
ATOM      4  C3A BZF d   1       0.045   0.676   0.428  0.00  0.00    -0.107 A 
ATOM      5  C4  BZF d   1       1.345   0.285   0.273  0.00  0.00     0.055 A 
ATOM      6  C5  BZF d   1       2.022  -0.195   1.349  0.00  0.00    -0.016 A 
ATOM      7  C6  BZF d   1       1.434  -0.293   2.593  0.00  0.00     0.022 A 
ATOM      8  C7  BZF d   1       0.146   0.078   2.794  0.00  0.00     0.029 A 
ATOM      9  C7A BZF d   1      -0.551   0.533   1.702  0.00  0.00     0.058 A 
ENDROOT
TORSDOF 0
ENDMDL
