MODEL 1
REMARK minimizedAffinity 6.24776554
REMARK minimizedRMSD -1
REMARK  0 active torsions:
REMARK  status: ('A' for Active; 'I' for Inactive)
ROOT
ATOM      1  O1  BZF d   1      -0.017   1.388  -0.613  0.00  0.00    -0.204 OA
ATOM      2  C2  BZF d   1      -1.365   1.503  -0.893  0.00  0.00     0.174 A 
ATOM      3  C3  BZF d   1      -2.104   1.294   0.216  0.00  0.00    -0.012 A 
ATOM      4  C3A BZF d   1      -1.155   1.124   1.273  0.00  0.00    -0.107 A 
ATOM      5  C4  BZF d   1      -1.274   0.900   2.615  0.00  0.00     0.055 A 
ATOM      6  C5  BZF d   1      -0.151   0.708   3.355  0.00  0.00    -0.016 A 
ATOM      7  C6  BZF d   1       1.106   0.728   2.787  0.00  0.00     0.022 A 
ATOM      8  C7  BZF d   1       1.275   0.952   1.461  0.00  0.00     0.029 A 
ATOM      9  C7A BZF d   1       0.144   1.179   0.716  0.00  0.00     0.058 A 
ENDROOT
TORSDOF 0
ENDMDL
