MODEL 1
REMARK minimizedAffinity -1.86458826
REMARK minimizedRMSD -1
REMARK  0 active torsions:
REMARK  status: ('A' for Active; 'I' for Inactive)
ROOT
ATOM      1  O1  BZF d   1       1.321   0.827   1.774  0.00  0.00    -0.204 OA
ATOM      2  C2  BZF d   1       0.734  -0.143   2.564  0.00  0.00     0.174 A 
ATOM      3  C3  BZF d   1       1.131  -1.374   2.184  0.00  0.00    -0.012 A 
ATOM      4  C3A BZF d   1       2.094  -1.156   1.149  0.00  0.00    -0.107 A 
ATOM      5  C4  BZF d   1       2.858  -1.992   0.386  0.00  0.00     0.055 A 
ATOM      6  C5  BZF d   1       3.644  -1.464  -0.589  0.00  0.00    -0.016 A 
ATOM      7  C6  BZF d   1       3.686  -0.107  -0.831  0.00  0.00     0.022 A 
ATOM      8  C7  BZF d   1       2.950   0.763  -0.097  0.00  0.00     0.029 A 
ATOM      9  C7A BZF d   1       2.180   0.235   0.910  0.00  0.00     0.058 A 
ENDROOT
TORSDOF 0
ENDMDL
