MODEL 1
REMARK minimizedAffinity -1.8261199
REMARK minimizedRMSD -1
REMARK  0 active torsions:
REMARK  status: ('A' for Active; 'I' for Inactive)
ROOT
ATOM      1  C   UNL d   1      -5.962  -4.475  -2.741  0.00  0.00     0.172 C 
ATOM      2  N   UNL d   1      -5.518  -4.845  -4.065  0.00  0.00    -0.070 N 
ATOM      3  C1  UNL d   1      -4.564  -4.192  -4.798  0.00  0.00    -0.004 A 
ATOM      4  C2  UNL d   1      -4.429  -4.853  -6.000  0.00  0.00    -0.047 A 
ATOM      5  C3  UNL d   1      -5.334  -5.941  -5.988  0.00  0.00    -0.047 A 
ATOM      6  C4  UNL d   1      -5.995  -5.912  -4.779  0.00  0.00    -0.004 A 
ENDROOT
TORSDOF 0
ENDMDL
