MODEL 1
REMARK minimizedAffinity -2.0200181
REMARK minimizedRMSD -1
REMARK  0 active torsions:
REMARK  status: ('A' for Active; 'I' for Inactive)
ROOT
ATOM      1  C   UNL d   1      -5.208  -4.133  -2.398  0.00  0.00     0.172 C 
ATOM      2  N   UNL d   1      -5.359  -4.511  -3.783  0.00  0.00    -0.070 N 
ATOM      3  C1  UNL d   1      -5.998  -5.633  -4.239  0.00  0.00    -0.004 A 
ATOM      4  C2  UNL d   1      -5.926  -5.630  -5.616  0.00  0.00    -0.047 A 
ATOM      5  C3  UNL d   1      -5.218  -4.467  -6.000  0.00  0.00    -0.047 A 
ATOM      6  C4  UNL d   1      -4.879  -3.792  -4.846  0.00  0.00    -0.004 A 
ENDROOT
TORSDOF 0
ENDMDL
