MODEL 1
REMARK minimizedAffinity -2.46614385
REMARK minimizedRMSD -1
REMARK  0 active torsions:
REMARK  status: ('A' for Active; 'I' for Inactive)
ROOT
ATOM      1  C   UNL d   1      -5.335  -4.876  -2.535  0.00  0.00     0.172 C 
ATOM      2  N   UNL d   1      -4.994  -4.876  -3.938  0.00  0.00    -0.070 N 
ATOM      3  C1  UNL d   1      -4.860  -3.765  -4.727  0.00  0.00    -0.004 A 
ATOM      4  C2  UNL d   1      -4.530  -4.186  -5.997  0.00  0.00    -0.047 A 
ATOM      5  C3  UNL d   1      -4.464  -5.599  -5.971  0.00  0.00    -0.047 A 
ATOM      6  C4  UNL d   1      -4.756  -6.000  -4.684  0.00  0.00    -0.004 A 
ENDROOT
TORSDOF 0
ENDMDL
