MODEL 1
REMARK minimizedAffinity 1.65213537
REMARK minimizedRMSD -1
REMARK  0 active torsions:
REMARK  status: ('A' for Active; 'I' for Inactive)
ROOT
ATOM      1  C   UNL d   1      -5.624  -4.254  -2.881  0.00  0.00     0.172 C 
ATOM      2  N   UNL d   1      -5.123  -4.878  -4.083  0.00  0.00    -0.070 N 
ATOM      3  C1  UNL d   1      -3.815  -4.894  -4.489  0.00  0.00    -0.004 A 
ATOM      4  C2  UNL d   1      -3.751  -5.586  -5.679  0.00  0.00    -0.047 A 
ATOM      5  C3  UNL d   1      -5.066  -6.000  -6.000  0.00  0.00    -0.047 A 
ATOM      6  C4  UNL d   1      -5.895  -5.548  -4.995  0.00  0.00    -0.004 A 
ENDROOT
TORSDOF 0
ENDMDL
