MODEL 1
REMARK minimizedAffinity -2.13185382
REMARK minimizedRMSD -1
REMARK  0 active torsions:
REMARK  status: ('A' for Active; 'I' for Inactive)
ROOT
ATOM      1  C   UNL d   1      -5.368  -4.848  -2.658  0.00  0.00     0.172 C 
ATOM      2  N   UNL d   1      -4.923  -4.632  -4.015  0.00  0.00    -0.070 N 
ATOM      3  C1  UNL d   1      -5.174  -3.517  -4.769  0.00  0.00    -0.004 A 
ATOM      4  C2  UNL d   1      -4.580  -3.698  -6.000  0.00  0.00    -0.047 A 
ATOM      5  C3  UNL d   1      -3.952  -4.966  -5.985  0.00  0.00    -0.047 A 
ATOM      6  C4  UNL d   1      -4.180  -5.522  -4.744  0.00  0.00    -0.004 A 
ENDROOT
TORSDOF 0
ENDMDL
