MODEL 1
REMARK minimizedAffinity 0.24833478
REMARK minimizedRMSD -1
REMARK  0 active torsions:
REMARK  status: ('A' for Active; 'I' for Inactive)
ROOT
ATOM      1  C   UNL d   1      -3.757  -5.984  -3.247  0.00  0.00     0.172 C 
ATOM      2  N   UNL d   1      -4.651  -5.391  -4.214  0.00  0.00    -0.070 N 
ATOM      3  C1  UNL d   1      -5.116  -5.999  -5.349  0.00  0.00    -0.004 A 
ATOM      4  C2  UNL d   1      -5.939  -5.106  -6.000  0.00  0.00    -0.047 A 
ATOM      5  C3  UNL d   1      -5.969  -3.919  -5.229  0.00  0.00    -0.047 A 
ATOM      6  C4  UNL d   1      -5.163  -4.123  -4.129  0.00  0.00    -0.004 A 
ENDROOT
TORSDOF 0
ENDMDL
