MODEL 1
REMARK minimizedAffinity 2.01692677
REMARK minimizedRMSD -1
REMARK  0 active torsions:
REMARK  status: ('A' for Active; 'I' for Inactive)
ROOT
ATOM      1  C   UNL d   1       2.895  -6.000  -5.962  0.00  0.00     0.172 C 
ATOM      2  N   UNL d   1       3.760  -5.991  -4.805  0.00  0.00    -0.070 N 
ATOM      3  C1  UNL d   1       5.129  -6.000  -4.832  0.00  0.00    -0.004 A 
ATOM      4  C2  UNL d   1       5.577  -5.986  -3.529  0.00  0.00    -0.047 A 
ATOM      5  C3  UNL d   1       4.438  -5.969  -2.690  0.00  0.00    -0.047 A 
ATOM      6  C4  UNL d   1       3.326  -5.973  -3.506  0.00  0.00    -0.004 A 
ENDROOT
TORSDOF 0
ENDMDL
