MODEL 1
REMARK minimizedAffinity 15.0839691
REMARK minimizedRMSD -1
REMARK  0 active torsions:
REMARK  status: ('A' for Active; 'I' for Inactive)
ROOT
ATOM      1  N1  IND d   1      -1.654  -2.149  -2.905  0.00  0.00    -0.196 N 
ATOM      2  C2  IND d   1      -0.596  -2.537  -3.681  0.00  0.00     0.054 A 
ATOM      3  C3  IND d   1       0.410  -3.001  -2.906  0.00  0.00    -0.031 A 
ATOM      4  C4  IND d   1       0.498  -3.309  -0.351  0.00  0.00     0.051 A 
ATOM      5  C5  IND d   1      -0.215  -3.063   0.789  0.00  0.00    -0.031 A 
ATOM      6  C6  IND d   1      -1.470  -2.491   0.755  0.00  0.00     0.015 A 
ATOM      7  C7  IND d   1      -2.066  -2.152  -0.427  0.00  0.00    -0.016 A 
ATOM      8  C8  IND d   1      -1.343  -2.394  -1.586  0.00  0.00    -0.047 A 
ATOM      9  C9  IND d   1      -0.051  -2.936  -1.555  0.00  0.00    -0.096 A 
ATOM     10  HN1 IND d   1      -2.389  -1.810  -3.194  0.00  0.00     0.298 HD
ENDROOT
TORSDOF 0
ENDMDL
