MODEL 1
REMARK minimizedAffinity 14.0748901
REMARK minimizedRMSD -1
REMARK  0 active torsions:
REMARK  status: ('A' for Active; 'I' for Inactive)
ROOT
ATOM      1  N1  IND d   1       2.087   5.090   0.553  0.00  0.00    -0.196 N 
ATOM      2  C2  IND d   1       0.725   5.143   0.656  0.00  0.00     0.054 A 
ATOM      3  C3  IND d   1       0.176   5.479  -0.533  0.00  0.00    -0.031 A 
ATOM      4  C4  IND d   1       1.318   5.887  -2.804  0.00  0.00     0.051 A 
ATOM      5  C5  IND d   1       2.550   5.987  -3.388  0.00  0.00    -0.031 A 
ATOM      6  C6  IND d   1       3.714   5.786  -2.674  0.00  0.00     0.015 A 
ATOM      7  C7  IND d   1       3.688   5.465  -1.346  0.00  0.00    -0.016 A 
ATOM      8  C8  IND d   1       2.440   5.370  -0.748  0.00  0.00    -0.047 A 
ATOM      9  C9  IND d   1       1.257   5.614  -1.458  0.00  0.00    -0.096 A 
ATOM     10  HN1 IND d   1       2.631   4.911   1.194  0.00  0.00     0.298 HD
ENDROOT
TORSDOF 0
ENDMDL
