MODEL 1
REMARK minimizedAffinity 10.2507811
REMARK minimizedRMSD -1
REMARK  0 active torsions:
REMARK  status: ('A' for Active; 'I' for Inactive)
ROOT
ATOM      1  N1  IND d   1      -1.080  -1.569  -2.333  0.00  0.00    -0.196 N 
ATOM      2  C2  IND d   1       0.039  -1.994  -2.994  0.00  0.00     0.054 A 
ATOM      3  C3  IND d   1       0.858  -2.663  -2.150  0.00  0.00    -0.031 A 
ATOM      4  C4  IND d   1       0.514  -3.265   0.329  0.00  0.00     0.051 A 
ATOM      5  C5  IND d   1      -0.338  -3.063   1.378  0.00  0.00    -0.031 A 
ATOM      6  C6  IND d   1      -1.505  -2.340   1.241  0.00  0.00     0.015 A 
ATOM      7  C7  IND d   1      -1.872  -1.800   0.041  0.00  0.00    -0.016 A 
ATOM      8  C8  IND d   1      -1.006  -1.997  -1.025  0.00  0.00    -0.047 A 
ATOM      9  C9  IND d   1       0.201  -2.694  -0.882  0.00  0.00    -0.096 A 
ATOM     10  HN1 IND d   1      -1.722  -1.112  -2.676  0.00  0.00     0.298 HD
ENDROOT
TORSDOF 0
ENDMDL
