MODEL 1
REMARK minimizedAffinity 18.6630821
REMARK minimizedRMSD -1
REMARK  0 active torsions:
REMARK  status: ('A' for Active; 'I' for Inactive)
ROOT
ATOM      1  N1  IND d   1       6.000  -4.958  -3.608  0.00  0.00    -0.196 N 
ATOM      2  C2  IND d   1       5.996  -5.773  -2.511  0.00  0.00     0.054 A 
ATOM      3  C3  IND d   1       4.729  -6.000  -2.098  0.00  0.00    -0.031 A 
ATOM      4  C4  IND d   1       2.506  -5.217  -3.133  0.00  0.00     0.051 A 
ATOM      5  C5  IND d   1       2.000  -4.421  -4.122  0.00  0.00    -0.031 A 
ATOM      6  C6  IND d   1       2.818  -3.753  -5.011  0.00  0.00     0.015 A 
ATOM      7  C7  IND d   1       4.178  -3.864  -4.949  0.00  0.00    -0.016 A 
ATOM      8  C8  IND d   1       4.696  -4.665  -3.941  0.00  0.00    -0.047 A 
ATOM      9  C9  IND d   1       3.872  -5.312  -3.011  0.00  0.00    -0.096 A 
ATOM     10  HN1 IND d   1       6.699  -4.675  -4.020  0.00  0.00     0.298 HD
ENDROOT
TORSDOF 0
ENDMDL
