MODEL 1
REMARK minimizedAffinity 21.8651791
REMARK minimizedRMSD -1
REMARK  0 active torsions:
REMARK  status: ('A' for Active; 'I' for Inactive)
ROOT
ATOM      1  N1  IND d   1       0.554  -1.621  -3.189  0.00  0.00    -0.196 N 
ATOM      2  C2  IND d   1      -0.678  -1.646  -2.598  0.00  0.00     0.054 A 
ATOM      3  C3  IND d   1      -0.964  -2.891  -2.156  0.00  0.00    -0.031 A 
ATOM      4  C4  IND d   1       0.489  -5.016  -2.204  0.00  0.00     0.051 A 
ATOM      5  C5  IND d   1       1.678  -5.498  -2.674  0.00  0.00    -0.031 A 
ATOM      6  C6  IND d   1       2.573  -4.695  -3.351  0.00  0.00     0.015 A 
ATOM      7  C7  IND d   1       2.316  -3.372  -3.574  0.00  0.00    -0.016 A 
ATOM      8  C8  IND d   1       1.106  -2.881  -3.104  0.00  0.00    -0.047 A 
ATOM      9  C9  IND d   1       0.175  -3.701  -2.454  0.00  0.00    -0.096 A 
ATOM     10  HN1 IND d   1       0.923  -0.935  -3.552  0.00  0.00     0.298 HD
ENDROOT
TORSDOF 0
ENDMDL
