MODEL 1
REMARK minimizedAffinity 11.9397984
REMARK minimizedRMSD -1
REMARK  0 active torsions:
REMARK  status: ('A' for Active; 'I' for Inactive)
ROOT
ATOM      1  N1  IND d   1      -2.997  -2.977  -3.179  0.00  0.00    -0.196 N 
ATOM      2  C2  IND d   1      -1.904  -2.358  -3.719  0.00  0.00     0.054 A 
ATOM      3  C3  IND d   1      -1.495  -3.010  -4.830  0.00  0.00    -0.031 A 
ATOM      4  C4  IND d   1      -2.531  -5.056  -6.000  0.00  0.00     0.051 A 
ATOM      5  C5  IND d   1      -3.517  -5.992  -5.860  0.00  0.00    -0.031 A 
ATOM      6  C6  IND d   1      -4.400  -5.969  -4.800  0.00  0.00     0.015 A 
ATOM      7  C7  IND d   1      -4.336  -4.998  -3.841  0.00  0.00    -0.016 A 
ATOM      8  C8  IND d   1      -3.331  -4.050  -3.976  0.00  0.00    -0.047 A 
ATOM      9  C9  IND d   1      -2.406  -4.093  -5.027  0.00  0.00    -0.096 A 
ATOM     10  HN1 IND d   1      -3.406  -2.737  -2.462  0.00  0.00     0.298 HD
ENDROOT
TORSDOF 0
ENDMDL
