MODEL 1
REMARK minimizedAffinity 17.3065453
REMARK minimizedRMSD -1
REMARK  0 active torsions:
REMARK  status: ('A' for Active; 'I' for Inactive)
ROOT
ATOM      1  N1  IND d   1      -2.414  -2.618  -2.747  0.00  0.00    -0.196 N 
ATOM      2  C2  IND d   1      -1.154  -2.696  -3.270  0.00  0.00     0.054 A 
ATOM      3  C3  IND d   1      -0.230  -2.514  -2.300  0.00  0.00    -0.031 A 
ATOM      4  C4  IND d   1      -0.560  -2.175   0.230  0.00  0.00     0.051 A 
ATOM      5  C5  IND d   1      -1.530  -1.996   1.176  0.00  0.00    -0.031 A 
ATOM      6  C6  IND d   1      -2.873  -2.019   0.856  0.00  0.00     0.015 A 
ATOM      7  C7  IND d   1      -3.296  -2.234  -0.425  0.00  0.00    -0.016 A 
ATOM      8  C8  IND d   1      -2.313  -2.408  -1.389  0.00  0.00    -0.047 A 
ATOM      9  C9  IND d   1      -0.949  -2.343  -1.077  0.00  0.00    -0.096 A 
ATOM     10  HN1 IND d   1      -3.147  -2.688  -3.191  0.00  0.00     0.298 HD
ENDROOT
TORSDOF 0
ENDMDL
