MODEL 1
REMARK minimizedAffinity 9.80066776
REMARK minimizedRMSD -1
REMARK  0 active torsions:
REMARK  status: ('A' for Active; 'I' for Inactive)
ROOT
ATOM      1  N1  IND d   1      -3.083  -1.830  -2.554  0.00  0.00    -0.196 N 
ATOM      2  C2  IND d   1      -2.043  -1.418  -1.768  0.00  0.00     0.054 A 
ATOM      3  C3  IND d   1      -0.876  -1.521  -2.442  0.00  0.00    -0.031 A 
ATOM      4  C4  IND d   1      -0.449  -2.243  -4.876  0.00  0.00     0.051 A 
ATOM      5  C5  IND d   1      -1.083  -2.744  -5.978  0.00  0.00    -0.031 A 
ATOM      6  C6  IND d   1      -2.445  -2.968  -5.996  0.00  0.00     0.015 A 
ATOM      7  C7  IND d   1      -3.228  -2.687  -4.912  0.00  0.00    -0.016 A 
ATOM      8  C8  IND d   1      -2.586  -2.185  -3.789  0.00  0.00    -0.047 A 
ATOM      9  C9  IND d   1      -1.198  -1.995  -3.750  0.00  0.00    -0.096 A 
ATOM     10  HN1 IND d   1      -3.909  -1.862  -2.317  0.00  0.00     0.298 HD
ENDROOT
TORSDOF 0
ENDMDL
