MODEL 1
REMARK minimizedAffinity 17.3514252
REMARK minimizedRMSD -1
REMARK  0 active torsions:
REMARK  status: ('A' for Active; 'I' for Inactive)
ROOT
ATOM      1  N1  IND d   1      -2.611  -2.314  -2.895  0.00  0.00    -0.196 N 
ATOM      2  C2  IND d   1      -1.506  -1.810  -2.268  0.00  0.00     0.054 A 
ATOM      3  C3  IND d   1      -0.383  -2.191  -2.915  0.00  0.00    -0.031 A 
ATOM      4  C4  IND d   1      -0.128  -3.558  -5.082  0.00  0.00     0.051 A 
ATOM      5  C5  IND d   1      -0.851  -4.267  -6.000  0.00  0.00    -0.031 A 
ATOM      6  C6  IND d   1      -2.226  -4.361  -5.930  0.00  0.00     0.015 A 
ATOM      7  C7  IND d   1      -2.933  -3.737  -4.941  0.00  0.00    -0.016 A 
ATOM      8  C8  IND d   1      -2.201  -3.022  -4.004  0.00  0.00    -0.047 A 
ATOM      9  C9  IND d   1      -0.803  -2.958  -4.045  0.00  0.00    -0.096 A 
ATOM     10  HN1 IND d   1      -3.426  -2.206  -2.641  0.00  0.00     0.298 HD
ENDROOT
TORSDOF 0
ENDMDL
