MODEL 1
REMARK minimizedAffinity 8.6748724
REMARK minimizedRMSD -1
REMARK  0 active torsions:
REMARK  status: ('A' for Active; 'I' for Inactive)
ROOT
ATOM      1  N1  IND d   1       5.987   3.813  -1.701  0.00  0.00    -0.196 N 
ATOM      2  C2  IND d   1       5.974   5.074  -1.174  0.00  0.00     0.054 A 
ATOM      3  C3  IND d   1       5.977   5.997  -2.162  0.00  0.00    -0.031 A 
ATOM      4  C4  IND d   1       5.899   5.661  -4.713  0.00  0.00     0.051 A 
ATOM      5  C5  IND d   1       5.936   4.689  -5.674  0.00  0.00    -0.031 A 
ATOM      6  C6  IND d   1       5.990   3.348  -5.352  0.00  0.00     0.015 A 
ATOM      7  C7  IND d   1       5.998   2.927  -4.053  0.00  0.00    -0.016 A 
ATOM      8  C8  IND d   1       5.967   3.911  -3.075  0.00  0.00    -0.047 A 
ATOM      9  C9  IND d   1       5.955   5.275  -3.395  0.00  0.00    -0.096 A 
ATOM     10  HN1 IND d   1       6.004   3.081  -1.250  0.00  0.00     0.298 HD
ENDROOT
TORSDOF 0
ENDMDL
