MODEL 1
REMARK minimizedAffinity 0.579231262
REMARK minimizedRMSD -1
REMARK  0 active torsions:
REMARK  status: ('A' for Active; 'I' for Inactive)
ROOT
ATOM      1  N1  IND d   1       5.983   5.996  -2.462  0.00  0.00    -0.196 N 
ATOM      2  C2  IND d   1       5.962   5.047  -1.478  0.00  0.00     0.054 A 
ATOM      3  C3  IND d   1       5.906   3.809  -2.018  0.00  0.00    -0.031 A 
ATOM      4  C4  IND d   1       5.941   3.103  -4.494  0.00  0.00     0.051 A 
ATOM      5  C5  IND d   1       5.918   3.615  -5.761  0.00  0.00    -0.031 A 
ATOM      6  C6  IND d   1       5.918   4.974  -5.997  0.00  0.00     0.015 A 
ATOM      7  C7  IND d   1       5.953   5.876  -4.972  0.00  0.00    -0.016 A 
ATOM      8  C8  IND d   1       5.969   5.360  -3.684  0.00  0.00    -0.047 A 
ATOM      9  C9  IND d   1       5.926   3.982  -3.436  0.00  0.00    -0.096 A 
ATOM     10  HN1 IND d   1       6.001   6.846  -2.339  0.00  0.00     0.298 HD
ENDROOT
TORSDOF 0
ENDMDL
