MODEL 1
REMARK minimizedAffinity 14.9410849
REMARK minimizedRMSD -1
REMARK  0 active torsions:
REMARK  status: ('A' for Active; 'I' for Inactive)
ROOT
ATOM      1  N1  IND d   1       5.995   3.290  -3.792  0.00  0.00    -0.196 N 
ATOM      2  C2  IND d   1       5.048   2.357  -4.110  0.00  0.00     0.054 A 
ATOM      3  C3  IND d   1       3.899   2.607  -3.445  0.00  0.00    -0.031 A 
ATOM      4  C4  IND d   1       3.316   4.551  -1.861  0.00  0.00     0.051 A 
ATOM      5  C5  IND d   1       3.868   5.634  -1.236  0.00  0.00    -0.031 A 
ATOM      6  C6  IND d   1       5.183   6.000  -1.437  0.00  0.00     0.015 A 
ATOM      7  C7  IND d   1       5.996   5.300  -2.284  0.00  0.00    -0.016 A 
ATOM      8  C8  IND d   1       5.441   4.195  -2.914  0.00  0.00    -0.047 A 
ATOM      9  C9  IND d   1       4.119   3.794  -2.681  0.00  0.00    -0.096 A 
ATOM     10  HN1 IND d   1       6.802   3.308  -4.089  0.00  0.00     0.298 HD
ENDROOT
TORSDOF 0
ENDMDL
