MODEL 1
REMARK minimizedAffinity 9.52734756
REMARK minimizedRMSD -1
REMARK  0 active torsions:
REMARK  status: ('A' for Active; 'I' for Inactive)
ROOT
ATOM      1  N1  IND d   1       6.000   4.458  -5.332  0.00  0.00    -0.196 N 
ATOM      2  C2  IND d   1       5.914   3.102  -5.485  0.00  0.00     0.054 A 
ATOM      3  C3  IND d   1       5.566   2.519  -4.316  0.00  0.00    -0.031 A 
ATOM      4  C4  IND d   1       4.990   3.603  -2.053  0.00  0.00     0.051 A 
ATOM      5  C5  IND d   1       4.962   4.811  -1.414  0.00  0.00    -0.031 A 
ATOM      6  C6  IND d   1       5.283   5.986  -2.061  0.00  0.00     0.015 A 
ATOM      7  C7  IND d   1       5.634   6.000  -3.381  0.00  0.00    -0.016 A 
ATOM      8  C8  IND d   1       5.670   4.775  -4.032  0.00  0.00    -0.047 A 
ATOM      9  C9  IND d   1       5.387   3.574  -3.370  0.00  0.00    -0.096 A 
ATOM     10  HN1 IND d   1       6.223   5.019  -5.944  0.00  0.00     0.298 HD
ENDROOT
TORSDOF 0
ENDMDL
