MODEL 1
REMARK minimizedAffinity 13.2974606
REMARK minimizedRMSD -1
REMARK  0 active torsions:
REMARK  status: ('A' for Active; 'I' for Inactive)
ROOT
ATOM      1  N1  IND d   1      -1.798  -2.165  -3.113  0.00  0.00    -0.196 N 
ATOM      2  C2  IND d   1      -0.920  -2.880  -3.879  0.00  0.00     0.054 A 
ATOM      3  C3  IND d   1       0.025  -3.453  -3.100  0.00  0.00    -0.031 A 
ATOM      4  C4  IND d   1       0.263  -3.434  -0.537  0.00  0.00     0.051 A 
ATOM      5  C5  IND d   1      -0.279  -2.885   0.591  0.00  0.00    -0.031 A 
ATOM      6  C6  IND d   1      -1.379  -2.054   0.542  0.00  0.00     0.015 A 
ATOM      7  C7  IND d   1      -1.988  -1.748  -0.643  0.00  0.00    -0.016 A 
ATOM      8  C8  IND d   1      -1.436  -2.298  -1.791  0.00  0.00    -0.047 A 
ATOM      9  C9  IND d   1      -0.294  -3.108  -1.751  0.00  0.00    -0.096 A 
ATOM     10  HN1 IND d   1      -2.465  -1.709  -3.408  0.00  0.00     0.298 HD
ENDROOT
TORSDOF 0
ENDMDL
