MODEL 1
REMARK minimizedAffinity 22.3046989
REMARK minimizedRMSD -1
REMARK  0 active torsions:
REMARK  status: ('A' for Active; 'I' for Inactive)
ROOT
ATOM      1  N1  IND d   1       1.591  -3.726  -3.843  0.00  0.00    -0.196 N 
ATOM      2  C2  IND d   1       2.896  -3.655  -3.442  0.00  0.00     0.054 A 
ATOM      3  C3  IND d   1       3.003  -2.915  -2.316  0.00  0.00    -0.031 A 
ATOM      4  C4  IND d   1       1.155  -1.809  -0.904  0.00  0.00     0.051 A 
ATOM      5  C5  IND d   1      -0.190  -1.567  -0.890  0.00  0.00    -0.031 A 
ATOM      6  C6  IND d   1      -1.027  -2.044  -1.878  0.00  0.00     0.015 A 
ATOM      7  C7  IND d   1      -0.550  -2.794  -2.915  0.00  0.00    -0.016 A 
ATOM      8  C8  IND d   1       0.816  -3.036  -2.937  0.00  0.00    -0.047 A 
ATOM      9  C9  IND d   1       1.677  -2.519  -1.960  0.00  0.00    -0.096 A 
ATOM     10  HN1 IND d   1       1.303  -4.132  -4.544  0.00  0.00     0.298 HD
ENDROOT
TORSDOF 0
ENDMDL
