MODEL 1
REMARK minimizedAffinity 12.1549129
REMARK minimizedRMSD -1
REMARK  0 active torsions:
REMARK  status: ('A' for Active; 'I' for Inactive)
ROOT
ATOM      1  N1  IND d   1       5.296  -5.123   4.442  0.00  0.00    -0.196 N 
ATOM      2  C2  IND d   1       5.999  -4.842   5.581  0.00  0.00     0.054 A 
ATOM      3  C3  IND d   1       5.733  -3.585   6.000  0.00  0.00    -0.031 A 
ATOM      4  C4  IND d   1       4.098  -1.849   5.030  0.00  0.00     0.051 A 
ATOM      5  C5  IND d   1       3.258  -1.633   3.974  0.00  0.00    -0.031 A 
ATOM      6  C6  IND d   1       3.048  -2.590   3.002  0.00  0.00     0.015 A 
ATOM      7  C7  IND d   1       3.664  -3.808   3.056  0.00  0.00    -0.016 A 
ATOM      8  C8  IND d   1       4.524  -4.028   4.123  0.00  0.00    -0.047 A 
ATOM      9  C9  IND d   1       4.774  -3.045   5.090  0.00  0.00    -0.096 A 
ATOM     10  HN1 IND d   1       5.331  -5.860   4.000  0.00  0.00     0.298 HD
ENDROOT
TORSDOF 0
ENDMDL
