MODEL 1
REMARK minimizedAffinity 17.4229298
REMARK minimizedRMSD -1
REMARK  0 active torsions:
REMARK  status: ('A' for Active; 'I' for Inactive)
ROOT
ATOM      1  N1  IND d   1       5.358   4.818  -0.953  0.00  0.00    -0.196 N 
ATOM      2  C2  IND d   1       6.000   5.600  -1.872  0.00  0.00     0.054 A 
ATOM      3  C3  IND d   1       5.138   5.999  -2.834  0.00  0.00    -0.031 A 
ATOM      4  C4  IND d   1       2.607   5.573  -3.042  0.00  0.00     0.051 A 
ATOM      5  C5  IND d   1       1.580   4.883  -2.462  0.00  0.00    -0.031 A 
ATOM      6  C6  IND d   1       1.763   4.123  -1.325  0.00  0.00     0.015 A 
ATOM      7  C7  IND d   1       2.983   4.033  -0.716  0.00  0.00    -0.016 A 
ATOM      8  C8  IND d   1       4.030   4.727  -1.306  0.00  0.00    -0.047 A 
ATOM      9  C9  IND d   1       3.860   5.465  -2.484  0.00  0.00    -0.096 A 
ATOM     10  HN1 IND d   1       5.723   4.446  -0.269  0.00  0.00     0.298 HD
ENDROOT
TORSDOF 0
ENDMDL
