MODEL 1
REMARK minimizedAffinity 11.522438
REMARK minimizedRMSD -1
REMARK  0 active torsions:
REMARK  status: ('A' for Active; 'I' for Inactive)
ROOT
ATOM      1  N1  IND d   1       5.357  -4.419   4.941  0.00  0.00    -0.196 N 
ATOM      2  C2  IND d   1       5.974  -3.730   5.948  0.00  0.00     0.054 A 
ATOM      3  C3  IND d   1       5.514  -2.460   6.000  0.00  0.00    -0.031 A 
ATOM      4  C4  IND d   1       3.677  -1.327   4.597  0.00  0.00     0.051 A 
ATOM      5  C5  IND d   1       2.849  -1.542   3.531  0.00  0.00    -0.031 A 
ATOM      6  C6  IND d   1       2.812  -2.753   2.869  0.00  0.00     0.015 A 
ATOM      7  C7  IND d   1       3.597  -3.801   3.257  0.00  0.00    -0.016 A 
ATOM      8  C8  IND d   1       4.444  -3.584   4.335  0.00  0.00    -0.047 A 
ATOM      9  C9  IND d   1       4.517  -2.345   4.984  0.00  0.00    -0.096 A 
ATOM     10  HN1 IND d   1       5.512  -5.236   4.724  0.00  0.00     0.298 HD
ENDROOT
TORSDOF 0
ENDMDL
