MODEL 1
REMARK minimizedAffinity 17.8382244
REMARK minimizedRMSD -1
REMARK  0 active torsions:
REMARK  status: ('A' for Active; 'I' for Inactive)
ROOT
ATOM      1  N1  IND d   1      -3.793   0.718   0.960  0.00  0.00    -0.196 N 
ATOM      2  C2  IND d   1      -3.299   1.942   0.606  0.00  0.00     0.054 A 
ATOM      3  C3  IND d   1      -2.116   1.804  -0.034  0.00  0.00    -0.031 A 
ATOM      4  C4  IND d   1      -0.857  -0.340  -0.701  0.00  0.00     0.051 A 
ATOM      5  C5  IND d   1      -0.896  -1.699  -0.563  0.00  0.00    -0.031 A 
ATOM      6  C6  IND d   1      -1.926  -2.335   0.101  0.00  0.00     0.015 A 
ATOM      7  C7  IND d   1      -2.965  -1.633   0.643  0.00  0.00    -0.016 A 
ATOM      8  C8  IND d   1      -2.924  -0.252   0.512  0.00  0.00    -0.047 A 
ATOM      9  C9  IND d   1      -1.860   0.402  -0.123  0.00  0.00    -0.096 A 
ATOM     10  HN1 IND d   1      -4.524   0.578   1.390  0.00  0.00     0.298 HD
ENDROOT
TORSDOF 0
ENDMDL
