MODEL 1
REMARK minimizedAffinity 8.22216225
REMARK minimizedRMSD -1
REMARK  0 active torsions:
REMARK  status: ('A' for Active; 'I' for Inactive)
ROOT
ATOM      1  N1  IND d   1       3.283   6.000  -4.817  0.00  0.00    -0.196 N 
ATOM      2  C2  IND d   1       1.981   5.929  -4.406  0.00  0.00     0.054 A 
ATOM      3  C3  IND d   1       1.918   5.830  -3.059  0.00  0.00    -0.031 A 
ATOM      4  C4  IND d   1       3.822   5.869  -1.326  0.00  0.00     0.051 A 
ATOM      5  C5  IND d   1       5.184   5.883  -1.222  0.00  0.00    -0.031 A 
ATOM      6  C6  IND d   1       5.999   5.940  -2.334  0.00  0.00     0.015 A 
ATOM      7  C7  IND d   1       5.479   5.998  -3.596  0.00  0.00    -0.016 A 
ATOM      8  C8  IND d   1       4.096   5.977  -3.706  0.00  0.00    -0.047 A 
ATOM      9  C9  IND d   1       3.265   5.875  -2.583  0.00  0.00    -0.096 A 
ATOM     10  HN1 IND d   1       3.549   6.050  -5.633  0.00  0.00     0.298 HD
ENDROOT
TORSDOF 0
ENDMDL
