MODEL 1
REMARK minimizedAffinity -2.40415668
REMARK minimizedRMSD -1
REMARK  1 active torsions:
REMARK  status: ('A' for Active; 'I' for Inactive)
REMARK    1  A    between atoms: N_2  and  C1_3 
ROOT
ATOM      1  C1  UNL d   1       1.487  -1.055  -0.010  0.00  0.00     0.143 A 
ATOM      2  C2  UNL d   1       0.774   0.101   0.324  0.00  0.00    -0.057 A 
ATOM      3  C3  UNL d   1       1.333   1.087   1.145  0.00  0.00     0.033 A 
ATOM      4  C4  UNL d   1       2.610   0.920   1.672  0.00  0.00    -0.042 A 
ATOM      5  C5  UNL d   1       3.327  -0.233   1.374  0.00  0.00     0.033 A 
ATOM      6  C6  UNL d   1       2.766  -1.211   0.548  0.00  0.00    -0.057 A 
ENDROOT
BRANCH   1   7
ATOM      7  N   UNL d   1       0.949  -2.117  -0.741  0.00  0.00    -0.732 N 
ATOM      8  C   UNL d   1       0.604  -3.362  -0.088  0.00  0.00     0.284 C 
ATOM      9  H3  UNL d   1       0.268  -1.808  -1.432  0.00  0.00     0.395 HD
ENDBRANCH   1   7
TORSDOF 1
ENDMDL
