MODEL 1
REMARK minimizedAffinity -4.39414072
REMARK minimizedRMSD -1
REMARK  1 active torsions:
REMARK  status: ('A' for Active; 'I' for Inactive)
REMARK    1  A    between atoms: N_2  and  C1_3 
ROOT
ATOM      1  C1  UNL d   1      -1.226  -0.249   0.307  0.00  0.00     0.143 A 
ATOM      2  C2  UNL d   1      -0.642  -1.441   0.749  0.00  0.00    -0.057 A 
ATOM      3  C3  UNL d   1       0.727  -1.518   1.030  0.00  0.00     0.033 A 
ATOM      4  C4  UNL d   1       1.545  -0.408   0.847  0.00  0.00    -0.042 A 
ATOM      5  C5  UNL d   1       0.991   0.781   0.385  0.00  0.00     0.033 A 
ATOM      6  C6  UNL d   1      -0.379   0.853   0.112  0.00  0.00    -0.057 A 
ENDROOT
BRANCH   1   7
ATOM      7  N   UNL d   1      -2.562  -0.135  -0.084  0.00  0.00    -0.732 N 
ATOM      8  C   UNL d   1      -2.905   0.246  -1.437  0.00  0.00     0.284 C 
ATOM      9  H3  UNL d   1      -3.143  -0.878   0.298  0.00  0.00     0.395 HD
ENDBRANCH   1   7
TORSDOF 1
ENDMDL
