MODEL 1
REMARK minimizedAffinity -2.35987544
REMARK minimizedRMSD -1
REMARK  1 active torsions:
REMARK  status: ('A' for Active; 'I' for Inactive)
REMARK    1  A    between atoms: N_2  and  C1_3 
ROOT
ATOM      1  C1  UNL d   1      -3.348   1.818  -3.001  0.00  0.00     0.143 A 
ATOM      2  C2  UNL d   1      -3.064   1.560  -1.656  0.00  0.00    -0.057 A 
ATOM      3  C3  UNL d   1      -2.689   0.282  -1.225  0.00  0.00     0.033 A 
ATOM      4  C4  UNL d   1      -2.620  -0.771  -2.130  0.00  0.00    -0.042 A 
ATOM      5  C5  UNL d   1      -2.922  -0.544  -3.468  0.00  0.00     0.033 A 
ATOM      6  C6  UNL d   1      -3.290   0.736  -3.894  0.00  0.00    -0.057 A 
ENDROOT
BRANCH   1   7
ATOM      7  N   UNL d   1      -3.822   3.044  -3.475  0.00  0.00    -0.732 N 
ATOM      8  C   UNL d   1      -4.458   3.985  -2.578  0.00  0.00     0.284 C 
ATOM      9  H3  UNL d   1      -3.187   3.473  -4.145  0.00  0.00     0.395 HD
ENDBRANCH   1   7
TORSDOF 1
ENDMDL
