MODEL 1
REMARK minimizedAffinity -3.84299159
REMARK minimizedRMSD -1
REMARK  1 active torsions:
REMARK  status: ('A' for Active; 'I' for Inactive)
REMARK    1  A    between atoms: N_2  and  C1_3 
ROOT
ATOM      1  C1  UNL d   1      -0.785  -0.183  -0.497  0.00  0.00     0.143 A 
ATOM      2  C2  UNL d   1       0.297  -0.910   0.010  0.00  0.00    -0.057 A 
ATOM      3  C3  UNL d   1       1.387  -0.266   0.609  0.00  0.00     0.033 A 
ATOM      4  C4  UNL d   1       1.427   1.122   0.686  0.00  0.00    -0.042 A 
ATOM      5  C5  UNL d   1       0.373   1.866   0.166  0.00  0.00     0.033 A 
ATOM      6  C6  UNL d   1      -0.716   1.217  -0.424  0.00  0.00    -0.057 A 
ENDROOT
BRANCH   1   7
ATOM      7  N   UNL d   1      -1.852  -0.759  -1.192  0.00  0.00    -0.732 N 
ATOM      8  C   UNL d   1      -2.535  -0.024  -2.234  0.00  0.00     0.284 C 
ATOM      9  H3  UNL d   1      -1.688  -1.738  -1.413  0.00  0.00     0.395 HD
ENDBRANCH   1   7
TORSDOF 1
ENDMDL
