MODEL 1
REMARK minimizedAffinity -4.01118565
REMARK minimizedRMSD -1
REMARK  1 active torsions:
REMARK  status: ('A' for Active; 'I' for Inactive)
REMARK    1  A    between atoms: N_2  and  C1_3 
ROOT
ATOM      1  C1  UNL d   1      -0.240   0.396  -0.182  0.00  0.00     0.143 A 
ATOM      2  C2  UNL d   1       0.233   1.711  -0.243  0.00  0.00    -0.057 A 
ATOM      3  C3  UNL d   1       1.538   2.032   0.151  0.00  0.00     0.033 A 
ATOM      4  C4  UNL d   1       2.385   1.045   0.642  0.00  0.00    -0.042 A 
ATOM      5  C5  UNL d   1       1.928  -0.265   0.735  0.00  0.00     0.033 A 
ATOM      6  C6  UNL d   1       0.626  -0.580   0.334  0.00  0.00    -0.057 A 
ENDROOT
BRANCH   1   7
ATOM      7  N   UNL d   1      -1.558   0.030  -0.466  0.00  0.00    -0.732 N 
ATOM      8  C   UNL d   1      -2.006  -0.110  -1.835  0.00  0.00     0.284 C 
ATOM      9  H3  UNL d   1      -1.904  -0.694   0.160  0.00  0.00     0.395 HD
ENDBRANCH   1   7
TORSDOF 1
ENDMDL
