MODEL 1
REMARK minimizedAffinity -5.4025898
REMARK minimizedRMSD -1
REMARK  1 active torsions:
REMARK  status: ('A' for Active; 'I' for Inactive)
REMARK    1  A    between atoms: N_2  and  C1_3 
ROOT
ATOM      1  C1  UNL d   1       0.095   0.140   0.315  0.00  0.00     0.143 A 
ATOM      2  C2  UNL d   1       0.725  -1.064   0.645  0.00  0.00    -0.057 A 
ATOM      3  C3  UNL d   1       2.108  -1.126   0.858  0.00  0.00     0.033 A 
ATOM      4  C4  UNL d   1       2.891   0.014   0.717  0.00  0.00    -0.042 A 
ATOM      5  C5  UNL d   1       2.290   1.218   0.366  0.00  0.00     0.033 A 
ATOM      6  C6  UNL d   1       0.908   1.274   0.160  0.00  0.00    -0.057 A 
ENDROOT
BRANCH   1   7
ATOM      7  N   UNL d   1      -1.260   0.247  -0.006  0.00  0.00    -0.732 N 
ATOM      8  C   UNL d   1      -1.752  -0.206  -1.289  0.00  0.00     0.284 C 
ATOM      9  H3  UNL d   1      -1.865   0.011   0.778  0.00  0.00     0.395 HD
ENDBRANCH   1   7
TORSDOF 1
ENDMDL
