MODEL 1
REMARK minimizedAffinity -3.73391938
REMARK minimizedRMSD -1
REMARK  1 active torsions:
REMARK  status: ('A' for Active; 'I' for Inactive)
REMARK    1  A    between atoms: N_2  and  C1_3 
ROOT
ATOM      1  C1  UNL d   1      -0.130  -0.195   0.346  0.00  0.00     0.143 A 
ATOM      2  C2  UNL d   1       0.131  -1.569   0.354  0.00  0.00    -0.057 A 
ATOM      3  C3  UNL d   1       1.433  -2.060   0.509  0.00  0.00     0.033 A 
ATOM      4  C4  UNL d   1       2.505  -1.181   0.628  0.00  0.00    -0.042 A 
ATOM      5  C5  UNL d   1       2.271   0.190   0.598  0.00  0.00     0.033 A 
ATOM      6  C6  UNL d   1       0.968   0.674   0.450  0.00  0.00    -0.057 A 
ENDROOT
BRANCH   1   7
ATOM      7  N   UNL d   1      -1.390   0.356   0.098  0.00  0.00    -0.732 N 
ATOM      8  C   UNL d   1      -1.936   0.373  -1.243  0.00  0.00     0.284 C 
ATOM      9  H3  UNL d   1      -2.067   0.119   0.819  0.00  0.00     0.395 HD
ENDBRANCH   1   7
TORSDOF 1
ENDMDL
