MODEL 1
REMARK minimizedAffinity -4.88046646
REMARK minimizedRMSD -1
REMARK  1 active torsions:
REMARK  status: ('A' for Active; 'I' for Inactive)
REMARK    1  A    between atoms: N_2  and  C1_3 
ROOT
ATOM      1  C1  UNL d   1       0.089   0.024   0.227  0.00  0.00     0.143 A 
ATOM      2  C2  UNL d   1       0.575  -1.262   0.488  0.00  0.00    -0.057 A 
ATOM      3  C3  UNL d   1       1.928  -1.483   0.771  0.00  0.00     0.033 A 
ATOM      4  C4  UNL d   1       2.828  -0.422   0.769  0.00  0.00    -0.042 A 
ATOM      5  C5  UNL d   1       2.372   0.861   0.488  0.00  0.00     0.033 A 
ATOM      6  C6  UNL d   1       1.018   1.076   0.213  0.00  0.00    -0.057 A 
ENDROOT
BRANCH   1   7
ATOM      7  N   UNL d   1      -1.226   0.295  -0.157  0.00  0.00    -0.732 N 
ATOM      8  C   UNL d   1      -1.676   0.003  -1.502  0.00  0.00     0.284 C 
ATOM      9  H3  UNL d   1      -1.900   0.057   0.567  0.00  0.00     0.395 HD
ENDBRANCH   1   7
TORSDOF 1
ENDMDL
