MODEL 1
REMARK minimizedAffinity -5.03356838
REMARK minimizedRMSD -1
REMARK  1 active torsions:
REMARK  status: ('A' for Active; 'I' for Inactive)
REMARK    1  A    between atoms: N_2  and  C1_3 
ROOT
ATOM      1  C1  UNL d   1       0.602  -0.809   0.358  0.00  0.00     0.143 A 
ATOM      2  C2  UNL d   1       1.569   0.182   0.159  0.00  0.00    -0.057 A 
ATOM      3  C3  UNL d   1       2.841   0.081   0.737  0.00  0.00     0.033 A 
ATOM      4  C4  UNL d   1       3.158  -1.002   1.550  0.00  0.00    -0.042 A 
ATOM      5  C5  UNL d   1       2.204  -1.986   1.782  0.00  0.00     0.033 A 
ATOM      6  C6  UNL d   1       0.938  -1.883   1.197  0.00  0.00    -0.057 A 
ENDROOT
BRANCH   1   7
ATOM      7  N   UNL d   1      -0.712  -0.718  -0.108  0.00  0.00    -0.732 N 
ATOM      8  C   UNL d   1      -1.339   0.573  -0.298  0.00  0.00     0.284 C 
ATOM      9  H3  UNL d   1      -0.909  -1.388  -0.848  0.00  0.00     0.395 HD
ENDBRANCH   1   7
TORSDOF 1
ENDMDL
