MODEL 1
REMARK minimizedAffinity 14.1293964
REMARK minimizedRMSD -1
REMARK  0 active torsions:
REMARK  status: ('A' for Active; 'I' for Inactive)
ROOT
ATOM      1  C4' PXY d   1       1.199   2.093   2.938  0.00  0.00     0.077 C 
ATOM      2  C1' PXY d   1       0.067   5.419  -1.653  0.00  0.00     0.077 C 
ATOM      3  C1  PXY d   1       0.353   4.541  -0.451  0.00  0.00    -0.082 A 
ATOM      4  C2  PXY d   1       1.163   4.976   0.500  0.00  0.00     0.003 A 
ATOM      5  C3  PXY d   1       1.458   4.182   1.578  0.00  0.00     0.003 A 
ATOM      6  C4  PXY d   1       0.875   2.950   1.711  0.00  0.00    -0.082 A 
ATOM      7  C5  PXY d   1       0.039   2.503   0.750  0.00  0.00     0.003 A 
ATOM      8  C6  PXY d   1      -0.215   3.308  -0.357  0.00  0.00     0.003 A 
ENDROOT
TORSDOF 0
ENDMDL
