MODEL 1
REMARK minimizedAffinity 6.26365757
REMARK minimizedRMSD -1
REMARK  0 active torsions:
REMARK  status: ('A' for Active; 'I' for Inactive)
ROOT
ATOM      1  C4' PXY d   1       0.022   5.977  -1.853  0.00  0.00     0.077 C 
ATOM      2  C1' PXY d   1      -0.298   2.723   2.914  0.00  0.00     0.077 C 
ATOM      3  C1  PXY d   1      -0.221   3.586   1.670  0.00  0.00    -0.082 A 
ATOM      4  C2  PXY d   1       0.003   3.020   0.495  0.00  0.00     0.003 A 
ATOM      5  C3  PXY d   1       0.107   3.789  -0.636  0.00  0.00     0.003 A 
ATOM      6  C4  PXY d   1      -0.073   5.145  -0.571  0.00  0.00    -0.082 A 
ATOM      7  C5  PXY d   1      -0.313   5.728   0.622  0.00  0.00     0.003 A 
ATOM      8  C6  PXY d   1      -0.374   4.934   1.764  0.00  0.00     0.003 A 
ENDROOT
TORSDOF 0
ENDMDL
