MODEL 1
REMARK minimizedAffinity 8.51174831
REMARK minimizedRMSD -1
REMARK  0 active torsions:
REMARK  status: ('A' for Active; 'I' for Inactive)
ROOT
ATOM      1  C4' PXY d   1       1.135   6.000  -2.175  0.00  0.00     0.077 C 
ATOM      2  C1' PXY d   1      -0.694   2.274   1.848  0.00  0.00     0.077 C 
ATOM      3  C1  PXY d   1      -0.227   3.252   0.789  0.00  0.00    -0.082 A 
ATOM      4  C2  PXY d   1       1.043   3.255   0.416  0.00  0.00     0.003 A 
ATOM      5  C3  PXY d   1       1.489   4.154  -0.518  0.00  0.00     0.003 A 
ATOM      6  C4  PXY d   1       0.617   5.024  -1.115  0.00  0.00    -0.082 A 
ATOM      7  C5  PXY d   1      -0.682   5.020  -0.748  0.00  0.00     0.003 A 
ATOM      8  C6  PXY d   1      -1.107   4.127   0.232  0.00  0.00     0.003 A 
ENDROOT
TORSDOF 0
ENDMDL
