MODEL 1
REMARK minimizedAffinity 0.961392581
REMARK minimizedRMSD -1
REMARK  0 active torsions:
REMARK  status: ('A' for Active; 'I' for Inactive)
ROOT
ATOM      1  C4' PXY d   1      -0.130  -4.644  -1.481  0.00  0.00     0.077 C 
ATOM      2  C1' PXY d   1       5.591  -4.050  -0.914  0.00  0.00     0.077 C 
ATOM      3  C1  PXY d   1       4.092  -4.208  -1.075  0.00  0.00    -0.082 A 
ATOM      4  C2  PXY d   1       3.276  -3.623  -0.214  0.00  0.00     0.003 A 
ATOM      5  C3  PXY d   1       1.919  -3.782  -0.326  0.00  0.00     0.003 A 
ATOM      6  C4  PXY d   1       1.390  -4.503  -1.362  0.00  0.00    -0.082 A 
ATOM      7  C5  PXY d   1       2.215  -5.095  -2.251  0.00  0.00     0.003 A 
ATOM      8  C6  PXY d   1       3.591  -4.955  -2.096  0.00  0.00     0.003 A 
ENDROOT
TORSDOF 0
ENDMDL
