MODEL 1
REMARK minimizedAffinity 10.5940866
REMARK minimizedRMSD -1
REMARK  0 active torsions:
REMARK  status: ('A' for Active; 'I' for Inactive)
ROOT
ATOM      1  C4' PXY d   1       0.836   0.750   4.520  0.00  0.00     0.077 C 
ATOM      2  C1' PXY d   1      -0.570   4.487   0.340  0.00  0.00     0.077 C 
ATOM      3  C1  PXY d   1      -0.212   3.510   1.442  0.00  0.00    -0.082 A 
ATOM      4  C2  PXY d   1       1.052   3.168   1.628  0.00  0.00     0.003 A 
ATOM      5  C3  PXY d   1       1.390   2.261   2.600  0.00  0.00     0.003 A 
ATOM      6  C4  PXY d   1       0.430   1.740   3.425  0.00  0.00    -0.082 A 
ATOM      7  C5  PXY d   1      -0.861   2.093   3.249  0.00  0.00     0.003 A 
ATOM      8  C6  PXY d   1      -1.188   2.983   2.230  0.00  0.00     0.003 A 
ENDROOT
TORSDOF 0
ENDMDL
