MODEL 1
REMARK minimizedAffinity 14.1202011
REMARK minimizedRMSD -1
REMARK  0 active torsions:
REMARK  status: ('A' for Active; 'I' for Inactive)
ROOT
ATOM      1  C4' PXY d   1       5.952  -5.434   0.218  0.00  0.00     0.077 C 
ATOM      2  C1' PXY d   1       3.356  -0.342  -0.645  0.00  0.00     0.077 C 
ATOM      3  C1  PXY d   1       4.043  -1.676  -0.430  0.00  0.00    -0.082 A 
ATOM      4  C2  PXY d   1       3.484  -2.580   0.358  0.00  0.00     0.003 A 
ATOM      5  C3  PXY d   1       4.108  -3.779   0.589  0.00  0.00     0.003 A 
ATOM      6  C4  PXY d   1       5.289  -4.077  -0.036  0.00  0.00    -0.082 A 
ATOM      7  C5  PXY d   1       5.860  -3.164  -0.850  0.00  0.00     0.003 A 
ATOM      8  C6  PXY d   1       5.231  -1.937  -1.039  0.00  0.00     0.003 A 
ENDROOT
TORSDOF 0
ENDMDL
