MODEL 1
REMARK minimizedAffinity 7.22529602
REMARK minimizedRMSD -1
REMARK  0 active torsions:
REMARK  status: ('A' for Active; 'I' for Inactive)
ROOT
ATOM      1  C4' PXY d   1       0.209   3.632   1.155  0.00  0.00     0.077 C 
ATOM      2  C1' PXY d   1       0.323  -0.441   5.255  0.00  0.00     0.077 C 
ATOM      3  C1  PXY d   1       0.280   0.627   4.180  0.00  0.00    -0.082 A 
ATOM      4  C2  PXY d   1       1.320   0.790   3.378  0.00  0.00     0.003 A 
ATOM      5  C3  PXY d   1       1.310   1.772   2.421  0.00  0.00     0.003 A 
ATOM      6  C4  PXY d   1       0.204   2.560   2.248  0.00  0.00    -0.082 A 
ATOM      7  C5  PXY d   1      -0.865   2.393   3.055  0.00  0.00     0.003 A 
ATOM      8  C6  PXY d   1      -0.819   1.418   4.048  0.00  0.00     0.003 A 
ENDROOT
TORSDOF 0
ENDMDL
