MODEL 1
REMARK minimizedAffinity 7.99038839
REMARK minimizedRMSD -1
REMARK  0 active torsions:
REMARK  status: ('A' for Active; 'I' for Inactive)
ROOT
ATOM      1  C4' PXY d   1       0.249   5.676  -2.492  0.00  0.00     0.077 C 
ATOM      2  C1' PXY d   1       0.289   2.811   2.529  0.00  0.00     0.077 C 
ATOM      3  C1  PXY d   1       0.279   3.573   1.219  0.00  0.00    -0.082 A 
ATOM      4  C2  PXY d   1      -0.259   3.021   0.144  0.00  0.00     0.003 A 
ATOM      5  C3  PXY d   1      -0.248   3.683  -1.056  0.00  0.00     0.003 A 
ATOM      6  C4  PXY d   1       0.273   4.946  -1.145  0.00  0.00    -0.082 A 
ATOM      7  C5  PXY d   1       0.815   5.521  -0.051  0.00  0.00     0.003 A 
ATOM      8  C6  PXY d   1       0.830   4.816   1.149  0.00  0.00     0.003 A 
ENDROOT
TORSDOF 0
ENDMDL
