MODEL 1
REMARK minimizedAffinity 4.16203594
REMARK minimizedRMSD -1
REMARK  0 active torsions:
REMARK  status: ('A' for Active; 'I' for Inactive)
ROOT
ATOM      1  C4' PXY d   1       4.879  -1.021   1.106  0.00  0.00     0.077 C 
ATOM      2  C1' PXY d   1       4.864  -4.747  -3.314  0.00  0.00     0.077 C 
ATOM      3  C1  PXY d   1       4.873  -3.779  -2.147  0.00  0.00    -0.082 A 
ATOM      4  C2  PXY d   1       4.018  -2.770  -2.128  0.00  0.00     0.003 A 
ATOM      5  C3  PXY d   1       4.034  -1.866  -1.096  0.00  0.00     0.003 A 
ATOM      6  C4  PXY d   1       4.899  -2.029  -0.047  0.00  0.00    -0.082 A 
ATOM      7  C5  PXY d   1       5.767  -3.062  -0.055  0.00  0.00     0.003 A 
ATOM      8  C6  PXY d   1       5.763  -3.944  -1.131  0.00  0.00     0.003 A 
ENDROOT
TORSDOF 0
ENDMDL
