MODEL 1
REMARK minimizedAffinity 8.25682354
REMARK minimizedRMSD -1
REMARK  0 active torsions:
REMARK  status: ('A' for Active; 'I' for Inactive)
ROOT
ATOM      1  C4' PXY d   1      -1.111   4.871   0.446  0.00  0.00     0.077 C 
ATOM      2  C1' PXY d   1       1.480   6.000  -4.596  0.00  0.00     0.077 C 
ATOM      3  C1  PXY d   1       0.791   5.712  -3.277  0.00  0.00    -0.082 A 
ATOM      4  C2  PXY d   1       1.503   5.288  -2.246  0.00  0.00     0.003 A 
ATOM      5  C3  PXY d   1       0.891   4.992  -1.055  0.00  0.00     0.003 A 
ATOM      6  C4  PXY d   1      -0.456   5.183  -0.902  0.00  0.00    -0.082 A 
ATOM      7  C5  PXY d   1      -1.188   5.626  -1.946  0.00  0.00     0.003 A 
ATOM      8  C6  PXY d   1      -0.554   5.881  -3.159  0.00  0.00     0.003 A 
ENDROOT
TORSDOF 0
ENDMDL
