MODEL 1
REMARK minimizedAffinity 9.51812077
REMARK minimizedRMSD -1
REMARK  0 active torsions:
REMARK  status: ('A' for Active; 'I' for Inactive)
ROOT
ATOM      1  C4' PXY d   1       1.177   0.936  -0.504  0.00  0.00     0.077 C 
ATOM      2  C1' PXY d   1      -1.070   6.000   1.147  0.00  0.00     0.077 C 
ATOM      3  C1  PXY d   1      -0.477   4.669   0.726  0.00  0.00    -0.082 A 
ATOM      4  C2  PXY d   1      -0.083   4.495  -0.524  0.00  0.00     0.003 A 
ATOM      5  C3  PXY d   1       0.426   3.288  -0.930  0.00  0.00     0.003 A 
ATOM      6  C4  PXY d   1       0.582   2.266  -0.032  0.00  0.00    -0.082 A 
ATOM      7  C5  PXY d   1       0.192   2.439   1.248  0.00  0.00     0.003 A 
ATOM      8  C6  PXY d   1      -0.360   3.659   1.630  0.00  0.00     0.003 A 
ENDROOT
TORSDOF 0
ENDMDL
