MODEL 1
REMARK minimizedAffinity 13.052475
REMARK minimizedRMSD -1
REMARK  0 active torsions:
REMARK  status: ('A' for Active; 'I' for Inactive)
ROOT
ATOM      1  C4' PXY d   1      -0.183   2.989   0.155  0.00  0.00     0.077 C 
ATOM      2  C1' PXY d   1      -0.854  -2.259  -2.173  0.00  0.00     0.077 C 
ATOM      3  C1  PXY d   1      -0.690  -0.880  -1.566  0.00  0.00    -0.082 A 
ATOM      4  C2  PXY d   1       0.521  -0.366  -1.427  0.00  0.00     0.003 A 
ATOM      5  C3  PXY d   1       0.690   0.867  -0.851  0.00  0.00     0.003 A 
ATOM      6  C4  PXY d   1      -0.396   1.604  -0.462  0.00  0.00    -0.082 A 
ATOM      7  C5  PXY d   1      -1.636   1.091  -0.610  0.00  0.00     0.003 A 
ATOM      8  C6  PXY d   1      -1.783  -0.179  -1.159  0.00  0.00     0.003 A 
ENDROOT
TORSDOF 0
ENDMDL
