MODEL 1
REMARK minimizedAffinity 5.30040026
REMARK minimizedRMSD -1
REMARK  0 active torsions:
REMARK  status: ('A' for Active; 'I' for Inactive)
ROOT
ATOM      1  C   UNL d   1      -1.691  -1.761  -1.511  0.00  0.00    -0.002 A 
ATOM      2  C1  UNL d   1      -1.499  -0.391  -1.619  0.00  0.00     0.010 A 
ATOM      3  C2  UNL d   1      -0.262   0.179  -1.311  0.00  0.00     0.041 A 
ATOM      4  C3  UNL d   1       0.789  -0.659  -0.892  0.00  0.00    -0.075 A 
ATOM      5  S   UNL d   1       2.390  -0.183  -0.464  0.00  0.00     0.015 SA
ATOM      6  C4  UNL d   1       2.857  -1.788  -0.129  0.00  0.00     0.022 A 
ATOM      7  C5  UNL d   1       1.829  -2.678  -0.333  0.00  0.00     0.026 A 
ATOM      8  C6  UNL d   1       0.621  -2.042  -0.777  0.00  0.00    -0.082 A 
ATOM      9  C7  UNL d   1      -0.646  -2.589  -1.095  0.00  0.00     0.045 A 
ENDROOT
TORSDOF 0
ENDMDL
