MODEL 1
REMARK minimizedAffinity 4.92383671
REMARK minimizedRMSD -1
REMARK  0 active torsions:
REMARK  status: ('A' for Active; 'I' for Inactive)
ROOT
ATOM      1  C   UNL d   1       3.108  -2.723  -2.603  0.00  0.00    -0.002 A 
ATOM      2  C1  UNL d   1       4.134  -1.840  -2.912  0.00  0.00     0.010 A 
ATOM      3  C2  UNL d   1       4.192  -0.581  -2.312  0.00  0.00     0.041 A 
ATOM      4  C3  UNL d   1       3.193  -0.221  -1.385  0.00  0.00    -0.075 A 
ATOM      5  S   UNL d   1       3.061   1.267  -0.525  0.00  0.00     0.015 SA
ATOM      6  C4  UNL d   1       1.642   0.766   0.273  0.00  0.00     0.022 A 
ATOM      7  C5  UNL d   1       1.263  -0.503  -0.096  0.00  0.00     0.026 A 
ATOM      8  C6  UNL d   1       2.151  -1.093  -1.057  0.00  0.00    -0.082 A 
ATOM      9  C7  UNL d   1       2.120  -2.362  -1.684  0.00  0.00     0.045 A 
ENDROOT
TORSDOF 0
ENDMDL
