MODEL 1
REMARK minimizedAffinity 9.53244495
REMARK minimizedRMSD -1
REMARK  0 active torsions:
REMARK  status: ('A' for Active; 'I' for Inactive)
ROOT
ATOM      1  C   UNL d   1       2.991   1.701  -0.447  0.00  0.00    -0.002 A 
ATOM      2  C1  UNL d   1       1.834   1.689   0.319  0.00  0.00     0.010 A 
ATOM      3  C2  UNL d   1       1.122   0.503   0.511  0.00  0.00     0.041 A 
ATOM      4  C3  UNL d   1       1.598  -0.682  -0.083  0.00  0.00    -0.075 A 
ATOM      5  S   UNL d   1       0.891  -2.251   0.016  0.00  0.00     0.015 SA
ATOM      6  C4  UNL d   1       2.109  -2.943  -0.955  0.00  0.00     0.022 A 
ATOM      7  C5  UNL d   1       3.040  -2.014  -1.354  0.00  0.00     0.026 A 
ATOM      8  C6  UNL d   1       2.761  -0.695  -0.858  0.00  0.00    -0.082 A 
ATOM      9  C7  UNL d   1       3.460   0.523  -1.036  0.00  0.00     0.045 A 
ENDROOT
TORSDOF 0
ENDMDL
