MODEL 1
REMARK minimizedAffinity -0.0597316325
REMARK minimizedRMSD -1
REMARK  0 active torsions:
REMARK  status: ('A' for Active; 'I' for Inactive)
ROOT
ATOM      1  C   UNL d   1       1.807  -2.966   1.979  0.00  0.00    -0.002 A 
ATOM      2  C1  UNL d   1       1.389  -1.751   2.504  0.00  0.00     0.010 A 
ATOM      3  C2  UNL d   1       0.753  -1.694   3.746  0.00  0.00     0.041 A 
ATOM      4  C3  UNL d   1       0.545  -2.891   4.460  0.00  0.00    -0.075 A 
ATOM      5  S   UNL d   1      -0.211  -3.064   5.999  0.00  0.00     0.015 SA
ATOM      6  C4  UNL d   1       0.004  -4.755   5.998  0.00  0.00     0.022 A 
ATOM      7  C5  UNL d   1       0.636  -5.193   4.858  0.00  0.00     0.026 A 
ATOM      8  C6  UNL d   1       0.958  -4.126   3.953  0.00  0.00    -0.082 A 
ATOM      9  C7  UNL d   1       1.599  -4.150   2.691  0.00  0.00     0.045 A 
ENDROOT
TORSDOF 0
ENDMDL
