MODEL 1
REMARK minimizedAffinity 18.3091583
REMARK minimizedRMSD -1
REMARK  0 active torsions:
REMARK  status: ('A' for Active; 'I' for Inactive)
ROOT
ATOM      1  C   UNL d   1       2.123  -1.064  -1.677  0.00  0.00    -0.002 A 
ATOM      2  C1  UNL d   1       2.093  -2.421  -1.388  0.00  0.00     0.010 A 
ATOM      3  C2  UNL d   1       2.945  -2.961  -0.422  0.00  0.00     0.041 A 
ATOM      4  C3  UNL d   1       3.835  -2.105   0.256  0.00  0.00    -0.075 A 
ATOM      5  S   UNL d   1       4.969  -2.543   1.479  0.00  0.00     0.015 SA
ATOM      6  C4  UNL d   1       5.521  -0.939   1.646  0.00  0.00     0.022 A 
ATOM      7  C5  UNL d   1       4.866  -0.077   0.798  0.00  0.00     0.026 A 
ATOM      8  C6  UNL d   1       3.883  -0.735  -0.017  0.00  0.00    -0.082 A 
ATOM      9  C7  UNL d   1       3.008  -0.219  -1.002  0.00  0.00     0.045 A 
ENDROOT
TORSDOF 0
ENDMDL
