MODEL 1
REMARK minimizedAffinity -3.46812558
REMARK minimizedRMSD -1
REMARK  0 active torsions:
REMARK  status: ('A' for Active; 'I' for Inactive)
ROOT
ATOM      1  C   UNL d   1       0.099  -2.667   0.886  0.00  0.00     0.020 A 
ATOM      2  C1  UNL d   1       1.189  -2.360   0.072  0.00  0.00     0.020 A 
ATOM      3  C2  UNL d   1       1.349  -1.063  -0.420  0.00  0.00     0.034 A 
ATOM      4  C3  UNL d   1       0.418  -0.068  -0.099  0.00  0.00     0.017 A 
ATOM      5  C4  UNL d   1      -0.675  -0.377   0.718  0.00  0.00     0.017 A 
ATOM      6  C5  UNL d   1      -0.831  -1.678   1.208  0.00  0.00     0.034 A 
ATOM      7 Cl   UNL d   1      -1.865   0.797   1.158  0.00  0.00    -0.070 Cl
ATOM      8 Cl1  UNL d   1       0.679   1.514  -0.742  0.00  0.00    -0.070 Cl
ENDROOT
TORSDOF 0
ENDMDL
