MODEL 1
REMARK minimizedAffinity -1.95968807
REMARK minimizedRMSD -1
REMARK  0 active torsions:
REMARK  status: ('A' for Active; 'I' for Inactive)
ROOT
ATOM      1  C   UNL d   1       0.403  -2.656   0.767  0.00  0.00     0.020 A 
ATOM      2  C1  UNL d   1      -0.679  -2.674   1.647  0.00  0.00     0.020 A 
ATOM      3  C2  UNL d   1      -1.464  -1.530   1.811  0.00  0.00     0.034 A 
ATOM      4  C3  UNL d   1      -1.168  -0.365   1.095  0.00  0.00     0.017 A 
ATOM      5  C4  UNL d   1      -0.082  -0.348   0.212  0.00  0.00     0.017 A 
ATOM      6  C5  UNL d   1       0.701  -1.495   0.051  0.00  0.00     0.034 A 
ATOM      7 Cl   UNL d   1       0.344   1.053  -0.706  0.00  0.00    -0.070 Cl
ATOM      8 Cl1  UNL d   1      -2.181   1.012   1.348  0.00  0.00    -0.070 Cl
ENDROOT
TORSDOF 0
ENDMDL
