MODEL 1
REMARK minimizedAffinity -4.65440989
REMARK minimizedRMSD -1
REMARK  0 active torsions:
REMARK  status: ('A' for Active; 'I' for Inactive)
ROOT
ATOM      1  C   UNL d   1      -1.789  -1.869   1.788  0.00  0.00     0.020 A 
ATOM      2  C1  UNL d   1      -2.409  -0.642   1.552  0.00  0.00     0.020 A 
ATOM      3  C2  UNL d   1      -1.733   0.360   0.854  0.00  0.00     0.034 A 
ATOM      4  C3  UNL d   1      -0.431   0.137   0.388  0.00  0.00     0.017 A 
ATOM      5  C4  UNL d   1       0.191  -1.094   0.625  0.00  0.00     0.017 A 
ATOM      6  C5  UNL d   1      -0.492  -2.094   1.325  0.00  0.00     0.034 A 
ATOM      7 Cl   UNL d   1       1.794  -1.442   0.082  0.00  0.00    -0.070 Cl
ATOM      8 Cl1  UNL d   1       0.345   1.421  -0.469  0.00  0.00    -0.070 Cl
ENDROOT
TORSDOF 0
ENDMDL
