MODEL 1
REMARK minimizedAffinity -4.02328444
REMARK minimizedRMSD -1
REMARK  0 active torsions:
REMARK  status: ('A' for Active; 'I' for Inactive)
ROOT
ATOM      1  C   UNL d   1       0.269  -1.359   0.086  0.00  0.00     0.020 A 
ATOM      2  C1  UNL d   1       0.571  -1.489  -1.269  0.00  0.00     0.020 A 
ATOM      3  C2  UNL d   1       0.657  -0.354  -2.078  0.00  0.00     0.034 A 
ATOM      4  C3  UNL d   1       0.441   0.917  -1.532  0.00  0.00     0.017 A 
ATOM      5  C4  UNL d   1       0.137   1.046  -0.172  0.00  0.00     0.017 A 
ATOM      6  C5  UNL d   1       0.052  -0.094   0.633  0.00  0.00     0.034 A 
ATOM      7 Cl   UNL d   1      -0.143   2.581   0.573  0.00  0.00    -0.070 Cl
ATOM      8 Cl1  UNL d   1       0.563   2.277  -2.591  0.00  0.00    -0.070 Cl
ENDROOT
TORSDOF 0
ENDMDL
