MODEL 1
REMARK minimizedAffinity -0.704369783
REMARK minimizedRMSD -1
REMARK  0 active torsions:
REMARK  status: ('A' for Active; 'I' for Inactive)
ROOT
ATOM      1  C   UNL d   1      -1.906  -2.562   1.344  0.00  0.00     0.020 A 
ATOM      2  C1  UNL d   1      -2.565  -1.671   0.498  0.00  0.00     0.020 A 
ATOM      3  C2  UNL d   1      -1.865  -0.611  -0.081  0.00  0.00     0.034 A 
ATOM      4  C3  UNL d   1      -0.502  -0.438   0.184  0.00  0.00     0.017 A 
ATOM      5  C4  UNL d   1       0.159  -1.333   1.033  0.00  0.00     0.017 A 
ATOM      6  C5  UNL d   1      -0.546  -2.394   1.611  0.00  0.00     0.034 A 
ATOM      7 Cl   UNL d   1       1.840  -1.185   1.408  0.00  0.00    -0.070 Cl
ATOM      8 Cl1  UNL d   1       0.300   0.895  -0.566  0.00  0.00    -0.070 Cl
ENDROOT
TORSDOF 0
ENDMDL
