MODEL 1
REMARK minimizedAffinity -2.86411548
REMARK minimizedRMSD -1
REMARK  0 active torsions:
REMARK  status: ('A' for Active; 'I' for Inactive)
ROOT
ATOM      1  C   UNL d   1      -1.406   0.728   1.012  0.00  0.00     0.020 A 
ATOM      2  C1  UNL d   1      -1.097   2.070   0.795  0.00  0.00     0.020 A 
ATOM      3  C2  UNL d   1      -0.252   2.431  -0.256  0.00  0.00     0.034 A 
ATOM      4  C3  UNL d   1       0.288   1.449  -1.094  0.00  0.00     0.017 A 
ATOM      5  C4  UNL d   1      -0.022   0.101  -0.876  0.00  0.00     0.017 A 
ATOM      6  C5  UNL d   1      -0.869  -0.254   0.178  0.00  0.00     0.034 A 
ATOM      7 Cl   UNL d   1       0.606  -1.167  -1.867  0.00  0.00    -0.070 Cl
ATOM      8 Cl1  UNL d   1       1.326   1.967  -2.375  0.00  0.00    -0.070 Cl
ENDROOT
TORSDOF 0
ENDMDL
