MODEL 1
REMARK minimizedAffinity -0.690377653
REMARK minimizedRMSD -1
REMARK  0 active torsions:
REMARK  status: ('A' for Active; 'I' for Inactive)
ROOT
ATOM      1  C   UNL d   1       0.115  -1.577   0.309  0.00  0.00     0.020 A 
ATOM      2  C1  UNL d   1       0.747  -1.695  -0.929  0.00  0.00     0.020 A 
ATOM      3  C2  UNL d   1       0.952  -0.561  -1.719  0.00  0.00     0.034 A 
ATOM      4  C3  UNL d   1       0.525   0.694  -1.273  0.00  0.00     0.017 A 
ATOM      5  C4  UNL d   1      -0.109   0.812  -0.030  0.00  0.00     0.017 A 
ATOM      6  C5  UNL d   1      -0.312  -0.326   0.757  0.00  0.00     0.034 A 
ATOM      7 Cl   UNL d   1      -0.664   2.328   0.588  0.00  0.00    -0.070 Cl
ATOM      8 Cl1  UNL d   1       0.811   2.053  -2.301  0.00  0.00    -0.070 Cl
ENDROOT
TORSDOF 0
ENDMDL
