MODEL 1
REMARK minimizedAffinity -5.34134054
REMARK minimizedRMSD -1
REMARK  0 active torsions:
REMARK  status: ('A' for Active; 'I' for Inactive)
ROOT
ATOM      1  C   UNL d   1       0.017  -2.288   0.815  0.00  0.00     0.020 A 
ATOM      2  C1  UNL d   1       0.900  -1.462   0.121  0.00  0.00     0.020 A 
ATOM      3  C2  UNL d   1       0.701  -0.080   0.109  0.00  0.00     0.034 A 
ATOM      4  C3  UNL d   1      -0.384   0.480   0.794  0.00  0.00     0.017 A 
ATOM      5  C4  UNL d   1      -1.269  -0.349   1.491  0.00  0.00     0.017 A 
ATOM      6  C5  UNL d   1      -1.065  -1.733   1.499  0.00  0.00     0.034 A 
ATOM      7 Cl   UNL d   1      -2.630   0.269   2.358  0.00  0.00    -0.070 Cl
ATOM      8 Cl1  UNL d   1      -0.569   2.197   0.737  0.00  0.00    -0.070 Cl
ENDROOT
TORSDOF 0
ENDMDL
