MODEL 1
REMARK minimizedAffinity -2.70648885
REMARK minimizedRMSD -1
REMARK  0 active torsions:
REMARK  status: ('A' for Active; 'I' for Inactive)
ROOT
ATOM      1  C   UNL d   1       0.898  -2.319  -0.044  0.00  0.00     0.020 A 
ATOM      2  C1  UNL d   1      -0.059  -2.196   0.963  0.00  0.00     0.020 A 
ATOM      3  C2  UNL d   1      -0.683  -0.967   1.185  0.00  0.00     0.034 A 
ATOM      4  C3  UNL d   1      -0.352   0.144   0.400  0.00  0.00     0.017 A 
ATOM      5  C4  UNL d   1       0.608   0.019  -0.610  0.00  0.00     0.017 A 
ATOM      6  C5  UNL d   1       1.230  -1.214  -0.829  0.00  0.00     0.034 A 
ATOM      7 Cl   UNL d   1       1.069   1.343  -1.620  0.00  0.00    -0.070 Cl
ATOM      8 Cl1  UNL d   1      -1.165   1.632   0.730  0.00  0.00    -0.070 Cl
ENDROOT
TORSDOF 0
ENDMDL
