MODEL 1
REMARK minimizedAffinity -1.94751382
REMARK minimizedRMSD -1
REMARK  0 active torsions:
REMARK  status: ('A' for Active; 'I' for Inactive)
ROOT
ATOM      1  C   UNL d   1      -0.332  -1.621   0.771  0.00  0.00     0.020 A 
ATOM      2  C1  UNL d   1       0.431  -1.800  -0.382  0.00  0.00     0.020 A 
ATOM      3  C2  UNL d   1       0.865  -0.691  -1.112  0.00  0.00     0.034 A 
ATOM      4  C3  UNL d   1       0.536   0.602  -0.689  0.00  0.00     0.017 A 
ATOM      5  C4  UNL d   1      -0.229   0.780   0.469  0.00  0.00     0.017 A 
ATOM      6  C5  UNL d   1      -0.661  -0.334   1.196  0.00  0.00     0.034 A 
ATOM      7 Cl   UNL d   1      -0.675   2.345   1.053  0.00  0.00    -0.070 Cl
ATOM      8 Cl1  UNL d   1       1.107   1.927  -1.639  0.00  0.00    -0.070 Cl
ENDROOT
TORSDOF 0
ENDMDL
