MODEL 1
REMARK minimizedAffinity -0.679915071
REMARK minimizedRMSD -1
REMARK  0 active torsions:
REMARK  status: ('A' for Active; 'I' for Inactive)
ROOT
ATOM      1  C4' PXY d   1       1.820   5.398  -0.401  0.00  0.00     0.077 C 
ATOM      2  C1' PXY d   1       0.594  -0.187  -1.245  0.00  0.00     0.077 C 
ATOM      3  C1  PXY d   1       0.908   1.278  -1.013  0.00  0.00    -0.082 A 
ATOM      4  C2  PXY d   1       1.272   2.038  -2.032  0.00  0.00     0.003 A 
ATOM      5  C3  PXY d   1       1.591   3.357  -1.835  0.00  0.00     0.003 A 
ATOM      6  C4  PXY d   1       1.484   3.917  -0.590  0.00  0.00    -0.082 A 
ATOM      7  C5  PXY d   1       1.102   3.150   0.453  0.00  0.00     0.003 A 
ATOM      8  C6  PXY d   1       0.823   1.803   0.239  0.00  0.00     0.003 A 
ENDROOT
TORSDOF 0
ENDMDL
