MODEL 1
REMARK minimizedAffinity 2.19937348
REMARK minimizedRMSD -1
REMARK  0 active torsions:
REMARK  status: ('A' for Active; 'I' for Inactive)
ROOT
ATOM      1  C4' PXY d   1       1.863   4.429  -1.481  0.00  0.00     0.077 C 
ATOM      2  C1' PXY d   1       0.913  -1.115  -0.148  0.00  0.00     0.077 C 
ATOM      3  C1  PXY d   1       1.171   0.335  -0.506  0.00  0.00    -0.082 A 
ATOM      4  C2  PXY d   1       0.917   1.284   0.381  0.00  0.00     0.003 A 
ATOM      5  C3  PXY d   1       1.114   2.603   0.062  0.00  0.00     0.003 A 
ATOM      6  C4  PXY d   1       1.627   2.951  -1.159  0.00  0.00    -0.082 A 
ATOM      7  C5  PXY d   1       1.898   1.989  -2.066  0.00  0.00     0.003 A 
ATOM      8  C6  PXY d   1       1.652   0.659  -1.737  0.00  0.00     0.003 A 
ENDROOT
TORSDOF 0
ENDMDL
