MODEL 1
REMARK minimizedAffinity -6.97277546
REMARK minimizedRMSD -1
REMARK  0 active torsions:
REMARK  status: ('A' for Active; 'I' for Inactive)
ROOT
ATOM      1  C4' PXY d   1       1.100  -1.127  -0.742  0.00  0.00     0.077 C 
ATOM      2  C1' PXY d   1       1.429   4.635  -1.070  0.00  0.00     0.077 C 
ATOM      3  C1  PXY d   1       1.343   3.125  -0.971  0.00  0.00    -0.082 A 
ATOM      4  C2  PXY d   1       1.737   2.379  -1.991  0.00  0.00     0.003 A 
ATOM      5  C3  PXY d   1       1.636   1.013  -1.930  0.00  0.00     0.003 A 
ATOM      6  C4  PXY d   1       1.178   0.402  -0.794  0.00  0.00    -0.082 A 
ATOM      7  C5  PXY d   1       0.785   1.155   0.255  0.00  0.00     0.003 A 
ATOM      8  C6  PXY d   1       0.856   2.542   0.158  0.00  0.00     0.003 A 
ENDROOT
TORSDOF 0
ENDMDL
