MODEL 1
REMARK minimizedAffinity -6.48726034
REMARK minimizedRMSD -1
REMARK  0 active torsions:
REMARK  status: ('A' for Active; 'I' for Inactive)
ROOT
ATOM      1  C4' PXY d   1       0.604  -0.537  -0.715  0.00  0.00     0.077 C 
ATOM      2  C1' PXY d   1       2.192   5.022  -0.735  0.00  0.00     0.077 C 
ATOM      3  C1  PXY d   1       1.781   3.562  -0.718  0.00  0.00    -0.082 A 
ATOM      4  C2  PXY d   1       1.555   2.933  -1.860  0.00  0.00     0.003 A 
ATOM      5  C3  PXY d   1       1.152   1.623  -1.862  0.00  0.00     0.003 A 
ATOM      6  C4  PXY d   1       1.030   0.934  -0.685  0.00  0.00    -0.082 A 
ATOM      7  C5  PXY d   1       1.269   1.566   0.484  0.00  0.00     0.003 A 
ATOM      8  C6  PXY d   1       1.637   2.908   0.466  0.00  0.00     0.003 A 
ENDROOT
TORSDOF 0
ENDMDL
