MODEL 1
REMARK minimizedAffinity 1.2522434
REMARK minimizedRMSD -1
REMARK  0 active torsions:
REMARK  status: ('A' for Active; 'I' for Inactive)
ROOT
ATOM      1  C4' PXY d   1       1.470   4.205  -0.624  0.00  0.00     0.077 C 
ATOM      2  C1' PXY d   1       1.139  -1.559  -0.333  0.00  0.00     0.077 C 
ATOM      3  C1  PXY d   1       1.238  -0.048  -0.415  0.00  0.00    -0.082 A 
ATOM      4  C2  PXY d   1       0.587   0.698   0.462  0.00  0.00     0.003 A 
ATOM      5  C3  PXY d   1       0.639   2.066   0.383  0.00  0.00     0.003 A 
ATOM      6  C4  PXY d   1       1.407   2.676  -0.573  0.00  0.00    -0.082 A 
ATOM      7  C5  PXY d   1       2.083   1.921  -1.465  0.00  0.00     0.003 A 
ATOM      8  C6  PXY d   1       1.984   0.534  -1.392  0.00  0.00     0.003 A 
ENDROOT
TORSDOF 0
ENDMDL
