MODEL 1
REMARK minimizedAffinity -0.672822714
REMARK minimizedRMSD -1
REMARK  0 active torsions:
REMARK  status: ('A' for Active; 'I' for Inactive)
ROOT
ATOM      1  C4' PXY d   1       0.320   0.510  -2.084  0.00  0.00     0.077 C 
ATOM      2  C1' PXY d   1       2.065   5.889  -0.883  0.00  0.00     0.077 C 
ATOM      3  C1  PXY d   1       1.598   4.483  -1.205  0.00  0.00    -0.082 A 
ATOM      4  C2  PXY d   1       1.905   3.488  -0.389  0.00  0.00     0.003 A 
ATOM      5  C3  PXY d   1       1.517   2.206  -0.682  0.00  0.00     0.003 A 
ATOM      6  C4  PXY d   1       0.763   1.947  -1.794  0.00  0.00    -0.082 A 
ATOM      7  C5  PXY d   1       0.436   2.958  -2.627  0.00  0.00     0.003 A 
ATOM      8  C6  PXY d   1       0.874   4.246  -2.333  0.00  0.00     0.003 A 
ENDROOT
TORSDOF 0
ENDMDL
