MODEL 1
REMARK minimizedAffinity -3.79370475
REMARK minimizedRMSD -1
REMARK  0 active torsions:
REMARK  status: ('A' for Active; 'I' for Inactive)
ROOT
ATOM      1  C4' PXY d   1       1.321  -1.327  -1.245  0.00  0.00     0.077 C 
ATOM      2  C1' PXY d   1       1.330   4.190   0.478  0.00  0.00     0.077 C 
ATOM      3  C1  PXY d   1       1.325   2.747   0.014  0.00  0.00    -0.082 A 
ATOM      4  C2  PXY d   1       1.065   1.782   0.881  0.00  0.00     0.003 A 
ATOM      5  C3  PXY d   1       1.089   0.469   0.486  0.00  0.00     0.003 A 
ATOM      6  C4  PXY d   1       1.328   0.144  -0.823  0.00  0.00    -0.082 A 
ATOM      7  C5  PXY d   1       1.583   1.124  -1.716  0.00  0.00     0.003 A 
ATOM      8  C6  PXY d   1       1.595   2.448  -1.285  0.00  0.00     0.003 A 
ENDROOT
TORSDOF 0
ENDMDL
