MODEL 1
REMARK minimizedAffinity 0.474018455
REMARK minimizedRMSD -1
REMARK  0 active torsions:
REMARK  status: ('A' for Active; 'I' for Inactive)
ROOT
ATOM      1  C4' PXY d   1       1.720   5.303  -0.539  0.00  0.00     0.077 C 
ATOM      2  C1' PXY d   1       0.861  -0.413  -0.504  0.00  0.00     0.077 C 
ATOM      3  C1  PXY d   1       1.079   1.087  -0.502  0.00  0.00    -0.082 A 
ATOM      4  C2  PXY d   1       1.330   1.713  -1.641  0.00  0.00     0.003 A 
ATOM      5  C3  PXY d   1       1.562   3.064  -1.653  0.00  0.00     0.003 A 
ATOM      6  C4  PXY d   1       1.483   3.791  -0.495  0.00  0.00    -0.082 A 
ATOM      7  C5  PXY d   1       1.218   3.161   0.669  0.00  0.00     0.003 A 
ATOM      8  C6  PXY d   1       1.026   1.782   0.666  0.00  0.00     0.003 A 
ENDROOT
TORSDOF 0
ENDMDL
