MODEL 1
REMARK minimizedAffinity 8.78114891
REMARK minimizedRMSD -1
REMARK  0 active torsions:
REMARK  status: ('A' for Active; 'I' for Inactive)
ROOT
ATOM      1  C4' PXY d   1       0.666  -1.354  -1.087  0.00  0.00     0.077 C 
ATOM      2  C1' PXY d   1       2.011   4.263  -1.325  0.00  0.00     0.077 C 
ATOM      3  C1  PXY d   1       1.669   2.788  -1.255  0.00  0.00    -0.082 A 
ATOM      4  C2  PXY d   1       0.926   2.243  -2.205  0.00  0.00     0.003 A 
ATOM      5  C3  PXY d   1       0.581   0.918  -2.141  0.00  0.00     0.003 A 
ATOM      6  C4  PXY d   1       1.044   0.130  -1.122  0.00  0.00    -0.082 A 
ATOM      7  C5  PXY d   1       1.811   0.676  -0.154  0.00  0.00     0.003 A 
ATOM      8  C6  PXY d   1       2.117   2.033  -0.216  0.00  0.00     0.003 A 
ENDROOT
TORSDOF 0
ENDMDL
