MODEL 1
REMARK minimizedAffinity -4.82884359
REMARK minimizedRMSD -1
REMARK  0 active torsions:
REMARK  status: ('A' for Active; 'I' for Inactive)
ROOT
ATOM      1  C4' PXY d   1       1.514   4.920  -0.294  0.00  0.00     0.077 C 
ATOM      2  C1' PXY d   1       1.188  -0.826  -0.834  0.00  0.00     0.077 C 
ATOM      3  C1  PXY d   1       1.265   0.681  -0.682  0.00  0.00    -0.082 A 
ATOM      4  C2  PXY d   1       1.593   1.427  -1.724  0.00  0.00     0.003 A 
ATOM      5  C3  PXY d   1       1.699   2.788  -1.597  0.00  0.00     0.003 A 
ATOM      6  C4  PXY d   1       1.414   3.396  -0.403  0.00  0.00    -0.082 A 
ATOM      7  C5  PXY d   1       1.069   2.643   0.662  0.00  0.00     0.003 A 
ATOM      8  C6  PXY d   1       1.007   1.259   0.522  0.00  0.00     0.003 A 
ENDROOT
TORSDOF 0
ENDMDL
