MODEL 1
REMARK minimizedAffinity 4.12596178
REMARK minimizedRMSD -1
REMARK  0 active torsions:
REMARK  status: ('A' for Active; 'I' for Inactive)
ROOT
ATOM      1  C4' PXY d   1       2.036  -0.256  -0.660  0.00  0.00     0.077 C 
ATOM      2  C1' PXY d   1       1.108   5.446  -0.462  0.00  0.00     0.077 C 
ATOM      3  C1  PXY d   1       1.348   3.950  -0.526  0.00  0.00    -0.082 A 
ATOM      4  C2  PXY d   1       1.326   3.236   0.587  0.00  0.00     0.003 A 
ATOM      5  C3  PXY d   1       1.572   1.888   0.551  0.00  0.00     0.003 A 
ATOM      6  C4  PXY d   1       1.790   1.255  -0.643  0.00  0.00    -0.082 A 
ATOM      7  C5  PXY d   1       1.804   1.975  -1.785  0.00  0.00     0.003 A 
ATOM      8  C6  PXY d   1       1.592   3.350  -1.722  0.00  0.00     0.003 A 
ENDROOT
TORSDOF 0
ENDMDL
