MODEL 1
REMARK minimizedAffinity -5.8557272
REMARK minimizedRMSD -1
REMARK  0 active torsions:
REMARK  status: ('A' for Active; 'I' for Inactive)
ROOT
ATOM      1  C4' PXY d   1       1.724   5.398  -1.108  0.00  0.00     0.077 C 
ATOM      2  C1' PXY d   1       1.031  -0.337  -0.900  0.00  0.00     0.077 C 
ATOM      3  C1  PXY d   1       1.205   1.168  -0.945  0.00  0.00    -0.082 A 
ATOM      4  C2  PXY d   1       1.572   1.752  -2.074  0.00  0.00     0.003 A 
ATOM      5  C3  PXY d   1       1.765   3.108  -2.124  0.00  0.00     0.003 A 
ATOM      6  C4  PXY d   1       1.528   3.882  -1.020  0.00  0.00    -0.082 A 
ATOM      7  C5  PXY d   1       1.142   3.296   0.134  0.00  0.00     0.003 A 
ATOM      8  C6  PXY d   1       0.992   1.913   0.174  0.00  0.00     0.003 A 
ENDROOT
TORSDOF 0
ENDMDL
