MODEL 1
REMARK minimizedAffinity -2.20365453
REMARK minimizedRMSD -1
REMARK  0 active torsions:
REMARK  status: ('A' for Active; 'I' for Inactive)
ROOT
ATOM      1  C4' PXY d   1       1.687   2.025  -2.843  0.00  0.00     0.077 C 
ATOM      2  C1' PXY d   1       0.674   0.540   2.651  0.00  0.00     0.077 C 
ATOM      3  C1  PXY d   1       0.948   0.919   1.209  0.00  0.00    -0.082 A 
ATOM      4  C2  PXY d   1       0.799   2.176   0.823  0.00  0.00     0.003 A 
ATOM      5  C3  PXY d   1       1.011   2.530  -0.484  0.00  0.00     0.003 A 
ATOM      6  C4  PXY d   1       1.431   1.598  -1.395  0.00  0.00    -0.082 A 
ATOM      7  C5  PXY d   1       1.596   0.316  -1.007  0.00  0.00     0.003 A 
ATOM      8  C6  PXY d   1       1.335  -0.031   0.315  0.00  0.00     0.003 A 
ENDROOT
TORSDOF 0
ENDMDL
