MODEL 1
REMARK minimizedAffinity -1.85477531
REMARK minimizedRMSD -1
REMARK  0 active torsions:
REMARK  status: ('A' for Active; 'I' for Inactive)
ROOT
ATOM      1  C4' PXY d   1       1.384   4.825  -0.776  0.00  0.00     0.077 C 
ATOM      2  C1' PXY d   1       1.104  -0.948  -0.739  0.00  0.00     0.077 C 
ATOM      3  C1  PXY d   1       1.187   0.565  -0.758  0.00  0.00    -0.082 A 
ATOM      4  C2  PXY d   1       0.820   1.254   0.310  0.00  0.00     0.003 A 
ATOM      5  C3  PXY d   1       0.858   2.624   0.299  0.00  0.00     0.003 A 
ATOM      6  C4  PXY d   1       1.327   3.295  -0.799  0.00  0.00    -0.082 A 
ATOM      7  C5  PXY d   1       1.713   2.599  -1.889  0.00  0.00     0.003 A 
ATOM      8  C6  PXY d   1       1.628   1.210  -1.872  0.00  0.00     0.003 A 
ENDROOT
TORSDOF 0
ENDMDL
