MODEL 1
REMARK minimizedAffinity -1.18239331
REMARK minimizedRMSD -1
REMARK  0 active torsions:
REMARK  status: ('A' for Active; 'I' for Inactive)
ROOT
ATOM      1  C4' PXY d   1       1.603   5.403  -0.666  0.00  0.00     0.077 C 
ATOM      2  C1' PXY d   1       0.664  -0.258  -1.365  0.00  0.00     0.077 C 
ATOM      3  C1  PXY d   1       0.905   1.226  -1.170  0.00  0.00    -0.082 A 
ATOM      4  C2  PXY d   1       1.040   2.011  -2.227  0.00  0.00     0.003 A 
ATOM      5  C3  PXY d   1       1.290   3.350  -2.068  0.00  0.00     0.003 A 
ATOM      6  C4  PXY d   1       1.350   3.900  -0.816  0.00  0.00    -0.082 A 
ATOM      7  C5  PXY d   1       1.202   3.107   0.267  0.00  0.00     0.003 A 
ATOM      8  C6  PXY d   1       0.990   1.744   0.085  0.00  0.00     0.003 A 
ENDROOT
TORSDOF 0
ENDMDL
