MODEL 1
REMARK minimizedAffinity 2.2128799
REMARK minimizedRMSD -1
REMARK  0 active torsions:
REMARK  status: ('A' for Active; 'I' for Inactive)
ROOT
ATOM      1  C4' PXY d   1       1.136  -1.535  -2.177  0.00  0.00     0.077 C 
ATOM      2  C1' PXY d   1       0.639   2.794   1.622  0.00  0.00     0.077 C 
ATOM      3  C1  PXY d   1       0.778   1.653   0.633  0.00  0.00    -0.082 A 
ATOM      4  C2  PXY d   1       0.448   1.841  -0.634  0.00  0.00     0.003 A 
ATOM      5  C3  PXY d   1       0.537   0.812  -1.535  0.00  0.00     0.003 A 
ATOM      6  C4  PXY d   1       1.021  -0.409  -1.146  0.00  0.00    -0.082 A 
ATOM      7  C5  PXY d   1       1.370  -0.606   0.143  0.00  0.00     0.003 A 
ATOM      8  C6  PXY d   1       1.232   0.440   1.051  0.00  0.00     0.003 A 
ENDROOT
TORSDOF 0
ENDMDL
