MODEL 1
REMARK minimizedAffinity -4.71858597
REMARK minimizedRMSD -1
REMARK  0 active torsions:
REMARK  status: ('A' for Active; 'I' for Inactive)
ROOT
ATOM      1  C4' PXY d   1       1.264   4.928  -0.309  0.00  0.00     0.077 C 
ATOM      2  C1' PXY d   1       1.055  -0.826  -0.815  0.00  0.00     0.077 C 
ATOM      3  C1  PXY d   1       1.103   0.682  -0.671  0.00  0.00    -0.082 A 
ATOM      4  C2  PXY d   1       1.278   1.436  -1.744  0.00  0.00     0.003 A 
ATOM      5  C3  PXY d   1       1.356   2.800  -1.628  0.00  0.00     0.003 A 
ATOM      6  C4  PXY d   1       1.200   3.402  -0.408  0.00  0.00    -0.082 A 
ATOM      7  C5  PXY d   1       1.010   2.640   0.690  0.00  0.00     0.003 A 
ATOM      8  C6  PXY d   1       0.975   1.255   0.556  0.00  0.00     0.003 A 
ENDROOT
TORSDOF 0
ENDMDL
