MODEL 1
REMARK minimizedAffinity 5.2034893
REMARK minimizedRMSD -1
REMARK  0 active torsions:
REMARK  status: ('A' for Active; 'I' for Inactive)
ROOT
ATOM      1  C4' PXY d   1       1.000   5.577  -0.852  0.00  0.00     0.077 C 
ATOM      2  C1' PXY d   1       1.924  -0.128  -0.996  0.00  0.00     0.077 C 
ATOM      3  C1  PXY d   1       1.673   1.366  -0.948  0.00  0.00    -0.082 A 
ATOM      4  C2  PXY d   1       1.921   2.105  -2.018  0.00  0.00     0.003 A 
ATOM      5  C3  PXY d   1       1.730   3.463  -1.982  0.00  0.00     0.003 A 
ATOM      6  C4  PXY d   1       1.230   4.063  -0.857  0.00  0.00    -0.082 A 
ATOM      7  C5  PXY d   1       0.964   3.314   0.234  0.00  0.00     0.003 A 
ATOM      8  C6  PXY d   1       1.204   1.944   0.191  0.00  0.00     0.003 A 
ENDROOT
TORSDOF 0
ENDMDL
