MODEL 1
REMARK minimizedAffinity -3.05657506
REMARK minimizedRMSD -1
REMARK  0 active torsions:
REMARK  status: ('A' for Active; 'I' for Inactive)
ROOT
ATOM      1  C4' PXY d   1       0.987  -1.100  -0.674  0.00  0.00     0.077 C 
ATOM      2  C1' PXY d   1       1.590   4.644  -0.930  0.00  0.00     0.077 C 
ATOM      3  C1  PXY d   1       1.436   3.138  -0.851  0.00  0.00    -0.082 A 
ATOM      4  C2  PXY d   1       1.512   2.413  -1.955  0.00  0.00     0.003 A 
ATOM      5  C3  PXY d   1       1.342   1.053  -1.905  0.00  0.00     0.003 A 
ATOM      6  C4  PXY d   1       1.147   0.423  -0.706  0.00  0.00    -0.082 A 
ATOM      7  C5  PXY d   1       1.079   1.154   0.427  0.00  0.00     0.003 A 
ATOM      8  C6  PXY d   1       1.212   2.537   0.350  0.00  0.00     0.003 A 
ENDROOT
TORSDOF 0
ENDMDL
