MODEL 1
REMARK minimizedAffinity 4.56441879
REMARK minimizedRMSD -1
REMARK  0 active torsions:
REMARK  status: ('A' for Active; 'I' for Inactive)
ROOT
ATOM      1  C   UNL d   1      -0.655   3.561  -1.898  0.00  0.00    -0.002 A 
ATOM      2  C1  UNL d   1       0.650   4.010  -2.039  0.00  0.00     0.010 A 
ATOM      3  C2  UNL d   1       1.570   3.858  -0.999  0.00  0.00     0.041 A 
ATOM      4  C3  UNL d   1       1.152   3.239   0.195  0.00  0.00    -0.075 A 
ATOM      5  S   UNL d   1       2.104   2.945   1.602  0.00  0.00     0.015 SA
ATOM      6  C4  UNL d   1       0.801   2.215   2.423  0.00  0.00     0.022 A 
ATOM      7  C5  UNL d   1      -0.340   2.189   1.657  0.00  0.00     0.026 A 
ATOM      8  C6  UNL d   1      -0.157   2.778   0.361  0.00  0.00    -0.082 A 
ATOM      9  C7  UNL d   1      -1.066   2.948  -0.711  0.00  0.00     0.045 A 
ENDROOT
TORSDOF 0
ENDMDL
