MODEL 1
REMARK minimizedAffinity 20.2613239
REMARK minimizedRMSD -1
REMARK  0 active torsions:
REMARK  status: ('A' for Active; 'I' for Inactive)
ROOT
ATOM      1  C   UNL d   1      -0.521   3.322  -1.244  0.00  0.00    -0.002 A 
ATOM      2  C1  UNL d   1       0.698   3.875  -1.610  0.00  0.00     0.010 A 
ATOM      3  C2  UNL d   1       1.819   3.725  -0.792  0.00  0.00     0.041 A 
ATOM      4  C3  UNL d   1       1.694   3.003   0.411  0.00  0.00    -0.075 A 
ATOM      5  S   UNL d   1       2.932   2.691   1.570  0.00  0.00     0.015 SA
ATOM      6  C4  UNL d   1       1.872   1.816   2.578  0.00  0.00     0.022 A 
ATOM      7  C5  UNL d   1       0.601   1.754   2.058  0.00  0.00     0.026 A 
ATOM      8  C6  UNL d   1       0.477   2.436   0.801  0.00  0.00    -0.082 A 
ATOM      9  C7  UNL d   1      -0.642   2.606  -0.050  0.00  0.00     0.045 A 
ENDROOT
TORSDOF 0
ENDMDL
