MODEL 1
REMARK minimizedAffinity 18.557621
REMARK minimizedRMSD -1
REMARK  0 active torsions:
REMARK  status: ('A' for Active; 'I' for Inactive)
ROOT
ATOM      1  C   UNL d   1      -4.714   4.543  -3.012  0.00  0.00    -0.002 A 
ATOM      2  C1  UNL d   1      -3.331   4.483  -3.104  0.00  0.00     0.010 A 
ATOM      3  C2  UNL d   1      -2.714   3.517  -3.902  0.00  0.00     0.041 A 
ATOM      4  C3  UNL d   1      -3.518   2.606  -4.614  0.00  0.00    -0.075 A 
ATOM      5  S   UNL d   1      -2.984   1.339  -5.653  0.00  0.00     0.015 SA
ATOM      6  C4  UNL d   1      -4.579   0.849  -6.000  0.00  0.00     0.022 A 
ATOM      7  C5  UNL d   1      -5.509   1.622  -5.347  0.00  0.00     0.026 A 
ATOM      8  C6  UNL d   1      -4.914   2.647  -4.537  0.00  0.00    -0.082 A 
ATOM      9  C7  UNL d   1      -5.509   3.638  -3.719  0.00  0.00     0.045 A 
ENDROOT
TORSDOF 0
ENDMDL
