MODEL 1
REMARK minimizedAffinity 16.3462296
REMARK minimizedRMSD -1
REMARK  0 active torsions:
REMARK  status: ('A' for Active; 'I' for Inactive)
ROOT
ATOM      1  C   UNL d   1       0.970  -3.007  -1.467  0.00  0.00    -0.002 A 
ATOM      2  C1  UNL d   1       1.322  -4.346  -1.379  0.00  0.00     0.010 A 
ATOM      3  C2  UNL d   1       2.575  -4.721  -0.891  0.00  0.00     0.041 A 
ATOM      4  C3  UNL d   1       3.477  -3.718  -0.487  0.00  0.00    -0.075 A 
ATOM      5  S   UNL d   1       5.066  -3.941   0.144  0.00  0.00     0.015 SA
ATOM      6  C4  UNL d   1       5.316  -2.264   0.313  0.00  0.00     0.022 A 
ATOM      7  C5  UNL d   1       4.224  -1.536  -0.098  0.00  0.00     0.026 A 
ATOM      8  C6  UNL d   1       3.146  -2.362  -0.565  0.00  0.00    -0.082 A 
ATOM      9  C7  UNL d   1       1.868  -2.014  -1.065  0.00  0.00     0.045 A 
ENDROOT
TORSDOF 0
ENDMDL
