MODEL 1
REMARK minimizedAffinity 18.6939411
REMARK minimizedRMSD -1
REMARK  0 active torsions:
REMARK  status: ('A' for Active; 'I' for Inactive)
ROOT
ATOM      1  C   UNL d   1       2.594  -0.893   0.032  0.00  0.00    -0.002 A 
ATOM      2  C1  UNL d   1       2.965  -1.836   0.980  0.00  0.00     0.010 A 
ATOM      3  C2  UNL d   1       2.650  -3.185   0.800  0.00  0.00     0.041 A 
ATOM      4  C3  UNL d   1       1.951  -3.573  -0.359  0.00  0.00    -0.075 A 
ATOM      5  S   UNL d   1       1.459  -5.168  -0.791  0.00  0.00     0.015 SA
ATOM      6  C4  UNL d   1       0.745  -4.635  -2.244  0.00  0.00     0.022 A 
ATOM      7  C5  UNL d   1       0.870  -3.276  -2.411  0.00  0.00     0.026 A 
ATOM      8  C6  UNL d   1       1.567  -2.642  -1.328  0.00  0.00    -0.082 A 
ATOM      9  C7  UNL d   1       1.900  -1.282  -1.117  0.00  0.00     0.045 A 
ENDROOT
TORSDOF 0
ENDMDL
