MODEL 1
REMARK minimizedAffinity -4.01019812
REMARK minimizedRMSD -1
REMARK  1 active torsions:
REMARK  status: ('A' for Active; 'I' for Inactive)
REMARK    1  A    between atoms: C3_4  and  O_7 
ROOT
ATOM      1  C   UNL d   1      -0.240   2.341   0.877  0.00  0.00    -0.033 A 
ATOM      2  C1  UNL d   1       0.523   3.122   1.747  0.00  0.00     0.039 A 
ATOM      3  C2  UNL d   1       1.841   2.763   2.036  0.00  0.00    -0.080 A 
ATOM      4  C3  UNL d   1       2.384   1.624   1.448  0.00  0.00     0.150 A 
ATOM      5  C4  UNL d   1       1.630   0.843   0.578  0.00  0.00    -0.007 A 
ATOM      6  C5  UNL d   1       0.314   1.203   0.291  0.00  0.00     0.039 A 
ENDROOT
BRANCH   4   7
ATOM      7  O   UNL d   1       3.664   1.231   1.704  0.00  0.00    -0.526 OA
ATOM      8  H5  UNL d   1       4.053   1.849   2.344  0.00  0.00     0.418 HD
ENDBRANCH   4   7
TORSDOF 1
ENDMDL
