MODEL 1
REMARK minimizedAffinity -0.247116119
REMARK minimizedRMSD -1
REMARK  1 active torsions:
REMARK  status: ('A' for Active; 'I' for Inactive)
REMARK    1  A    between atoms: C3_4  and  O_7 
ROOT
ATOM      1  C   UNL d   1      -0.346   1.922   1.254  0.00  0.00    -0.033 A 
ATOM      2  C1  UNL d   1       0.570   2.718   0.564  0.00  0.00     0.039 A 
ATOM      3  C2  UNL d   1       0.184   3.376  -0.605  0.00  0.00    -0.080 A 
ATOM      4  C3  UNL d   1      -1.120   3.232  -1.072  0.00  0.00     0.150 A 
ATOM      5  C4  UNL d   1      -2.039   2.444  -0.387  0.00  0.00    -0.007 A 
ATOM      6  C5  UNL d   1      -1.651   1.786   0.779  0.00  0.00     0.039 A 
ENDROOT
BRANCH   4   7
ATOM      7  O   UNL d   1      -1.541   3.852  -2.210  0.00  0.00    -0.526 OA
ATOM      8  H5  UNL d   1      -0.792   4.338  -2.592  0.00  0.00     0.418 HD
ENDBRANCH   4   7
TORSDOF 1
ENDMDL
