MODEL 1
REMARK minimizedAffinity 0.745661855
REMARK minimizedRMSD -1
REMARK  1 active torsions:
REMARK  status: ('A' for Active; 'I' for Inactive)
REMARK    1  A    between atoms: C3_4  and  O_7 
ROOT
ATOM      1  C   UNL d   1      -0.024   0.402   1.126  0.00  0.00    -0.033 A 
ATOM      2  C1  UNL d   1      -1.295  -0.141   1.322  0.00  0.00     0.039 A 
ATOM      3  C2  UNL d   1      -2.419   0.503   0.801  0.00  0.00    -0.080 A 
ATOM      4  C3  UNL d   1      -2.259   1.687   0.087  0.00  0.00     0.150 A 
ATOM      5  C4  UNL d   1      -0.995   2.232  -0.115  0.00  0.00    -0.007 A 
ATOM      6  C5  UNL d   1       0.126   1.588   0.407  0.00  0.00     0.039 A 
ENDROOT
BRANCH   4   7
ATOM      7  O   UNL d   1      -3.326   2.354  -0.435  0.00  0.00    -0.526 OA
ATOM      8  H5  UNL d   1      -4.137   1.876  -0.192  0.00  0.00     0.418 HD
ENDBRANCH   4   7
TORSDOF 1
ENDMDL
