MODEL 1
REMARK minimizedAffinity 2.08476949
REMARK minimizedRMSD -1
REMARK  1 active torsions:
REMARK  status: ('A' for Active; 'I' for Inactive)
REMARK    1  A    between atoms: C3_4  and  O_7 
ROOT
ATOM      1  C   UNL d   1      -2.296   1.769  -0.786  0.00  0.00    -0.033 A 
ATOM      2  C1  UNL d   1      -1.325   2.742  -1.031  0.00  0.00     0.039 A 
ATOM      3  C2  UNL d   1      -0.188   2.815  -0.223  0.00  0.00    -0.080 A 
ATOM      4  C3  UNL d   1      -0.034   1.909   0.823  0.00  0.00     0.150 A 
ATOM      5  C4  UNL d   1      -0.996   0.935   1.069  0.00  0.00    -0.007 A 
ATOM      6  C5  UNL d   1      -2.131   0.865   0.263  0.00  0.00     0.039 A 
ENDROOT
BRANCH   4   7
ATOM      7  O   UNL d   1       1.056   1.944   1.641  0.00  0.00    -0.526 OA
ATOM      8  H5  UNL d   1       1.621   2.686   1.369  0.00  0.00     0.418 HD
ENDBRANCH   4   7
TORSDOF 1
ENDMDL
