MODEL 1
REMARK minimizedAffinity 1.13419425
REMARK minimizedRMSD -1
REMARK  1 active torsions:
REMARK  status: ('A' for Active; 'I' for Inactive)
REMARK    1  A    between atoms: C3_4  and  O_7 
ROOT
ATOM      1  C   UNL d   1      -1.225   1.589   0.245  0.00  0.00    -0.033 A 
ATOM      2  C1  UNL d   1      -0.992   1.987   1.563  0.00  0.00     0.039 A 
ATOM      3  C2  UNL d   1       0.314   2.051   2.054  0.00  0.00    -0.080 A 
ATOM      4  C3  UNL d   1       1.376   1.716   1.218  0.00  0.00     0.150 A 
ATOM      5  C4  UNL d   1       1.150   1.322  -0.097  0.00  0.00    -0.007 A 
ATOM      6  C5  UNL d   1      -0.154   1.258  -0.585  0.00  0.00     0.039 A 
ENDROOT
BRANCH   4   7
ATOM      7  O   UNL d   1       2.667   1.758   1.654  0.00  0.00    -0.526 OA
ATOM      8  H5  UNL d   1       2.667   2.019   2.590  0.00  0.00     0.418 HD
ENDBRANCH   4   7
TORSDOF 1
ENDMDL
