MODEL 1
REMARK minimizedAffinity -3.05262184
REMARK minimizedRMSD -1
REMARK  1 active torsions:
REMARK  status: ('A' for Active; 'I' for Inactive)
REMARK    1  A    between atoms: C3_4  and  O_7 
ROOT
ATOM      1  C   UNL d   1      -0.286   2.307   1.295  0.00  0.00    -0.033 A 
ATOM      2  C1  UNL d   1       1.104   2.290   1.166  0.00  0.00     0.039 A 
ATOM      3  C2  UNL d   1       1.913   2.584   2.266  0.00  0.00    -0.080 A 
ATOM      4  C3  UNL d   1       1.320   2.891   3.488  0.00  0.00     0.150 A 
ATOM      5  C4  UNL d   1      -0.065   2.906   3.624  0.00  0.00    -0.007 A 
ATOM      6  C5  UNL d   1      -0.870   2.614   2.525  0.00  0.00     0.039 A 
ENDROOT
BRANCH   4   7
ATOM      7  O   UNL d   1       2.067   3.189   4.588  0.00  0.00    -0.526 OA
ATOM      8  H5  UNL d   1       3.006   3.168   4.337  0.00  0.00     0.418 HD
ENDBRANCH   4   7
TORSDOF 1
ENDMDL
