MODEL 1
REMARK minimizedAffinity 1.94018328
REMARK minimizedRMSD -1
REMARK  1 active torsions:
REMARK  status: ('A' for Active; 'I' for Inactive)
REMARK    1  A    between atoms: C3_4  and  O_7 
ROOT
ATOM      1  C   UNL d   1       3.732   5.995   2.381  0.00  0.00    -0.033 A 
ATOM      2  C1  UNL d   1       4.851   5.279   2.811  0.00  0.00     0.039 A 
ATOM      3  C2  UNL d   1       5.621   4.564   1.892  0.00  0.00    -0.080 A 
ATOM      4  C3  UNL d   1       5.262   4.574   0.547  0.00  0.00     0.150 A 
ATOM      5  C4  UNL d   1       4.150   5.287   0.110  0.00  0.00    -0.007 A 
ATOM      6  C5  UNL d   1       3.382   6.000   1.030  0.00  0.00     0.039 A 
ENDROOT
BRANCH   4   7
ATOM      7  O   UNL d   1       5.979   3.887  -0.387  0.00  0.00    -0.526 OA
ATOM      8  H5  UNL d   1       6.701   3.418   0.063  0.00  0.00     0.418 HD
ENDBRANCH   4   7
TORSDOF 1
ENDMDL
