MODEL 1
REMARK minimizedAffinity 1.00526083
REMARK minimizedRMSD -1
REMARK  1 active torsions:
REMARK  status: ('A' for Active; 'I' for Inactive)
REMARK    1  A    between atoms: C3_4  and  O_7 
ROOT
ATOM      1  C   UNL d   1       4.520   5.994   0.174  0.00  0.00    -0.033 A 
ATOM      2  C1  UNL d   1       5.689   5.984   0.937  0.00  0.00     0.039 A 
ATOM      3  C2  UNL d   1       5.615   5.985   2.331  0.00  0.00    -0.080 A 
ATOM      4  C3  UNL d   1       4.368   5.994   2.949  0.00  0.00     0.150 A 
ATOM      5  C4  UNL d   1       3.199   5.999   2.196  0.00  0.00    -0.007 A 
ATOM      6  C5  UNL d   1       3.275   5.999   0.803  0.00  0.00     0.039 A 
ENDROOT
BRANCH   4   7
ATOM      7  O   UNL d   1       4.245   5.999   4.307  0.00  0.00    -0.526 OA
ATOM      8  H5  UNL d   1       5.136   6.024   4.696  0.00  0.00     0.418 HD
ENDBRANCH   4   7
TORSDOF 1
ENDMDL
