MODEL 1
REMARK minimizedAffinity 3.32454228
REMARK minimizedRMSD -1
REMARK  1 active torsions:
REMARK  status: ('A' for Active; 'I' for Inactive)
REMARK    1  A    between atoms: C3_4  and  O_7 
ROOT
ATOM      1  C   UNL d   1      -1.037   1.825   1.496  0.00  0.00    -0.033 A 
ATOM      2  C1  UNL d   1      -0.436   0.866   0.677  0.00  0.00     0.039 A 
ATOM      3  C2  UNL d   1       0.952   0.721   0.672  0.00  0.00    -0.080 A 
ATOM      4  C3  UNL d   1       1.728   1.539   1.489  0.00  0.00     0.150 A 
ATOM      5  C4  UNL d   1       1.136   2.493   2.310  0.00  0.00    -0.007 A 
ATOM      6  C5  UNL d   1      -0.251   2.637   2.313  0.00  0.00     0.039 A 
ENDROOT
BRANCH   4   7
ATOM      7  O   UNL d   1       3.087   1.438   1.514  0.00  0.00    -0.526 OA
ATOM      8  H5  UNL d   1       3.357   0.757   0.876  0.00  0.00     0.418 HD
ENDBRANCH   4   7
TORSDOF 1
ENDMDL
