MODEL 1
REMARK minimizedAffinity 2.6022079
REMARK minimizedRMSD -1
REMARK  1 active torsions:
REMARK  status: ('A' for Active; 'I' for Inactive)
REMARK    1  A    between atoms: C3_4  and  O_7 
ROOT
ATOM      1  C   UNL d   1       2.014   0.944   0.498  0.00  0.00    -0.033 A 
ATOM      2  C1  UNL d   1       0.655   0.698   0.295  0.00  0.00     0.039 A 
ATOM      3  C2  UNL d   1      -0.298   1.331   1.096  0.00  0.00    -0.080 A 
ATOM      4  C3  UNL d   1       0.122   2.208   2.093  0.00  0.00     0.150 A 
ATOM      5  C4  UNL d   1       1.474   2.460   2.298  0.00  0.00    -0.007 A 
ATOM      6  C5  UNL d   1       2.424   1.826   1.498  0.00  0.00     0.039 A 
ENDROOT
BRANCH   4   7
ATOM      7  O   UNL d   1      -0.771   2.845   2.903  0.00  0.00    -0.526 OA
ATOM      8  H5  UNL d   1      -1.666   2.553   2.664  0.00  0.00     0.418 HD
ENDBRANCH   4   7
TORSDOF 1
ENDMDL
