MODEL 1
REMARK minimizedAffinity -0.570961595
REMARK minimizedRMSD -1
REMARK  1 active torsions:
REMARK  status: ('A' for Active; 'I' for Inactive)
REMARK    1  A    between atoms: C3_4  and  O_7 
ROOT
ATOM      1  C   UNL d   1      -5.071   1.540  -0.721  0.00  0.00    -0.033 A 
ATOM      2  C1  UNL d   1      -4.095   0.602  -1.062  0.00  0.00     0.039 A 
ATOM      3  C2  UNL d   1      -3.608   0.543  -2.370  0.00  0.00    -0.080 A 
ATOM      4  C3  UNL d   1      -4.104   1.426  -3.325  0.00  0.00     0.150 A 
ATOM      5  C4  UNL d   1      -5.074   2.365  -2.991  0.00  0.00    -0.007 A 
ATOM      6  C5  UNL d   1      -5.560   2.423  -1.685  0.00  0.00     0.039 A 
ENDROOT
BRANCH   4   7
ATOM      7  O   UNL d   1      -3.663   1.402  -4.614  0.00  0.00    -0.526 OA
ATOM      8  H5  UNL d   1      -3.016   0.683  -4.705  0.00  0.00     0.418 HD
ENDBRANCH   4   7
TORSDOF 1
ENDMDL
