MODEL 1
REMARK minimizedAffinity -3.43687844
REMARK minimizedRMSD -1
REMARK  1 active torsions:
REMARK  status: ('A' for Active; 'I' for Inactive)
REMARK    1  A    between atoms: C3_4  and  O_7 
ROOT
ATOM      1  C   UNL d   1       1.176   1.196   0.483  0.00  0.00    -0.033 A 
ATOM      2  C1  UNL d   1      -0.214   1.150   0.354  0.00  0.00     0.039 A 
ATOM      3  C2  UNL d   1      -1.026   1.728   1.332  0.00  0.00    -0.080 A 
ATOM      4  C3  UNL d   1      -0.438   2.348   2.431  0.00  0.00     0.150 A 
ATOM      5  C4  UNL d   1       0.946   2.400   2.563  0.00  0.00    -0.007 A 
ATOM      6  C5  UNL d   1       1.756   1.822   1.587  0.00  0.00     0.039 A 
ENDROOT
BRANCH   4   7
ATOM      7  O   UNL d   1      -1.189   2.921   3.413  0.00  0.00    -0.526 OA
ATOM      8  H5  UNL d   1      -2.128   2.782   3.203  0.00  0.00     0.418 HD
ENDBRANCH   4   7
TORSDOF 1
ENDMDL
