MODEL 1
REMARK minimizedAffinity 2.25017667
REMARK minimizedRMSD -1
REMARK  1 active torsions:
REMARK  status: ('A' for Active; 'I' for Inactive)
REMARK    1  A    between atoms: C3_4  and  O_7 
ROOT
ATOM      1  C   UNL d   1       2.063   2.643   1.838  0.00  0.00    -0.033 A 
ATOM      2  C1  UNL d   1       1.035   2.028   1.121  0.00  0.00     0.039 A 
ATOM      3  C2  UNL d   1      -0.257   1.986   1.649  0.00  0.00    -0.080 A 
ATOM      4  C3  UNL d   1      -0.508   2.563   2.891  0.00  0.00     0.150 A 
ATOM      5  C4  UNL d   1       0.511   3.181   3.608  0.00  0.00    -0.007 A 
ATOM      6  C5  UNL d   1       1.801   3.221   3.080  0.00  0.00     0.039 A 
ENDROOT
BRANCH   4   7
ATOM      7  O   UNL d   1      -1.752   2.543   3.448  0.00  0.00    -0.526 OA
ATOM      8  H5  UNL d   1      -2.348   2.057   2.853  0.00  0.00     0.418 HD
ENDBRANCH   4   7
TORSDOF 1
ENDMDL
