MODEL 1
REMARK minimizedAffinity 2.40039635
REMARK minimizedRMSD -1
REMARK  1 active torsions:
REMARK  status: ('A' for Active; 'I' for Inactive)
REMARK    1  A    between atoms: C3_4  and  O_7 
ROOT
ATOM      1  C   UNL d   1      -0.206   1.295   0.403  0.00  0.00    -0.033 A 
ATOM      2  C1  UNL d   1      -0.941   2.118   1.259  0.00  0.00     0.039 A 
ATOM      3  C2  UNL d   1      -0.348   2.632   2.414  0.00  0.00    -0.080 A 
ATOM      4  C3  UNL d   1       0.977   2.318   2.700  0.00  0.00     0.150 A 
ATOM      5  C4  UNL d   1       1.716   1.502   1.850  0.00  0.00    -0.007 A 
ATOM      6  C5  UNL d   1       1.123   0.988   0.697  0.00  0.00     0.039 A 
ENDROOT
BRANCH   4   7
ATOM      7  O   UNL d   1       1.597   2.792   3.818  0.00  0.00    -0.526 OA
ATOM      8  H5  UNL d   1       0.956   3.318   4.325  0.00  0.00     0.418 HD
ENDBRANCH   4   7
TORSDOF 1
ENDMDL
