MODEL 1
REMARK minimizedAffinity -5.59840918
REMARK minimizedRMSD -1
REMARK  1 active torsions:
REMARK  status: ('A' for Active; 'I' for Inactive)
REMARK    1  A    between atoms: C1_2  and  C2_3 
ROOT
ATOM      1  C2  UNL d   1      -0.474   0.173   0.196  0.00  0.00    -0.081 A 
ATOM      2  C3  UNL d   1       0.227   1.323  -0.188  0.00  0.00     0.006 A 
ATOM      3  C4  UNL d   1       1.064   1.303  -1.305  0.00  0.00     0.002 A 
ATOM      4  C5  UNL d   1       1.209   0.135  -2.062  0.00  0.00    -0.080 A 
ATOM      5  C6  UNL d   1       2.081   0.108  -3.282  0.00  0.00     0.076 C 
ATOM      6  C7  UNL d   1       0.522  -1.019  -1.669  0.00  0.00     0.002 A 
ATOM      7  C8  UNL d   1      -0.315  -0.999  -0.552  0.00  0.00     0.006 A 
ENDROOT
BRANCH   1   8
ATOM      8  C1  UNL d   1      -1.428   0.210   1.362  0.00  0.00     0.054 C 
ATOM      9  C   UNL d   1      -2.865   0.395   0.896  0.00  0.00     0.018 C 
ENDBRANCH   1   8
TORSDOF 1
ENDMDL
