MODEL 1
REMARK minimizedAffinity -4.93708944
REMARK minimizedRMSD -1
REMARK  1 active torsions:
REMARK  status: ('A' for Active; 'I' for Inactive)
REMARK    1  A    between atoms: C1_2  and  C2_3 
ROOT
ATOM      1  C2  UNL d   1       1.379  -0.088  -1.760  0.00  0.00    -0.081 A 
ATOM      2  C3  UNL d   1       1.689   0.931  -0.852  0.00  0.00     0.006 A 
ATOM      3  C4  UNL d   1       0.822   1.227   0.203  0.00  0.00     0.002 A 
ATOM      4  C5  UNL d   1      -0.363   0.504   0.372  0.00  0.00    -0.080 A 
ATOM      5  C6  UNL d   1      -1.288   0.792   1.517  0.00  0.00     0.076 C 
ATOM      6  C7  UNL d   1      -0.682  -0.502  -0.546  0.00  0.00     0.002 A 
ATOM      7  C8  UNL d   1       0.184  -0.798  -1.601  0.00  0.00     0.006 A 
ENDROOT
BRANCH   1   8
ATOM      8  C1  UNL d   1       2.343  -0.453  -2.861  0.00  0.00     0.054 C 
ATOM      9  C   UNL d   1       3.316  -1.532  -2.409  0.00  0.00     0.018 C 
ENDBRANCH   1   8
TORSDOF 1
ENDMDL
