MODEL 1
REMARK minimizedAffinity -4.77568865
REMARK minimizedRMSD -1
REMARK  1 active torsions:
REMARK  status: ('A' for Active; 'I' for Inactive)
REMARK    1  A    between atoms: C1_2  and  C2_3 
ROOT
ATOM      1  C2  UNL d   1      -0.222   0.166   0.447  0.00  0.00    -0.081 A 
ATOM      2  C3  UNL d   1       0.396   1.210  -0.253  0.00  0.00     0.006 A 
ATOM      3  C4  UNL d   1       1.157   0.943  -1.394  0.00  0.00     0.002 A 
ATOM      4  C5  UNL d   1       1.306  -0.368  -1.858  0.00  0.00    -0.080 A 
ATOM      5  C6  UNL d   1       2.095  -0.664  -3.099  0.00  0.00     0.076 C 
ATOM      6  C7  UNL d   1       0.702  -1.412  -1.149  0.00  0.00     0.002 A 
ATOM      7  C8  UNL d   1      -0.058  -1.147  -0.008  0.00  0.00     0.006 A 
ENDROOT
BRANCH   1   8
ATOM      8  C1  UNL d   1      -1.096   0.457   1.640  0.00  0.00     0.054 C 
ATOM      9  C   UNL d   1      -2.561   0.561   1.241  0.00  0.00     0.018 C 
ENDBRANCH   1   8
TORSDOF 1
ENDMDL
