MODEL 1
REMARK minimizedAffinity -1.75671446
REMARK minimizedRMSD -1
REMARK  1 active torsions:
REMARK  status: ('A' for Active; 'I' for Inactive)
REMARK    1  A    between atoms: C1_2  and  C2_3 
ROOT
ATOM      1  C2  UNL d   1      -1.284   0.099   0.767  0.00  0.00    -0.081 A 
ATOM      2  C3  UNL d   1      -0.459   1.215   0.581  0.00  0.00     0.006 A 
ATOM      3  C4  UNL d   1       0.614   1.161  -0.311  0.00  0.00     0.002 A 
ATOM      4  C5  UNL d   1       0.876  -0.006  -1.037  0.00  0.00    -0.080 A 
ATOM      5  C6  UNL d   1       2.007  -0.068  -2.020  0.00  0.00     0.076 C 
ATOM      6  C7  UNL d   1       0.063  -1.127  -0.837  0.00  0.00     0.002 A 
ATOM      7  C8  UNL d   1      -1.010  -1.074   0.055  0.00  0.00     0.006 A 
ENDROOT
BRANCH   1   8
ATOM      8  C1  UNL d   1      -2.481   0.175   1.680  0.00  0.00     0.054 C 
ATOM      9  C   UNL d   1      -3.781   0.044   0.900  0.00  0.00     0.018 C 
ENDBRANCH   1   8
TORSDOF 1
ENDMDL
