MODEL 1
REMARK minimizedAffinity -5.44817877
REMARK minimizedRMSD -1
REMARK  1 active torsions:
REMARK  status: ('A' for Active; 'I' for Inactive)
REMARK    1  A    between atoms: C1_2  and  C2_3 
ROOT
ATOM      1  C2  UNL d   1      -1.382   0.391   0.560  0.00  0.00    -0.081 A 
ATOM      2  C3  UNL d   1      -0.099   0.475   1.115  0.00  0.00     0.006 A 
ATOM      3  C4  UNL d   1       1.024   0.572   0.291  0.00  0.00     0.002 A 
ATOM      4  C5  UNL d   1       0.884   0.595  -1.101  0.00  0.00    -0.080 A 
ATOM      5  C6  UNL d   1       2.079   0.729  -1.996  0.00  0.00     0.076 C 
ATOM      6  C7  UNL d   1      -0.396   0.494  -1.656  0.00  0.00     0.002 A 
ATOM      7  C8  UNL d   1      -1.520   0.396  -0.832  0.00  0.00     0.006 A 
ENDROOT
BRANCH   1   8
ATOM      8  C1  UNL d   1      -2.600   0.352   1.448  0.00  0.00     0.054 C 
ATOM      9  C   UNL d   1      -3.873   0.174   0.632  0.00  0.00     0.018 C 
ENDBRANCH   1   8
TORSDOF 1
ENDMDL
