MODEL 1
REMARK minimizedAffinity -5.27271652
REMARK minimizedRMSD -1
REMARK  1 active torsions:
REMARK  status: ('A' for Active; 'I' for Inactive)
REMARK    1  A    between atoms: C1_2  and  C2_3 
ROOT
ATOM      1  C2  UNL d   1      -1.045   0.194   0.274  0.00  0.00    -0.081 A 
ATOM      2  C3  UNL d   1      -1.034  -0.600  -0.879  0.00  0.00     0.006 A 
ATOM      3  C4  UNL d   1      -0.036  -0.435  -1.843  0.00  0.00     0.002 A 
ATOM      4  C5  UNL d   1       0.970   0.521  -1.667  0.00  0.00    -0.080 A 
ATOM      5  C6  UNL d   1       2.063   0.688  -2.680  0.00  0.00     0.076 C 
ATOM      6  C7  UNL d   1       0.948   1.327  -0.524  0.00  0.00     0.002 A 
ATOM      7  C8  UNL d   1      -0.049   1.163   0.440  0.00  0.00     0.006 A 
ENDROOT
BRANCH   1   8
ATOM      8  C1  UNL d   1      -2.082  -0.026   1.346  0.00  0.00     0.054 C 
ATOM      9  C   UNL d   1      -3.490   0.170   0.802  0.00  0.00     0.018 C 
ENDBRANCH   1   8
TORSDOF 1
ENDMDL
