MODEL 1
REMARK minimizedAffinity -3.73502302
REMARK minimizedRMSD -1
REMARK  1 active torsions:
REMARK  status: ('A' for Active; 'I' for Inactive)
REMARK    1  A    between atoms: C1_2  and  C2_3 
ROOT
ATOM      1  C2  UNL d   1      -0.531   0.379   0.951  0.00  0.00    -0.081 A 
ATOM      2  C3  UNL d   1       0.132   1.559   0.594  0.00  0.00     0.006 A 
ATOM      3  C4  UNL d   1       0.895   1.617  -0.575  0.00  0.00     0.002 A 
ATOM      4  C5  UNL d   1       1.001   0.499  -1.409  0.00  0.00    -0.080 A 
ATOM      5  C6  UNL d   1       1.793   0.557  -2.682  0.00  0.00     0.076 C 
ATOM      6  C7  UNL d   1       0.353  -0.686  -1.044  0.00  0.00     0.002 A 
ATOM      7  C8  UNL d   1      -0.410  -0.744   0.125  0.00  0.00     0.006 A 
ENDROOT
BRANCH   1   8
ATOM      8  C1  UNL d   1      -1.408   0.332   2.176  0.00  0.00     0.054 C 
ATOM      9  C   UNL d   1      -2.826   0.786   1.860  0.00  0.00     0.018 C 
ENDBRANCH   1   8
TORSDOF 1
ENDMDL
