MODEL 1
REMARK minimizedAffinity -3.95903707
REMARK minimizedRMSD -1
REMARK  1 active torsions:
REMARK  status: ('A' for Active; 'I' for Inactive)
REMARK    1  A    between atoms: C1_2  and  C2_3 
ROOT
ATOM      1  C2  UNL d   1      -0.258   0.089   0.709  0.00  0.00    -0.081 A 
ATOM      2  C3  UNL d   1      -0.302  -1.074  -0.068  0.00  0.00     0.006 A 
ATOM      3  C4  UNL d   1       0.337  -1.121  -1.309  0.00  0.00     0.002 A 
ATOM      4  C5  UNL d   1       1.036  -0.009  -1.790  0.00  0.00    -0.080 A 
ATOM      5  C6  UNL d   1       1.752  -0.056  -3.107  0.00  0.00     0.076 C 
ATOM      6  C7  UNL d   1       1.066   1.159  -1.021  0.00  0.00     0.002 A 
ATOM      7  C8  UNL d   1       0.427   1.207   0.220  0.00  0.00     0.006 A 
ENDROOT
BRANCH   1   8
ATOM      8  C1  UNL d   1      -0.891   0.122   2.077  0.00  0.00     0.054 C 
ATOM      9  C   UNL d   1      -2.267   0.772   2.034  0.00  0.00     0.018 C 
ENDBRANCH   1   8
TORSDOF 1
ENDMDL
