MODEL 1
REMARK minimizedAffinity -2.25795031
REMARK minimizedRMSD -1
REMARK  1 active torsions:
REMARK  status: ('A' for Active; 'I' for Inactive)
REMARK    1  A    between atoms: C1_2  and  C2_3 
ROOT
ATOM      1  C2  UNL d   1      -1.121   0.377   1.101  0.00  0.00    -0.081 A 
ATOM      2  C3  UNL d   1      -0.405   1.541   0.796  0.00  0.00     0.006 A 
ATOM      3  C4  UNL d   1       0.574   1.529  -0.200  0.00  0.00     0.002 A 
ATOM      4  C5  UNL d   1       0.847   0.357  -0.913  0.00  0.00    -0.080 A 
ATOM      5  C6  UNL d   1       1.875   0.338  -2.005  0.00  0.00     0.076 C 
ATOM      6  C7  UNL d   1       0.144  -0.811  -0.596  0.00  0.00     0.002 A 
ATOM      7  C8  UNL d   1      -0.834  -0.800   0.400  0.00  0.00     0.006 A 
ENDROOT
BRANCH   1   8
ATOM      8  C1  UNL d   1      -2.223   0.402   2.131  0.00  0.00     0.054 C 
ATOM      9  C   UNL d   1      -3.527   0.910   1.533  0.00  0.00     0.018 C 
ENDBRANCH   1   8
TORSDOF 1
ENDMDL
