MODEL 1
REMARK minimizedAffinity -1.94258666
REMARK minimizedRMSD -1
REMARK  1 active torsions:
REMARK  status: ('A' for Active; 'I' for Inactive)
REMARK    1  A    between atoms: C1_2  and  C2_3 
ROOT
ATOM      1  C2  UNL d   1      -0.796   0.003   1.131  0.00  0.00    -0.081 A 
ATOM      2  C3  UNL d   1       0.101   1.054   0.903  0.00  0.00     0.006 A 
ATOM      3  C4  UNL d   1       0.967   1.022  -0.192  0.00  0.00     0.002 A 
ATOM      4  C5  UNL d   1       0.945  -0.057  -1.083  0.00  0.00    -0.080 A 
ATOM      5  C6  UNL d   1       1.848  -0.090  -2.280  0.00  0.00     0.076 C 
ATOM      6  C7  UNL d   1       0.061  -1.115  -0.846  0.00  0.00     0.002 A 
ATOM      7  C8  UNL d   1      -0.804  -1.084   0.250  0.00  0.00     0.006 A 
ENDROOT
BRANCH   1   8
ATOM      8  C1  UNL d   1      -1.775   0.065   2.275  0.00  0.00     0.054 C 
ATOM      9  C   UNL d   1      -3.198   0.274   1.775  0.00  0.00     0.018 C 
ENDBRANCH   1   8
TORSDOF 1
ENDMDL
