MODEL 1
REMARK minimizedAffinity -3.30486751
REMARK minimizedRMSD -1
REMARK  1 active torsions:
REMARK  status: ('A' for Active; 'I' for Inactive)
REMARK    1  A    between atoms: C1_2  and  C2_3 
ROOT
ATOM      1  C2  UNL d   1       1.251   0.102  -1.546  0.00  0.00    -0.081 A 
ATOM      2  C3  UNL d   1       0.533  -1.027  -1.132  0.00  0.00     0.006 A 
ATOM      3  C4  UNL d   1      -0.327  -0.956  -0.034  0.00  0.00     0.002 A 
ATOM      4  C5  UNL d   1      -0.490   0.245   0.663  0.00  0.00    -0.080 A 
ATOM      5  C6  UNL d   1      -1.434   0.343   1.825  0.00  0.00     0.076 C 
ATOM      6  C7  UNL d   1       0.241   1.369   0.261  0.00  0.00     0.002 A 
ATOM      7  C8  UNL d   1       1.102   1.298  -0.836  0.00  0.00     0.006 A 
ENDROOT
BRANCH   1   8
ATOM      8  C1  UNL d   1       2.131   0.045  -2.769  0.00  0.00     0.054 C 
ATOM      9  C   UNL d   1       2.640  -1.367  -3.020  0.00  0.00     0.018 C 
ENDBRANCH   1   8
TORSDOF 1
ENDMDL
