MODEL 1
REMARK minimizedAffinity -2.84663105
REMARK minimizedRMSD -1
REMARK  1 active torsions:
REMARK  status: ('A' for Active; 'I' for Inactive)
REMARK    1  A    between atoms: C1_2  and  C2_3 
ROOT
ATOM      1  C2  UNL d   1      -0.865   0.457   1.047  0.00  0.00    -0.081 A 
ATOM      2  C3  UNL d   1      -0.243  -0.754   0.719  0.00  0.00     0.006 A 
ATOM      3  C4  UNL d   1       0.456  -0.889  -0.483  0.00  0.00     0.002 A 
ATOM      4  C5  UNL d   1       0.552   0.186  -1.372  0.00  0.00    -0.080 A 
ATOM      5  C6  UNL d   1       1.325   0.065  -2.652  0.00  0.00     0.076 C 
ATOM      6  C7  UNL d   1      -0.083   1.391  -1.053  0.00  0.00     0.002 A 
ATOM      7  C8  UNL d   1      -0.783   1.526   0.148  0.00  0.00     0.006 A 
ENDROOT
BRANCH   1   8
ATOM      8  C1  UNL d   1      -1.564   0.625   2.372  0.00  0.00     0.054 C 
ATOM      9  C   UNL d   1      -3.001   1.093   2.183  0.00  0.00     0.018 C 
ENDBRANCH   1   8
TORSDOF 1
ENDMDL
