MODEL 1
REMARK minimizedAffinity -4.61321259
REMARK minimizedRMSD -1
REMARK  1 active torsions:
REMARK  status: ('A' for Active; 'I' for Inactive)
REMARK    1  A    between atoms: C1_2  and  C2_3 
ROOT
ATOM      1  C2  UNL d   1      -0.060   0.297   0.300  0.00  0.00    -0.081 A 
ATOM      2  C3  UNL d   1       0.674   1.101  -0.581  0.00  0.00     0.006 A 
ATOM      3  C4  UNL d   1       1.376   0.529  -1.645  0.00  0.00     0.002 A 
ATOM      4  C5  UNL d   1       1.350  -0.855  -1.849  0.00  0.00    -0.080 A 
ATOM      5  C6  UNL d   1       2.074  -1.479  -3.005  0.00  0.00     0.076 C 
ATOM      6  C7  UNL d   1       0.632  -1.660  -0.959  0.00  0.00     0.002 A 
ATOM      7  C8  UNL d   1      -0.070  -1.088   0.105  0.00  0.00     0.006 A 
ENDROOT
BRANCH   1   8
ATOM      8  C1  UNL d   1      -0.870   0.917   1.409  0.00  0.00     0.054 C 
ATOM      9  C   UNL d   1      -2.222   0.234   1.555  0.00  0.00     0.018 C 
ENDBRANCH   1   8
TORSDOF 1
ENDMDL
