MODEL 1
REMARK minimizedAffinity -5.0841136
REMARK minimizedRMSD -1
REMARK  1 active torsions:
REMARK  status: ('A' for Active; 'I' for Inactive)
REMARK    1  A    between atoms: C1_2  and  C2_3 
ROOT
ATOM      1  C2  UNL d   1      -0.143   0.027   0.712  0.00  0.00    -0.081 A 
ATOM      2  C3  UNL d   1       0.346   1.230   0.188  0.00  0.00     0.006 A 
ATOM      3  C4  UNL d   1       0.863   1.280  -1.109  0.00  0.00     0.002 A 
ATOM      4  C5  UNL d   1       0.891   0.131  -1.906  0.00  0.00    -0.080 A 
ATOM      5  C6  UNL d   1       1.415   0.177  -3.311  0.00  0.00     0.076 C 
ATOM      6  C7  UNL d   1       0.418  -1.075  -1.377  0.00  0.00     0.002 A 
ATOM      7  C8  UNL d   1      -0.098  -1.125  -0.080  0.00  0.00     0.006 A 
ENDROOT
BRANCH   1   8
ATOM      8  C1  UNL d   1      -0.760  -0.015   2.087  0.00  0.00     0.054 C 
ATOM      9  C   UNL d   1      -2.278   0.075   2.015  0.00  0.00     0.018 C 
ENDBRANCH   1   8
TORSDOF 1
ENDMDL
