MODEL 1
REMARK minimizedAffinity -2.40075111
REMARK minimizedRMSD -1
REMARK  0 active torsions:
REMARK  status: ('A' for Active; 'I' for Inactive)
ROOT
ATOM      1  C2' OXE d   1      -2.127   1.063  -0.904  0.00  0.00     0.078 C 
ATOM      2  C1' OXE d   1      -1.429  -1.197   0.608  0.00  0.00     0.078 C 
ATOM      3  C1  OXE d   1      -0.437  -0.063   0.538  0.00  0.00    -0.078 A 
ATOM      4  C2  OXE d   1      -0.767   1.019  -0.242  0.00  0.00    -0.078 A 
ATOM      5  C3  OXE d   1       0.088   2.116  -0.296  0.00  0.00     0.003 A 
ATOM      6  C4  OXE d   1       1.348   2.063   0.311  0.00  0.00    -0.002 A 
ATOM      7  C5  OXE d   1       1.721   0.954   1.078  0.00  0.00    -0.002 A 
ATOM      8  C6  OXE d   1       0.825  -0.098   1.236  0.00  0.00     0.003 A 
ENDROOT
TORSDOF 0
ENDMDL
