MODEL 1
REMARK minimizedAffinity -4.35348845
REMARK minimizedRMSD -1
REMARK  0 active torsions:
REMARK  status: ('A' for Active; 'I' for Inactive)
ROOT
ATOM      1  C2' OXE d   1      -0.149  -2.173  -0.257  0.00  0.00     0.078 C 
ATOM      2  C1' OXE d   1      -1.205   0.397   0.139  0.00  0.00     0.078 C 
ATOM      3  C1  OXE d   1       0.287   0.223   0.266  0.00  0.00    -0.078 A 
ATOM      4  C2  OXE d   1       0.790  -1.047   0.117  0.00  0.00    -0.078 A 
ATOM      5  C3  OXE d   1       2.166  -1.254   0.170  0.00  0.00     0.003 A 
ATOM      6  C4  OXE d   1       3.027  -0.209   0.526  0.00  0.00    -0.002 A 
ATOM      7  C5  OXE d   1       2.531   1.084   0.721  0.00  0.00    -0.002 A 
ATOM      8  C6  OXE d   1       1.172   1.325   0.553  0.00  0.00     0.003 A 
ENDROOT
TORSDOF 0
ENDMDL
