MODEL 1
REMARK minimizedAffinity -5.15636921
REMARK minimizedRMSD -1
REMARK  0 active torsions:
REMARK  status: ('A' for Active; 'I' for Inactive)
ROOT
ATOM      1  C2' OXE d   1      -0.061  -2.181  -0.116  0.00  0.00     0.078 C 
ATOM      2  C1' OXE d   1      -1.074   0.432   0.060  0.00  0.00     0.078 C 
ATOM      3  C1  OXE d   1       0.409   0.237   0.257  0.00  0.00    -0.078 A 
ATOM      4  C2  OXE d   1       0.889  -1.050   0.216  0.00  0.00    -0.078 A 
ATOM      5  C3  OXE d   1       2.256  -1.280   0.337  0.00  0.00     0.003 A 
ATOM      6  C4  OXE d   1       3.126  -0.230   0.654  0.00  0.00    -0.002 A 
ATOM      7  C5  OXE d   1       2.652   1.083   0.740  0.00  0.00    -0.002 A 
ATOM      8  C6  OXE d   1       1.306   1.339   0.503  0.00  0.00     0.003 A 
ENDROOT
TORSDOF 0
ENDMDL
