MODEL 1
REMARK minimizedAffinity -5.85570383
REMARK minimizedRMSD -1
REMARK  0 active torsions:
REMARK  status: ('A' for Active; 'I' for Inactive)
ROOT
ATOM      1  C2' OXE d   1      -0.514   0.042  -0.905  0.00  0.00     0.078 C 
ATOM      2  C1' OXE d   1       1.161   2.142  -0.091  0.00  0.00     0.078 C 
ATOM      3  C1  OXE d   1       1.601   0.733   0.215  0.00  0.00    -0.078 A 
ATOM      4  C2  OXE d   1       0.753  -0.287  -0.145  0.00  0.00    -0.078 A 
ATOM      5  C3  OXE d   1       1.135  -1.608   0.065  0.00  0.00     0.003 A 
ATOM      6  C4  OXE d   1       2.304  -1.903   0.777  0.00  0.00    -0.002 A 
ATOM      7  C5  OXE d   1       3.163  -0.878   1.188  0.00  0.00    -0.002 A 
ATOM      8  C6  OXE d   1       2.848   0.440   0.878  0.00  0.00     0.003 A 
ENDROOT
TORSDOF 0
ENDMDL
