MODEL 1
REMARK minimizedAffinity -3.74345613
REMARK minimizedRMSD -1
REMARK  0 active torsions:
REMARK  status: ('A' for Active; 'I' for Inactive)
ROOT
ATOM      1  C2' OXE d   1       2.637   1.539  -0.112  0.00  0.00     0.078 C 
ATOM      2  C1' OXE d   1      -0.092   1.860  -0.683  0.00  0.00     0.078 C 
ATOM      3  C1  OXE d   1       0.435   0.454  -0.536  0.00  0.00    -0.078 A 
ATOM      4  C2  OXE d   1       1.781   0.305  -0.302  0.00  0.00    -0.078 A 
ATOM      5  C3  OXE d   1       2.310  -0.967  -0.104  0.00  0.00     0.003 A 
ATOM      6  C4  OXE d   1       1.513  -2.103  -0.292  0.00  0.00    -0.002 A 
ATOM      7  C5  OXE d   1       0.148  -1.974  -0.570  0.00  0.00    -0.002 A 
ATOM      8  C6  OXE d   1      -0.414  -0.705  -0.652  0.00  0.00     0.003 A 
ENDROOT
TORSDOF 0
ENDMDL
