MODEL 1
REMARK minimizedAffinity 6.64627647
REMARK minimizedRMSD -1
REMARK  0 active torsions:
REMARK  status: ('A' for Active; 'I' for Inactive)
ROOT
ATOM      1  C2' OXE d   1      -0.572  -3.637  -0.508  0.00  0.00     0.078 C 
ATOM      2  C1' OXE d   1       2.041  -2.652  -0.215  0.00  0.00     0.078 C 
ATOM      3  C1  OXE d   1       0.901  -1.672  -0.090  0.00  0.00    -0.078 A 
ATOM      4  C2  OXE d   1      -0.371  -2.154  -0.281  0.00  0.00    -0.078 A 
ATOM      5  C3  OXE d   1      -1.462  -1.304  -0.123  0.00  0.00     0.003 A 
ATOM      6  C4  OXE d   1      -1.268   0.068   0.077  0.00  0.00    -0.002 A 
ATOM      7  C5  OXE d   1       0.022   0.587   0.235  0.00  0.00    -0.002 A 
ATOM      8  C6  OXE d   1       1.113  -0.275   0.196  0.00  0.00     0.003 A 
ENDROOT
TORSDOF 0
ENDMDL
