MODEL 1
REMARK minimizedAffinity 18.0428886
REMARK minimizedRMSD -1
REMARK  0 active torsions:
REMARK  status: ('A' for Active; 'I' for Inactive)
ROOT
ATOM      1  C2' OXE d   1      -2.166  -1.718   0.741  0.00  0.00     0.078 C 
ATOM      2  C1' OXE d   1      -2.545   0.877   1.741  0.00  0.00     0.078 C 
ATOM      3  C1  OXE d   1      -1.219   0.208   2.005  0.00  0.00    -0.078 A 
ATOM      4  C2  OXE d   1      -1.060  -1.079   1.552  0.00  0.00    -0.078 A 
ATOM      5  C3  OXE d   1       0.163  -1.723   1.721  0.00  0.00     0.003 A 
ATOM      6  C4  OXE d   1       1.178  -1.129   2.481  0.00  0.00    -0.002 A 
ATOM      7  C5  OXE d   1       1.021   0.167   2.985  0.00  0.00    -0.002 A 
ATOM      8  C6  OXE d   1      -0.152   0.864   2.720  0.00  0.00     0.003 A 
ENDROOT
TORSDOF 0
ENDMDL
