MODEL 1
REMARK minimizedAffinity 2.00033379
REMARK minimizedRMSD -1
REMARK  0 active torsions:
REMARK  status: ('A' for Active; 'I' for Inactive)
ROOT
ATOM      1  C2' OXE d   1       4.100  -2.406   5.969  0.00  0.00     0.078 C 
ATOM      2  C1' OXE d   1       3.893  -0.020   4.506  0.00  0.00     0.078 C 
ATOM      3  C1  OXE d   1       2.837  -1.074   4.286  0.00  0.00    -0.078 A 
ATOM      4  C2  OXE d   1       2.972  -2.257   4.972  0.00  0.00    -0.078 A 
ATOM      5  C3  OXE d   1       1.995  -3.241   4.847  0.00  0.00     0.003 A 
ATOM      6  C4  OXE d   1       0.961  -3.099   3.914  0.00  0.00    -0.002 A 
ATOM      7  C5  OXE d   1       0.827  -1.918   3.177  0.00  0.00    -0.002 A 
ATOM      8  C6  OXE d   1       1.730  -0.881   3.381  0.00  0.00     0.003 A 
ENDROOT
TORSDOF 0
ENDMDL
