MODEL 1
REMARK minimizedAffinity 6.23884583
REMARK minimizedRMSD -1
REMARK  0 active torsions:
REMARK  status: ('A' for Active; 'I' for Inactive)
ROOT
ATOM      1  C2' OXE d   1      -2.234  -4.813  -4.851  0.00  0.00     0.078 C 
ATOM      2  C1' OXE d   1      -2.245  -3.218  -2.541  0.00  0.00     0.078 C 
ATOM      3  C1  OXE d   1      -1.478  -2.716  -3.739  0.00  0.00    -0.078 A 
ATOM      4  C2  OXE d   1      -1.439  -3.525  -4.849  0.00  0.00    -0.078 A 
ATOM      5  C3  OXE d   1      -0.791  -3.086  -6.000  0.00  0.00     0.003 A 
ATOM      6  C4  OXE d   1      -0.049  -1.898  -5.986  0.00  0.00    -0.002 A 
ATOM      7  C5  OXE d   1      -0.043  -1.078  -4.852  0.00  0.00    -0.002 A 
ATOM      8  C6  OXE d   1      -0.785  -1.451  -3.737  0.00  0.00     0.003 A 
ENDROOT
TORSDOF 0
ENDMDL
