MODEL 1
REMARK minimizedAffinity 12.201705
REMARK minimizedRMSD -1
REMARK  0 active torsions:
REMARK  status: ('A' for Active; 'I' for Inactive)
ROOT
ATOM      1  C2' OXE d   1       0.779  -3.278   4.284  0.00  0.00     0.078 C 
ATOM      2  C1' OXE d   1       1.339  -0.538   4.039  0.00  0.00     0.078 C 
ATOM      3  C1  OXE d   1       2.503  -1.481   4.214  0.00  0.00    -0.078 A 
ATOM      4  C2  OXE d   1       2.216  -2.815   4.380  0.00  0.00    -0.078 A 
ATOM      5  C3  OXE d   1       3.255  -3.734   4.490  0.00  0.00     0.003 A 
ATOM      6  C4  OXE d   1       4.582  -3.297   4.588  0.00  0.00    -0.002 A 
ATOM      7  C5  OXE d   1       4.892  -1.939   4.462  0.00  0.00    -0.002 A 
ATOM      8  C6  OXE d   1       3.870  -1.024   4.232  0.00  0.00     0.003 A 
ENDROOT
TORSDOF 0
ENDMDL
