MODEL 1
REMARK minimizedAffinity 6.26626205
REMARK minimizedRMSD -1
REMARK  0 active torsions:
REMARK  status: ('A' for Active; 'I' for Inactive)
ROOT
ATOM      1  C2' OXE d   1      -0.736  -1.557  -4.590  0.00  0.00     0.078 C 
ATOM      2  C1' OXE d   1      -1.513  -2.900  -2.250  0.00  0.00     0.078 C 
ATOM      3  C1  OXE d   1      -1.548  -3.669  -3.547  0.00  0.00    -0.078 A 
ATOM      4  C2  OXE d   1      -1.211  -2.990  -4.694  0.00  0.00    -0.078 A 
ATOM      5  C3  OXE d   1      -1.173  -3.667  -5.910  0.00  0.00     0.003 A 
ATOM      6  C4  OXE d   1      -1.623  -4.990  -5.999  0.00  0.00    -0.002 A 
ATOM      7  C5  OXE d   1      -2.009  -5.687  -4.849  0.00  0.00    -0.002 A 
ATOM      8  C6  OXE d   1      -1.937  -5.056  -3.612  0.00  0.00     0.003 A 
ENDROOT
TORSDOF 0
ENDMDL
