MODEL 1
REMARK minimizedAffinity 11.5176735
REMARK minimizedRMSD -1
REMARK  0 active torsions:
REMARK  status: ('A' for Active; 'I' for Inactive)
ROOT
ATOM      1  C2' OXE d   1       0.111  -0.741  -3.745  0.00  0.00     0.078 C 
ATOM      2  C1' OXE d   1      -0.936  -2.507  -1.831  0.00  0.00     0.078 C 
ATOM      3  C1  OXE d   1      -1.105  -2.866  -3.286  0.00  0.00    -0.078 A 
ATOM      4  C2  OXE d   1      -0.631  -1.973  -4.217  0.00  0.00    -0.078 A 
ATOM      5  C3  OXE d   1      -0.713  -2.281  -5.572  0.00  0.00     0.003 A 
ATOM      6  C4  OXE d   1      -1.409  -3.418  -5.999  0.00  0.00    -0.002 A 
ATOM      7  C5  OXE d   1      -1.934  -4.321  -5.069  0.00  0.00    -0.002 A 
ATOM      8  C6  OXE d   1      -1.754  -4.082  -3.711  0.00  0.00     0.003 A 
ENDROOT
TORSDOF 0
ENDMDL
