MODEL 1
REMARK minimizedAffinity -4.18434954
REMARK minimizedRMSD -1
REMARK  1 active torsions:
REMARK  status: ('A' for Active; 'I' for Inactive)
REMARK    1  A    between atoms: C1_2  and  C2_3 
ROOT
ATOM      1  C2  UNL d   1       0.086  -1.013   1.557  0.00  0.00    -0.077 A 
ATOM      2  C3  UNL d   1      -0.215  -0.276   0.404  0.00  0.00     0.002 A 
ATOM      3  C4  UNL d   1       0.621  -0.340  -0.713  0.00  0.00     0.002 A 
ATOM      4  C5  UNL d   1       1.759  -1.143  -0.689  0.00  0.00    -0.004 A 
ATOM      5  C6  UNL d   1       2.068  -1.879   0.454  0.00  0.00     0.002 A 
ATOM      6  C7  UNL d   1       1.235  -1.815   1.572  0.00  0.00     0.002 A 
ENDROOT
BRANCH   1   7
ATOM      7  C1  UNL d   1      -0.840  -0.984   2.745  0.00  0.00     0.055 C 
ATOM      8  C   UNL d   1      -0.312  -1.849   3.880  0.00  0.00     0.019 C 
ENDBRANCH   1   7
TORSDOF 1
ENDMDL
