MODEL 1
REMARK minimizedAffinity -2.74922919
REMARK minimizedRMSD -1
REMARK  1 active torsions:
REMARK  status: ('A' for Active; 'I' for Inactive)
REMARK    1  A    between atoms: C1_2  and  C2_3 
ROOT
ATOM      1  C2  UNL d   1       0.723  -0.706   0.857  0.00  0.00    -0.077 A 
ATOM      2  C3  UNL d   1       1.201  -0.025  -0.271  0.00  0.00     0.002 A 
ATOM      3  C4  UNL d   1       0.440   0.986  -0.861  0.00  0.00     0.002 A 
ATOM      4  C5  UNL d   1      -0.801   1.327  -0.329  0.00  0.00    -0.004 A 
ATOM      5  C6  UNL d   1      -1.287   0.654   0.792  0.00  0.00     0.002 A 
ATOM      6  C7  UNL d   1      -0.528  -0.357   1.382  0.00  0.00     0.002 A 
ENDROOT
BRANCH   1   7
ATOM      7  C1  UNL d   1       1.563  -1.763   1.525  0.00  0.00     0.055 C 
ATOM      8  C   UNL d   1       0.955  -2.199   2.850  0.00  0.00     0.019 C 
ENDBRANCH   1   7
TORSDOF 1
ENDMDL
