MODEL 1
REMARK minimizedAffinity -1.94071198
REMARK minimizedRMSD -1
REMARK  1 active torsions:
REMARK  status: ('A' for Active; 'I' for Inactive)
REMARK    1  A    between atoms: C1_2  and  C2_3 
ROOT
ATOM      1  C2  UNL d   1      -0.213   0.420   0.110  0.00  0.00    -0.077 A 
ATOM      2  C3  UNL d   1      -0.853  -0.230   1.175  0.00  0.00     0.002 A 
ATOM      3  C4  UNL d   1      -0.227  -1.291   1.833  0.00  0.00     0.002 A 
ATOM      4  C5  UNL d   1       1.042  -1.708   1.437  0.00  0.00    -0.004 A 
ATOM      5  C6  UNL d   1       1.685  -1.069   0.378  0.00  0.00     0.002 A 
ATOM      6  C7  UNL d   1       1.061  -0.010  -0.282  0.00  0.00     0.002 A 
ENDROOT
BRANCH   1   7
ATOM      7  C1  UNL d   1      -0.866   1.595  -0.569  0.00  0.00     0.055 C 
ATOM      8  C   UNL d   1      -1.915   1.142  -1.574  0.00  0.00     0.019 C 
ENDBRANCH   1   7
TORSDOF 1
ENDMDL
