MODEL 1
REMARK minimizedAffinity -4.65467548
REMARK minimizedRMSD -1
REMARK  1 active torsions:
REMARK  status: ('A' for Active; 'I' for Inactive)
REMARK    1  A    between atoms: C1_2  and  C2_3 
ROOT
ATOM      1  C2  UNL d   1      -1.611   2.407  -2.834  0.00  0.00    -0.077 A 
ATOM      2  C3  UNL d   1      -2.871   2.415  -2.220  0.00  0.00     0.002 A 
ATOM      3  C4  UNL d   1      -3.637   1.249  -2.163  0.00  0.00     0.002 A 
ATOM      4  C5  UNL d   1      -3.149   0.066  -2.714  0.00  0.00    -0.004 A 
ATOM      5  C6  UNL d   1      -1.898   0.048  -3.329  0.00  0.00     0.002 A 
ATOM      6  C7  UNL d   1      -1.132   1.213  -3.388  0.00  0.00     0.002 A 
ENDROOT
BRANCH   1   7
ATOM      7  C1  UNL d   1      -0.763   3.652  -2.853  0.00  0.00     0.055 C 
ATOM      8  C   UNL d   1      -0.229   3.937  -4.249  0.00  0.00     0.019 C 
ENDBRANCH   1   7
TORSDOF 1
ENDMDL
