MODEL 1
REMARK minimizedAffinity -3.89618921
REMARK minimizedRMSD -1
REMARK  1 active torsions:
REMARK  status: ('A' for Active; 'I' for Inactive)
REMARK    1  A    between atoms: C1_2  and  C2_3 
ROOT
ATOM      1  C2  UNL d   1       0.712  -1.475   1.639  0.00  0.00    -0.077 A 
ATOM      2  C3  UNL d   1       2.037  -1.603   1.199  0.00  0.00     0.002 A 
ATOM      3  C4  UNL d   1       2.459  -0.964   0.032  0.00  0.00     0.002 A 
ATOM      4  C5  UNL d   1       1.564  -0.189  -0.703  0.00  0.00    -0.004 A 
ATOM      5  C6  UNL d   1       0.243  -0.057  -0.276  0.00  0.00     0.002 A 
ATOM      6  C7  UNL d   1      -0.181  -0.696   0.890  0.00  0.00     0.002 A 
ENDROOT
BRANCH   1   7
ATOM      7  C1  UNL d   1       0.267  -2.123   2.924  0.00  0.00     0.055 C 
ATOM      8  C   UNL d   1      -1.100  -1.614   3.356  0.00  0.00     0.019 C 
ENDBRANCH   1   7
TORSDOF 1
ENDMDL
