MODEL 1
REMARK minimizedAffinity -4.61741447
REMARK minimizedRMSD -1
REMARK  1 active torsions:
REMARK  status: ('A' for Active; 'I' for Inactive)
REMARK    1  A    between atoms: C1_2  and  C2_3 
ROOT
ATOM      1  C2  UNL d   1       0.563  -1.382   1.180  0.00  0.00    -0.077 A 
ATOM      2  C3  UNL d   1       1.837  -1.297   0.601  0.00  0.00     0.002 A 
ATOM      3  C4  UNL d   1       2.170  -0.215  -0.216  0.00  0.00     0.002 A 
ATOM      4  C5  UNL d   1       1.238   0.791  -0.457  0.00  0.00    -0.004 A 
ATOM      5  C6  UNL d   1      -0.033   0.715   0.112  0.00  0.00     0.002 A 
ATOM      6  C7  UNL d   1      -0.369  -0.367   0.928  0.00  0.00     0.002 A 
ENDROOT
BRANCH   1   7
ATOM      7  C1  UNL d   1       0.217  -2.523   2.101  0.00  0.00     0.055 C 
ATOM      8  C   UNL d   1      -0.484  -2.027   3.358  0.00  0.00     0.019 C 
ENDBRANCH   1   7
TORSDOF 1
ENDMDL
