MODEL 1
REMARK minimizedAffinity -2.75828505
REMARK minimizedRMSD -1
REMARK  1 active torsions:
REMARK  status: ('A' for Active; 'I' for Inactive)
REMARK    1  A    between atoms: C1_2  and  C2_3 
ROOT
ATOM      1  C2  UNL d   1       0.306  -0.098   0.206  0.00  0.00    -0.077 A 
ATOM      2  C3  UNL d   1      -0.191   0.837  -0.712  0.00  0.00     0.002 A 
ATOM      3  C4  UNL d   1      -1.461   1.391  -0.538  0.00  0.00     0.002 A 
ATOM      4  C5  UNL d   1      -2.242   1.020   0.555  0.00  0.00    -0.004 A 
ATOM      5  C6  UNL d   1      -1.757   0.089   1.472  0.00  0.00     0.002 A 
ATOM      6  C7  UNL d   1      -0.489  -0.467   1.300  0.00  0.00     0.002 A 
ENDROOT
BRANCH   1   7
ATOM      7  C1  UNL d   1       1.695  -0.660   0.048  0.00  0.00     0.055 C 
ATOM      8  C   UNL d   1       2.015  -1.662   1.147  0.00  0.00     0.019 C 
ENDBRANCH   1   7
TORSDOF 1
ENDMDL
