MODEL 1
REMARK minimizedAffinity -3.62936687
REMARK minimizedRMSD -1
REMARK  1 active torsions:
REMARK  status: ('A' for Active; 'I' for Inactive)
REMARK    1  A    between atoms: C1_2  and  C2_3 
ROOT
ATOM      1  C2  UNL d   1      -0.408   0.956  -0.562  0.00  0.00    -0.077 A 
ATOM      2  C3  UNL d   1      -1.382   0.129   0.014  0.00  0.00     0.002 A 
ATOM      3  C4  UNL d   1      -2.692   0.139  -0.468  0.00  0.00     0.002 A 
ATOM      4  C5  UNL d   1      -3.039   0.971  -1.530  0.00  0.00    -0.004 A 
ATOM      5  C6  UNL d   1      -2.078   1.799  -2.109  0.00  0.00     0.002 A 
ATOM      6  C7  UNL d   1      -0.768   1.791  -1.627  0.00  0.00     0.002 A 
ENDROOT
BRANCH   1   7
ATOM      7  C1  UNL d   1       1.017   0.911  -0.076  0.00  0.00     0.055 C 
ATOM      8  C   UNL d   1       1.719  -0.359  -0.536  0.00  0.00     0.019 C 
ENDBRANCH   1   7
TORSDOF 1
ENDMDL
