MODEL 1
REMARK minimizedAffinity -5.34301376
REMARK minimizedRMSD -1
REMARK  1 active torsions:
REMARK  status: ('A' for Active; 'I' for Inactive)
REMARK    1  A    between atoms: C1_2  and  C2_3 
ROOT
ATOM      1  C2  UNL d   1       0.581   0.531  -0.272  0.00  0.00    -0.076 A 
ATOM      2  C3  UNL d   1      -0.471   0.606   0.658  0.00  0.00     0.004 A 
ATOM      3  C4  UNL d   1      -0.297   1.237   1.888  0.00  0.00    -0.003 A 
ATOM      4  C5  UNL d   1       0.931   1.805   2.209  0.00  0.00     0.000 A 
ATOM      5  C6  UNL d   1       1.980   1.756   1.291  0.00  0.00     0.000 A 
ATOM      6  C7  UNL d   1       1.817   1.138   0.040  0.00  0.00    -0.073 A 
ATOM      7  C8  UNL d   1       2.984   1.109  -0.909  0.00  0.00     0.078 C 
ENDROOT
BRANCH   1   8
ATOM      8  C1  UNL d   1       0.342  -0.190  -1.580  0.00  0.00     0.053 C 
ATOM      9  C   UNL d   1      -0.950  -0.991  -1.576  0.00  0.00     0.018 C 
ENDBRANCH   1   8
TORSDOF 1
ENDMDL
