MODEL 1
REMARK minimizedAffinity -4.84084082
REMARK minimizedRMSD -1
REMARK  1 active torsions:
REMARK  status: ('A' for Active; 'I' for Inactive)
REMARK    1  A    between atoms: C1_2  and  C2_3 
ROOT
ATOM      1  C2  UNL d   1       0.281  -0.024   0.108  0.00  0.00    -0.076 A 
ATOM      2  C3  UNL d   1      -0.689   0.366   1.048  0.00  0.00     0.004 A 
ATOM      3  C4  UNL d   1      -0.515   1.510   1.826  0.00  0.00    -0.003 A 
ATOM      4  C5  UNL d   1       0.632   2.282   1.676  0.00  0.00     0.000 A 
ATOM      5  C6  UNL d   1       1.597   1.919   0.737  0.00  0.00     0.000 A 
ATOM      6  C7  UNL d   1       1.429   0.778  -0.067  0.00  0.00    -0.073 A 
ATOM      7  C8  UNL d   1       2.504   0.431  -1.060  0.00  0.00     0.078 C 
ENDROOT
BRANCH   1   8
ATOM      8  C1  UNL d   1       0.051  -1.289  -0.688  0.00  0.00     0.053 C 
ATOM      9  C   UNL d   1      -1.112  -1.162  -1.660  0.00  0.00     0.018 C 
ENDBRANCH   1   8
TORSDOF 1
ENDMDL
