MODEL 1
REMARK minimizedAffinity 3.50254202
REMARK minimizedRMSD -1
REMARK  1 active torsions:
REMARK  status: ('A' for Active; 'I' for Inactive)
REMARK    1  A    between atoms: C1_2  and  C2_3 
ROOT
ATOM      1  C2  UNL d   1      -3.970  -2.405  -2.033  0.00  0.00    -0.076 A 
ATOM      2  C3  UNL d   1      -5.267  -2.946  -2.043  0.00  0.00     0.004 A 
ATOM      3  C4  UNL d   1      -5.718  -3.748  -0.996  0.00  0.00    -0.003 A 
ATOM      4  C5  UNL d   1      -4.879  -4.022   0.079  0.00  0.00     0.000 A 
ATOM      5  C6  UNL d   1      -3.595  -3.479   0.114  0.00  0.00     0.000 A 
ATOM      6  C7  UNL d   1      -3.131  -2.655  -0.926  0.00  0.00    -0.073 A 
ATOM      7  C8  UNL d   1      -1.735  -2.101  -0.840  0.00  0.00     0.078 C 
ENDROOT
BRANCH   1   8
ATOM      8  C1  UNL d   1      -3.527  -1.564  -3.209  0.00  0.00     0.053 C 
ATOM      9  C   UNL d   1      -2.892  -2.396  -4.313  0.00  0.00     0.018 C 
ENDBRANCH   1   8
TORSDOF 1
ENDMDL
