MODEL 1
REMARK minimizedAffinity -4.20646143
REMARK minimizedRMSD -1
REMARK  1 active torsions:
REMARK  status: ('A' for Active; 'I' for Inactive)
REMARK    1  A    between atoms: C1_2  and  C2_3 
ROOT
ATOM      1  C2  UNL d   1       0.209  -0.015   0.173  0.00  0.00    -0.076 A 
ATOM      2  C3  UNL d   1      -0.954   0.331   0.882  0.00  0.00     0.004 A 
ATOM      3  C4  UNL d   1      -0.952   1.389   1.790  0.00  0.00    -0.003 A 
ATOM      4  C5  UNL d   1       0.212   2.119   2.001  0.00  0.00     0.000 A 
ATOM      5  C6  UNL d   1       1.370   1.800   1.293  0.00  0.00     0.000 A 
ATOM      6  C7  UNL d   1       1.381   0.747   0.362  0.00  0.00    -0.073 A 
ATOM      7  C8  UNL d   1       2.660   0.443  -0.370  0.00  0.00     0.078 C 
ENDROOT
BRANCH   1   8
ATOM      8  C1  UNL d   1       0.154  -1.190  -0.778  0.00  0.00     0.053 C 
ATOM      9  C   UNL d   1      -1.173  -1.281  -1.515  0.00  0.00     0.018 C 
ENDBRANCH   1   8
TORSDOF 1
ENDMDL
