MODEL 1
REMARK minimizedAffinity -3.94037056
REMARK minimizedRMSD -1
REMARK  1 active torsions:
REMARK  status: ('A' for Active; 'I' for Inactive)
REMARK    1  A    between atoms: C1_2  and  C2_3 
ROOT
ATOM      1  C2  UNL d   1       0.919   1.071   0.482  0.00  0.00    -0.076 A 
ATOM      2  C3  UNL d   1      -0.335   0.603   0.911  0.00  0.00     0.004 A 
ATOM      3  C4  UNL d   1      -0.836  -0.618   0.463  0.00  0.00    -0.003 A 
ATOM      4  C5  UNL d   1      -0.091  -1.391  -0.421  0.00  0.00     0.000 A 
ATOM      5  C6  UNL d   1       1.162  -0.950  -0.843  0.00  0.00     0.000 A 
ATOM      6  C7  UNL d   1       1.690   0.271  -0.388  0.00  0.00    -0.073 A 
ATOM      7  C8  UNL d   1       3.044   0.701  -0.881  0.00  0.00     0.078 C 
ENDROOT
BRANCH   1   8
ATOM      8  C1  UNL d   1       1.399   2.416   0.980  0.00  0.00     0.053 C 
ATOM      9  C   UNL d   1       1.563   2.452   2.492  0.00  0.00     0.018 C 
ENDBRANCH   1   8
TORSDOF 1
ENDMDL
