MODEL 1
REMARK minimizedAffinity -1.93673444
REMARK minimizedRMSD -1
REMARK  1 active torsions:
REMARK  status: ('A' for Active; 'I' for Inactive)
REMARK    1  A    between atoms: C1_2  and  C2_3 
ROOT
ATOM      1  C2  UNL d   1      -0.055   0.125   0.066  0.00  0.00    -0.076 A 
ATOM      2  C3  UNL d   1       0.958   0.861  -0.575  0.00  0.00     0.004 A 
ATOM      3  C4  UNL d   1       1.233   2.175  -0.204  0.00  0.00    -0.003 A 
ATOM      4  C5  UNL d   1       0.502   2.777   0.814  0.00  0.00     0.000 A 
ATOM      5  C6  UNL d   1      -0.495   2.056   1.473  0.00  0.00     0.000 A 
ATOM      6  C7  UNL d   1      -0.775   0.724   1.122  0.00  0.00    -0.073 A 
ATOM      7  C8  UNL d   1      -1.864  -0.003   1.861  0.00  0.00     0.078 C 
ENDROOT
BRANCH   1   8
ATOM      8  C1  UNL d   1      -0.328  -1.288  -0.398  0.00  0.00     0.053 C 
ATOM      9  C   UNL d   1      -1.275  -1.339  -1.587  0.00  0.00     0.018 C 
ENDBRANCH   1   8
TORSDOF 1
ENDMDL
