MODEL 1
REMARK minimizedAffinity -1.0797199
REMARK minimizedRMSD -1
REMARK  1 active torsions:
REMARK  status: ('A' for Active; 'I' for Inactive)
REMARK    1  A    between atoms: C1_2  and  C2_3 
ROOT
ATOM      1  C2  UNL d   1       0.064   0.767   1.110  0.00  0.00    -0.076 A 
ATOM      2  C3  UNL d   1       1.042   0.542   0.126  0.00  0.00     0.004 A 
ATOM      3  C4  UNL d   1       0.901  -0.486  -0.804  0.00  0.00    -0.003 A 
ATOM      4  C5  UNL d   1      -0.221  -1.306  -0.766  0.00  0.00     0.000 A 
ATOM      5  C6  UNL d   1      -1.210  -1.087   0.193  0.00  0.00     0.000 A 
ATOM      6  C7  UNL d   1      -1.091  -0.044   1.127  0.00  0.00    -0.073 A 
ATOM      7  C8  UNL d   1      -2.185   0.143   2.143  0.00  0.00     0.078 C 
ENDROOT
BRANCH   1   8
ATOM      8  C1  UNL d   1       0.284   1.880   2.110  0.00  0.00     0.053 C 
ATOM      9  C   UNL d   1       0.664   3.194   1.444  0.00  0.00     0.018 C 
ENDBRANCH   1   8
TORSDOF 1
ENDMDL
