MODEL 1
REMARK minimizedAffinity -2.34719515
REMARK minimizedRMSD -1
REMARK  1 active torsions:
REMARK  status: ('A' for Active; 'I' for Inactive)
REMARK    1  A    between atoms: C1_2  and  C2_3 
ROOT
ATOM      1  C2  UNL d   1      -3.432  -2.207  -3.050  0.00  0.00    -0.076 A 
ATOM      2  C3  UNL d   1      -3.122  -1.235  -2.083  0.00  0.00     0.004 A 
ATOM      3  C4  UNL d   1      -2.301  -0.151  -2.392  0.00  0.00    -0.003 A 
ATOM      4  C5  UNL d   1      -1.777  -0.023  -3.673  0.00  0.00     0.000 A 
ATOM      5  C6  UNL d   1      -2.087  -0.968  -4.650  0.00  0.00     0.000 A 
ATOM      6  C7  UNL d   1      -2.927  -2.057  -4.359  0.00  0.00    -0.073 A 
ATOM      7  C8  UNL d   1      -3.224  -3.050  -5.449  0.00  0.00     0.078 C 
ENDROOT
BRANCH   1   8
ATOM      8  C1  UNL d   1      -4.305  -3.374  -2.649  0.00  0.00     0.053 C 
ATOM      9  C   UNL d   1      -4.102  -3.783  -1.199  0.00  0.00     0.018 C 
ENDBRANCH   1   8
TORSDOF 1
ENDMDL
