MODEL 1
REMARK minimizedAffinity -6.0906601
REMARK minimizedRMSD -1
REMARK  1 active torsions:
REMARK  status: ('A' for Active; 'I' for Inactive)
REMARK    1  A    between atoms: C1_2  and  C2_3 
ROOT
ATOM      1  C2  UNL d   1       0.960   0.450   0.083  0.00  0.00    -0.076 A 
ATOM      2  C3  UNL d   1      -0.023   1.114   0.836  0.00  0.00     0.004 A 
ATOM      3  C4  UNL d   1       0.267   2.300   1.508  0.00  0.00    -0.003 A 
ATOM      4  C5  UNL d   1       1.546   2.841   1.438  0.00  0.00     0.000 A 
ATOM      5  C6  UNL d   1       2.530   2.205   0.681  0.00  0.00     0.000 A 
ATOM      6  C7  UNL d   1       2.248   1.017  -0.016  0.00  0.00    -0.073 A 
ATOM      7  C8  UNL d   1       3.348   0.370  -0.813  0.00  0.00     0.078 C 
ENDROOT
BRANCH   1   8
ATOM      8  C1  UNL d   1       0.594  -0.847  -0.603  0.00  0.00     0.053 C 
ATOM      9  C   UNL d   1      -0.859  -1.236  -0.376  0.00  0.00     0.018 C 
ENDBRANCH   1   8
TORSDOF 1
ENDMDL
