MODEL 1
REMARK minimizedAffinity -1.6677202
REMARK minimizedRMSD -1
REMARK  1 active torsions:
REMARK  status: ('A' for Active; 'I' for Inactive)
REMARK    1  A    between atoms: C1_2  and  C2_3 
ROOT
ATOM      1  C2  UNL d   1      -0.113   0.116   0.055  0.00  0.00    -0.076 A 
ATOM      2  C3  UNL d   1       0.933   0.812  -0.575  0.00  0.00     0.004 A 
ATOM      3  C4  UNL d   1       1.420   2.007  -0.047  0.00  0.00    -0.003 A 
ATOM      4  C5  UNL d   1       0.868   2.525   1.120  0.00  0.00     0.000 A 
ATOM      5  C6  UNL d   1      -0.159   1.839   1.767  0.00  0.00     0.000 A 
ATOM      6  C7  UNL d   1      -0.649   0.625   1.257  0.00  0.00    -0.073 A 
ATOM      7  C8  UNL d   1      -1.762  -0.070   1.993  0.00  0.00     0.078 C 
ENDROOT
BRANCH   1   8
ATOM      8  C1  UNL d   1      -0.617  -1.161  -0.578  0.00  0.00     0.053 C 
ATOM      9  C   UNL d   1      -1.115  -0.949  -2.000  0.00  0.00     0.018 C 
ENDBRANCH   1   8
TORSDOF 1
ENDMDL
