MODEL 1
REMARK minimizedAffinity -4.59640217
REMARK minimizedRMSD -1
REMARK  1 active torsions:
REMARK  status: ('A' for Active; 'I' for Inactive)
REMARK    1  A    between atoms: C1_2  and  C2_3 
ROOT
ATOM      1  C2  UNL d   1       0.746   0.658   0.044  0.00  0.00    -0.076 A 
ATOM      2  C3  UNL d   1       2.045   0.376  -0.413  0.00  0.00     0.004 A 
ATOM      3  C4  UNL d   1       3.140   1.108   0.043  0.00  0.00    -0.003 A 
ATOM      4  C5  UNL d   1       2.954   2.134   0.963  0.00  0.00     0.000 A 
ATOM      5  C6  UNL d   1       1.674   2.415   1.441  0.00  0.00     0.000 A 
ATOM      6  C7  UNL d   1       0.562   1.676   1.004  0.00  0.00    -0.073 A 
ATOM      7  C8  UNL d   1      -0.796   2.027   1.548  0.00  0.00     0.078 C 
ENDROOT
BRANCH   1   8
ATOM      8  C1  UNL d   1      -0.407  -0.151  -0.506  0.00  0.00     0.053 C 
ATOM      9  C   UNL d   1      -0.086  -1.635  -0.598  0.00  0.00     0.018 C 
ENDBRANCH   1   8
TORSDOF 1
ENDMDL
