MODEL 1
REMARK minimizedAffinity -3.87318206
REMARK minimizedRMSD -1
REMARK  1 active torsions:
REMARK  status: ('A' for Active; 'I' for Inactive)
REMARK    1  A    between atoms: C1_2  and  C2_3 
ROOT
ATOM      1  C2  UNL d   1      -1.254  -0.701  -0.867  0.00  0.00    -0.076 A 
ATOM      2  C3  UNL d   1      -2.237   0.221  -0.469  0.00  0.00     0.004 A 
ATOM      3  C4  UNL d   1      -2.093   0.964   0.701  0.00  0.00    -0.003 A 
ATOM      4  C5  UNL d   1      -0.962   0.797   1.493  0.00  0.00     0.000 A 
ATOM      5  C6  UNL d   1       0.032  -0.100   1.105  0.00  0.00     0.000 A 
ATOM      6  C7  UNL d   1      -0.090  -0.845  -0.081  0.00  0.00    -0.073 A 
ATOM      7  C8  UNL d   1       1.009  -1.803  -0.448  0.00  0.00     0.078 C 
ENDROOT
BRANCH   1   8
ATOM      8  C1  UNL d   1      -1.477  -1.498  -2.132  0.00  0.00     0.053 C 
ATOM      9  C   UNL d   1      -2.945  -1.819  -2.367  0.00  0.00     0.018 C 
ENDBRANCH   1   8
TORSDOF 1
ENDMDL
