MODEL 1
REMARK minimizedAffinity -5.70979977
REMARK minimizedRMSD -1
REMARK  1 active torsions:
REMARK  status: ('A' for Active; 'I' for Inactive)
REMARK    1  A    between atoms: C1_2  and  C2_3 
ROOT
ATOM      1  C2  UNL d   1       0.692   1.152   0.630  0.00  0.00    -0.076 A 
ATOM      2  C3  UNL d   1       1.541   1.206  -0.489  0.00  0.00     0.004 A 
ATOM      3  C4  UNL d   1       1.457   0.249  -1.499  0.00  0.00    -0.003 A 
ATOM      4  C5  UNL d   1       0.523  -0.777  -1.406  0.00  0.00     0.000 A 
ATOM      5  C6  UNL d   1      -0.339  -0.836  -0.311  0.00  0.00     0.000 A 
ATOM      6  C7  UNL d   1      -0.279   0.131   0.707  0.00  0.00    -0.073 A 
ATOM      7  C8  UNL d   1      -1.229   0.016   1.868  0.00  0.00     0.078 C 
ENDROOT
BRANCH   1   8
ATOM      8  C1  UNL d   1       0.846   2.202   1.707  0.00  0.00     0.053 C 
ATOM      9  C   UNL d   1       1.396   3.514   1.168  0.00  0.00     0.018 C 
ENDBRANCH   1   8
TORSDOF 1
ENDMDL
