MODEL 1
REMARK minimizedAffinity 0.8768332
REMARK minimizedRMSD -1
REMARK  0 active torsions:
REMARK  status: ('A' for Active; 'I' for Inactive)
ROOT
ATOM      1  C   UNL d   1      -0.085   1.870   0.542  0.00  0.00     0.124 A 
ATOM      2  C1  UNL d   1       0.024   1.541  -0.802  0.00  0.00     0.062 A 
ATOM      3  C2  UNL d   1       0.224   0.217  -1.184  0.00  0.00     0.162 A 
ATOM      4  C3  UNL d   1       0.314  -0.788  -0.221  0.00  0.00    -0.034 A 
ATOM      5  C4  UNL d   1       0.203  -0.448   1.129  0.00  0.00     0.162 A 
ATOM      6  C5  UNL d   1       0.004   0.876   1.506  0.00  0.00     0.062 A 
ATOM      7  F   UNL d   1      -0.102   1.192   2.805  0.00  0.00    -0.097 F 
ATOM      8  F1  UNL d   1       0.285  -1.389   2.081  0.00  0.00    -0.096 F 
ATOM      9  I   UNL d   1       0.612  -2.768  -0.788  0.00  0.00    -0.060 I 
ATOM     10  F2  UNL d   1       0.326  -0.072  -2.490  0.00  0.00    -0.096 F 
ATOM     11  F3  UNL d   1      -0.061   2.500  -1.735  0.00  0.00    -0.097 F 
ATOM     12  F4  UNL d   1      -0.276   3.145   0.907  0.00  0.00    -0.092 F 
ENDROOT
TORSDOF 0
ENDMDL
