MODEL 1
REMARK minimizedAffinity 0.404282302
REMARK minimizedRMSD -1
REMARK  0 active torsions:
REMARK  status: ('A' for Active; 'I' for Inactive)
ROOT
ATOM      1  C   UNL d   1      -0.730   1.787   0.770  0.00  0.00     0.124 A 
ATOM      2  C1  UNL d   1       0.110   1.013   1.559  0.00  0.00     0.062 A 
ATOM      3  C2  UNL d   1       0.615  -0.189   1.073  0.00  0.00     0.162 A 
ATOM      4  C3  UNL d   1       0.282  -0.626  -0.209  0.00  0.00    -0.034 A 
ATOM      5  C4  UNL d   1      -0.564   0.157  -0.996  0.00  0.00     0.162 A 
ATOM      6  C5  UNL d   1      -1.066   1.358  -0.506  0.00  0.00     0.062 A 
ATOM      7  F   UNL d   1      -1.878   2.105  -1.269  0.00  0.00    -0.097 F 
ATOM      8  F1  UNL d   1      -0.904  -0.232  -2.234  0.00  0.00    -0.096 F 
ATOM      9  I   UNL d   1       1.036  -2.423  -0.939  0.00  0.00    -0.060 I 
ATOM     10  F2  UNL d   1       1.425  -0.917   1.857  0.00  0.00    -0.096 F 
ATOM     11  F3  UNL d   1       0.435   1.424   2.793  0.00  0.00    -0.097 F 
ATOM     12  F4  UNL d   1      -1.216   2.943   1.241  0.00  0.00    -0.092 F 
ENDROOT
TORSDOF 0
ENDMDL
