MODEL 1
REMARK minimizedAffinity -3.10596538
REMARK minimizedRMSD -1
REMARK  0 active torsions:
REMARK  status: ('A' for Active; 'I' for Inactive)
ROOT
ATOM      1  C   UNL d   1       0.144  -2.405  -1.332  0.00  0.00     0.124 A 
ATOM      2  C1  UNL d   1       0.375  -1.043  -1.472  0.00  0.00     0.062 A 
ATOM      3  C2  UNL d   1       0.160  -0.183  -0.400  0.00  0.00     0.162 A 
ATOM      4  C3  UNL d   1      -0.288  -0.681   0.824  0.00  0.00    -0.034 A 
ATOM      5  C4  UNL d   1      -0.519  -2.051   0.957  0.00  0.00     0.162 A 
ATOM      6  C5  UNL d   1      -0.302  -2.907  -0.118  0.00  0.00     0.062 A 
ATOM      7  F   UNL d   1      -0.526  -4.222   0.020  0.00  0.00    -0.097 F 
ATOM      8  F1  UNL d   1      -0.950  -2.563   2.119  0.00  0.00    -0.096 F 
ATOM      9  I   UNL d   1      -0.610   0.603   2.430  0.00  0.00    -0.060 I 
ATOM     10  F2  UNL d   1       0.392   1.128  -0.564  0.00  0.00    -0.096 F 
ATOM     11  F3  UNL d   1       0.806  -0.555  -2.644  0.00  0.00    -0.097 F 
ATOM     12  F4  UNL d   1       0.351  -3.231  -2.365  0.00  0.00    -0.092 F 
ENDROOT
TORSDOF 0
ENDMDL
