MODEL 1
REMARK minimizedAffinity -2.29009509
REMARK minimizedRMSD -1
REMARK  0 active torsions:
REMARK  status: ('A' for Active; 'I' for Inactive)
ROOT
ATOM      1  C   UNL d   1       0.200   0.765   1.985  0.00  0.00     0.124 A 
ATOM      2  C1  UNL d   1       0.968  -0.285   1.502  0.00  0.00     0.062 A 
ATOM      3  C2  UNL d   1       0.709  -0.821   0.244  0.00  0.00     0.162 A 
ATOM      4  C3  UNL d   1      -0.321  -0.305  -0.542  0.00  0.00    -0.034 A 
ATOM      5  C4  UNL d   1      -1.090   0.751  -0.050  0.00  0.00     0.162 A 
ATOM      6  C5  UNL d   1      -0.828   1.282   1.209  0.00  0.00     0.062 A 
ATOM      7  F   UNL d   1      -1.571   2.298   1.673  0.00  0.00    -0.097 F 
ATOM      8  F1  UNL d   1      -2.088   1.270  -0.779  0.00  0.00    -0.096 F 
ATOM      9  I   UNL d   1      -0.711  -1.103  -2.425  0.00  0.00    -0.060 I 
ATOM     10  F2  UNL d   1       1.467  -1.836  -0.197  0.00  0.00    -0.096 F 
ATOM     11  F3  UNL d   1       1.961  -0.787   2.251  0.00  0.00    -0.097 F 
ATOM     12  F4  UNL d   1       0.450   1.278   3.197  0.00  0.00    -0.092 F 
ENDROOT
TORSDOF 0
ENDMDL
