MODEL 1
REMARK minimizedAffinity 1.44318974
REMARK minimizedRMSD -1
REMARK  0 active torsions:
REMARK  status: ('A' for Active; 'I' for Inactive)
ROOT
ATOM      1  C   UNL d   1      -0.176   1.597   0.467  0.00  0.00     0.124 A 
ATOM      2  C1  UNL d   1       0.025   1.297  -0.873  0.00  0.00     0.062 A 
ATOM      3  C2  UNL d   1       0.158  -0.028  -1.281  0.00  0.00     0.162 A 
ATOM      4  C3  UNL d   1       0.089  -1.062  -0.347  0.00  0.00    -0.034 A 
ATOM      5  C4  UNL d   1      -0.113  -0.751   0.999  0.00  0.00     0.162 A 
ATOM      6  C5  UNL d   1      -0.245   0.574   1.402  0.00  0.00     0.062 A 
ATOM      7  F   UNL d   1      -0.439   0.863   2.697  0.00  0.00    -0.097 F 
ATOM      8  F1  UNL d   1      -0.184  -1.721   1.923  0.00  0.00    -0.096 F 
ATOM      9  I   UNL d   1       0.287  -3.043  -0.953  0.00  0.00    -0.060 I 
ATOM     10  F2  UNL d   1       0.352  -0.289  -2.582  0.00  0.00    -0.096 F 
ATOM     11  F3  UNL d   1       0.093   2.284  -1.777  0.00  0.00    -0.097 F 
ATOM     12  F4  UNL d   1      -0.302   2.872   0.857  0.00  0.00    -0.092 F 
ENDROOT
TORSDOF 0
ENDMDL
