MODEL 1
REMARK minimizedAffinity -3.73650312
REMARK minimizedRMSD -1
REMARK  0 active torsions:
REMARK  status: ('A' for Active; 'I' for Inactive)
ROOT
ATOM      1  C   UNL d   1       0.178   0.944   1.730  0.00  0.00     0.124 A 
ATOM      2  C1  UNL d   1       0.987  -0.080   1.257  0.00  0.00     0.062 A 
ATOM      3  C2  UNL d   1       0.601  -0.820   0.144  0.00  0.00     0.162 A 
ATOM      4  C3  UNL d   1      -0.600  -0.539  -0.507  0.00  0.00    -0.034 A 
ATOM      5  C4  UNL d   1      -1.409   0.492  -0.026  0.00  0.00     0.162 A 
ATOM      6  C5  UNL d   1      -1.019   1.229   1.088  0.00  0.00     0.062 A 
ATOM      7  F   UNL d   1      -1.803   2.218   1.543  0.00  0.00    -0.097 F 
ATOM      8  F1  UNL d   1      -2.571   0.790  -0.627  0.00  0.00    -0.096 F 
ATOM      9  I   UNL d   1      -1.180  -1.643  -2.173  0.00  0.00    -0.060 I 
ATOM     10  F2  UNL d   1       1.403  -1.804  -0.291  0.00  0.00    -0.096 F 
ATOM     11  F3  UNL d   1       2.143  -0.358   1.876  0.00  0.00    -0.097 F 
ATOM     12  F4  UNL d   1       0.551   1.654   2.802  0.00  0.00    -0.092 F 
ENDROOT
TORSDOF 0
ENDMDL
