MODEL 1
REMARK minimizedAffinity -2.02070451
REMARK minimizedRMSD -1
REMARK  0 active torsions:
REMARK  status: ('A' for Active; 'I' for Inactive)
ROOT
ATOM      1  C   UNL d   1      -0.764   2.411   1.006  0.00  0.00     0.124 A 
ATOM      2  C1  UNL d   1      -0.533   1.384   1.911  0.00  0.00     0.062 A 
ATOM      3  C2  UNL d   1      -0.157   0.123   1.458  0.00  0.00     0.162 A 
ATOM      4  C3  UNL d   1      -0.007  -0.119   0.092  0.00  0.00    -0.034 A 
ATOM      5  C4  UNL d   1      -0.242   0.919  -0.812  0.00  0.00     0.162 A 
ATOM      6  C5  UNL d   1      -0.618   2.177  -0.354  0.00  0.00     0.062 A 
ATOM      7  F   UNL d   1      -0.841   3.168  -1.230  0.00  0.00    -0.097 F 
ATOM      8  F1  UNL d   1      -0.108   0.721  -2.132  0.00  0.00    -0.096 F 
ATOM      9  I   UNL d   1       0.555  -2.003  -0.590  0.00  0.00    -0.060 I 
ATOM     10  F2  UNL d   1       0.060  -0.851   2.355  0.00  0.00    -0.096 F 
ATOM     11  F3  UNL d   1      -0.674   1.606   3.226  0.00  0.00    -0.097 F 
ATOM     12  F4  UNL d   1      -1.127   3.623   1.445  0.00  0.00    -0.092 F 
ENDROOT
TORSDOF 0
ENDMDL
