MODEL 1
REMARK minimizedAffinity 2.56341457
REMARK minimizedRMSD -1
REMARK  0 active torsions:
REMARK  status: ('A' for Active; 'I' for Inactive)
ROOT
ATOM      1  C   UNL d   1       0.574  -1.359  -1.746  0.00  0.00     0.124 A 
ATOM      2  C1  UNL d   1       0.508  -0.021  -2.111  0.00  0.00     0.062 A 
ATOM      3  C2  UNL d   1       0.082   0.934  -1.194  0.00  0.00     0.162 A 
ATOM      4  C3  UNL d   1      -0.281   0.556   0.099  0.00  0.00    -0.034 A 
ATOM      5  C4  UNL d   1      -0.213  -0.791   0.458  0.00  0.00     0.162 A 
ATOM      6  C5  UNL d   1       0.214  -1.743  -0.462  0.00  0.00     0.062 A 
ATOM      7  F   UNL d   1       0.277  -3.034  -0.108  0.00  0.00    -0.097 F 
ATOM      8  F1  UNL d   1      -0.554  -1.190   1.693  0.00  0.00    -0.096 F 
ATOM      9  I   UNL d   1      -0.919   1.982   1.474  0.00  0.00    -0.060 I 
ATOM     10  F2  UNL d   1       0.028   2.219  -1.574  0.00  0.00    -0.096 F 
ATOM     11  F3  UNL d   1       0.855   0.352  -3.352  0.00  0.00    -0.097 F 
ATOM     12  F4  UNL d   1       0.984  -2.276  -2.632  0.00  0.00    -0.092 F 
ENDROOT
TORSDOF 0
ENDMDL
