MODEL 1
REMARK minimizedAffinity -3.47433448
REMARK minimizedRMSD -1
REMARK  0 active torsions:
REMARK  status: ('A' for Active; 'I' for Inactive)
ROOT
ATOM      1  C   UNL d   1      -0.740   1.929   1.342  0.00  0.00     0.124 A 
ATOM      2  C1  UNL d   1      -1.087   1.541   0.055  0.00  0.00     0.062 A 
ATOM      3  C2  UNL d   1      -0.644   0.322  -0.451  0.00  0.00     0.162 A 
ATOM      4  C3  UNL d   1       0.149  -0.518   0.329  0.00  0.00    -0.034 A 
ATOM      5  C4  UNL d   1       0.494  -0.121   1.622  0.00  0.00     0.162 A 
ATOM      6  C5  UNL d   1       0.050   1.098   2.124  0.00  0.00     0.062 A 
ATOM      7  F   UNL d   1       0.385   1.471   3.368  0.00  0.00    -0.097 F 
ATOM      8  F1  UNL d   1       1.256  -0.905   2.400  0.00  0.00    -0.096 F 
ATOM      9  I   UNL d   1       0.813  -2.341  -0.425  0.00  0.00    -0.060 I 
ATOM     10  F2  UNL d   1      -0.994  -0.027  -1.698  0.00  0.00    -0.096 F 
ATOM     11  F3  UNL d   1      -1.849   2.342  -0.703  0.00  0.00    -0.097 F 
ATOM     12  F4  UNL d   1      -1.167   3.102   1.827  0.00  0.00    -0.092 F 
ENDROOT
TORSDOF 0
ENDMDL
