MODEL 1
REMARK minimizedAffinity -1.37257934
REMARK minimizedRMSD -1
REMARK  0 active torsions:
REMARK  status: ('A' for Active; 'I' for Inactive)
ROOT
ATOM      1  C   UNL d   1      -0.938   1.683   0.450  0.00  0.00     0.124 A 
ATOM      2  C1  UNL d   1      -1.157   0.632   1.331  0.00  0.00     0.062 A 
ATOM      3  C2  UNL d   1      -0.729  -0.652   1.009  0.00  0.00     0.162 A 
ATOM      4  C3  UNL d   1      -0.077  -0.894  -0.201  0.00  0.00    -0.034 A 
ATOM      5  C4  UNL d   1       0.138   0.167  -1.082  0.00  0.00     0.162 A 
ATOM      6  C5  UNL d   1      -0.292   1.449  -0.755  0.00  0.00     0.062 A 
ATOM      7  F   UNL d   1      -0.080   2.463  -1.607  0.00  0.00    -0.097 F 
ATOM      8  F1  UNL d   1       0.761  -0.030  -2.253  0.00  0.00    -0.096 F 
ATOM      9  I   UNL d   1       0.564  -2.813  -0.687  0.00  0.00    -0.060 I 
ATOM     10  F2  UNL d   1      -0.953  -1.648   1.879  0.00  0.00    -0.096 F 
ATOM     11  F3  UNL d   1      -1.782   0.855   2.496  0.00  0.00    -0.097 F 
ATOM     12  F4  UNL d   1      -1.352   2.918   0.763  0.00  0.00    -0.092 F 
ENDROOT
TORSDOF 0
ENDMDL
