MODEL 1
REMARK minimizedAffinity -1.03539884
REMARK minimizedRMSD -1
REMARK  0 active torsions:
REMARK  status: ('A' for Active; 'I' for Inactive)
ROOT
ATOM      1  C   UNL d   1       0.116   1.284   0.311  0.00  0.00     0.124 A 
ATOM      2  C1  UNL d   1       0.227   1.006  -1.044  0.00  0.00     0.062 A 
ATOM      3  C2  UNL d   1       0.240  -0.312  -1.490  0.00  0.00     0.162 A 
ATOM      4  C3  UNL d   1       0.141  -1.364  -0.578  0.00  0.00    -0.034 A 
ATOM      5  C4  UNL d   1       0.030  -1.076   0.783  0.00  0.00     0.162 A 
ATOM      6  C5  UNL d   1       0.018   0.243   1.223  0.00  0.00     0.062 A 
ATOM      7  F   UNL d   1      -0.090   0.510   2.533  0.00  0.00    -0.097 F 
ATOM      8  F1  UNL d   1      -0.067  -2.063   1.686  0.00  0.00    -0.096 F 
ATOM      9  I   UNL d   1       0.160  -3.337  -1.240  0.00  0.00    -0.060 I 
ATOM     10  F2  UNL d   1       0.348  -0.551  -2.805  0.00  0.00    -0.096 F 
ATOM     11  F3  UNL d   1       0.323   2.011  -1.927  0.00  0.00    -0.097 F 
ATOM     12  F4  UNL d   1       0.105   2.554   0.737  0.00  0.00    -0.092 F 
ENDROOT
TORSDOF 0
ENDMDL
