MODEL 1
REMARK minimizedAffinity -5.97464275
REMARK minimizedRMSD -1
REMARK  1 active torsions:
REMARK  status: ('A' for Active; 'I' for Inactive)
REMARK    1  A    between atoms: C1_2  and  C2_3 
ROOT
ATOM      1  C2  UNL d   1       0.749   0.595   0.437  0.00  0.00    -0.081 A 
ATOM      2  C3  UNL d   1      -0.161   0.781  -0.611  0.00  0.00     0.006 A 
ATOM      3  C4  UNL d   1      -1.295  -0.027  -0.717  0.00  0.00     0.002 A 
ATOM      4  C5  UNL d   1      -1.543  -1.029   0.227  0.00  0.00    -0.080 A 
ATOM      5  C6  UNL d   1      -2.772  -1.884   0.142  0.00  0.00     0.076 C 
ATOM      6  C7  UNL d   1      -0.625  -1.227   1.264  0.00  0.00     0.002 A 
ATOM      7  C8  UNL d   1       0.509  -0.420   1.370  0.00  0.00     0.006 A 
ENDROOT
BRANCH   1   8
ATOM      8  C1  UNL d   1       1.939   1.507   0.590  0.00  0.00     0.054 C 
ATOM      9  C   UNL d   1       1.939   2.193   1.948  0.00  0.00     0.018 C 
ENDBRANCH   1   8
TORSDOF 1
ENDMDL
