MODEL 1
REMARK minimizedAffinity -2.19725561
REMARK minimizedRMSD -1
REMARK  1 active torsions:
REMARK  status: ('A' for Active; 'I' for Inactive)
REMARK    1  A    between atoms: C1_2  and  C2_3 
ROOT
ATOM      1  C2  UNL d   1       1.532   0.739   0.523  0.00  0.00    -0.081 A 
ATOM      2  C3  UNL d   1       0.630   1.052  -0.502  0.00  0.00     0.006 A 
ATOM      3  C4  UNL d   1      -0.640   0.471  -0.530  0.00  0.00     0.002 A 
ATOM      4  C5  UNL d   1      -1.032  -0.426   0.470  0.00  0.00    -0.080 A 
ATOM      5  C6  UNL d   1      -2.403  -1.033   0.468  0.00  0.00     0.076 C 
ATOM      6  C7  UNL d   1      -0.125  -0.752   1.484  0.00  0.00     0.002 A 
ATOM      7  C8  UNL d   1       1.145  -0.172   1.512  0.00  0.00     0.006 A 
ENDROOT
BRANCH   1   8
ATOM      8  C1  UNL d   1       2.878   1.413   0.592  0.00  0.00     0.054 C 
ATOM      9  C   UNL d   1       2.785   2.766   1.283  0.00  0.00     0.018 C 
ENDBRANCH   1   8
TORSDOF 1
ENDMDL
