MODEL 1
REMARK minimizedAffinity -1.01040649
REMARK minimizedRMSD -1
REMARK  1 active torsions:
REMARK  status: ('A' for Active; 'I' for Inactive)
REMARK    1  A    between atoms: C1_2  and  C2_3 
ROOT
ATOM      1  C2  UNL d   1       0.268   0.963   0.149  0.00  0.00    -0.081 A 
ATOM      2  C3  UNL d   1       0.491   0.770  -1.219  0.00  0.00     0.006 A 
ATOM      3  C4  UNL d   1      -0.328  -0.089  -1.956  0.00  0.00     0.002 A 
ATOM      4  C5  UNL d   1      -1.388  -0.762  -1.338  0.00  0.00    -0.080 A 
ATOM      5  C6  UNL d   1      -2.294  -1.663  -2.124  0.00  0.00     0.076 C 
ATOM      6  C7  UNL d   1      -1.601  -0.582   0.033  0.00  0.00     0.002 A 
ATOM      7  C8  UNL d   1      -0.781   0.276   0.770  0.00  0.00     0.006 A 
ENDROOT
BRANCH   1   8
ATOM      8  C1  UNL d   1       1.109   1.939   0.932  0.00  0.00     0.054 C 
ATOM      9  C   UNL d   1       2.399   2.271   0.197  0.00  0.00     0.018 C 
ENDBRANCH   1   8
TORSDOF 1
ENDMDL
