MODEL 1
REMARK minimizedAffinity -4.65853024
REMARK minimizedRMSD -1
REMARK  1 active torsions:
REMARK  status: ('A' for Active; 'I' for Inactive)
REMARK    1  A    between atoms: C1_2  and  C2_3 
ROOT
ATOM      1  C2  UNL d   1       0.929   0.246   0.275  0.00  0.00    -0.081 A 
ATOM      2  C3  UNL d   1       0.970   0.027  -1.107  0.00  0.00     0.006 A 
ATOM      3  C4  UNL d   1      -0.161  -0.435  -1.785  0.00  0.00     0.002 A 
ATOM      4  C5  UNL d   1      -1.353  -0.677  -1.095  0.00  0.00    -0.080 A 
ATOM      5  C6  UNL d   1      -2.582  -1.144  -1.815  0.00  0.00     0.076 C 
ATOM      6  C7  UNL d   1      -1.389  -0.475   0.289  0.00  0.00     0.002 A 
ATOM      7  C8  UNL d   1      -0.259  -0.014   0.968  0.00  0.00     0.006 A 
ENDROOT
BRANCH   1   8
ATOM      8  C1  UNL d   1       2.127   0.806   0.998  0.00  0.00     0.054 C 
ATOM      9  C   UNL d   1       1.850   2.206   1.527  0.00  0.00     0.018 C 
ENDBRANCH   1   8
TORSDOF 1
ENDMDL
