MODEL 1
REMARK minimizedAffinity -2.99875617
REMARK minimizedRMSD -1
REMARK  1 active torsions:
REMARK  status: ('A' for Active; 'I' for Inactive)
REMARK    1  A    between atoms: C1_2  and  C2_3 
ROOT
ATOM      1  C2  UNL d   1      -1.697  -0.924   0.371  0.00  0.00    -0.081 A 
ATOM      2  C3  UNL d   1      -2.455  -1.340  -0.731  0.00  0.00     0.006 A 
ATOM      3  C4  UNL d   1      -2.101  -0.946  -2.024  0.00  0.00     0.002 A 
ATOM      4  C5  UNL d   1      -0.979  -0.138  -2.237  0.00  0.00    -0.080 A 
ATOM      5  C6  UNL d   1      -0.571   0.267  -3.622  0.00  0.00     0.076 C 
ATOM      6  C7  UNL d   1      -0.232   0.292  -1.135  0.00  0.00     0.002 A 
ATOM      7  C8  UNL d   1      -0.586  -0.101   0.157  0.00  0.00     0.006 A 
ENDROOT
BRANCH   1   8
ATOM      8  C1  UNL d   1      -2.038  -1.400   1.759  0.00  0.00     0.054 C 
ATOM      9  C   UNL d   1      -0.881  -2.169   2.381  0.00  0.00     0.018 C 
ENDBRANCH   1   8
TORSDOF 1
ENDMDL
