MODEL 1
REMARK minimizedAffinity -4.80007267
REMARK minimizedRMSD -1
REMARK  1 active torsions:
REMARK  status: ('A' for Active; 'I' for Inactive)
REMARK    1  A    between atoms: C1_2  and  C2_3 
ROOT
ATOM      1  C2  UNL d   1       0.648   0.197  -0.290  0.00  0.00    -0.081 A 
ATOM      2  C3  UNL d   1      -0.139   0.368  -1.435  0.00  0.00     0.006 A 
ATOM      3  C4  UNL d   1      -1.464  -0.074  -1.456  0.00  0.00     0.002 A 
ATOM      4  C5  UNL d   1      -2.026  -0.686  -0.331  0.00  0.00    -0.080 A 
ATOM      5  C6  UNL d   1      -3.456  -1.137  -0.330  0.00  0.00     0.076 C 
ATOM      6  C7  UNL d   1      -1.234  -0.873   0.807  0.00  0.00     0.002 A 
ATOM      7  C8  UNL d   1       0.091  -0.432   0.828  0.00  0.00     0.006 A 
ENDROOT
BRANCH   1   8
ATOM      8  C1  UNL d   1       2.058   0.729  -0.242  0.00  0.00     0.054 C 
ATOM      9  C   UNL d   1       2.122   2.057   0.499  0.00  0.00     0.018 C 
ENDBRANCH   1   8
TORSDOF 1
ENDMDL
