MODEL 1
REMARK minimizedAffinity -3.62220597
REMARK minimizedRMSD -1
REMARK  1 active torsions:
REMARK  status: ('A' for Active; 'I' for Inactive)
REMARK    1  A    between atoms: C1_2  and  C2_3 
ROOT
ATOM      1  C2  UNL d   1       0.433   0.154   0.120  0.00  0.00    -0.081 A 
ATOM      2  C3  UNL d   1      -0.323   0.559  -0.987  0.00  0.00     0.006 A 
ATOM      3  C4  UNL d   1      -1.617   0.070  -1.178  0.00  0.00     0.002 A 
ATOM      4  C5  UNL d   1      -2.179  -0.826  -0.263  0.00  0.00    -0.080 A 
ATOM      5  C6  UNL d   1      -3.579  -1.336  -0.440  0.00  0.00     0.076 C 
ATOM      6  C7  UNL d   1      -1.418  -1.245   0.834  0.00  0.00     0.002 A 
ATOM      7  C8  UNL d   1      -0.123  -0.756   1.025  0.00  0.00     0.006 A 
ENDROOT
BRANCH   1   8
ATOM      8  C1  UNL d   1       1.805   0.730   0.363  0.00  0.00     0.054 C 
ATOM      9  C   UNL d   1       1.720   2.118   0.982  0.00  0.00     0.018 C 
ENDBRANCH   1   8
TORSDOF 1
ENDMDL
