MODEL 1
REMARK minimizedAffinity -5.1266799
REMARK minimizedRMSD -1
REMARK  1 active torsions:
REMARK  status: ('A' for Active; 'I' for Inactive)
REMARK    1  A    between atoms: C1_2  and  C2_3 
ROOT
ATOM      1  C2  UNL d   1       0.918   0.443   0.019  0.00  0.00    -0.081 A 
ATOM      2  C3  UNL d   1       0.298   0.750  -1.198  0.00  0.00     0.006 A 
ATOM      3  C4  UNL d   1      -0.964   0.234  -1.500  0.00  0.00     0.002 A 
ATOM      4  C5  UNL d   1      -1.631  -0.590  -0.587  0.00  0.00    -0.080 A 
ATOM      5  C6  UNL d   1      -3.000  -1.125  -0.886  0.00  0.00     0.076 C 
ATOM      6  C7  UNL d   1      -1.005  -0.911   0.622  0.00  0.00     0.002 A 
ATOM      7  C8  UNL d   1       0.258  -0.396   0.924  0.00  0.00     0.006 A 
ENDROOT
BRANCH   1   8
ATOM      8  C1  UNL d   1       2.251   1.050   0.375  0.00  0.00     0.054 C 
ATOM      9  C   UNL d   1       2.085   2.250   1.296  0.00  0.00     0.018 C 
ENDBRANCH   1   8
TORSDOF 1
ENDMDL
