MODEL 1
REMARK minimizedAffinity 0.595405221
REMARK minimizedRMSD -1
REMARK  1 active torsions:
REMARK  status: ('A' for Active; 'I' for Inactive)
REMARK    1  A    between atoms: C1_2  and  C2_3 
ROOT
ATOM      1  C2  UNL d   1       1.497   0.674   0.174  0.00  0.00    -0.081 A 
ATOM      2  C3  UNL d   1       0.546   0.945  -0.817  0.00  0.00     0.006 A 
ATOM      3  C4  UNL d   1      -0.713   0.342  -0.774  0.00  0.00     0.002 A 
ATOM      4  C5  UNL d   1      -1.045  -0.536   0.263  0.00  0.00    -0.080 A 
ATOM      5  C6  UNL d   1      -2.404  -1.167   0.337  0.00  0.00     0.076 C 
ATOM      6  C7  UNL d   1      -0.089  -0.821   1.244  0.00  0.00     0.002 A 
ATOM      7  C8  UNL d   1       1.170  -0.218   1.202  0.00  0.00     0.006 A 
ENDROOT
BRANCH   1   8
ATOM      8  C1  UNL d   1       2.832   1.373   0.167  0.00  0.00     0.054 C 
ATOM      9  C   UNL d   1       2.757   2.717   0.875  0.00  0.00     0.018 C 
ENDBRANCH   1   8
TORSDOF 1
ENDMDL
