MODEL 1
REMARK minimizedAffinity -4.90914536
REMARK minimizedRMSD -1
REMARK  1 active torsions:
REMARK  status: ('A' for Active; 'I' for Inactive)
REMARK    1  A    between atoms: C1_2  and  C2_3 
ROOT
ATOM      1  C2  UNL d   1      -1.917  -1.545   0.509  0.00  0.00    -0.081 A 
ATOM      2  C3  UNL d   1      -3.016  -1.068  -0.215  0.00  0.00     0.006 A 
ATOM      3  C4  UNL d   1      -2.861  -0.032  -1.138  0.00  0.00     0.002 A 
ATOM      4  C5  UNL d   1      -1.603   0.539  -1.359  0.00  0.00    -0.080 A 
ATOM      5  C6  UNL d   1      -1.417   1.632  -2.370  0.00  0.00     0.076 C 
ATOM      6  C7  UNL d   1      -0.508   0.075  -0.624  0.00  0.00     0.002 A 
ATOM      7  C8  UNL d   1      -0.662  -0.961   0.300  0.00  0.00     0.006 A 
ENDROOT
BRANCH   1   8
ATOM      8  C1  UNL d   1      -2.069  -2.706   1.458  0.00  0.00     0.054 C 
ATOM      9  C   UNL d   1      -0.795  -2.936   2.260  0.00  0.00     0.018 C 
ENDBRANCH   1   8
TORSDOF 1
ENDMDL
