MODEL 1
REMARK minimizedAffinity -4.47521687
REMARK minimizedRMSD -1
REMARK  1 active torsions:
REMARK  status: ('A' for Active; 'I' for Inactive)
REMARK    1  A    between atoms: C1_2  and  C2_3 
ROOT
ATOM      1  C2  UNL d   1       1.747   1.110   0.404  0.00  0.00    -0.081 A 
ATOM      2  C3  UNL d   1       1.081   1.552  -0.746  0.00  0.00     0.006 A 
ATOM      3  C4  UNL d   1      -0.058   0.886  -1.205  0.00  0.00     0.002 A 
ATOM      4  C5  UNL d   1      -0.555  -0.226  -0.518  0.00  0.00    -0.080 A 
ATOM      5  C6  UNL d   1      -1.794  -0.931  -0.982  0.00  0.00     0.076 C 
ATOM      6  C7  UNL d   1       0.120  -0.678   0.621  0.00  0.00     0.002 A 
ATOM      7  C8  UNL d   1       1.259  -0.014   1.080  0.00  0.00     0.006 A 
ENDROOT
BRANCH   1   8
ATOM      8  C1  UNL d   1       2.938   1.864   0.938  0.00  0.00     0.054 C 
ATOM      9  C   UNL d   1       2.885   3.333   0.543  0.00  0.00     0.018 C 
ENDBRANCH   1   8
TORSDOF 1
ENDMDL
