MODEL 1
REMARK minimizedAffinity -4.24471378
REMARK minimizedRMSD -1
REMARK  1 active torsions:
REMARK  status: ('A' for Active; 'I' for Inactive)
REMARK    1  A    between atoms: C1_2  and  C2_3 
ROOT
ATOM      1  C2  UNL d   1       0.813   0.435   0.048  0.00  0.00    -0.081 A 
ATOM      2  C3  UNL d   1       0.179   0.809  -1.144  0.00  0.00     0.006 A 
ATOM      3  C4  UNL d   1      -1.138   0.418  -1.398  0.00  0.00     0.002 A 
ATOM      4  C5  UNL d   1      -1.845  -0.346  -0.463  0.00  0.00    -0.080 A 
ATOM      5  C6  UNL d   1      -3.269  -0.747  -0.711  0.00  0.00     0.076 C 
ATOM      6  C7  UNL d   1      -1.206  -0.734   0.719  0.00  0.00     0.002 A 
ATOM      7  C8  UNL d   1       0.111  -0.343   0.974  0.00  0.00     0.006 A 
ENDROOT
BRANCH   1   8
ATOM      8  C1  UNL d   1       2.210   0.910   0.354  0.00  0.00     0.054 C 
ATOM      9  C   UNL d   1       2.192   2.215   1.137  0.00  0.00     0.018 C 
ENDBRANCH   1   8
TORSDOF 1
ENDMDL
