MODEL 1
REMARK minimizedAffinity -3.57134676
REMARK minimizedRMSD -1
REMARK  1 active torsions:
REMARK  status: ('A' for Active; 'I' for Inactive)
REMARK    1  A    between atoms: C1_2  and  C2_3 
ROOT
ATOM      1  C2  UNL d   1       1.359   0.215   0.292  0.00  0.00    -0.081 A 
ATOM      2  C3  UNL d   1       0.366   0.894  -0.422  0.00  0.00     0.006 A 
ATOM      3  C4  UNL d   1      -0.979   0.548  -0.269  0.00  0.00     0.002 A 
ATOM      4  C5  UNL d   1      -1.353  -0.477   0.607  0.00  0.00    -0.080 A 
ATOM      5  C6  UNL d   1      -2.795  -0.838   0.803  0.00  0.00     0.076 C 
ATOM      6  C7  UNL d   1      -0.358  -1.168   1.308  0.00  0.00     0.002 A 
ATOM      7  C8  UNL d   1       0.986  -0.822   1.154  0.00  0.00     0.006 A 
ENDROOT
BRANCH   1   8
ATOM      8  C1  UNL d   1       2.804   0.629   0.178  0.00  0.00     0.054 C 
ATOM      9  C   UNL d   1       2.991   2.094   0.545  0.00  0.00     0.018 C 
ENDBRANCH   1   8
TORSDOF 1
ENDMDL
