MODEL 1
REMARK minimizedAffinity 1.09829199
REMARK minimizedRMSD -1
REMARK  1 active torsions:
REMARK  status: ('A' for Active; 'I' for Inactive)
REMARK    1  A    between atoms: C1_2  and  C2_3 
ROOT
ATOM      1  C2  UNL d   1      -1.839  -1.698  -1.479  0.00  0.00    -0.073 A 
ATOM      2  C3  UNL d   1      -1.967  -2.948  -0.862  0.00  0.00    -0.002 A 
ATOM      3  C4  UNL d   1      -2.306  -4.074  -1.613  0.00  0.00     0.004 A 
ATOM      4  C5  UNL d   1      -2.513  -3.964  -2.988  0.00  0.00    -0.004 A 
ATOM      5  C6  UNL d   1      -2.378  -2.726  -3.625  0.00  0.00    -0.075 A 
ATOM      6  C7  UNL d   1      -2.600  -2.591  -5.103  0.00  0.00     0.076 C 
ATOM      7  C8  UNL d   1      -2.041  -1.599  -2.863  0.00  0.00     0.001 A 
ENDROOT
BRANCH   1   8
ATOM      8  C1  UNL d   1      -1.468  -0.480  -0.673  0.00  0.00     0.053 C 
ATOM      9  C   UNL d   1      -0.347  -0.770   0.313  0.00  0.00     0.018 C 
ENDBRANCH   1   8
TORSDOF 1
ENDMDL
