MODEL 1
REMARK minimizedAffinity 5.17967176
REMARK minimizedRMSD -1
REMARK  1 active torsions:
REMARK  status: ('A' for Active; 'I' for Inactive)
REMARK    1  A    between atoms: C1_2  and  C2_3 
ROOT
ATOM      1  C2  UNL d   1       1.919   2.672   2.447  0.00  0.00    -0.073 A 
ATOM      2  C3  UNL d   1       1.335   1.540   1.867  0.00  0.00    -0.002 A 
ATOM      3  C4  UNL d   1       1.495   1.284   0.504  0.00  0.00     0.004 A 
ATOM      4  C5  UNL d   1       2.245   2.152  -0.289  0.00  0.00    -0.004 A 
ATOM      5  C6  UNL d   1       2.845   3.283   0.274  0.00  0.00    -0.075 A 
ATOM      6  C7  UNL d   1       3.652   4.228  -0.566  0.00  0.00     0.076 C 
ATOM      7  C8  UNL d   1       2.678   3.534   1.643  0.00  0.00     0.001 A 
ENDROOT
BRANCH   1   8
ATOM      8  C1  UNL d   1       1.754   2.948   3.919  0.00  0.00     0.053 C 
ATOM      9  C   UNL d   1       0.301   2.855   4.358  0.00  0.00     0.018 C 
ENDBRANCH   1   8
TORSDOF 1
ENDMDL
