MODEL 1
REMARK minimizedAffinity -4.30022001
REMARK minimizedRMSD -1
REMARK  1 active torsions:
REMARK  status: ('A' for Active; 'I' for Inactive)
REMARK    1  A    between atoms: C1_2  and  C2_3 
ROOT
ATOM      1  C2  UNL d   1      -5.408   5.036   3.484  0.00  0.00    -0.073 A 
ATOM      2  C3  UNL d   1      -5.485   5.414   4.829  0.00  0.00    -0.002 A 
ATOM      3  C4  UNL d   1      -5.113   4.521   5.835  0.00  0.00     0.004 A 
ATOM      4  C5  UNL d   1      -4.654   3.246   5.506  0.00  0.00    -0.004 A 
ATOM      5  C6  UNL d   1      -4.558   2.854   4.167  0.00  0.00    -0.075 A 
ATOM      6  C7  UNL d   1      -4.068   1.485   3.797  0.00  0.00     0.076 C 
ATOM      7  C8  UNL d   1      -4.936   3.755   3.163  0.00  0.00     0.001 A 
ENDROOT
BRANCH   1   8
ATOM      8  C1  UNL d   1      -5.803   6.000   2.395  0.00  0.00     0.053 C 
ATOM      9  C   UNL d   1      -4.844   5.951   1.216  0.00  0.00     0.018 C 
ENDBRANCH   1   8
TORSDOF 1
ENDMDL
