MODEL 1
REMARK minimizedAffinity -0.548817456
REMARK minimizedRMSD -1
REMARK  1 active torsions:
REMARK  status: ('A' for Active; 'I' for Inactive)
REMARK    1  A    between atoms: C1_2  and  C2_3 
ROOT
ATOM      1  C2  UNL d   1      -2.094  -1.446  -2.731  0.00  0.00    -0.073 A 
ATOM      2  C3  UNL d   1      -1.628  -0.335  -3.443  0.00  0.00    -0.002 A 
ATOM      3  C4  UNL d   1      -0.740   0.562  -2.849  0.00  0.00     0.004 A 
ATOM      4  C5  UNL d   1      -0.302   0.354  -1.541  0.00  0.00    -0.004 A 
ATOM      5  C6  UNL d   1      -0.746  -0.757  -0.817  0.00  0.00    -0.075 A 
ATOM      6  C7  UNL d   1      -0.286  -0.995   0.591  0.00  0.00     0.076 C 
ATOM      7  C8  UNL d   1      -1.641  -1.652  -1.420  0.00  0.00     0.001 A 
ENDROOT
BRANCH   1   8
ATOM      8  C1  UNL d   1      -3.048  -2.420  -3.371  0.00  0.00     0.053 C 
ATOM      9  C   UNL d   1      -2.687  -3.863  -3.055  0.00  0.00     0.018 C 
ENDBRANCH   1   8
TORSDOF 1
ENDMDL
