MODEL 1
REMARK minimizedAffinity 0.806056261
REMARK minimizedRMSD -1
REMARK  1 active torsions:
REMARK  status: ('A' for Active; 'I' for Inactive)
REMARK    1  A    between atoms: C1_2  and  C2_3 
ROOT
ATOM      1  C2  UNL d   1      -5.242   5.344   2.305  0.00  0.00    -0.073 A 
ATOM      2  C3  UNL d   1      -3.843   5.329   2.316  0.00  0.00    -0.002 A 
ATOM      3  C4  UNL d   1      -3.145   5.501   3.512  0.00  0.00     0.004 A 
ATOM      4  C5  UNL d   1      -3.838   5.684   4.709  0.00  0.00    -0.004 A 
ATOM      5  C6  UNL d   1      -5.237   5.690   4.720  0.00  0.00    -0.075 A 
ATOM      6  C7  UNL d   1      -5.997   5.888   5.998  0.00  0.00     0.076 C 
ATOM      7  C8  UNL d   1      -5.930   5.519   3.514  0.00  0.00     0.001 A 
ENDROOT
BRANCH   1   8
ATOM      8  C1  UNL d   1      -6.000   5.152   1.016  0.00  0.00     0.053 C 
ATOM      9  C   UNL d   1      -5.730   3.791   0.394  0.00  0.00     0.018 C 
ENDBRANCH   1   8
TORSDOF 1
ENDMDL
