MODEL 1
REMARK minimizedAffinity 1.42353404
REMARK minimizedRMSD -1
REMARK  1 active torsions:
REMARK  status: ('A' for Active; 'I' for Inactive)
REMARK    1  A    between atoms: C1_2  and  C2_3 
ROOT
ATOM      1  C2  UNL d   1       1.751  -0.127  -0.799  0.00  0.00    -0.073 A 
ATOM      2  C3  UNL d   1       1.865  -0.418   0.565  0.00  0.00    -0.002 A 
ATOM      3  C4  UNL d   1       0.728  -0.705   1.322  0.00  0.00     0.004 A 
ATOM      4  C5  UNL d   1      -0.531  -0.709   0.723  0.00  0.00    -0.004 A 
ATOM      5  C6  UNL d   1      -0.664  -0.432  -0.641  0.00  0.00    -0.075 A 
ATOM      6  C7  UNL d   1      -2.012  -0.430  -1.300  0.00  0.00     0.076 C 
ATOM      7  C8  UNL d   1       0.482  -0.143  -1.394  0.00  0.00     0.001 A 
ENDROOT
BRANCH   1   8
ATOM      8  C1  UNL d   1       2.977   0.177  -1.621  0.00  0.00     0.053 C 
ATOM      9  C   UNL d   1       3.744  -1.084  -1.987  0.00  0.00     0.018 C 
ENDBRANCH   1   8
TORSDOF 1
ENDMDL
