MODEL 1
REMARK minimizedAffinity 4.46754885
REMARK minimizedRMSD -1
REMARK  1 active torsions:
REMARK  status: ('A' for Active; 'I' for Inactive)
REMARK    1  A    between atoms: C1_2  and  C2_3 
ROOT
ATOM      1  C2  UNL d   1      -4.820   5.615   1.495  0.00  0.00    -0.073 A 
ATOM      2  C3  UNL d   1      -5.994   5.939   2.184  0.00  0.00    -0.002 A 
ATOM      3  C4  UNL d   1      -5.999   5.999   3.578  0.00  0.00     0.004 A 
ATOM      4  C5  UNL d   1      -4.831   5.743   4.296  0.00  0.00    -0.004 A 
ATOM      5  C6  UNL d   1      -3.645   5.429   3.625  0.00  0.00    -0.075 A 
ATOM      6  C7  UNL d   1      -2.381   5.149   4.383  0.00  0.00     0.076 C 
ATOM      7  C8  UNL d   1      -3.649   5.369   2.225  0.00  0.00     0.001 A 
ENDROOT
BRANCH   1   8
ATOM      8  C1  UNL d   1      -4.808   5.556  -0.011  0.00  0.00     0.053 C 
ATOM      9  C   UNL d   1      -5.795   4.532  -0.549  0.00  0.00     0.018 C 
ENDBRANCH   1   8
TORSDOF 1
ENDMDL
