MODEL 1
REMARK minimizedAffinity 10.1016321
REMARK minimizedRMSD -1
REMARK  1 active torsions:
REMARK  status: ('A' for Active; 'I' for Inactive)
REMARK    1  A    between atoms: C1_2  and  C2_3 
ROOT
ATOM      1  C2  UNL d   1      -1.933  -2.013  -2.038  0.00  0.00    -0.073 A 
ATOM      2  C3  UNL d   1      -1.729  -1.169  -3.135  0.00  0.00    -0.002 A 
ATOM      3  C4  UNL d   1      -2.075  -1.586  -4.421  0.00  0.00     0.004 A 
ATOM      4  C5  UNL d   1      -2.635  -2.848  -4.622  0.00  0.00    -0.004 A 
ATOM      5  C6  UNL d   1      -2.858  -3.702  -3.537  0.00  0.00    -0.075 A 
ATOM      6  C7  UNL d   1      -3.457  -5.063  -3.737  0.00  0.00     0.076 C 
ATOM      7  C8  UNL d   1      -2.505  -3.276  -2.249  0.00  0.00     0.001 A 
ENDROOT
BRANCH   1   8
ATOM      8  C1  UNL d   1      -1.567  -1.564  -0.647  0.00  0.00     0.053 C 
ATOM      9  C   UNL d   1      -0.548  -0.435  -0.663  0.00  0.00     0.018 C 
ENDBRANCH   1   8
TORSDOF 1
ENDMDL
