MODEL 1
REMARK minimizedAffinity 5.34703875
REMARK minimizedRMSD -1
REMARK  1 active torsions:
REMARK  status: ('A' for Active; 'I' for Inactive)
REMARK    1  A    between atoms: C1_2  and  C2_3 
ROOT
ATOM      1  C2  UNL d   1       0.977  -0.054  -1.833  0.00  0.00    -0.073 A 
ATOM      2  C3  UNL d   1       2.186  -0.621  -1.416  0.00  0.00    -0.002 A 
ATOM      3  C4  UNL d   1       3.170  -0.949  -2.350  0.00  0.00     0.004 A 
ATOM      4  C5  UNL d   1       2.958  -0.707  -3.707  0.00  0.00    -0.004 A 
ATOM      5  C6  UNL d   1       1.761  -0.130  -4.142  0.00  0.00    -0.075 A 
ATOM      6  C7  UNL d   1       1.517   0.135  -5.599  0.00  0.00     0.076 C 
ATOM      7  C8  UNL d   1       0.777   0.194  -3.199  0.00  0.00     0.001 A 
ENDROOT
BRANCH   1   8
ATOM      8  C1  UNL d   1      -0.085   0.308  -0.828  0.00  0.00     0.053 C 
ATOM      9  C   UNL d   1      -0.980  -0.875  -0.493  0.00  0.00     0.018 C 
ENDBRANCH   1   8
TORSDOF 1
ENDMDL
