MODEL 1
REMARK minimizedAffinity 1.28761196
REMARK minimizedRMSD -1
REMARK  1 active torsions:
REMARK  status: ('A' for Active; 'I' for Inactive)
REMARK    1  A    between atoms: C1_2  and  C2_3 
ROOT
ATOM      1  C2  UNL d   1      -3.578   5.621   4.375  0.00  0.00    -0.073 A 
ATOM      2  C3  UNL d   1      -4.773   5.792   5.084  0.00  0.00    -0.002 A 
ATOM      3  C4  UNL d   1      -5.976   5.983   4.403  0.00  0.00     0.004 A 
ATOM      4  C5  UNL d   1      -5.999   5.997   3.009  0.00  0.00    -0.004 A 
ATOM      5  C6  UNL d   1      -4.817   5.816   2.282  0.00  0.00    -0.075 A 
ATOM      6  C7  UNL d   1      -4.825   5.831   0.782  0.00  0.00     0.076 C 
ATOM      7  C8  UNL d   1      -3.613   5.628   2.973  0.00  0.00     0.001 A 
ENDROOT
BRANCH   1   8
ATOM      8  C1  UNL d   1      -2.278   5.409   5.106  0.00  0.00     0.053 C 
ATOM      9  C   UNL d   1      -1.195   4.855   4.193  0.00  0.00     0.018 C 
ENDBRANCH   1   8
TORSDOF 1
ENDMDL
