MODEL 1
REMARK minimizedAffinity 7.44656992
REMARK minimizedRMSD -1
REMARK  1 active torsions:
REMARK  status: ('A' for Active; 'I' for Inactive)
REMARK    1  A    between atoms: C1_2  and  C2_3 
ROOT
ATOM      1  C2  UNL d   1      -2.264  -2.077  -2.023  0.00  0.00    -0.073 A 
ATOM      2  C3  UNL d   1      -2.763  -0.836  -2.434  0.00  0.00    -0.002 A 
ATOM      3  C4  UNL d   1      -2.273   0.343  -1.870  0.00  0.00     0.004 A 
ATOM      4  C5  UNL d   1      -1.275   0.293  -0.896  0.00  0.00    -0.004 A 
ATOM      5  C6  UNL d   1      -0.755  -0.937  -0.482  0.00  0.00    -0.075 A 
ATOM      6  C7  UNL d   1       0.317  -1.008   0.566  0.00  0.00     0.076 C 
ATOM      7  C8  UNL d   1      -1.254  -2.116  -1.051  0.00  0.00     0.001 A 
ENDROOT
BRANCH   1   8
ATOM      8  C1  UNL d   1      -2.786  -3.352  -2.634  0.00  0.00     0.053 C 
ATOM      9  C   UNL d   1      -2.495  -3.431  -4.124  0.00  0.00     0.018 C 
ENDBRANCH   1   8
TORSDOF 1
ENDMDL
