MODEL 1
REMARK minimizedAffinity -6.51395893
REMARK minimizedRMSD -1
REMARK  1 active torsions:
REMARK  status: ('A' for Active; 'I' for Inactive)
REMARK    1  A    between atoms: C1_2  and  C2_3 
ROOT
ATOM      1  C2  UNL d   1      -4.483  -3.709   0.475  0.00  0.00    -0.073 A 
ATOM      2  C3  UNL d   1      -3.618  -4.092  -0.557  0.00  0.00    -0.002 A 
ATOM      3  C4  UNL d   1      -2.613  -3.227  -0.992  0.00  0.00     0.004 A 
ATOM      4  C5  UNL d   1      -2.458  -1.975  -0.396  0.00  0.00    -0.004 A 
ATOM      5  C6  UNL d   1      -3.305  -1.580   0.645  0.00  0.00    -0.075 A 
ATOM      6  C7  UNL d   1      -3.152  -0.236   1.295  0.00  0.00     0.076 C 
ATOM      7  C8  UNL d   1      -4.313  -2.453   1.074  0.00  0.00     0.001 A 
ENDROOT
BRANCH   1   8
ATOM      8  C1  UNL d   1      -5.566  -4.643   0.952  0.00  0.00     0.053 C 
ATOM      9  C   UNL d   1      -5.872  -5.729  -0.067  0.00  0.00     0.018 C 
ENDBRANCH   1   8
TORSDOF 1
ENDMDL
