MODEL 1
REMARK minimizedAffinity 4.03308439
REMARK minimizedRMSD -1
REMARK  1 active torsions:
REMARK  status: ('A' for Active; 'I' for Inactive)
REMARK    1  A    between atoms: C1_2  and  C2_3 
ROOT
ATOM      1  C2  UNL d   1       2.556   2.244   3.226  0.00  0.00    -0.073 A 
ATOM      2  C3  UNL d   1       1.598   3.054   3.847  0.00  0.00    -0.002 A 
ATOM      3  C4  UNL d   1       0.853   2.566   4.922  0.00  0.00     0.004 A 
ATOM      4  C5  UNL d   1       1.062   1.269   5.389  0.00  0.00    -0.004 A 
ATOM      5  C6  UNL d   1       2.022   0.448   4.789  0.00  0.00    -0.075 A 
ATOM      6  C7  UNL d   1       2.257  -0.950   5.279  0.00  0.00     0.076 C 
ATOM      7  C8  UNL d   1       2.765   0.944   3.709  0.00  0.00     0.001 A 
ENDROOT
BRANCH   1   8
ATOM      8  C1  UNL d   1       3.368   2.768   2.070  0.00  0.00     0.053 C 
ATOM      9  C   UNL d   1       2.499   3.095   0.865  0.00  0.00     0.018 C 
ENDBRANCH   1   8
TORSDOF 1
ENDMDL
