MODEL 1
REMARK minimizedAffinity 11.2105761
REMARK minimizedRMSD -1
REMARK  1 active torsions:
REMARK  status: ('A' for Active; 'I' for Inactive)
REMARK    1  A    between atoms: C1_2  and  C2_3 
ROOT
ATOM      1  C2  UNL d   1      -1.457  -1.572  -1.911  0.00  0.00    -0.073 A 
ATOM      2  C3  UNL d   1      -1.934  -2.686  -1.210  0.00  0.00    -0.002 A 
ATOM      3  C4  UNL d   1      -2.602  -3.710  -1.884  0.00  0.00     0.004 A 
ATOM      4  C5  UNL d   1      -2.793  -3.634  -3.263  0.00  0.00    -0.004 A 
ATOM      5  C6  UNL d   1      -2.313  -2.535  -3.983  0.00  0.00    -0.075 A 
ATOM      6  C7  UNL d   1      -2.512  -2.438  -5.467  0.00  0.00     0.076 C 
ATOM      7  C8  UNL d   1      -1.646  -1.510  -3.299  0.00  0.00     0.001 A 
ENDROOT
BRANCH   1   8
ATOM      8  C1  UNL d   1      -0.730  -0.467  -1.189  0.00  0.00     0.053 C 
ATOM      9  C   UNL d   1      -1.234  -0.288   0.234  0.00  0.00     0.018 C 
ENDBRANCH   1   8
TORSDOF 1
ENDMDL
