MODEL 1
REMARK minimizedAffinity -3.3371563
REMARK minimizedRMSD -1
REMARK  1 active torsions:
REMARK  status: ('A' for Active; 'I' for Inactive)
REMARK    1  A    between atoms: C1_2  and  C2_3 
ROOT
ATOM      1  C2  UNL d   1       1.340   2.984  -0.264  0.00  0.00    -0.077 A 
ATOM      2  C3  UNL d   1       1.817   1.838   0.388  0.00  0.00     0.002 A 
ATOM      3  C4  UNL d   1       1.897   0.621  -0.291  0.00  0.00     0.002 A 
ATOM      4  C5  UNL d   1       1.506   0.539  -1.626  0.00  0.00    -0.004 A 
ATOM      5  C6  UNL d   1       1.028   1.672  -2.283  0.00  0.00     0.002 A 
ATOM      6  C7  UNL d   1       0.946   2.889  -1.605  0.00  0.00     0.002 A 
ENDROOT
BRANCH   1   7
ATOM      7  C1  UNL d   1       1.299   4.308   0.452  0.00  0.00     0.055 C 
ATOM      8  C   UNL d   1       1.924   5.412  -0.389  0.00  0.00     0.019 C 
ENDBRANCH   1   7
TORSDOF 1
ENDMDL
