MODEL 1
REMARK minimizedAffinity 1.50367618
REMARK minimizedRMSD -1
REMARK  1 active torsions:
REMARK  status: ('A' for Active; 'I' for Inactive)
REMARK    1  A    between atoms: C1_2  and  C2_3 
ROOT
ATOM      1  C2  UNL d   1      -2.168   1.242   3.740  0.00  0.00    -0.077 A 
ATOM      2  C3  UNL d   1      -1.417   0.126   3.344  0.00  0.00     0.002 A 
ATOM      3  C4  UNL d   1      -1.101  -0.875   4.264  0.00  0.00     0.002 A 
ATOM      4  C5  UNL d   1      -1.535  -0.773   5.584  0.00  0.00    -0.004 A 
ATOM      5  C6  UNL d   1      -2.280   0.334   5.988  0.00  0.00     0.002 A 
ATOM      6  C7  UNL d   1      -2.596   1.336   5.070  0.00  0.00     0.002 A 
ENDROOT
BRANCH   1   7
ATOM      7  C1  UNL d   1      -2.551   2.298   2.737  0.00  0.00     0.055 C 
ATOM      8  C   UNL d   1      -3.286   1.694   1.550  0.00  0.00     0.019 C 
ENDBRANCH   1   7
TORSDOF 1
ENDMDL
