MODEL 1
REMARK minimizedAffinity 0.274197102
REMARK minimizedRMSD -1
REMARK  1 active torsions:
REMARK  status: ('A' for Active; 'I' for Inactive)
REMARK    1  A    between atoms: C1_2  and  C2_3 
ROOT
ATOM      1  C2  UNL d   1       1.237   3.731  -0.921  0.00  0.00    -0.077 A 
ATOM      2  C3  UNL d   1       2.156   2.675  -0.987  0.00  0.00     0.002 A 
ATOM      3  C4  UNL d   1       1.914   1.578  -1.815  0.00  0.00     0.002 A 
ATOM      4  C5  UNL d   1       0.755   1.528  -2.586  0.00  0.00    -0.004 A 
ATOM      5  C6  UNL d   1      -0.167   2.572  -2.527  0.00  0.00     0.002 A 
ATOM      6  C7  UNL d   1       0.073   3.669  -1.699  0.00  0.00     0.002 A 
ENDROOT
BRANCH   1   7
ATOM      7  C1  UNL d   1       1.520   4.939  -0.066  0.00  0.00     0.055 C 
ATOM      8  C   UNL d   1       2.287   5.999  -0.843  0.00  0.00     0.019 C 
ENDBRANCH   1   7
TORSDOF 1
ENDMDL
