MODEL 1
REMARK minimizedAffinity -4.69054317
REMARK minimizedRMSD -1
REMARK  1 active torsions:
REMARK  status: ('A' for Active; 'I' for Inactive)
REMARK    1  A    between atoms: C1_2  and  C2_3 
ROOT
ATOM      1  C2  UNL d   1       1.404   2.541   0.728  0.00  0.00    -0.077 A 
ATOM      2  C3  UNL d   1       1.316   1.382  -0.056  0.00  0.00     0.002 A 
ATOM      3  C4  UNL d   1       1.261   1.473  -1.448  0.00  0.00     0.002 A 
ATOM      4  C5  UNL d   1       1.298   2.720  -2.068  0.00  0.00    -0.004 A 
ATOM      5  C6  UNL d   1       1.384   3.879  -1.297  0.00  0.00     0.002 A 
ATOM      6  C7  UNL d   1       1.438   3.790   0.094  0.00  0.00     0.002 A 
ENDROOT
BRANCH   1   7
ATOM      7  C1  UNL d   1       1.514   2.442   2.227  0.00  0.00     0.055 C 
ATOM      8  C   UNL d   1       2.129   3.701   2.821  0.00  0.00     0.019 C 
ENDBRANCH   1   7
TORSDOF 1
ENDMDL
