MODEL 1
REMARK minimizedAffinity -4.7372694
REMARK minimizedRMSD -1
REMARK  1 active torsions:
REMARK  status: ('A' for Active; 'I' for Inactive)
REMARK    1  A    between atoms: C1_2  and  C2_3 
ROOT
ATOM      1  C2  UNL d   1       1.426   0.451  -0.927  0.00  0.00    -0.077 A 
ATOM      2  C3  UNL d   1       1.157   0.730   0.420  0.00  0.00     0.002 A 
ATOM      3  C4  UNL d   1       0.998   2.049   0.850  0.00  0.00     0.002 A 
ATOM      4  C5  UNL d   1       1.103   3.098  -0.061  0.00  0.00    -0.004 A 
ATOM      5  C6  UNL d   1       1.372   2.830  -1.403  0.00  0.00     0.002 A 
ATOM      6  C7  UNL d   1       1.532   1.513  -1.834  0.00  0.00     0.002 A 
ENDROOT
BRANCH   1   7
ATOM      7  C1  UNL d   1       1.549  -0.974  -1.401  0.00  0.00     0.055 C 
ATOM      8  C   UNL d   1       0.704  -1.914  -0.554  0.00  0.00     0.019 C 
ENDBRANCH   1   7
TORSDOF 1
ENDMDL
