MODEL 1
REMARK minimizedAffinity -7.07457161
REMARK minimizedRMSD -1
REMARK  1 active torsions:
REMARK  status: ('A' for Active; 'I' for Inactive)
REMARK    1  A    between atoms: C1_2  and  C2_3 
ROOT
ATOM      1  C2  UNL d   1       1.340   1.043  -0.448  0.00  0.00    -0.077 A 
ATOM      2  C3  UNL d   1       1.041   1.505   0.842  0.00  0.00     0.002 A 
ATOM      3  C4  UNL d   1       1.020   2.875   1.114  0.00  0.00     0.002 A 
ATOM      4  C5  UNL d   1       1.293   3.792   0.102  0.00  0.00    -0.004 A 
ATOM      5  C6  UNL d   1       1.593   3.343  -1.183  0.00  0.00     0.002 A 
ATOM      6  C7  UNL d   1       1.616   1.975  -1.457  0.00  0.00     0.002 A 
ENDROOT
BRANCH   1   7
ATOM      7  C1  UNL d   1       1.315  -0.431  -0.756  0.00  0.00     0.055 C 
ATOM      8  C   UNL d   1       1.330  -0.684  -2.256  0.00  0.00     0.019 C 
ENDBRANCH   1   7
TORSDOF 1
ENDMDL
