MODEL 1
REMARK minimizedAffinity -1.84034169
REMARK minimizedRMSD -1
REMARK  1 active torsions:
REMARK  status: ('A' for Active; 'I' for Inactive)
REMARK    1  A    between atoms: C1_2  and  C2_3 
ROOT
ATOM      1  C2  UNL d   1       1.491   3.918  -0.988  0.00  0.00    -0.077 A 
ATOM      2  C3  UNL d   1       1.599   3.277   0.254  0.00  0.00     0.002 A 
ATOM      3  C4  UNL d   1       1.669   1.884   0.325  0.00  0.00     0.002 A 
ATOM      4  C5  UNL d   1       1.637   1.122  -0.841  0.00  0.00    -0.004 A 
ATOM      5  C6  UNL d   1       1.529   1.750  -2.080  0.00  0.00     0.002 A 
ATOM      6  C7  UNL d   1       1.457   3.142  -2.154  0.00  0.00     0.002 A 
ENDROOT
BRANCH   1   7
ATOM      7  C1  UNL d   1       1.465   5.422  -1.071  0.00  0.00     0.055 C 
ATOM      8  C   UNL d   1       2.872   5.999  -1.103  0.00  0.00     0.019 C 
ENDBRANCH   1   7
TORSDOF 1
ENDMDL
