MODEL 1
REMARK minimizedAffinity 1.04318154
REMARK minimizedRMSD -1
REMARK  1 active torsions:
REMARK  status: ('A' for Active; 'I' for Inactive)
REMARK    1  A    between atoms: C1_2  and  C2_3 
ROOT
ATOM      1  C2  UNL d   1       1.202   0.921  -1.296  0.00  0.00    -0.077 A 
ATOM      2  C3  UNL d   1       2.081   0.907  -0.204  0.00  0.00     0.002 A 
ATOM      3  C4  UNL d   1       2.287  -0.268   0.521  0.00  0.00     0.002 A 
ATOM      4  C5  UNL d   1       1.622  -1.438   0.160  0.00  0.00    -0.004 A 
ATOM      5  C6  UNL d   1       0.745  -1.434  -0.924  0.00  0.00     0.002 A 
ATOM      6  C7  UNL d   1       0.536  -0.260  -1.649  0.00  0.00     0.002 A 
ENDROOT
BRANCH   1   7
ATOM      7  C1  UNL d   1       1.016   2.175  -2.110  0.00  0.00     0.055 C 
ATOM      8  C   UNL d   1       1.866   3.316  -1.571  0.00  0.00     0.019 C 
ENDBRANCH   1   7
TORSDOF 1
ENDMDL
