MODEL 1
REMARK minimizedAffinity -3.93036461
REMARK minimizedRMSD -1
REMARK  1 active torsions:
REMARK  status: ('A' for Active; 'I' for Inactive)
REMARK    1  A    between atoms: C1_2  and  C2_3 
ROOT
ATOM      1  C2  UNL d   1       1.292   2.477  -0.888  0.00  0.00    -0.077 A 
ATOM      2  C3  UNL d   1       1.385   2.411   0.509  0.00  0.00     0.002 A 
ATOM      3  C4  UNL d   1       1.453   1.175   1.155  0.00  0.00     0.002 A 
ATOM      4  C5  UNL d   1       1.432  -0.003   0.412  0.00  0.00    -0.004 A 
ATOM      5  C6  UNL d   1       1.337   0.052  -0.978  0.00  0.00     0.002 A 
ATOM      6  C7  UNL d   1       1.268   1.287  -1.625  0.00  0.00     0.002 A 
ENDROOT
BRANCH   1   7
ATOM      7  C1  UNL d   1       1.268   3.810  -1.589  0.00  0.00     0.055 C 
ATOM      8  C   UNL d   1       1.868   4.905  -0.718  0.00  0.00     0.019 C 
ENDBRANCH   1   7
TORSDOF 1
ENDMDL
