MODEL 1
REMARK minimizedAffinity -0.896618724
REMARK minimizedRMSD -1
REMARK  1 active torsions:
REMARK  status: ('A' for Active; 'I' for Inactive)
REMARK    1  A    between atoms: C1_2  and  C2_3 
ROOT
ATOM      1  C2  UNL d   1      -5.298  -0.020   3.443  0.00  0.00    -0.077 A 
ATOM      2  C3  UNL d   1      -5.974   1.033   4.076  0.00  0.00     0.002 A 
ATOM      3  C4  UNL d   1      -5.352   2.271   4.244  0.00  0.00     0.002 A 
ATOM      4  C5  UNL d   1      -4.053   2.470   3.779  0.00  0.00    -0.004 A 
ATOM      5  C6  UNL d   1      -3.372   1.428   3.150  0.00  0.00     0.002 A 
ATOM      6  C7  UNL d   1      -3.992   0.189   2.982  0.00  0.00     0.002 A 
ENDROOT
BRANCH   1   7
ATOM      7  C1  UNL d   1      -5.985  -1.341   3.216  0.00  0.00     0.055 C 
ATOM      8  C   UNL d   1      -4.998  -2.498   3.285  0.00  0.00     0.019 C 
ENDBRANCH   1   7
TORSDOF 1
ENDMDL
