MODEL 1
REMARK minimizedAffinity -0.228467882
REMARK minimizedRMSD -1
REMARK  1 active torsions:
REMARK  status: ('A' for Active; 'I' for Inactive)
REMARK    1  A    between atoms: C1_2  and  C2_3 
ROOT
ATOM      1  C2  UNL d   1       1.153   1.579   0.423  0.00  0.00    -0.077 A 
ATOM      2  C3  UNL d   1       1.459   2.824  -0.144  0.00  0.00     0.002 A 
ATOM      3  C4  UNL d   1       1.387   3.009  -1.526  0.00  0.00     0.002 A 
ATOM      4  C5  UNL d   1       1.004   1.954  -2.352  0.00  0.00    -0.004 A 
ATOM      5  C6  UNL d   1       0.699   0.711  -1.798  0.00  0.00     0.002 A 
ATOM      6  C7  UNL d   1       0.772   0.525  -0.417  0.00  0.00     0.002 A 
ENDROOT
BRANCH   1   7
ATOM      7  C1  UNL d   1       1.183   1.392   1.917  0.00  0.00     0.055 C 
ATOM      8  C   UNL d   1      -0.183   1.650   2.535  0.00  0.00     0.019 C 
ENDBRANCH   1   7
TORSDOF 1
ENDMDL
