MODEL 1
REMARK minimizedAffinity 6.36033964
REMARK minimizedRMSD -1
REMARK  1 active torsions:
REMARK  status: ('A' for Active; 'I' for Inactive)
REMARK    1  A    between atoms: C1_2  and  C2_3 
ROOT
ATOM      1  C2  UNL d   1       1.539   3.675  -0.704  0.00  0.00    -0.077 A 
ATOM      2  C3  UNL d   1       1.558   2.529   0.102  0.00  0.00     0.002 A 
ATOM      3  C4  UNL d   1       1.320   1.270  -0.454  0.00  0.00     0.002 A 
ATOM      4  C5  UNL d   1       1.066   1.146  -1.818  0.00  0.00    -0.004 A 
ATOM      5  C6  UNL d   1       1.043   2.281  -2.628  0.00  0.00     0.002 A 
ATOM      6  C7  UNL d   1       1.279   3.540  -2.073  0.00  0.00     0.002 A 
ENDROOT
BRANCH   1   7
ATOM      7  C1  UNL d   1       1.843   5.028  -0.115  0.00  0.00     0.055 C 
ATOM      8  C   UNL d   1       2.328   6.000  -1.181  0.00  0.00     0.019 C 
ENDBRANCH   1   7
TORSDOF 1
ENDMDL
