MODEL 1
REMARK minimizedAffinity 2.87068033
REMARK minimizedRMSD -1
REMARK  1 active torsions:
REMARK  status: ('A' for Active; 'I' for Inactive)
REMARK    1  A    between atoms: C1_2  and  C2_3 
ROOT
ATOM      1  C2  UNL d   1       1.108  -2.559   0.662  0.00  0.00    -0.076 A 
ATOM      2  C3  UNL d   1       0.101  -3.535   0.564  0.00  0.00     0.004 A 
ATOM      3  C4  UNL d   1      -1.094  -3.405   1.269  0.00  0.00    -0.003 A 
ATOM      4  C5  UNL d   1      -1.302  -2.298   2.084  0.00  0.00     0.000 A 
ATOM      5  C6  UNL d   1      -0.321  -1.311   2.179  0.00  0.00     0.000 A 
ATOM      6  C7  UNL d   1       0.883  -1.418   1.462  0.00  0.00    -0.073 A 
ATOM      7  C8  UNL d   1       1.909  -0.328   1.607  0.00  0.00     0.078 C 
ENDROOT
BRANCH   1   8
ATOM      8  C1  UNL d   1       2.395  -2.766  -0.105  0.00  0.00     0.053 C 
ATOM      9  C   UNL d   1       3.247  -3.883   0.478  0.00  0.00     0.018 C 
ENDBRANCH   1   8
TORSDOF 1
ENDMDL
