MODEL 1
REMARK minimizedAffinity -0.817585349
REMARK minimizedRMSD -1
REMARK  1 active torsions:
REMARK  status: ('A' for Active; 'I' for Inactive)
REMARK    1  A    between atoms: C1_2  and  C2_3 
ROOT
ATOM      1  C2  UNL d   1      -1.459   2.211  -4.131  0.00  0.00    -0.076 A 
ATOM      2  C3  UNL d   1      -0.520   2.587  -5.108  0.00  0.00     0.004 A 
ATOM      3  C4  UNL d   1      -0.690   3.751  -5.855  0.00  0.00    -0.003 A 
ATOM      4  C5  UNL d   1      -1.800   4.559  -5.637  0.00  0.00     0.000 A 
ATOM      5  C6  UNL d   1      -2.733   4.210  -4.661  0.00  0.00     0.000 A 
ATOM      6  C7  UNL d   1      -2.568   3.048  -3.887  0.00  0.00    -0.073 A 
ATOM      7  C8  UNL d   1      -3.607   2.717  -2.852  0.00  0.00     0.078 C 
ENDROOT
BRANCH   1   8
ATOM      8  C1  UNL d   1      -1.236   0.923  -3.371  0.00  0.00     0.053 C 
ATOM      9  C   UNL d   1      -0.613  -0.163  -4.234  0.00  0.00     0.018 C 
ENDBRANCH   1   8
TORSDOF 1
ENDMDL
