MODEL 1
REMARK minimizedAffinity 15.4127512
REMARK minimizedRMSD -1
REMARK  1 active torsions:
REMARK  status: ('A' for Active; 'I' for Inactive)
REMARK    1  A    between atoms: C1_2  and  C2_3 
ROOT
ATOM      1  C2  UNL d   1       3.510  -4.048   0.361  0.00  0.00    -0.076 A 
ATOM      2  C3  UNL d   1       2.823  -3.723  -0.822  0.00  0.00     0.004 A 
ATOM      3  C4  UNL d   1       1.704  -2.892  -0.796  0.00  0.00    -0.003 A 
ATOM      4  C5  UNL d   1       1.254  -2.372   0.412  0.00  0.00     0.000 A 
ATOM      5  C6  UNL d   1       1.934  -2.670   1.593  0.00  0.00     0.000 A 
ATOM      6  C7  UNL d   1       3.074  -3.492   1.583  0.00  0.00    -0.073 A 
ATOM      7  C8  UNL d   1       3.765  -3.785   2.886  0.00  0.00     0.078 C 
ENDROOT
BRANCH   1   8
ATOM      8  C1  UNL d   1       4.701  -4.976   0.275  0.00  0.00     0.053 C 
ATOM      9  C   UNL d   1       5.999  -4.234  -0.000  0.00  0.00     0.018 C 
ENDBRANCH   1   8
TORSDOF 1
ENDMDL
