MODEL 1
REMARK minimizedAffinity 13.2277269
REMARK minimizedRMSD -1
REMARK  1 active torsions:
REMARK  status: ('A' for Active; 'I' for Inactive)
REMARK    1  A    between atoms: C1_2  and  C2_3 
ROOT
ATOM      1  C2  UNL d   1       1.826  -3.016   1.444  0.00  0.00    -0.076 A 
ATOM      2  C3  UNL d   1       2.706  -3.601   2.372  0.00  0.00     0.004 A 
ATOM      3  C4  UNL d   1       3.961  -4.061   1.978  0.00  0.00    -0.003 A 
ATOM      4  C5  UNL d   1       4.358  -3.943   0.651  0.00  0.00     0.000 A 
ATOM      5  C6  UNL d   1       3.505  -3.349  -0.279  0.00  0.00     0.000 A 
ATOM      6  C7  UNL d   1       2.243  -2.865   0.104  0.00  0.00    -0.073 A 
ATOM      7  C8  UNL d   1       1.361  -2.239  -0.941  0.00  0.00     0.078 C 
ENDROOT
BRANCH   1   8
ATOM      8  C1  UNL d   1       0.467  -2.560   1.924  0.00  0.00     0.053 C 
ATOM      9  C   UNL d   1      -0.610  -3.613   1.709  0.00  0.00     0.018 C 
ENDBRANCH   1   8
TORSDOF 1
ENDMDL
