MODEL 1
REMARK minimizedAffinity 8.96343327
REMARK minimizedRMSD -1
REMARK  1 active torsions:
REMARK  status: ('A' for Active; 'I' for Inactive)
REMARK    1  A    between atoms: C1_2  and  C2_3 
ROOT
ATOM      1  C2  UNL d   1       1.443  -2.735   0.901  0.00  0.00    -0.076 A 
ATOM      2  C3  UNL d   1       2.355  -3.433   1.711  0.00  0.00     0.004 A 
ATOM      3  C4  UNL d   1       3.492  -4.026   1.164  0.00  0.00    -0.003 A 
ATOM      4  C5  UNL d   1       3.736  -3.929  -0.201  0.00  0.00     0.000 A 
ATOM      5  C6  UNL d   1       2.851  -3.225  -1.017  0.00  0.00     0.000 A 
ATOM      6  C7  UNL d   1       1.708  -2.608  -0.479  0.00  0.00    -0.073 A 
ATOM      7  C8  UNL d   1       0.784  -1.866  -1.406  0.00  0.00     0.078 C 
ENDROOT
BRANCH   1   8
ATOM      8  C1  UNL d   1       0.213  -2.136   1.546  0.00  0.00     0.053 C 
ATOM      9  C   UNL d   1      -0.991  -3.062   1.475  0.00  0.00     0.018 C 
ENDBRANCH   1   8
TORSDOF 1
ENDMDL
