MODEL 1
REMARK minimizedAffinity 4.77034998
REMARK minimizedRMSD -1
REMARK  1 active torsions:
REMARK  status: ('A' for Active; 'I' for Inactive)
REMARK    1  A    between atoms: C1_2  and  C2_3 
ROOT
ATOM      1  C2  UNL d   1      -1.862   3.215  -4.010  0.00  0.00    -0.076 A 
ATOM      2  C3  UNL d   1      -2.200   4.512  -4.434  0.00  0.00     0.004 A 
ATOM      3  C4  UNL d   1      -1.459   5.161  -5.420  0.00  0.00    -0.003 A 
ATOM      4  C5  UNL d   1      -0.368   4.522  -6.000  0.00  0.00     0.000 A 
ATOM      5  C6  UNL d   1      -0.029   3.229  -5.604  0.00  0.00     0.000 A 
ATOM      6  C7  UNL d   1      -0.775   2.555  -4.622  0.00  0.00    -0.073 A 
ATOM      7  C8  UNL d   1      -0.361   1.163  -4.230  0.00  0.00     0.078 C 
ENDROOT
BRANCH   1   8
ATOM      8  C1  UNL d   1      -2.685   2.572  -2.917  0.00  0.00     0.053 C 
ATOM      9  C   UNL d   1      -3.913   3.393  -2.554  0.00  0.00     0.018 C 
ENDBRANCH   1   8
TORSDOF 1
ENDMDL
