MODEL 1
REMARK minimizedAffinity 7.70258093
REMARK minimizedRMSD -1
REMARK  1 active torsions:
REMARK  status: ('A' for Active; 'I' for Inactive)
REMARK    1  A    between atoms: C1_2  and  C2_3 
ROOT
ATOM      1  C2  UNL d   1      -1.642   3.094  -4.281  0.00  0.00    -0.076 A 
ATOM      2  C3  UNL d   1      -1.964   4.437  -4.541  0.00  0.00     0.004 A 
ATOM      3  C4  UNL d   1      -1.175   5.214  -5.388  0.00  0.00    -0.003 A 
ATOM      4  C5  UNL d   1      -0.050   4.659  -5.989  0.00  0.00     0.000 A 
ATOM      5  C6  UNL d   1       0.275   3.323  -5.756  0.00  0.00     0.000 A 
ATOM      6  C7  UNL d   1      -0.520   2.522  -4.918  0.00  0.00    -0.073 A 
ATOM      7  C8  UNL d   1      -0.119   1.089  -4.697  0.00  0.00     0.078 C 
ENDROOT
BRANCH   1   8
ATOM      8  C1  UNL d   1      -2.519   2.309  -3.333  0.00  0.00     0.053 C 
ATOM      9  C   UNL d   1      -3.972   2.758  -3.375  0.00  0.00     0.018 C 
ENDBRANCH   1   8
TORSDOF 1
ENDMDL
