MODEL 1
REMARK minimizedAffinity 10.0835428
REMARK minimizedRMSD -1
REMARK  1 active torsions:
REMARK  status: ('A' for Active; 'I' for Inactive)
REMARK    1  A    between atoms: C1_2  and  C2_3 
ROOT
ATOM      1  C2  UNL d   1      -0.947   3.026  -4.280  0.00  0.00    -0.076 A 
ATOM      2  C3  UNL d   1      -1.002   4.324  -4.817  0.00  0.00     0.004 A 
ATOM      3  C4  UNL d   1      -0.003   4.790  -5.670  0.00  0.00    -0.003 A 
ATOM      4  C5  UNL d   1       1.067   3.966  -6.000  0.00  0.00     0.000 A 
ATOM      5  C6  UNL d   1       1.129   2.670  -5.490  0.00  0.00     0.000 A 
ATOM      6  C7  UNL d   1       0.122   2.178  -4.642  0.00  0.00    -0.073 A 
ATOM      7  C8  UNL d   1       0.242   0.774  -4.116  0.00  0.00     0.078 C 
ENDROOT
BRANCH   1   8
ATOM      8  C1  UNL d   1      -2.045   2.585  -3.339  0.00  0.00     0.053 C 
ATOM      9  C   UNL d   1      -3.256   3.504  -3.384  0.00  0.00     0.018 C 
ENDBRANCH   1   8
TORSDOF 1
ENDMDL
