MODEL 1
REMARK minimizedAffinity 5.29203367
REMARK minimizedRMSD -1
REMARK  1 active torsions:
REMARK  status: ('A' for Active; 'I' for Inactive)
REMARK    1  A    between atoms: C1_2  and  C2_3 
ROOT
ATOM      1  C2  UNL d   1      -1.522   3.224  -3.838  0.00  0.00    -0.076 A 
ATOM      2  C3  UNL d   1      -1.645   4.446  -4.524  0.00  0.00     0.004 A 
ATOM      3  C4  UNL d   1      -0.748   4.796  -5.532  0.00  0.00    -0.003 A 
ATOM      4  C5  UNL d   1       0.285   3.929  -5.872  0.00  0.00     0.000 A 
ATOM      5  C6  UNL d   1       0.411   2.706  -5.214  0.00  0.00     0.000 A 
ATOM      6  C7  UNL d   1      -0.494   2.331  -4.207  0.00  0.00    -0.073 A 
ATOM      7  C8  UNL d   1      -0.307   1.002  -3.527  0.00  0.00     0.078 C 
ENDROOT
BRANCH   1   8
ATOM      8  C1  UNL d   1      -2.508   2.911  -2.736  0.00  0.00     0.053 C 
ATOM      9  C   UNL d   1      -3.952   2.972  -3.210  0.00  0.00     0.018 C 
ENDBRANCH   1   8
TORSDOF 1
ENDMDL
