MODEL 1
REMARK minimizedAffinity -1.7352705
REMARK minimizedRMSD -1
REMARK  1 active torsions:
REMARK  status: ('A' for Active; 'I' for Inactive)
REMARK    1  A    between atoms: C1_2  and  C2_3 
ROOT
ATOM      1  C2  UNL d   1       0.689  -1.976   0.856  0.00  0.00    -0.076 A 
ATOM      2  C3  UNL d   1       1.416  -0.775   0.934  0.00  0.00     0.004 A 
ATOM      3  C4  UNL d   1       0.862   0.362   1.518  0.00  0.00    -0.003 A 
ATOM      4  C5  UNL d   1      -0.429   0.317   2.034  0.00  0.00     0.000 A 
ATOM      5  C6  UNL d   1      -1.158  -0.870   1.982  0.00  0.00     0.000 A 
ATOM      6  C7  UNL d   1      -0.607  -2.031   1.411  0.00  0.00    -0.073 A 
ATOM      7  C8  UNL d   1      -1.440  -3.283   1.375  0.00  0.00     0.078 C 
ENDROOT
BRANCH   1   8
ATOM      8  C1  UNL d   1       1.332  -3.170   0.187  0.00  0.00     0.053 C 
ATOM      9  C   UNL d   1       2.729  -3.453   0.718  0.00  0.00     0.018 C 
ENDBRANCH   1   8
TORSDOF 1
ENDMDL
