MODEL 1
REMARK minimizedAffinity 9.91333103
REMARK minimizedRMSD -1
REMARK  1 active torsions:
REMARK  status: ('A' for Active; 'I' for Inactive)
REMARK    1  A    between atoms: C1_2  and  C2_3 
ROOT
ATOM      1  C2  UNL d   1      -1.196  -2.931  -0.951  0.00  0.00    -0.081 A 
ATOM      2  C3  UNL d   1      -1.033  -4.263  -1.352  0.00  0.00     0.006 A 
ATOM      3  C4  UNL d   1      -0.744  -5.256  -0.413  0.00  0.00     0.002 A 
ATOM      4  C5  UNL d   1      -0.621  -4.935   0.943  0.00  0.00    -0.080 A 
ATOM      5  C6  UNL d   1      -0.341  -5.996   1.966  0.00  0.00     0.076 C 
ATOM      6  C7  UNL d   1      -0.766  -3.602   1.342  0.00  0.00     0.002 A 
ATOM      7  C8  UNL d   1      -1.054  -2.609   0.403  0.00  0.00     0.006 A 
ENDROOT
BRANCH   1   8
ATOM      8  C1  UNL d   1      -1.571  -1.869  -1.952  0.00  0.00     0.054 C 
ATOM      9  C   UNL d   1      -1.599  -2.428  -3.368  0.00  0.00     0.018 C 
ENDBRANCH   1   8
TORSDOF 1
ENDMDL
