MODEL 1
REMARK minimizedAffinity 5.34171057
REMARK minimizedRMSD -1
REMARK  1 active torsions:
REMARK  status: ('A' for Active; 'I' for Inactive)
REMARK    1  A    between atoms: C1_2  and  C2_3 
ROOT
ATOM      1  C2  UNL d   1      -1.794  -2.407   2.793  0.00  0.00    -0.081 A 
ATOM      2  C3  UNL d   1      -1.602  -3.785   2.953  0.00  0.00     0.006 A 
ATOM      3  C4  UNL d   1      -1.320  -4.593   1.849  0.00  0.00     0.002 A 
ATOM      4  C5  UNL d   1      -1.218  -4.037   0.570  0.00  0.00    -0.080 A 
ATOM      5  C6  UNL d   1      -0.886  -4.889  -0.619  0.00  0.00     0.076 C 
ATOM      6  C7  UNL d   1      -1.426  -2.663   0.407  0.00  0.00     0.002 A 
ATOM      7  C8  UNL d   1      -1.709  -1.854   1.511  0.00  0.00     0.006 A 
ENDROOT
BRANCH   1   8
ATOM      8  C1  UNL d   1      -2.034  -1.523   3.990  0.00  0.00     0.054 C 
ATOM      9  C   UNL d   1      -0.930  -1.682   5.026  0.00  0.00     0.018 C 
ENDBRANCH   1   8
TORSDOF 1
ENDMDL
