MODEL 1
REMARK minimizedAffinity 4.07103539
REMARK minimizedRMSD -1
REMARK  1 active torsions:
REMARK  status: ('A' for Active; 'I' for Inactive)
REMARK    1  A    between atoms: C1_2  and  C2_3 
ROOT
ATOM      1  C2  UNL d   1      -1.275  -3.205  -0.664  0.00  0.00    -0.081 A 
ATOM      2  C3  UNL d   1      -0.555  -3.707   0.427  0.00  0.00     0.006 A 
ATOM      3  C4  UNL d   1      -0.843  -3.276   1.724  0.00  0.00     0.002 A 
ATOM      4  C5  UNL d   1      -1.860  -2.343   1.953  0.00  0.00    -0.080 A 
ATOM      5  C6  UNL d   1      -2.200  -1.894   3.343  0.00  0.00     0.076 C 
ATOM      6  C7  UNL d   1      -2.568  -1.828   0.861  0.00  0.00     0.002 A 
ATOM      7  C8  UNL d   1      -2.280  -2.258  -0.436  0.00  0.00     0.006 A 
ENDROOT
BRANCH   1   8
ATOM      8  C1  UNL d   1      -1.011  -3.716  -2.057  0.00  0.00     0.054 C 
ATOM      9  C   UNL d   1      -1.559  -2.763  -3.109  0.00  0.00     0.018 C 
ENDBRANCH   1   8
TORSDOF 1
ENDMDL
