MODEL 1
REMARK minimizedAffinity 4.74192905
REMARK minimizedRMSD -1
REMARK  1 active torsions:
REMARK  status: ('A' for Active; 'I' for Inactive)
REMARK    1  A    between atoms: C1_2  and  C2_3 
ROOT
ATOM      1  C2  UNL d   1       3.095   0.447  -1.690  0.00  0.00    -0.081 A 
ATOM      2  C3  UNL d   1       3.808   1.606  -1.358  0.00  0.00     0.006 A 
ATOM      3  C4  UNL d   1       3.618   2.224  -0.120  0.00  0.00     0.002 A 
ATOM      4  C5  UNL d   1       2.720   1.689   0.810  0.00  0.00    -0.080 A 
ATOM      5  C6  UNL d   1       2.530   2.325   2.155  0.00  0.00     0.076 C 
ATOM      6  C7  UNL d   1       1.995   0.541   0.472  0.00  0.00     0.002 A 
ATOM      7  C8  UNL d   1       2.184  -0.076  -0.766  0.00  0.00     0.006 A 
ENDROOT
BRANCH   1   8
ATOM      8  C1  UNL d   1       3.344  -0.257  -2.999  0.00  0.00     0.054 C 
ATOM      9  C   UNL d   1       4.807  -0.160  -3.410  0.00  0.00     0.018 C 
ENDBRANCH   1   8
TORSDOF 1
ENDMDL
