MODEL 1
REMARK minimizedAffinity 9.1609087
REMARK minimizedRMSD -1
REMARK  1 active torsions:
REMARK  status: ('A' for Active; 'I' for Inactive)
REMARK    1  A    between atoms: C1_2  and  C2_3 
ROOT
ATOM      1  C2  UNL d   1       5.927   1.542  -1.505  0.00  0.00    -0.081 A 
ATOM      2  C3  UNL d   1       5.949   1.799  -2.881  0.00  0.00     0.006 A 
ATOM      3  C4  UNL d   1       5.965   0.745  -3.798  0.00  0.00     0.002 A 
ATOM      4  C5  UNL d   1       5.952  -0.582  -3.354  0.00  0.00    -0.080 A 
ATOM      5  C6  UNL d   1       5.938  -1.722  -4.328  0.00  0.00     0.076 C 
ATOM      6  C7  UNL d   1       5.948  -0.838  -1.979  0.00  0.00     0.002 A 
ATOM      7  C8  UNL d   1       5.932   0.215  -1.062  0.00  0.00     0.006 A 
ENDROOT
BRANCH   1   8
ATOM      8  C1  UNL d   1       5.844   2.676  -0.515  0.00  0.00     0.054 C 
ATOM      9  C   UNL d   1       4.426   3.219  -0.413  0.00  0.00     0.018 C 
ENDBRANCH   1   8
TORSDOF 1
ENDMDL
