MODEL 1
REMARK minimizedAffinity 12.2732
REMARK minimizedRMSD -1
REMARK  1 active torsions:
REMARK  status: ('A' for Active; 'I' for Inactive)
REMARK    1  A    between atoms: C1_2  and  C2_3 
ROOT
ATOM      1  C2  UNL d   1      -1.773  -2.323   2.425  0.00  0.00    -0.081 A 
ATOM      2  C3  UNL d   1      -0.858  -3.155   1.770  0.00  0.00     0.006 A 
ATOM      3  C4  UNL d   1      -0.563  -2.958   0.419  0.00  0.00     0.002 A 
ATOM      4  C5  UNL d   1      -1.172  -1.922  -0.297  0.00  0.00    -0.080 A 
ATOM      5  C6  UNL d   1      -0.842  -1.681  -1.740  0.00  0.00     0.076 C 
ATOM      6  C7  UNL d   1      -2.100  -1.101   0.353  0.00  0.00     0.002 A 
ATOM      7  C8  UNL d   1      -2.395  -1.297   1.704  0.00  0.00     0.006 A 
ENDROOT
BRANCH   1   8
ATOM      8  C1  UNL d   1      -2.045  -2.492   3.899  0.00  0.00     0.054 C 
ATOM      9  C   UNL d   1      -1.885  -1.175   4.645  0.00  0.00     0.018 C 
ENDBRANCH   1   8
TORSDOF 1
ENDMDL
