MODEL 1
REMARK minimizedAffinity 9.99136448
REMARK minimizedRMSD -1
REMARK  1 active torsions:
REMARK  status: ('A' for Active; 'I' for Inactive)
REMARK    1  A    between atoms: C1_2  and  C2_3 
ROOT
ATOM      1  C2  UNL d   1      -3.252   0.360   5.566  0.00  0.00    -0.081 A 
ATOM      2  C3  UNL d   1      -1.965  -0.014   5.157  0.00  0.00     0.006 A 
ATOM      3  C4  UNL d   1      -1.713  -1.314   4.713  0.00  0.00     0.002 A 
ATOM      4  C5  UNL d   1      -2.743  -2.259   4.663  0.00  0.00    -0.080 A 
ATOM      5  C6  UNL d   1      -2.492  -3.650   4.160  0.00  0.00     0.076 C 
ATOM      6  C7  UNL d   1      -4.024  -1.891   5.088  0.00  0.00     0.002 A 
ATOM      7  C8  UNL d   1      -4.277  -0.591   5.532  0.00  0.00     0.006 A 
ENDROOT
BRANCH   1   8
ATOM      8  C1  UNL d   1      -3.541   1.779   5.984  0.00  0.00     0.054 C 
ATOM      9  C   UNL d   1      -5.037   2.061   5.985  0.00  0.00     0.018 C 
ENDBRANCH   1   8
TORSDOF 1
ENDMDL
