MODEL 1
REMARK minimizedAffinity 24.8568554
REMARK minimizedRMSD -1
REMARK  1 active torsions:
REMARK  status: ('A' for Active; 'I' for Inactive)
REMARK    1  A    between atoms: C1_2  and  C2_3 
ROOT
ATOM      1  C2  UNL d   1       3.663   3.301  -0.050  0.00  0.00    -0.081 A 
ATOM      2  C3  UNL d   1       2.324   2.929   0.126  0.00  0.00     0.006 A 
ATOM      3  C4  UNL d   1       1.789   1.851  -0.584  0.00  0.00     0.002 A 
ATOM      4  C5  UNL d   1       2.585   1.123  -1.474  0.00  0.00    -0.080 A 
ATOM      5  C6  UNL d   1       2.032  -0.055  -2.220  0.00  0.00     0.076 C 
ATOM      6  C7  UNL d   1       3.918   1.505  -1.663  0.00  0.00     0.002 A 
ATOM      7  C8  UNL d   1       4.453   2.583  -0.954  0.00  0.00     0.006 A 
ENDROOT
BRANCH   1   8
ATOM      8  C1  UNL d   1       4.260   4.421   0.762  0.00  0.00     0.054 C 
ATOM      9  C   UNL d   1       4.600   5.619  -0.113  0.00  0.00     0.018 C 
ENDBRANCH   1   8
TORSDOF 1
ENDMDL
