MODEL 1
REMARK minimizedAffinity 14.6863623
REMARK minimizedRMSD -1
REMARK  1 active torsions:
REMARK  status: ('A' for Active; 'I' for Inactive)
REMARK    1  A    between atoms: C1_2  and  C2_3 
ROOT
ATOM      1  C2  UNL d   1      -1.130  -4.799   2.100  0.00  0.00    -0.081 A 
ATOM      2  C3  UNL d   1      -1.976  -3.753   2.488  0.00  0.00     0.006 A 
ATOM      3  C4  UNL d   1      -2.199  -2.669   1.635  0.00  0.00     0.002 A 
ATOM      4  C5  UNL d   1      -1.586  -2.616   0.379  0.00  0.00    -0.080 A 
ATOM      5  C6  UNL d   1      -1.840  -1.473  -0.558  0.00  0.00     0.076 C 
ATOM      6  C7  UNL d   1      -0.726  -3.653  -0.001  0.00  0.00     0.002 A 
ATOM      7  C8  UNL d   1      -0.503  -4.736   0.851  0.00  0.00     0.006 A 
ENDROOT
BRANCH   1   8
ATOM      8  C1  UNL d   1      -0.938  -6.000   2.990  0.00  0.00     0.054 C 
ATOM      9  C   UNL d   1      -1.892  -5.967   4.176  0.00  0.00     0.018 C 
ENDBRANCH   1   8
TORSDOF 1
ENDMDL
