MODEL 1
REMARK minimizedAffinity 18.727644
REMARK minimizedRMSD -1
REMARK  1 active torsions:
REMARK  status: ('A' for Active; 'I' for Inactive)
REMARK    1  A    between atoms: C1_2  and  C2_3 
ROOT
ATOM      1  C2  UNL d   1       5.184   1.886  -2.878  0.00  0.00    -0.081 A 
ATOM      2  C3  UNL d   1       3.943   1.250  -2.753  0.00  0.00     0.006 A 
ATOM      3  C4  UNL d   1       3.165   1.435  -1.608  0.00  0.00     0.002 A 
ATOM      4  C5  UNL d   1       3.609   2.265  -0.574  0.00  0.00    -0.080 A 
ATOM      5  C6  UNL d   1       2.769   2.496   0.647  0.00  0.00     0.076 C 
ATOM      6  C7  UNL d   1       4.857   2.887  -0.691  0.00  0.00     0.002 A 
ATOM      7  C8  UNL d   1       5.636   2.702  -1.835  0.00  0.00     0.006 A 
ENDROOT
BRANCH   1   8
ATOM      8  C1  UNL d   1       5.997   1.740  -4.139  0.00  0.00     0.054 C 
ATOM      9  C   UNL d   1       6.000   3.029  -4.948  0.00  0.00     0.018 C 
ENDBRANCH   1   8
TORSDOF 1
ENDMDL
