MODEL 1
REMARK minimizedAffinity 12.9128876
REMARK minimizedRMSD -1
REMARK  1 active torsions:
REMARK  status: ('A' for Active; 'I' for Inactive)
REMARK    1  A    between atoms: C1_2  and  C2_3 
ROOT
ATOM      1  C2  UNL d   1      -0.356   2.213  -4.564  0.00  0.00    -0.081 A 
ATOM      2  C3  UNL d   1       0.685   2.866  -3.893  0.00  0.00     0.006 A 
ATOM      3  C4  UNL d   1       1.521   2.159  -3.024  0.00  0.00     0.002 A 
ATOM      4  C5  UNL d   1       1.334   0.788  -2.818  0.00  0.00    -0.080 A 
ATOM      5  C6  UNL d   1       2.242   0.012  -1.912  0.00  0.00     0.076 C 
ATOM      6  C7  UNL d   1       0.282   0.140  -3.475  0.00  0.00     0.002 A 
ATOM      7  C8  UNL d   1      -0.554   0.846  -4.343  0.00  0.00     0.006 A 
ENDROOT
BRANCH   1   8
ATOM      8  C1  UNL d   1      -1.218   2.958  -5.551  0.00  0.00     0.054 C 
ATOM      9  C   UNL d   1      -2.666   3.020  -5.085  0.00  0.00     0.018 C 
ENDBRANCH   1   8
TORSDOF 1
ENDMDL
