MODEL 1
REMARK minimizedAffinity 17.2906418
REMARK minimizedRMSD -1
REMARK  1 active torsions:
REMARK  status: ('A' for Active; 'I' for Inactive)
REMARK    1  A    between atoms: C1_2  and  C2_3 
ROOT
ATOM      1  C2  UNL d   1      -1.577  -2.622   1.631  0.00  0.00    -0.081 A 
ATOM      2  C3  UNL d   1      -0.751  -3.537   0.967  0.00  0.00     0.006 A 
ATOM      3  C4  UNL d   1      -0.382  -3.323  -0.363  0.00  0.00     0.002 A 
ATOM      4  C5  UNL d   1      -0.825  -2.187  -1.049  0.00  0.00    -0.080 A 
ATOM      5  C6  UNL d   1      -0.412  -1.930  -2.467  0.00  0.00     0.076 C 
ATOM      6  C7  UNL d   1      -1.665  -1.281  -0.391  0.00  0.00     0.002 A 
ATOM      7  C8  UNL d   1      -2.035  -1.495   0.938  0.00  0.00     0.006 A 
ENDROOT
BRANCH   1   8
ATOM      8  C1  UNL d   1      -1.924  -2.817   3.084  0.00  0.00     0.054 C 
ATOM      9  C   UNL d   1      -1.983  -1.487   3.822  0.00  0.00     0.018 C 
ENDBRANCH   1   8
TORSDOF 1
ENDMDL
