MODEL 1
REMARK minimizedAffinity 11.6124992
REMARK minimizedRMSD -1
REMARK  1 active torsions:
REMARK  status: ('A' for Active; 'I' for Inactive)
REMARK    1  A    between atoms: C1_2  and  C2_3 
ROOT
ATOM      1  C2  UNL d   1      -1.712  -3.352   0.725  0.00  0.00    -0.081 A 
ATOM      2  C3  UNL d   1      -2.419  -3.135   1.914  0.00  0.00     0.006 A 
ATOM      3  C4  UNL d   1      -2.255  -3.995   3.002  0.00  0.00     0.002 A 
ATOM      4  C5  UNL d   1      -1.377  -5.081   2.922  0.00  0.00    -0.080 A 
ATOM      5  C6  UNL d   1      -1.169  -5.995   4.093  0.00  0.00     0.076 C 
ATOM      6  C7  UNL d   1      -0.684  -5.309   1.728  0.00  0.00     0.002 A 
ATOM      7  C8  UNL d   1      -0.848  -4.449   0.639  0.00  0.00     0.006 A 
ENDROOT
BRANCH   1   8
ATOM      8  C1  UNL d   1      -1.838  -2.389  -0.428  0.00  0.00     0.054 C 
ATOM      9  C   UNL d   1      -2.678  -1.178  -0.048  0.00  0.00     0.018 C 
ENDBRANCH   1   8
TORSDOF 1
ENDMDL
