MODEL 1
REMARK minimizedAffinity 8.27768612
REMARK minimizedRMSD -1
REMARK  1 active torsions:
REMARK  status: ('A' for Active; 'I' for Inactive)
REMARK    1  A    between atoms: C1_2  and  C2_3 
ROOT
ATOM      1  C2  UNL d   1       2.967   0.239  -1.895  0.00  0.00    -0.081 A 
ATOM      2  C3  UNL d   1       3.359   1.580  -1.810  0.00  0.00     0.006 A 
ATOM      3  C4  UNL d   1       3.021   2.348  -0.694  0.00  0.00     0.002 A 
ATOM      4  C5  UNL d   1       2.291   1.786   0.359  0.00  0.00    -0.080 A 
ATOM      5  C6  UNL d   1       1.947   2.591   1.577  0.00  0.00     0.076 C 
ATOM      6  C7  UNL d   1       1.883   0.451   0.267  0.00  0.00     0.002 A 
ATOM      7  C8  UNL d   1       2.221  -0.317  -0.850  0.00  0.00     0.006 A 
ENDROOT
BRANCH   1   8
ATOM      8  C1  UNL d   1       3.386  -0.610  -3.069  0.00  0.00     0.054 C 
ATOM      9  C   UNL d   1       4.901  -0.723  -3.156  0.00  0.00     0.018 C 
ENDBRANCH   1   8
TORSDOF 1
ENDMDL
