MODEL 1
REMARK minimizedAffinity 5.17465401
REMARK minimizedRMSD -1
REMARK  2 active torsions:
REMARK  status: ('A' for Active; 'I' for Inactive)
REMARK    1  A    between atoms: C1_2  and  C2_3 
REMARK    2  A    between atoms: C2_3  and  C3_4 
ROOT
ATOM      1  C3  UNL d   1      -0.387   1.971   2.085  0.00  0.00    -0.075 A 
ATOM      2  C4  UNL d   1       0.504   2.630   1.226  0.00  0.00     0.002 A 
ATOM      3  C5  UNL d   1       1.219   3.745   1.666  0.00  0.00     0.002 A 
ATOM      4  C6  UNL d   1       1.044   4.220   2.964  0.00  0.00    -0.004 A 
ATOM      5  C7  UNL d   1       0.149   3.583   3.821  0.00  0.00     0.002 A 
ATOM      6  C8  UNL d   1      -0.564   2.465   3.384  0.00  0.00     0.002 A 
ENDROOT
BRANCH   1   7
ATOM      7  C2  UNL d   1      -1.141   0.747   1.624  0.00  0.00     0.056 C 
BRANCH   7   8
ATOM      8  C1  UNL d   1      -1.314   0.656   0.104  0.00  0.00     0.007 C 
ATOM      9  C   UNL d   1      -2.502   1.456  -0.413  0.00  0.00     0.009 C 
ENDBRANCH   7   8
ENDBRANCH   1   7
TORSDOF 2
ENDMDL
