MODEL 1
REMARK minimizedAffinity 16.2620316
REMARK minimizedRMSD -1
REMARK  2 active torsions:
REMARK  status: ('A' for Active; 'I' for Inactive)
REMARK    1  A    between atoms: C1_2  and  C2_3 
REMARK    2  A    between atoms: C2_3  and  C3_4 
ROOT
ATOM      1  C3  UNL d   1      -0.316  -3.209  -1.327  0.00  0.00    -0.075 A 
ATOM      2  C4  UNL d   1       0.843  -2.730  -0.699  0.00  0.00     0.002 A 
ATOM      3  C5  UNL d   1       2.064  -2.724  -1.374  0.00  0.00     0.002 A 
ATOM      4  C6  UNL d   1       2.143  -3.205  -2.679  0.00  0.00    -0.004 A 
ATOM      5  C7  UNL d   1       1.002  -3.698  -3.307  0.00  0.00     0.002 A 
ATOM      6  C8  UNL d   1      -0.222  -3.701  -2.635  0.00  0.00     0.002 A 
ENDROOT
BRANCH   1   7
ATOM      7  C2  UNL d   1      -1.646  -3.190  -0.611  0.00  0.00     0.056 C 
BRANCH   7   8
ATOM      8  C1  UNL d   1      -2.655  -4.212  -1.145  0.00  0.00     0.007 C 
ATOM      9  C   UNL d   1      -3.671  -4.654  -0.101  0.00  0.00     0.009 C 
ENDBRANCH   7   8
ENDBRANCH   1   7
TORSDOF 2
ENDMDL
