MODEL 1
REMARK minimizedAffinity 13.3137474
REMARK minimizedRMSD -1
REMARK  2 active torsions:
REMARK  status: ('A' for Active; 'I' for Inactive)
REMARK    1  A    between atoms: C1_2  and  C2_3 
REMARK    2  A    between atoms: C2_3  and  C3_4 
ROOT
ATOM      1  C3  UNL d   1      -1.086   2.393   3.046  0.00  0.00    -0.075 A 
ATOM      2  C4  UNL d   1       0.090   3.104   3.325  0.00  0.00     0.002 A 
ATOM      3  C5  UNL d   1       0.211   3.838   4.506  0.00  0.00     0.002 A 
ATOM      4  C6  UNL d   1      -0.844   3.878   5.416  0.00  0.00    -0.004 A 
ATOM      5  C7  UNL d   1      -2.023   3.189   5.141  0.00  0.00     0.002 A 
ATOM      6  C8  UNL d   1      -2.145   2.450   3.963  0.00  0.00     0.002 A 
ENDROOT
BRANCH   1   7
ATOM      7  C2  UNL d   1      -1.212   1.573   1.784  0.00  0.00     0.056 C 
BRANCH   7   8
ATOM      8  C1  UNL d   1      -0.620   0.164   1.894  0.00  0.00     0.007 C 
ATOM      9  C   UNL d   1       0.793   0.062   1.334  0.00  0.00     0.009 C 
ENDBRANCH   7   8
ENDBRANCH   1   7
TORSDOF 2
ENDMDL
