MODEL 1
REMARK minimizedAffinity 3.2298367
REMARK minimizedRMSD -1
REMARK  2 active torsions:
REMARK  status: ('A' for Active; 'I' for Inactive)
REMARK    1  A    between atoms: C1_2  and  C2_3 
REMARK    2  A    between atoms: C2_3  and  C3_4 
ROOT
ATOM      1  C3  UNL d   1      -0.713   1.972   2.050  0.00  0.00    -0.075 A 
ATOM      2  C4  UNL d   1      -2.115   1.987   2.083  0.00  0.00     0.002 A 
ATOM      3  C5  UNL d   1      -2.839   0.804   1.931  0.00  0.00     0.002 A 
ATOM      4  C6  UNL d   1      -2.173  -0.404   1.734  0.00  0.00    -0.004 A 
ATOM      5  C7  UNL d   1      -0.781  -0.427   1.683  0.00  0.00     0.002 A 
ATOM      6  C8  UNL d   1      -0.054   0.754   1.839  0.00  0.00     0.002 A 
ENDROOT
BRANCH   1   7
ATOM      7  C2  UNL d   1       0.077   3.245   2.244  0.00  0.00     0.056 C 
BRANCH   7   8
ATOM      8  C1  UNL d   1       0.541   3.477   3.685  0.00  0.00     0.007 C 
ATOM      9  C   UNL d   1      -0.608   3.538   4.683  0.00  0.00     0.009 C 
ENDBRANCH   7   8
ENDBRANCH   1   7
TORSDOF 2
ENDMDL
