MODEL 1
REMARK minimizedAffinity 7.8573575
REMARK minimizedRMSD -1
REMARK  2 active torsions:
REMARK  status: ('A' for Active; 'I' for Inactive)
REMARK    1  A    between atoms: C1_2  and  C2_3 
REMARK    2  A    between atoms: C2_3  and  C3_4 
ROOT
ATOM      1  C3  UNL d   1      -1.375  -2.197   0.263  0.00  0.00    -0.075 A 
ATOM      2  C4  UNL d   1      -1.520  -2.132  -1.130  0.00  0.00     0.002 A 
ATOM      3  C5  UNL d   1      -2.366  -3.019  -1.796  0.00  0.00     0.002 A 
ATOM      4  C6  UNL d   1      -3.069  -3.986  -1.081  0.00  0.00    -0.004 A 
ATOM      5  C7  UNL d   1      -2.920  -4.071   0.301  0.00  0.00     0.002 A 
ATOM      6  C8  UNL d   1      -2.077  -3.182   0.971  0.00  0.00     0.002 A 
ENDROOT
BRANCH   1   7
ATOM      7  C2  UNL d   1      -0.484  -1.221   0.994  0.00  0.00     0.056 C 
BRANCH   7   8
ATOM      8  C1  UNL d   1       0.032  -0.073   0.120  0.00  0.00     0.007 C 
ATOM      9  C   UNL d   1      -0.661   1.254   0.401  0.00  0.00     0.009 C 
ENDBRANCH   7   8
ENDBRANCH   1   7
TORSDOF 2
ENDMDL
