MODEL 1
REMARK minimizedAffinity 3.45414996
REMARK minimizedRMSD -1
REMARK  2 active torsions:
REMARK  status: ('A' for Active; 'I' for Inactive)
REMARK    1  A    between atoms: C1_2  and  C2_3 
REMARK    2  A    between atoms: C2_3  and  C3_4 
ROOT
ATOM      1  C3  UNL d   1       0.227   2.451   1.735  0.00  0.00    -0.075 A 
ATOM      2  C4  UNL d   1       0.502   3.826   1.688  0.00  0.00     0.002 A 
ATOM      3  C5  UNL d   1      -0.054   4.691   2.631  0.00  0.00     0.002 A 
ATOM      4  C6  UNL d   1      -0.898   4.197   3.623  0.00  0.00    -0.004 A 
ATOM      5  C7  UNL d   1      -1.191   2.835   3.668  0.00  0.00     0.002 A 
ATOM      6  C8  UNL d   1      -0.633   1.966   2.729  0.00  0.00     0.002 A 
ENDROOT
BRANCH   1   7
ATOM      7  C2  UNL d   1       0.850   1.505   0.736  0.00  0.00     0.056 C 
BRANCH   7   8
ATOM      8  C1  UNL d   1      -0.127   0.474   0.160  0.00  0.00     0.007 C 
ATOM      9  C   UNL d   1       0.378  -0.958   0.270  0.00  0.00     0.009 C 
ENDBRANCH   7   8
ENDBRANCH   1   7
TORSDOF 2
ENDMDL
