MODEL 1
REMARK minimizedAffinity -3.64125752
REMARK minimizedRMSD -1
REMARK  2 active torsions:
REMARK  status: ('A' for Active; 'I' for Inactive)
REMARK    1  A    between atoms: C1_2  and  C2_3 
REMARK    2  A    between atoms: C2_3  and  C3_4 
ROOT
ATOM      1  C3  UNL d   1      -3.386  -1.108   3.023  0.00  0.00    -0.075 A 
ATOM      2  C4  UNL d   1      -4.502  -1.363   3.833  0.00  0.00     0.002 A 
ATOM      3  C5  UNL d   1      -5.644  -0.568   3.736  0.00  0.00     0.002 A 
ATOM      4  C6  UNL d   1      -5.681   0.497   2.839  0.00  0.00    -0.004 A 
ATOM      5  C7  UNL d   1      -4.572   0.770   2.041  0.00  0.00     0.002 A 
ATOM      6  C8  UNL d   1      -3.429  -0.027   2.132  0.00  0.00     0.002 A 
ENDROOT
BRANCH   1   7
ATOM      7  C2  UNL d   1      -2.158  -1.983   3.102  0.00  0.00     0.056 C 
BRANCH   7   8
ATOM      8  C1  UNL d   1      -1.289  -1.954   1.839  0.00  0.00     0.007 C 
ATOM      9  C   UNL d   1      -1.065  -3.333   1.233  0.00  0.00     0.009 C 
ENDBRANCH   7   8
ENDBRANCH   1   7
TORSDOF 2
ENDMDL
