MODEL 1
REMARK minimizedAffinity 0.702912748
REMARK minimizedRMSD -1
REMARK  2 active torsions:
REMARK  status: ('A' for Active; 'I' for Inactive)
REMARK    1  A    between atoms: C1_2  and  C2_3 
REMARK    2  A    between atoms: C2_3  and  C3_4 
ROOT
ATOM      1  C3  UNL d   1      -0.653   2.720   1.772  0.00  0.00    -0.075 A 
ATOM      2  C4  UNL d   1       0.583   2.547   2.411  0.00  0.00     0.002 A 
ATOM      3  C5  UNL d   1       0.991   3.425   3.415  0.00  0.00     0.002 A 
ATOM      4  C6  UNL d   1       0.175   4.491   3.786  0.00  0.00    -0.004 A 
ATOM      5  C7  UNL d   1      -1.048   4.683   3.147  0.00  0.00     0.002 A 
ATOM      6  C8  UNL d   1      -1.461   3.803   2.145  0.00  0.00     0.002 A 
ENDROOT
BRANCH   1   7
ATOM      7  C2  UNL d   1      -1.114   1.756   0.705  0.00  0.00     0.056 C 
BRANCH   7   8
ATOM      8  C1  UNL d   1       0.029   1.082  -0.061  0.00  0.00     0.007 C 
ATOM      9  C   UNL d   1       0.168  -0.402   0.251  0.00  0.00     0.009 C 
ENDBRANCH   7   8
ENDBRANCH   1   7
TORSDOF 2
ENDMDL
