MODEL 1
REMARK minimizedAffinity 6.74765158
REMARK minimizedRMSD -1
REMARK  2 active torsions:
REMARK  status: ('A' for Active; 'I' for Inactive)
REMARK    1  A    between atoms: C1_2  and  C2_3 
REMARK    2  A    between atoms: C2_3  and  C3_4 
ROOT
ATOM      1  C3  UNL d   1       3.668   2.047  -3.665  0.00  0.00    -0.075 A 
ATOM      2  C4  UNL d   1       3.325   2.244  -5.011  0.00  0.00     0.002 A 
ATOM      3  C5  UNL d   1       4.309   2.240  -6.000  0.00  0.00     0.002 A 
ATOM      4  C6  UNL d   1       5.646   2.050  -5.656  0.00  0.00    -0.004 A 
ATOM      5  C7  UNL d   1       5.999   1.870  -4.321  0.00  0.00     0.002 A 
ATOM      6  C8  UNL d   1       5.016   1.869  -3.329  0.00  0.00     0.002 A 
ENDROOT
BRANCH   1   7
ATOM      7  C2  UNL d   1       2.604   2.020  -2.593  0.00  0.00     0.056 C 
BRANCH   7   8
ATOM      8  C1  UNL d   1       2.239   0.612  -2.112  0.00  0.00     0.007 C 
ATOM      9  C   UNL d   1       1.504   0.605  -0.778  0.00  0.00     0.009 C 
ENDBRANCH   7   8
ENDBRANCH   1   7
TORSDOF 2
ENDMDL
