MODEL 1
REMARK minimizedAffinity -4.22556353
REMARK minimizedRMSD -1
REMARK  2 active torsions:
REMARK  status: ('A' for Active; 'I' for Inactive)
REMARK    1  A    between atoms: C1_2  and  C2_3 
REMARK    2  A    between atoms: C2_3  and  C3_4 
ROOT
ATOM      1  C3  UNL d   1       3.091   3.962  -5.349  0.00  0.00    -0.075 A 
ATOM      2  C4  UNL d   1       2.996   3.310  -4.111  0.00  0.00     0.002 A 
ATOM      3  C5  UNL d   1       4.132   2.775  -3.503  0.00  0.00     0.002 A 
ATOM      4  C6  UNL d   1       5.373   2.875  -4.128  0.00  0.00    -0.004 A 
ATOM      5  C7  UNL d   1       5.477   3.505  -5.366  0.00  0.00     0.002 A 
ATOM      6  C8  UNL d   1       4.342   4.046  -5.975  0.00  0.00     0.002 A 
ENDROOT
BRANCH   1   7
ATOM      7  C2  UNL d   1       1.871   4.570  -5.999  0.00  0.00     0.056 C 
BRANCH   7   8
ATOM      8  C1  UNL d   1       0.588   4.425  -5.174  0.00  0.00     0.007 C 
ATOM      9  C   UNL d   1      -0.680   4.595  -6.000  0.00  0.00     0.009 C 
ENDBRANCH   7   8
ENDBRANCH   1   7
TORSDOF 2
ENDMDL
