MODEL 1
REMARK minimizedAffinity 0.193793505
REMARK minimizedRMSD -1
REMARK  2 active torsions:
REMARK  status: ('A' for Active; 'I' for Inactive)
REMARK    1  A    between atoms: C1_2  and  C2_3 
REMARK    2  A    between atoms: C2_3  and  C3_4 
ROOT
ATOM      1  C3  UNL d   1      -2.420  -0.051   2.541  0.00  0.00    -0.075 A 
ATOM      2  C4  UNL d   1      -3.426   0.193   3.486  0.00  0.00     0.002 A 
ATOM      3  C5  UNL d   1      -3.606  -0.669   4.568  0.00  0.00     0.002 A 
ATOM      4  C6  UNL d   1      -2.791  -1.790   4.713  0.00  0.00    -0.004 A 
ATOM      5  C7  UNL d   1      -1.799  -2.051   3.771  0.00  0.00     0.002 A 
ATOM      6  C8  UNL d   1      -1.614  -1.188   2.690  0.00  0.00     0.002 A 
ENDROOT
BRANCH   1   7
ATOM      7  C2  UNL d   1      -2.201   0.894   1.384  0.00  0.00     0.056 C 
BRANCH   7   8
ATOM      8  C1  UNL d   1      -1.257   0.352   0.306  0.00  0.00     0.007 C 
ATOM      9  C   UNL d   1       0.198   0.741   0.530  0.00  0.00     0.009 C 
ENDBRANCH   7   8
ENDBRANCH   1   7
TORSDOF 2
ENDMDL
