MODEL 1
REMARK minimizedAffinity -2.59715796
REMARK minimizedRMSD -1
REMARK  2 active torsions:
REMARK  status: ('A' for Active; 'I' for Inactive)
REMARK    1  A    between atoms: C1_2  and  C2_3 
REMARK    2  A    between atoms: C2_3  and  C3_4 
ROOT
ATOM      1  C3  UNL d   1       3.043   3.138  -5.279  0.00  0.00    -0.075 A 
ATOM      2  C4  UNL d   1       3.074   3.027  -3.881  0.00  0.00     0.002 A 
ATOM      3  C5  UNL d   1       4.269   2.744  -3.219  0.00  0.00     0.002 A 
ATOM      4  C6  UNL d   1       5.444   2.557  -3.945  0.00  0.00    -0.004 A 
ATOM      5  C7  UNL d   1       5.421   2.648  -5.335  0.00  0.00     0.002 A 
ATOM      6  C8  UNL d   1       4.228   2.936  -6.000  0.00  0.00     0.002 A 
ENDROOT
BRANCH   1   7
ATOM      7  C2  UNL d   1       1.759   3.474  -5.999  0.00  0.00     0.056 C 
BRANCH   7   8
ATOM      8  C1  UNL d   1       0.495   3.222  -5.171  0.00  0.00     0.007 C 
ATOM      9  C   UNL d   1      -0.787   3.318  -5.987  0.00  0.00     0.009 C 
ENDBRANCH   7   8
ENDBRANCH   1   7
TORSDOF 2
ENDMDL
