MODEL 1
REMARK minimizedAffinity -1.02017581
REMARK minimizedRMSD -1
REMARK  2 active torsions:
REMARK  status: ('A' for Active; 'I' for Inactive)
REMARK    1  A    between atoms: C1_2  and  C2_3 
REMARK    2  A    between atoms: C2_3  and  C3_4 
ROOT
ATOM      1  C3  UNL d   1      -1.931  -0.553   2.102  0.00  0.00    -0.075 A 
ATOM      2  C4  UNL d   1      -2.682   0.521   1.602  0.00  0.00     0.002 A 
ATOM      3  C5  UNL d   1      -2.135   1.387   0.654  0.00  0.00     0.002 A 
ATOM      4  C6  UNL d   1      -0.831   1.197   0.204  0.00  0.00    -0.004 A 
ATOM      5  C7  UNL d   1      -0.070   0.144   0.706  0.00  0.00     0.002 A 
ATOM      6  C8  UNL d   1      -0.616  -0.727   1.651  0.00  0.00     0.002 A 
ENDROOT
BRANCH   1   7
ATOM      7  C2  UNL d   1      -2.527  -1.511   3.106  0.00  0.00     0.056 C 
BRANCH   7   8
ATOM      8  C1  UNL d   1      -3.577  -0.878   4.025  0.00  0.00     0.007 C 
ATOM      9  C   UNL d   1      -4.923  -1.590   3.979  0.00  0.00     0.009 C 
ENDBRANCH   7   8
ENDBRANCH   1   7
TORSDOF 2
ENDMDL
