MODEL 1
REMARK minimizedAffinity -2.64058328
REMARK minimizedRMSD -1
REMARK  2 active torsions:
REMARK  status: ('A' for Active; 'I' for Inactive)
REMARK    1  A    between atoms: C1_2  and  C2_3 
REMARK    2  A    between atoms: C2_3  and  C3_4 
ROOT
ATOM      1  C3  UNL d   1       3.214   2.979  -4.174  0.00  0.00    -0.075 A 
ATOM      2  C4  UNL d   1       3.763   2.963  -2.883  0.00  0.00     0.002 A 
ATOM      3  C5  UNL d   1       5.146   2.971  -2.701  0.00  0.00     0.002 A 
ATOM      4  C6  UNL d   1       5.997   2.986  -3.804  0.00  0.00    -0.004 A 
ATOM      5  C7  UNL d   1       5.463   2.985  -5.091  0.00  0.00     0.002 A 
ATOM      6  C8  UNL d   1       4.080   2.981  -5.276  0.00  0.00     0.002 A 
ENDROOT
BRANCH   1   7
ATOM      7  C2  UNL d   1       1.718   3.000  -4.377  0.00  0.00     0.056 C 
BRANCH   7   8
ATOM      8  C1  UNL d   1       1.277   2.626  -5.796  0.00  0.00     0.007 C 
ATOM      9  C   UNL d   1      -0.230   2.717  -6.000  0.00  0.00     0.009 C 
ENDBRANCH   7   8
ENDBRANCH   1   7
TORSDOF 2
ENDMDL
