MODEL 1
REMARK minimizedAffinity 1.12870765
REMARK minimizedRMSD -1
REMARK  2 active torsions:
REMARK  status: ('A' for Active; 'I' for Inactive)
REMARK    1  A    between atoms: C1_2  and  C2_3 
REMARK    2  A    between atoms: C2_3  and  C3_4 
ROOT
ATOM      1  C3  UNL d   1       4.423   2.421  -3.651  0.00  0.00    -0.075 A 
ATOM      2  C4  UNL d   1       4.880   2.776  -4.928  0.00  0.00     0.002 A 
ATOM      3  C5  UNL d   1       3.974   3.071  -5.948  0.00  0.00     0.002 A 
ATOM      4  C6  UNL d   1       2.604   3.005  -5.707  0.00  0.00    -0.004 A 
ATOM      5  C7  UNL d   1       2.138   2.637  -4.446  0.00  0.00     0.002 A 
ATOM      6  C8  UNL d   1       3.042   2.345  -3.423  0.00  0.00     0.002 A 
ENDROOT
BRANCH   1   7
ATOM      7  C2  UNL d   1       5.397   2.129  -2.535  0.00  0.00     0.056 C 
BRANCH   7   8
ATOM      8  C1  UNL d   1       5.235   3.037  -1.311  0.00  0.00     0.007 C 
ATOM      9  C   UNL d   1       5.999   4.348  -1.431  0.00  0.00     0.009 C 
ENDBRANCH   7   8
ENDBRANCH   1   7
TORSDOF 2
ENDMDL
