MODEL 1
REMARK minimizedAffinity 6.01244688
REMARK minimizedRMSD -1
REMARK  2 active torsions:
REMARK  status: ('A' for Active; 'I' for Inactive)
REMARK    1  A    between atoms: C1_2  and  C2_3 
REMARK    2  A    between atoms: C2_3  and  C3_4 
ROOT
ATOM      1  C3  UNL d   1       0.222  -3.072  -1.250  0.00  0.00    -0.075 A 
ATOM      2  C4  UNL d   1      -1.167  -3.197  -1.097  0.00  0.00     0.002 A 
ATOM      3  C5  UNL d   1      -1.920  -3.917  -2.025  0.00  0.00     0.002 A 
ATOM      4  C6  UNL d   1      -1.297  -4.510  -3.121  0.00  0.00    -0.004 A 
ATOM      5  C7  UNL d   1       0.079  -4.379  -3.292  0.00  0.00     0.002 A 
ATOM      6  C8  UNL d   1       0.836  -3.663  -2.362  0.00  0.00     0.002 A 
ENDROOT
BRANCH   1   7
ATOM      7  C2  UNL d   1       1.046  -2.319  -0.233  0.00  0.00     0.056 C 
BRANCH   7   8
ATOM      8  C1  UNL d   1       0.216  -1.613   0.844  0.00  0.00     0.007 C 
ATOM      9  C   UNL d   1      -0.147  -0.180   0.480  0.00  0.00     0.009 C 
ENDBRANCH   7   8
ENDBRANCH   1   7
TORSDOF 2
ENDMDL
