MODEL 1
REMARK minimizedAffinity -2.29871845
REMARK minimizedRMSD -1
REMARK  1 active torsions:
REMARK  status: ('A' for Active; 'I' for Inactive)
REMARK    1  A    between atoms: N_2  and  C1_3 
ROOT
ATOM      1  C1  UNL d   1       1.921  -0.882  -0.412  0.00  0.00     0.143 A 
ATOM      2  C2  UNL d   1       1.275   0.359  -0.373  0.00  0.00    -0.057 A 
ATOM      3  C3  UNL d   1      -0.060   0.470   0.032  0.00  0.00     0.033 A 
ATOM      4  C4  UNL d   1      -0.785  -0.666   0.379  0.00  0.00    -0.042 A 
ATOM      5  C5  UNL d   1      -0.171  -1.912   0.324  0.00  0.00     0.033 A 
ATOM      6  C6  UNL d   1       1.165  -2.016  -0.075  0.00  0.00    -0.057 A 
ENDROOT
BRANCH   1   7
ATOM      7  N   UNL d   1       3.216  -1.069  -0.901  0.00  0.00    -0.732 N 
ATOM      8  C   UNL d   1       3.446  -1.832  -2.108  0.00  0.00     0.284 C 
ATOM      9  H3  UNL d   1       3.785  -0.229  -0.826  0.00  0.00     0.395 HD
ENDBRANCH   1   7
TORSDOF 1
ENDMDL
