MODEL 1
REMARK minimizedAffinity -4.014328
REMARK minimizedRMSD -1
REMARK  1 active torsions:
REMARK  status: ('A' for Active; 'I' for Inactive)
REMARK    1  A    between atoms: N_2  and  C1_3 
ROOT
ATOM      1  C1  UNL d   1      -0.200   0.159  -0.045  0.00  0.00     0.143 A 
ATOM      2  C2  UNL d   1       0.921   0.896  -0.444  0.00  0.00    -0.057 A 
ATOM      3  C3  UNL d   1       2.098   0.260  -0.858  0.00  0.00     0.033 A 
ATOM      4  C4  UNL d   1       2.185  -1.128  -0.852  0.00  0.00    -0.042 A 
ATOM      5  C5  UNL d   1       1.092  -1.880  -0.435  0.00  0.00     0.033 A 
ATOM      6  C6  UNL d   1      -0.083  -1.240  -0.030  0.00  0.00    -0.057 A 
ENDROOT
BRANCH   1   7
ATOM      7  N   UNL d   1      -1.365   0.733   0.470  0.00  0.00    -0.732 N 
ATOM      8  C   UNL d   1      -1.451   1.098   1.868  0.00  0.00     0.284 C 
ATOM      9  H3  UNL d   1      -1.775   1.415  -0.164  0.00  0.00     0.395 HD
ENDBRANCH   1   7
TORSDOF 1
ENDMDL
