MODEL 1
REMARK minimizedAffinity -4.05124187
REMARK minimizedRMSD -1
REMARK  1 active torsions:
REMARK  status: ('A' for Active; 'I' for Inactive)
REMARK    1  A    between atoms: N_2  and  C1_3 
ROOT
ATOM      1  C1  UNL d   1       0.096  -0.175   0.217  0.00  0.00     0.143 A 
ATOM      2  C2  UNL d   1       0.476  -1.511   0.049  0.00  0.00    -0.057 A 
ATOM      3  C3  UNL d   1       1.699  -1.849  -0.544  0.00  0.00     0.033 A 
ATOM      4  C4  UNL d   1       2.553  -0.853  -1.007  0.00  0.00    -0.042 A 
ATOM      5  C5  UNL d   1       2.184   0.481  -0.873  0.00  0.00     0.033 A 
ATOM      6  C6  UNL d   1       0.965   0.812  -0.274  0.00  0.00    -0.057 A 
ENDROOT
BRANCH   1   7
ATOM      7  N   UNL d   1      -1.150   0.223   0.709  0.00  0.00    -0.732 N 
ATOM      8  C   UNL d   1      -1.284   0.720   2.062  0.00  0.00     0.284 C 
ATOM      9  H3  UNL d   1      -1.692   0.740   0.021  0.00  0.00     0.395 HD
ENDBRANCH   1   7
TORSDOF 1
ENDMDL
