MODEL 1
REMARK minimizedAffinity -2.45597577
REMARK minimizedRMSD -1
REMARK  1 active torsions:
REMARK  status: ('A' for Active; 'I' for Inactive)
REMARK    1  A    between atoms: N_2  and  C1_3 
ROOT
ATOM      1  C1  UNL d   1      -0.724  -0.062   0.399  0.00  0.00     0.143 A 
ATOM      2  C2  UNL d   1       0.329   0.775   0.014  0.00  0.00    -0.057 A 
ATOM      3  C3  UNL d   1       1.506   0.253  -0.537  0.00  0.00     0.033 A 
ATOM      4  C4  UNL d   1       1.662  -1.121  -0.687  0.00  0.00    -0.042 A 
ATOM      5  C5  UNL d   1       0.638  -1.973  -0.289  0.00  0.00     0.033 A 
ATOM      6  C6  UNL d   1      -0.538  -1.446   0.255  0.00  0.00    -0.057 A 
ENDROOT
BRANCH   1   7
ATOM      7  N   UNL d   1      -1.879   0.388   1.043  0.00  0.00    -0.732 N 
ATOM      8  C   UNL d   1      -1.891   0.595   2.476  0.00  0.00     0.284 C 
ATOM      9  H3  UNL d   1      -2.362   1.111   0.515  0.00  0.00     0.395 HD
ENDBRANCH   1   7
TORSDOF 1
ENDMDL
