MODEL 1
REMARK minimizedAffinity -3.85203481
REMARK minimizedRMSD -1
REMARK  1 active torsions:
REMARK  status: ('A' for Active; 'I' for Inactive)
REMARK    1  A    between atoms: N_2  and  C1_3 
ROOT
ATOM      1  C1  UNL d   1       0.701  -0.387   0.028  0.00  0.00     0.143 A 
ATOM      2  C2  UNL d   1       1.957   0.072  -0.384  0.00  0.00    -0.057 A 
ATOM      3  C3  UNL d   1       2.092   1.257  -1.117  0.00  0.00     0.033 A 
ATOM      4  C4  UNL d   1       0.968   1.991  -1.478  0.00  0.00    -0.042 A 
ATOM      5  C5  UNL d   1      -0.293   1.541  -1.102  0.00  0.00     0.033 A 
ATOM      6  C6  UNL d   1      -0.421   0.360  -0.363  0.00  0.00    -0.057 A 
ENDROOT
BRANCH   1   7
ATOM      7  N   UNL d   1       0.492  -1.608   0.673  0.00  0.00    -0.732 N 
ATOM      8  C   UNL d   1      -0.010  -2.752  -0.057  0.00  0.00     0.284 C 
ATOM      9  H3  UNL d   1       1.233  -1.830   1.334  0.00  0.00     0.395 HD
ENDBRANCH   1   7
TORSDOF 1
ENDMDL
