MODEL 1
REMARK minimizedAffinity -4.02995348
REMARK minimizedRMSD -1
REMARK  1 active torsions:
REMARK  status: ('A' for Active; 'I' for Inactive)
REMARK    1  A    between atoms: N_2  and  C1_3 
ROOT
ATOM      1  C1  UNL d   1       0.701  -0.193  -0.370  0.00  0.00     0.143 A 
ATOM      2  C2  UNL d   1       1.451  -1.347  -0.622  0.00  0.00    -0.057 A 
ATOM      3  C3  UNL d   1       2.507  -1.340  -1.541  0.00  0.00     0.033 A 
ATOM      4  C4  UNL d   1       2.815  -0.181  -2.247  0.00  0.00    -0.042 A 
ATOM      5  C5  UNL d   1       2.067   0.970  -2.031  0.00  0.00     0.033 A 
ATOM      6  C6  UNL d   1       1.017   0.959  -1.107  0.00  0.00    -0.057 A 
ENDROOT
BRANCH   1   7
ATOM      7  N   UNL d   1      -0.424  -0.162   0.458  0.00  0.00    -0.732 N 
ATOM      8  C   UNL d   1      -1.563   0.666   0.124  0.00  0.00     0.284 C 
ATOM      9  H3  UNL d   1      -0.669  -1.083   0.814  0.00  0.00     0.395 HD
ENDBRANCH   1   7
TORSDOF 1
ENDMDL
