MODEL 1
REMARK minimizedAffinity -5.05364895
REMARK minimizedRMSD -1
REMARK  1 active torsions:
REMARK  status: ('A' for Active; 'I' for Inactive)
REMARK    1  A    between atoms: N_2  and  C1_3 
ROOT
ATOM      1  C1  UNL d   1       0.013  -0.014  -0.069  0.00  0.00     0.143 A 
ATOM      2  C2  UNL d   1       0.470  -1.334   0.002  0.00  0.00    -0.057 A 
ATOM      3  C3  UNL d   1       1.649  -1.730  -0.642  0.00  0.00     0.033 A 
ATOM      4  C4  UNL d   1       2.378  -0.815  -1.394  0.00  0.00    -0.042 A 
ATOM      5  C5  UNL d   1       1.929   0.497  -1.499  0.00  0.00     0.033 A 
ATOM      6  C6  UNL d   1       0.755   0.887  -0.848  0.00  0.00    -0.057 A 
ENDROOT
BRANCH   1   7
ATOM      7  N   UNL d   1      -1.203   0.418   0.467  0.00  0.00    -0.732 N 
ATOM      8  C   UNL d   1      -1.300   0.803   1.859  0.00  0.00     0.284 C 
ATOM      9  H3  UNL d   1      -1.714   1.026  -0.169  0.00  0.00     0.395 HD
ENDBRANCH   1   7
TORSDOF 1
ENDMDL
