MODEL 1
REMARK minimizedAffinity -4.49244261
REMARK minimizedRMSD -1
REMARK  1 active torsions:
REMARK  status: ('A' for Active; 'I' for Inactive)
REMARK    1  A    between atoms: N_2  and  C1_3 
ROOT
ATOM      1  C1  UNL d   1       0.022   0.019  -0.119  0.00  0.00     0.143 A 
ATOM      2  C2  UNL d   1       0.672  -1.209  -0.279  0.00  0.00    -0.057 A 
ATOM      3  C3  UNL d   1       1.950  -1.286  -0.845  0.00  0.00     0.033 A 
ATOM      4  C4  UNL d   1       2.592  -0.135  -1.289  0.00  0.00    -0.042 A 
ATOM      5  C5  UNL d   1       1.954   1.095  -1.163  0.00  0.00     0.033 A 
ATOM      6  C6  UNL d   1       0.680   1.166  -0.591  0.00  0.00    -0.057 A 
ENDROOT
BRANCH   1   7
ATOM      7  N   UNL d   1      -1.289   0.151   0.345  0.00  0.00    -0.732 N 
ATOM      8  C   UNL d   1      -1.551   0.627   1.687  0.00  0.00     0.284 C 
ATOM      9  H3  UNL d   1      -1.914   0.532  -0.360  0.00  0.00     0.395 HD
ENDBRANCH   1   7
TORSDOF 1
ENDMDL
