MODEL 1
REMARK minimizedAffinity -3.03160715
REMARK minimizedRMSD -1
REMARK  1 active torsions:
REMARK  status: ('A' for Active; 'I' for Inactive)
REMARK    1  A    between atoms: N_2  and  C1_3 
ROOT
ATOM      1  C1  UNL d   1      -0.399   0.074   0.070  0.00  0.00     0.143 A 
ATOM      2  C2  UNL d   1       0.610   0.565  -0.764  0.00  0.00    -0.057 A 
ATOM      3  C3  UNL d   1       1.562  -0.290  -1.333  0.00  0.00     0.033 A 
ATOM      4  C4  UNL d   1       1.538  -1.652  -1.053  0.00  0.00    -0.042 A 
ATOM      5  C5  UNL d   1       0.559  -2.159  -0.206  0.00  0.00     0.033 A 
ATOM      6  C6  UNL d   1      -0.393  -1.301   0.354  0.00  0.00    -0.057 A 
ENDROOT
BRANCH   1   7
ATOM      7  N   UNL d   1      -1.315   0.886   0.745  0.00  0.00    -0.732 N 
ATOM      8  C   UNL d   1      -1.873   0.471   2.014  0.00  0.00     0.284 C 
ATOM      9  H3  UNL d   1      -1.064   1.871   0.703  0.00  0.00     0.395 HD
ENDBRANCH   1   7
TORSDOF 1
ENDMDL
