MODEL 1
REMARK minimizedAffinity -4.33540297
REMARK minimizedRMSD -1
REMARK  1 active torsions:
REMARK  status: ('A' for Active; 'I' for Inactive)
REMARK    1  A    between atoms: N_2  and  C1_3 
ROOT
ATOM      1  C1  UNL d   1      -0.504  -0.108   0.083  0.00  0.00     0.143 A 
ATOM      2  C2  UNL d   1       0.292   0.895  -0.480  0.00  0.00    -0.057 A 
ATOM      3  C3  UNL d   1       1.527   0.597  -1.070  0.00  0.00     0.033 A 
ATOM      4  C4  UNL d   1       2.002  -0.710  -1.081  0.00  0.00    -0.042 A 
ATOM      5  C5  UNL d   1       1.239  -1.720  -0.504  0.00  0.00     0.033 A 
ATOM      6  C6  UNL d   1       0.004  -1.417   0.077  0.00  0.00    -0.057 A 
ENDROOT
BRANCH   1   7
ATOM      7  N   UNL d   1      -1.694   0.138   0.771  0.00  0.00    -0.732 N 
ATOM      8  C   UNL d   1      -1.691   0.901   2.001  0.00  0.00     0.284 C 
ATOM      9  H3  UNL d   1      -2.465   0.361   0.146  0.00  0.00     0.395 HD
ENDBRANCH   1   7
TORSDOF 1
ENDMDL
