MODEL 1
REMARK minimizedAffinity -3.65351486
REMARK minimizedRMSD -1
REMARK  1 active torsions:
REMARK  status: ('A' for Active; 'I' for Inactive)
REMARK    1  A    between atoms: N_2  and  C1_3 
ROOT
ATOM      1  C1  UNL d   1      -1.063   0.441   0.572  0.00  0.00     0.143 A 
ATOM      2  C2  UNL d   1      -0.812   1.453  -0.360  0.00  0.00    -0.057 A 
ATOM      3  C3  UNL d   1       0.273   1.375  -1.242  0.00  0.00     0.033 A 
ATOM      4  C4  UNL d   1       1.145   0.293  -1.187  0.00  0.00    -0.042 A 
ATOM      5  C5  UNL d   1       0.930  -0.713  -0.251  0.00  0.00     0.033 A 
ATOM      6  C6  UNL d   1      -0.159  -0.632   0.622  0.00  0.00    -0.057 A 
ENDROOT
BRANCH   1   7
ATOM      7  N   UNL d   1      -2.067   0.508   1.541  0.00  0.00    -0.732 N 
ATOM      8  C   UNL d   1      -1.812   1.126   2.825  0.00  0.00     0.284 C 
ATOM      9  H3  UNL d   1      -2.976   0.733   1.144  0.00  0.00     0.395 HD
ENDBRANCH   1   7
TORSDOF 1
ENDMDL
