MODEL 1
REMARK minimizedAffinity -3.64046335
REMARK minimizedRMSD -1
REMARK  1 active torsions:
REMARK  status: ('A' for Active; 'I' for Inactive)
REMARK    1  A    between atoms: N_2  and  C1_3 
ROOT
ATOM      1  C1  UNL d   1       0.026   0.208   0.634  0.00  0.00     0.143 A 
ATOM      2  C2  UNL d   1      -0.468   1.057  -0.362  0.00  0.00    -0.057 A 
ATOM      3  C3  UNL d   1       0.292   1.365  -1.497  0.00  0.00     0.033 A 
ATOM      4  C4  UNL d   1       1.577   0.851  -1.641  0.00  0.00    -0.042 A 
ATOM      5  C5  UNL d   1       2.098   0.026  -0.652  0.00  0.00     0.033 A 
ATOM      6  C6  UNL d   1       1.331  -0.284   0.476  0.00  0.00    -0.057 A 
ENDROOT
BRANCH   1   7
ATOM      7  N   UNL d   1      -0.642  -0.058   1.832  0.00  0.00    -0.732 N 
ATOM      8  C   UNL d   1      -1.561   0.909   2.393  0.00  0.00     0.284 C 
ATOM      9  H3  UNL d   1      -0.964  -1.021   1.891  0.00  0.00     0.395 HD
ENDBRANCH   1   7
TORSDOF 1
ENDMDL
