MODEL 1
REMARK minimizedAffinity -2.64594483
REMARK minimizedRMSD -1
REMARK  0 active torsions:
REMARK  status: ('A' for Active; 'I' for Inactive)
ROOT
ATOM      1  C   UNL d   1       4.815  -0.011  -6.000  0.00  0.00     0.172 C 
ATOM      2  N   UNL d   1       5.047  -1.361  -5.543  0.00  0.00    -0.070 N 
ATOM      3  C1  UNL d   1       4.402  -2.480  -5.999  0.00  0.00    -0.004 A 
ATOM      4  C2  UNL d   1       4.905  -3.565  -5.316  0.00  0.00    -0.047 A 
ATOM      5  C3  UNL d   1       5.886  -3.082  -4.417  0.00  0.00    -0.047 A 
ATOM      6  C4  UNL d   1       5.953  -1.714  -4.579  0.00  0.00    -0.004 A 
ENDROOT
TORSDOF 0
ENDMDL
