MODEL 1
REMARK minimizedAffinity -2.48653388
REMARK minimizedRMSD -1
REMARK  0 active torsions:
REMARK  status: ('A' for Active; 'I' for Inactive)
ROOT
ATOM      1  C   UNL d   1       5.946  -3.043  -5.800  0.00  0.00     0.172 C 
ATOM      2  N   UNL d   1       5.404  -4.245  -5.212  0.00  0.00    -0.070 N 
ATOM      3  C1  UNL d   1       4.280  -4.904  -5.635  0.00  0.00    -0.004 A 
ATOM      4  C2  UNL d   1       4.101  -5.999  -4.818  0.00  0.00    -0.047 A 
ATOM      5  C3  UNL d   1       5.152  -5.998  -3.871  0.00  0.00    -0.047 A 
ATOM      6  C4  UNL d   1       5.945  -4.902  -4.138  0.00  0.00    -0.004 A 
ENDROOT
TORSDOF 0
ENDMDL
