MODEL 1
REMARK minimizedAffinity -2.16415381
REMARK minimizedRMSD -1
REMARK  0 active torsions:
REMARK  status: ('A' for Active; 'I' for Inactive)
ROOT
ATOM      1  C   UNL d   1       4.130  -2.843  -5.649  0.00  0.00     0.172 C 
ATOM      2  N   UNL d   1       4.337  -4.111  -4.989  0.00  0.00    -0.070 N 
ATOM      3  C1  UNL d   1       5.542  -4.742  -4.834  0.00  0.00    -0.004 A 
ATOM      4  C2  UNL d   1       5.317  -5.920  -4.155  0.00  0.00    -0.047 A 
ATOM      5  C3  UNL d   1       3.929  -6.000  -3.894  0.00  0.00    -0.047 A 
ATOM      6  C4  UNL d   1       3.346  -4.867  -4.421  0.00  0.00    -0.004 A 
ENDROOT
TORSDOF 0
ENDMDL
