MODEL 1
REMARK minimizedAffinity -2.2293036
REMARK minimizedRMSD -1
REMARK  0 active torsions:
REMARK  status: ('A' for Active; 'I' for Inactive)
ROOT
ATOM      1  C   UNL d   1       4.873  -2.446  -5.224  0.00  0.00     0.172 C 
ATOM      2  N   UNL d   1       4.882  -3.889  -5.170  0.00  0.00    -0.070 N 
ATOM      3  C1  UNL d   1       5.999  -4.680  -5.154  0.00  0.00    -0.004 A 
ATOM      4  C2  UNL d   1       5.585  -5.993  -5.099  0.00  0.00    -0.047 A 
ATOM      5  C3  UNL d   1       4.170  -5.991  -5.082  0.00  0.00    -0.047 A 
ATOM      6  C4  UNL d   1       3.761  -4.675  -5.127  0.00  0.00    -0.004 A 
ENDROOT
TORSDOF 0
ENDMDL
