MODEL 1
REMARK minimizedAffinity -1.7247293
REMARK minimizedRMSD -1
REMARK  0 active torsions:
REMARK  status: ('A' for Active; 'I' for Inactive)
ROOT
ATOM      1  C   UNL d   1       5.997  -2.535  -5.221  0.00  0.00     0.172 C 
ATOM      2  N   UNL d   1       5.434  -3.861  -5.323  0.00  0.00    -0.070 N 
ATOM      3  C1  UNL d   1       5.996  -4.917  -5.989  0.00  0.00    -0.004 A 
ATOM      4  C2  UNL d   1       5.154  -5.999  -5.850  0.00  0.00    -0.047 A 
ATOM      5  C3  UNL d   1       4.047  -5.578  -5.076  0.00  0.00    -0.047 A 
ATOM      6  C4  UNL d   1       4.246  -4.250  -4.763  0.00  0.00    -0.004 A 
ENDROOT
TORSDOF 0
ENDMDL
