MODEL 1
REMARK minimizedAffinity -2.07411551
REMARK minimizedRMSD -1
REMARK  0 active torsions:
REMARK  status: ('A' for Active; 'I' for Inactive)
ROOT
ATOM      1  C   UNL d   1       5.996  -3.222  -4.161  0.00  0.00     0.172 C 
ATOM      2  N   UNL d   1       5.179  -4.240  -4.778  0.00  0.00    -0.070 N 
ATOM      3  C1  UNL d   1       5.624  -5.209  -5.637  0.00  0.00    -0.004 A 
ATOM      4  C2  UNL d   1       4.541  -5.981  -6.000  0.00  0.00    -0.047 A 
ATOM      5  C3  UNL d   1       3.406  -5.457  -5.336  0.00  0.00    -0.047 A 
ATOM      6  C4  UNL d   1       3.830  -4.380  -4.586  0.00  0.00    -0.004 A 
ENDROOT
TORSDOF 0
ENDMDL
