MODEL 1
REMARK minimizedAffinity -2.75392318
REMARK minimizedRMSD -1
REMARK  0 active torsions:
REMARK  status: ('A' for Active; 'I' for Inactive)
ROOT
ATOM      1  C   UNL d   1       6.000  -4.119  -4.690  0.00  0.00     0.172 C 
ATOM      2  N   UNL d   1       5.355  -2.895  -5.104  0.00  0.00    -0.070 N 
ATOM      3  C1  UNL d   1       5.994  -1.747  -5.491  0.00  0.00    -0.004 A 
ATOM      4  C2  UNL d   1       5.031  -0.814  -5.808  0.00  0.00    -0.047 A 
ATOM      5  C3  UNL d   1       3.769  -1.421  -5.602  0.00  0.00    -0.047 A 
ATOM      6  C4  UNL d   1       3.999  -2.709  -5.167  0.00  0.00    -0.004 A 
ENDROOT
TORSDOF 0
ENDMDL
