MODEL 1
REMARK minimizedAffinity -2.70517802
REMARK minimizedRMSD -1
REMARK  0 active torsions:
REMARK  status: ('A' for Active; 'I' for Inactive)
ROOT
ATOM      1  C   UNL d   1       5.996  -2.455  -4.370  0.00  0.00     0.172 C 
ATOM      2  N   UNL d   1       5.575  -3.792  -4.718  0.00  0.00    -0.070 N 
ATOM      3  C1  UNL d   1       5.859  -4.928  -4.008  0.00  0.00    -0.004 A 
ATOM      4  C2  UNL d   1       5.280  -5.992  -4.665  0.00  0.00    -0.047 A 
ATOM      5  C3  UNL d   1       4.627  -5.478  -5.810  0.00  0.00    -0.047 A 
ATOM      6  C4  UNL d   1       4.825  -4.114  -5.818  0.00  0.00    -0.004 A 
ENDROOT
TORSDOF 0
ENDMDL
