MODEL 1
REMARK minimizedAffinity -2.01297283
REMARK minimizedRMSD -1
REMARK  0 active torsions:
REMARK  status: ('A' for Active; 'I' for Inactive)
ROOT
ATOM      1  C   UNL d   1       5.952  -3.021  -4.021  0.00  0.00     0.172 C 
ATOM      2  N   UNL d   1       5.417  -4.222  -4.618  0.00  0.00    -0.070 N 
ATOM      3  C1  UNL d   1       4.331  -4.923  -4.165  0.00  0.00    -0.004 A 
ATOM      4  C2  UNL d   1       4.143  -6.000  -5.005  0.00  0.00    -0.047 A 
ATOM      5  C3  UNL d   1       5.152  -5.945  -5.996  0.00  0.00    -0.047 A 
ATOM      6  C4  UNL d   1       5.926  -4.834  -5.733  0.00  0.00    -0.004 A 
ENDROOT
TORSDOF 0
ENDMDL
