MODEL 1
REMARK minimizedAffinity -3.86381197
REMARK minimizedRMSD -1
REMARK  0 active torsions:
REMARK  status: ('A' for Active; 'I' for Inactive)
ROOT
ATOM      1  O1  BZF d   1      -0.990  -0.319  -2.359  0.00  0.00    -0.204 OA
ATOM      2  C2  BZF d   1      -0.844   0.758  -1.505  0.00  0.00     0.174 A 
ATOM      3  C3  BZF d   1       0.455   0.953  -1.200  0.00  0.00    -0.012 A 
ATOM      4  C3A BZF d   1       1.174  -0.007  -1.981  0.00  0.00    -0.107 A 
ATOM      5  C4  BZF d   1       2.500  -0.297  -2.124  0.00  0.00     0.055 A 
ATOM      6  C5  BZF d   1       2.867  -1.344  -2.910  0.00  0.00    -0.016 A 
ATOM      7  C6  BZF d   1       1.934  -2.123  -3.562  0.00  0.00     0.022 A 
ATOM      8  C7  BZF d   1       0.607  -1.871  -3.454  0.00  0.00     0.029 A 
ATOM      9  C7A BZF d   1       0.235  -0.794  -2.687  0.00  0.00     0.058 A 
ENDROOT
TORSDOF 0
ENDMDL
