MODEL 1
REMARK minimizedAffinity -3.24116278
REMARK minimizedRMSD -1
REMARK  0 active torsions:
REMARK  status: ('A' for Active; 'I' for Inactive)
ROOT
ATOM      1  O1  BZF d   1      -0.963  -0.193  -2.460  0.00  0.00    -0.204 OA
ATOM      2  C2  BZF d   1      -0.738   0.805  -1.531  0.00  0.00     0.174 A 
ATOM      3  C3  BZF d   1       0.579   1.077  -1.430  0.00  0.00    -0.012 A 
ATOM      4  C3A BZF d   1       1.209   0.260  -2.421  0.00  0.00    -0.107 A 
ATOM      5  C4  BZF d   1       2.505   0.096  -2.817  0.00  0.00     0.055 A 
ATOM      6  C5  BZF d   1       2.794  -0.836  -3.764  0.00  0.00    -0.016 A 
ATOM      7  C6  BZF d   1       1.814  -1.624  -4.330  0.00  0.00     0.022 A 
ATOM      8  C7  BZF d   1       0.513  -1.494  -3.973  0.00  0.00     0.029 A 
ATOM      9  C7A BZF d   1       0.213  -0.531  -3.041  0.00  0.00     0.058 A 
ENDROOT
TORSDOF 0
ENDMDL
