MODEL 1
REMARK minimizedAffinity -4.72747231
REMARK minimizedRMSD -1
REMARK  0 active torsions:
REMARK  status: ('A' for Active; 'I' for Inactive)
ROOT
ATOM      1  O1  BZF d   1      -0.931   0.271  -0.599  0.00  0.00    -0.204 OA
ATOM      2  C2  BZF d   1       0.405  -0.074  -0.540  0.00  0.00     0.174 A 
ATOM      3  C3  BZF d   1       0.782  -0.312   0.733  0.00  0.00    -0.012 A 
ATOM      4  C3A BZF d   1      -0.415  -0.194   1.508  0.00  0.00    -0.107 A 
ATOM      5  C4  BZF d   1      -0.690  -0.335   2.839  0.00  0.00     0.055 A 
ATOM      6  C5  BZF d   1      -1.948  -0.080   3.284  0.00  0.00    -0.016 A 
ATOM      7  C6  BZF d   1      -2.953   0.322   2.429  0.00  0.00     0.022 A 
ATOM      8  C7  BZF d   1      -2.730   0.471   1.100  0.00  0.00     0.029 A 
ATOM      9  C7A BZF d   1      -1.467   0.182   0.642  0.00  0.00     0.058 A 
ENDROOT
TORSDOF 0
ENDMDL
