MODEL 1
REMARK minimizedAffinity -3.26361704
REMARK minimizedRMSD -1
REMARK  0 active torsions:
REMARK  status: ('A' for Active; 'I' for Inactive)
ROOT
ATOM      1  O1  BZF d   1      -0.519  -0.363  -0.870  0.00  0.00    -0.204 OA
ATOM      2  C2  BZF d   1       0.585   0.369  -1.262  0.00  0.00     0.174 A 
ATOM      3  C3  BZF d   1       1.231   0.872  -0.190  0.00  0.00    -0.012 A 
ATOM      4  C3A BZF d   1       0.537   0.349   0.947  0.00  0.00    -0.107 A 
ATOM      5  C4  BZF d   1       0.714   0.476   2.295  0.00  0.00     0.055 A 
ATOM      6  C5  BZF d   1      -0.182  -0.104   3.136  0.00  0.00    -0.016 A 
ATOM      7  C6  BZF d   1      -1.268  -0.812   2.664  0.00  0.00     0.022 A 
ATOM      8  C7  BZF d   1      -1.482  -0.970   1.335  0.00  0.00     0.029 A 
ATOM      9  C7A BZF d   1      -0.560  -0.413   0.483  0.00  0.00     0.058 A 
ENDROOT
TORSDOF 0
ENDMDL
