MODEL 1
REMARK minimizedAffinity -6.55435848
REMARK minimizedRMSD -1
REMARK  0 active torsions:
REMARK  status: ('A' for Active; 'I' for Inactive)
ROOT
ATOM      1  O1  BZF d   1      -0.789   0.278  -0.763  0.00  0.00    -0.204 OA
ATOM      2  C2  BZF d   1       0.582   0.115  -0.797  0.00  0.00     0.174 A 
ATOM      3  C3  BZF d   1       1.083   0.017   0.451  0.00  0.00    -0.012 A 
ATOM      4  C3A BZF d   1      -0.056   0.033   1.316  0.00  0.00    -0.107 A 
ATOM      5  C4  BZF d   1      -0.207  -0.049   2.671  0.00  0.00     0.055 A 
ATOM      6  C5  BZF d   1      -1.451   0.072   3.205  0.00  0.00    -0.016 A 
ATOM      7  C6  BZF d   1      -2.563   0.280   2.416  0.00  0.00     0.022 A 
ATOM      8  C7  BZF d   1      -2.464   0.363   1.067  0.00  0.00     0.029 A 
ATOM      9  C7A BZF d   1      -1.212   0.209   0.522  0.00  0.00     0.058 A 
ENDROOT
TORSDOF 0
ENDMDL
