MODEL 1
REMARK minimizedAffinity -4.54635286
REMARK minimizedRMSD -1
REMARK  0 active torsions:
REMARK  status: ('A' for Active; 'I' for Inactive)
ROOT
ATOM      1  O1  BZF d   1      -2.012   0.600  -0.467  0.00  0.00    -0.204 OA
ATOM      2  C2  BZF d   1      -1.186   1.171  -1.416  0.00  0.00     0.174 A 
ATOM      3  C3  BZF d   1       0.084   1.236  -0.967  0.00  0.00    -0.012 A 
ATOM      4  C3A BZF d   1       0.067   0.586   0.308  0.00  0.00    -0.107 A 
ATOM      5  C4  BZF d   1       1.029   0.319   1.239  0.00  0.00     0.055 A 
ATOM      6  C5  BZF d   1       0.670  -0.267   2.411  0.00  0.00    -0.016 A 
ATOM      7  C6  BZF d   1      -0.642  -0.594   2.687  0.00  0.00     0.022 A 
ATOM      8  C7  BZF d   1      -1.631  -0.353   1.793  0.00  0.00     0.029 A 
ATOM      9  C7A BZF d   1      -1.266   0.209   0.593  0.00  0.00     0.058 A 
ENDROOT
TORSDOF 0
ENDMDL
