MODEL 1
REMARK minimizedAffinity -3.49177718
REMARK minimizedRMSD -1
REMARK  0 active torsions:
REMARK  status: ('A' for Active; 'I' for Inactive)
ROOT
ATOM      1  O1  BZF d   1      -0.869   0.429  -0.744  0.00  0.00    -0.204 OA
ATOM      2  C2  BZF d   1       0.275   1.134  -1.068  0.00  0.00     0.174 A 
ATOM      3  C3  BZF d   1       1.075   1.269   0.010  0.00  0.00    -0.012 A 
ATOM      4  C3A BZF d   1       0.432   0.528   1.051  0.00  0.00    -0.107 A 
ATOM      5  C4  BZF d   1       0.748   0.273   2.355  0.00  0.00     0.055 A 
ATOM      6  C5  BZF d   1      -0.129  -0.425   3.123  0.00  0.00    -0.016 A 
ATOM      7  C6  BZF d   1      -1.332  -0.877   2.623  0.00  0.00     0.022 A 
ATOM      8  C7  BZF d   1      -1.688  -0.653   1.334  0.00  0.00     0.029 A 
ATOM      9  C7A BZF d   1      -0.789   0.024   0.546  0.00  0.00     0.058 A 
ENDROOT
TORSDOF 0
ENDMDL
