MODEL 1
REMARK minimizedAffinity -4.3001771
REMARK minimizedRMSD -1
REMARK  0 active torsions:
REMARK  status: ('A' for Active; 'I' for Inactive)
ROOT
ATOM      1  O1  BZF d   1      -0.894  -0.591  -0.855  0.00  0.00    -0.204 OA
ATOM      2  C2  BZF d   1       0.000   0.122  -1.630  0.00  0.00     0.174 A 
ATOM      3  C3  BZF d   1       0.849   0.827  -0.854  0.00  0.00    -0.012 A 
ATOM      4  C3A BZF d   1       0.520   0.464   0.490  0.00  0.00    -0.107 A 
ATOM      5  C4  BZF d   1       1.023   0.820   1.709  0.00  0.00     0.055 A 
ATOM      6  C5  BZF d   1       0.429   0.342   2.834  0.00  0.00    -0.016 A 
ATOM      7  C6  BZF d   1      -0.670  -0.489   2.777  0.00  0.00     0.022 A 
ATOM      8  C7  BZF d   1      -1.202  -0.874   1.592  0.00  0.00     0.029 A 
ATOM      9  C7A BZF d   1      -0.584  -0.419   0.452  0.00  0.00     0.058 A 
ENDROOT
TORSDOF 0
ENDMDL
