MODEL 1
REMARK minimizedAffinity -4.17269564
REMARK minimizedRMSD -1
REMARK  0 active torsions:
REMARK  status: ('A' for Active; 'I' for Inactive)
ROOT
ATOM      1  O1  BZF d   1      -0.827  -0.938  -0.613  0.00  0.00    -0.204 OA
ATOM      2  C2  BZF d   1       0.018  -0.283  -1.487  0.00  0.00     0.174 A 
ATOM      3  C3  BZF d   1       0.812   0.584  -0.826  0.00  0.00    -0.012 A 
ATOM      4  C3A BZF d   1       0.505   0.396   0.558  0.00  0.00    -0.107 A 
ATOM      5  C4  BZF d   1       0.976   0.958   1.710  0.00  0.00     0.055 A 
ATOM      6  C5  BZF d   1       0.413   0.606   2.895  0.00  0.00    -0.016 A 
ATOM      7  C6  BZF d   1      -0.625  -0.299   2.966  0.00  0.00     0.022 A 
ATOM      8  C7  BZF d   1      -1.124  -0.887   1.851  0.00  0.00     0.029 A 
ATOM      9  C7A BZF d   1      -0.535  -0.559   0.655  0.00  0.00     0.058 A 
ENDROOT
TORSDOF 0
ENDMDL
