MODEL 1
REMARK minimizedAffinity -4.96466112
REMARK minimizedRMSD -1
REMARK  0 active torsions:
REMARK  status: ('A' for Active; 'I' for Inactive)
ROOT
ATOM      1  O1  BZF d   1      -0.938   0.240  -0.751  0.00  0.00    -0.204 OA
ATOM      2  C2  BZF d   1       0.421   0.475  -0.827  0.00  0.00     0.174 A 
ATOM      3  C3  BZF d   1       0.991   0.386   0.392  0.00  0.00    -0.012 A 
ATOM      4  C3A BZF d   1      -0.063  -0.015   1.272  0.00  0.00    -0.107 A 
ATOM      5  C4  BZF d   1      -0.118  -0.284   2.610  0.00  0.00     0.055 A 
ATOM      6  C5  BZF d   1      -1.319  -0.578   3.175  0.00  0.00    -0.016 A 
ATOM      7  C6  BZF d   1      -2.482  -0.607   2.435  0.00  0.00     0.022 A 
ATOM      8  C7  BZF d   1      -2.477  -0.353   1.104  0.00  0.00     0.029 A 
ATOM      9  C7A BZF d   1      -1.261  -0.087   0.523  0.00  0.00     0.058 A 
ENDROOT
TORSDOF 0
ENDMDL
