MODEL 1
REMARK minimizedAffinity -3.49111152
REMARK minimizedRMSD -1
REMARK  0 active torsions:
REMARK  status: ('A' for Active; 'I' for Inactive)
ROOT
ATOM      1  O1  BZF d   1      -0.600  -0.560  -1.529  0.00  0.00    -0.204 OA
ATOM      2  C2  BZF d   1       0.614  -0.273  -2.122  0.00  0.00     0.174 A 
ATOM      3  C3  BZF d   1       1.547   0.006  -1.190  0.00  0.00    -0.012 A 
ATOM      4  C3A BZF d   1       0.898  -0.204   0.068  0.00  0.00    -0.107 A 
ATOM      5  C4  BZF d   1       1.310  -0.103   1.366  0.00  0.00     0.055 A 
ATOM      6  C5  BZF d   1       0.409  -0.305   2.363  0.00  0.00    -0.016 A 
ATOM      7  C6  BZF d   1      -0.912  -0.604   2.098  0.00  0.00     0.022 A 
ATOM      8  C7  BZF d   1      -1.366  -0.720   0.826  0.00  0.00     0.029 A 
ATOM      9  C7A BZF d   1      -0.450  -0.548  -0.183  0.00  0.00     0.058 A 
ENDROOT
TORSDOF 0
ENDMDL
