MODEL 1
REMARK minimizedAffinity -4.04149485
REMARK minimizedRMSD -1
REMARK  0 active torsions:
REMARK  status: ('A' for Active; 'I' for Inactive)
ROOT
ATOM      1  O1  BZF d   1      -1.031  -0.933  -0.752  0.00  0.00    -0.204 OA
ATOM      2  C2  BZF d   1      -0.526  -0.063   0.194  0.00  0.00     0.174 A 
ATOM      3  C3  BZF d   1       0.639   0.473  -0.222  0.00  0.00    -0.012 A 
ATOM      4  C3A BZF d   1       0.831  -0.027  -1.549  0.00  0.00    -0.107 A 
ATOM      5  C4  BZF d   1       1.801   0.159  -2.492  0.00  0.00     0.055 A 
ATOM      6  C5  BZF d   1       1.729  -0.533  -3.659  0.00  0.00    -0.016 A 
ATOM      7  C6  BZF d   1       0.705  -1.422  -3.914  0.00  0.00     0.022 A 
ATOM      8  C7  BZF d   1      -0.283  -1.636  -3.012  0.00  0.00     0.029 A 
ATOM      9  C7A BZF d   1      -0.231  -0.914  -1.845  0.00  0.00     0.058 A 
ENDROOT
TORSDOF 0
ENDMDL
