MODEL 1
REMARK minimizedAffinity -3.56971908
REMARK minimizedRMSD -1
REMARK  0 active torsions:
REMARK  status: ('A' for Active; 'I' for Inactive)
ROOT
ATOM      1  O1  BZF d   1      -0.727   0.842  -0.681  0.00  0.00    -0.204 OA
ATOM      2  C2  BZF d   1      -0.071   0.108  -1.650  0.00  0.00     0.174 A 
ATOM      3  C3  BZF d   1       0.715  -0.832  -1.089  0.00  0.00    -0.012 A 
ATOM      4  C3A BZF d   1       0.469  -0.737   0.318  0.00  0.00    -0.107 A 
ATOM      5  C4  BZF d   1       0.943  -1.420   1.402  0.00  0.00     0.055 A 
ATOM      6  C5  BZF d   1       0.558  -1.032   2.646  0.00  0.00    -0.016 A 
ATOM      7  C6  BZF d   1      -0.294   0.035   2.843  0.00  0.00     0.022 A 
ATOM      8  C7  BZF d   1      -0.793   0.739   1.798  0.00  0.00     0.029 A 
ATOM      9  C7A BZF d   1      -0.433   0.329   0.538  0.00  0.00     0.058 A 
ENDROOT
TORSDOF 0
ENDMDL
