MODEL 1
REMARK minimizedAffinity -0.927080452
REMARK minimizedRMSD -1
REMARK  0 active torsions:
REMARK  status: ('A' for Active; 'I' for Inactive)
ROOT
ATOM      1  O1  BZF d   1      -2.974   0.959  -0.351  0.00  0.00    -0.204 OA
ATOM      2  C2  BZF d   1      -4.082   0.185  -0.062  0.00  0.00     0.174 A 
ATOM      3  C3  BZF d   1      -3.719  -0.961   0.550  0.00  0.00    -0.012 A 
ATOM      4  C3A BZF d   1      -2.304  -0.857   0.734  0.00  0.00    -0.107 A 
ATOM      5  C4  BZF d   1      -1.368  -1.675   1.299  0.00  0.00     0.055 A 
ATOM      6  C5  BZF d   1      -0.059  -1.314   1.252  0.00  0.00    -0.016 A 
ATOM      7  C6  BZF d   1       0.350  -0.145   0.643  0.00  0.00     0.022 A 
ATOM      8  C7  BZF d   1      -0.542   0.701   0.073  0.00  0.00     0.029 A 
ATOM      9  C7A BZF d   1      -1.869   0.354   0.148  0.00  0.00     0.058 A 
ENDROOT
TORSDOF 0
ENDMDL
