MODEL 1
REMARK minimizedAffinity -4.06087589
REMARK minimizedRMSD -1
REMARK  0 active torsions:
REMARK  status: ('A' for Active; 'I' for Inactive)
ROOT
ATOM      1  O1  BZF d   1       4.445  -1.014  -3.792  0.00  0.00    -0.204 OA
ATOM      2  C2  BZF d   1       4.873   0.290  -3.629  0.00  0.00     0.174 A 
ATOM      3  C3  BZF d   1       3.836   1.101  -3.337  0.00  0.00    -0.012 A 
ATOM      4  C3A BZF d   1       2.702   0.237  -3.226  0.00  0.00    -0.107 A 
ATOM      5  C4  BZF d   1       1.384   0.450  -2.938  0.00  0.00     0.055 A 
ATOM      6  C5  BZF d   1       0.520  -0.599  -2.981  0.00  0.00    -0.016 A 
ATOM      7  C6  BZF d   1       0.939  -1.871  -3.314  0.00  0.00     0.022 A 
ATOM      8  C7  BZF d   1       2.237  -2.132  -3.603  0.00  0.00     0.029 A 
ATOM      9  C7A BZF d   1       3.118  -1.081  -3.528  0.00  0.00     0.058 A 
ENDROOT
TORSDOF 0
ENDMDL
