MODEL 1
REMARK minimizedAffinity -5.46240234
REMARK minimizedRMSD -1
REMARK  0 active torsions:
REMARK  status: ('A' for Active; 'I' for Inactive)
ROOT
ATOM      1  O1  BZF d   1       0.837  -0.050   1.743  0.00  0.00    -0.204 OA
ATOM      2  C2  BZF d   1       0.108  -0.501   2.827  0.00  0.00     0.174 A 
ATOM      3  C3  BZF d   1      -1.214  -0.462   2.565  0.00  0.00    -0.012 A 
ATOM      4  C3A BZF d   1      -1.314  -0.043   1.200  0.00  0.00    -0.107 A 
ATOM      5  C4  BZF d   1      -2.369   0.168   0.358  0.00  0.00     0.055 A 
ATOM      6  C5  BZF d   1      -2.131   0.646  -0.891  0.00  0.00    -0.016 A 
ATOM      7  C6  BZF d   1      -0.853   0.928  -1.330  0.00  0.00     0.022 A 
ATOM      8  C7  BZF d   1       0.225   0.730  -0.532  0.00  0.00     0.029 A 
ATOM      9  C7A BZF d   1      -0.010   0.216   0.720  0.00  0.00     0.058 A 
ENDROOT
TORSDOF 0
ENDMDL
