MODEL 1
REMARK minimizedAffinity -3.62761116
REMARK minimizedRMSD -1
REMARK  0 active torsions:
REMARK  status: ('A' for Active; 'I' for Inactive)
ROOT
ATOM      1  O1  BZF d   1       3.605   1.378  -3.269  0.00  0.00    -0.204 OA
ATOM      2  C2  BZF d   1       4.650   0.711  -3.880  0.00  0.00     0.174 A 
ATOM      3  C3  BZF d   1       4.419  -0.618  -3.904  0.00  0.00    -0.012 A 
ATOM      4  C3A BZF d   1       3.110  -0.783  -3.351  0.00  0.00    -0.107 A 
ATOM      5  C4  BZF d   1       2.317  -1.871  -3.125  0.00  0.00     0.055 A 
ATOM      6  C5  BZF d   1       1.121  -1.699  -2.503  0.00  0.00    -0.016 A 
ATOM      7  C6  BZF d   1       0.690  -0.455  -2.090  0.00  0.00     0.022 A 
ATOM      8  C7  BZF d   1       1.439   0.655  -2.297  0.00  0.00     0.029 A 
ATOM      9  C7A BZF d   1       2.634   0.488  -2.955  0.00  0.00     0.058 A 
ENDROOT
TORSDOF 0
ENDMDL
