MODEL 1
REMARK minimizedAffinity -0.508446336
REMARK minimizedRMSD -1
REMARK  0 active torsions:
REMARK  status: ('A' for Active; 'I' for Inactive)
ROOT
ATOM      1  O1  BZF d   1       1.002   1.307   0.386  0.00  0.00    -0.204 OA
ATOM      2  C2  BZF d   1       0.849   0.724  -0.857  0.00  0.00     0.174 A 
ATOM      3  C3  BZF d   1       0.074  -0.377  -0.776  0.00  0.00    -0.012 A 
ATOM      4  C3A BZF d   1      -0.354  -0.436   0.587  0.00  0.00    -0.107 A 
ATOM      5  C4  BZF d   1      -1.157  -1.295   1.283  0.00  0.00     0.055 A 
ATOM      6  C5  BZF d   1      -1.315  -1.115   2.620  0.00  0.00    -0.016 A 
ATOM      7  C6  BZF d   1      -0.682  -0.091   3.295  0.00  0.00     0.022 A 
ATOM      8  C7  BZF d   1       0.119   0.789   2.647  0.00  0.00     0.029 A 
ATOM      9  C7A BZF d   1       0.255   0.629   1.289  0.00  0.00     0.058 A 
ENDROOT
TORSDOF 0
ENDMDL
