MODEL 1
REMARK minimizedAffinity 19.3384705
REMARK minimizedRMSD -1
REMARK  1 active torsions:
REMARK  status: ('A' for Active; 'I' for Inactive)
REMARK    1  A    between atoms: N_2  and  C1_3 
ROOT
ATOM      1  C1  UNL d   1       4.163  -0.353  -4.349  0.00  0.00     0.143 A 
ATOM      2  C2  UNL d   1       3.768  -1.275  -5.324  0.00  0.00    -0.057 A 
ATOM      3  C3  UNL d   1       3.226  -2.517  -4.972  0.00  0.00     0.033 A 
ATOM      4  C4  UNL d   1       3.095  -2.871  -3.633  0.00  0.00    -0.042 A 
ATOM      5  C5  UNL d   1       3.504  -1.980  -2.647  0.00  0.00     0.033 A 
ATOM      6  C6  UNL d   1       4.039  -0.739  -3.005  0.00  0.00    -0.057 A 
ENDROOT
BRANCH   1   7
ATOM      7  N   UNL d   1       4.800   0.857  -4.636  0.00  0.00    -0.732 N 
ATOM      8  C   UNL d   1       5.140   1.207  -5.998  0.00  0.00     0.284 C 
ATOM      9  H3  UNL d   1       4.429   1.631  -4.088  0.00  0.00     0.395 HD
ENDBRANCH   1   7
TORSDOF 1
ENDMDL
