MODEL 1
REMARK minimizedAffinity 8.01764202
REMARK minimizedRMSD -1
REMARK  1 active torsions:
REMARK  status: ('A' for Active; 'I' for Inactive)
REMARK    1  A    between atoms: N_2  and  C1_3 
ROOT
ATOM      1  C1  UNL d   1      -2.769   3.826   0.250  0.00  0.00     0.143 A 
ATOM      2  C2  UNL d   1      -2.778   4.927   1.113  0.00  0.00    -0.057 A 
ATOM      3  C3  UNL d   1      -3.659   5.998   0.914  0.00  0.00     0.033 A 
ATOM      4  C4  UNL d   1      -4.528   5.999  -0.172  0.00  0.00    -0.042 A 
ATOM      5  C5  UNL d   1      -4.518   4.927  -1.057  0.00  0.00     0.033 A 
ATOM      6  C6  UNL d   1      -3.641   3.857  -0.849  0.00  0.00    -0.057 A 
ENDROOT
BRANCH   1   7
ATOM      7  N   UNL d   1      -1.850   2.777   0.337  0.00  0.00    -0.732 N 
ATOM      8  C   UNL d   1      -0.591   2.956   1.029  0.00  0.00     0.284 C 
ATOM      9  H3  UNL d   1      -2.298   1.882   0.515  0.00  0.00     0.395 HD
ENDBRANCH   1   7
TORSDOF 1
ENDMDL
