MODEL 1
REMARK minimizedAffinity 9.8956604
REMARK minimizedRMSD -1
REMARK  1 active torsions:
REMARK  status: ('A' for Active; 'I' for Inactive)
REMARK    1  A    between atoms: N_2  and  C1_3 
ROOT
ATOM      1  C1  UNL d   1       4.841   4.183  -3.476  0.00  0.00     0.143 A 
ATOM      2  C2  UNL d   1       5.996   3.476  -3.829  0.00  0.00    -0.057 A 
ATOM      3  C3  UNL d   1       5.974   2.509  -4.841  0.00  0.00     0.033 A 
ATOM      4  C4  UNL d   1       4.786   2.209  -5.500  0.00  0.00    -0.042 A 
ATOM      5  C5  UNL d   1       3.621   2.881  -5.148  0.00  0.00     0.033 A 
ATOM      6  C6  UNL d   1       3.651   3.851  -4.141  0.00  0.00    -0.057 A 
ENDROOT
BRANCH   1   7
ATOM      7  N   UNL d   1       4.777   5.086  -2.412  0.00  0.00    -0.732 N 
ATOM      8  C   UNL d   1       5.973   5.743  -1.930  0.00  0.00     0.284 C 
ATOM      9  H3  UNL d   1       3.963   5.693  -2.466  0.00  0.00     0.395 HD
ENDBRANCH   1   7
TORSDOF 1
ENDMDL
