MODEL 1
REMARK minimizedAffinity 13.1961346
REMARK minimizedRMSD -1
REMARK  1 active torsions:
REMARK  status: ('A' for Active; 'I' for Inactive)
REMARK    1  A    between atoms: N_2  and  C1_3 
ROOT
ATOM      1  C1  UNL d   1       4.924  -0.638  -3.559  0.00  0.00     0.143 A 
ATOM      2  C2  UNL d   1       5.678   0.541  -3.544  0.00  0.00    -0.057 A 
ATOM      3  C3  UNL d   1       6.000   1.212  -4.730  0.00  0.00     0.033 A 
ATOM      4  C4  UNL d   1       5.597   0.698  -5.958  0.00  0.00    -0.042 A 
ATOM      5  C5  UNL d   1       4.869  -0.485  -5.999  0.00  0.00     0.033 A 
ATOM      6  C6  UNL d   1       4.544  -1.147  -4.811  0.00  0.00    -0.057 A 
ENDROOT
BRANCH   1   7
ATOM      7  N   UNL d   1       4.656  -1.404  -2.422  0.00  0.00    -0.732 N 
ATOM      8  C   UNL d   1       5.613  -1.476  -1.339  0.00  0.00     0.284 C 
ATOM      9  H3  UNL d   1       3.688  -1.321  -2.118  0.00  0.00     0.395 HD
ENDBRANCH   1   7
TORSDOF 1
ENDMDL
