MODEL 1
REMARK minimizedAffinity 16.0812702
REMARK minimizedRMSD -1
REMARK  1 active torsions:
REMARK  status: ('A' for Active; 'I' for Inactive)
REMARK    1  A    between atoms: N_2  and  C1_3 
ROOT
ATOM      1  C1  UNL d   1       0.339   4.461   1.386  0.00  0.00     0.143 A 
ATOM      2  C2  UNL d   1      -1.028   4.569   1.109  0.00  0.00    -0.057 A 
ATOM      3  C3  UNL d   1      -1.758   3.479   0.618  0.00  0.00     0.033 A 
ATOM      4  C4  UNL d   1      -1.125   2.266   0.368  0.00  0.00    -0.042 A 
ATOM      5  C5  UNL d   1       0.238   2.143   0.613  0.00  0.00     0.033 A 
ATOM      6  C6  UNL d   1       0.961   3.233   1.109  0.00  0.00    -0.057 A 
ENDROOT
BRANCH   1   7
ATOM      7  N   UNL d   1       1.140   5.535   1.781  0.00  0.00    -0.732 N 
ATOM      8  C   UNL d   1       1.125   6.000   3.152  0.00  0.00     0.284 C 
ATOM      9  H3  UNL d   1       2.067   5.503   1.363  0.00  0.00     0.395 HD
ENDBRANCH   1   7
TORSDOF 1
ENDMDL
