MODEL 1
REMARK minimizedAffinity 14.3566732
REMARK minimizedRMSD -1
REMARK  1 active torsions:
REMARK  status: ('A' for Active; 'I' for Inactive)
REMARK    1  A    between atoms: N_2  and  C1_3 
ROOT
ATOM      1  C1  UNL d   1      -3.188  -0.686   5.906  0.00  0.00     0.143 A 
ATOM      2  C2  UNL d   1      -4.514  -1.132   5.927  0.00  0.00    -0.057 A 
ATOM      3  C3  UNL d   1      -5.583  -0.229   5.955  0.00  0.00     0.033 A 
ATOM      4  C4  UNL d   1      -5.344   1.141   5.994  0.00  0.00    -0.042 A 
ATOM      5  C5  UNL d   1      -4.034   1.606   5.999  0.00  0.00     0.033 A 
ATOM      6  C6  UNL d   1      -2.970   0.700   5.964  0.00  0.00    -0.057 A 
ENDROOT
BRANCH   1   7
ATOM      7  N   UNL d   1      -2.080  -1.535   5.977  0.00  0.00    -0.732 N 
ATOM      8  C   UNL d   1      -0.761  -1.056   5.626  0.00  0.00     0.284 C 
ATOM      9  H3  UNL d   1      -2.100  -2.131   6.801  0.00  0.00     0.395 HD
ENDBRANCH   1   7
TORSDOF 1
ENDMDL
