MODEL 1
REMARK minimizedAffinity 14.489934
REMARK minimizedRMSD -1
REMARK  1 active torsions:
REMARK  status: ('A' for Active; 'I' for Inactive)
REMARK    1  A    between atoms: N_2  and  C1_3 
ROOT
ATOM      1  C1  UNL d   1      -1.949  -2.079  -1.099  0.00  0.00     0.143 A 
ATOM      2  C2  UNL d   1      -1.948  -2.327   0.278  0.00  0.00    -0.057 A 
ATOM      3  C3  UNL d   1      -0.754  -2.545   0.976  0.00  0.00     0.033 A 
ATOM      4  C4  UNL d   1       0.462  -2.549   0.301  0.00  0.00    -0.042 A 
ATOM      5  C5  UNL d   1       0.483  -2.330  -1.072  0.00  0.00     0.033 A 
ATOM      6  C6  UNL d   1      -0.712  -2.106  -1.762  0.00  0.00    -0.057 A 
ENDROOT
BRANCH   1   7
ATOM      7  N   UNL d   1      -3.110  -1.953  -1.866  0.00  0.00    -0.732 N 
ATOM      8  C   UNL d   1      -3.250  -2.669  -3.115  0.00  0.00     0.284 C 
ATOM      9  H3  UNL d   1      -3.953  -1.942  -1.296  0.00  0.00     0.395 HD
ENDBRANCH   1   7
TORSDOF 1
ENDMDL
