MODEL 1
REMARK minimizedAffinity 9.0066309
REMARK minimizedRMSD -1
REMARK  1 active torsions:
REMARK  status: ('A' for Active; 'I' for Inactive)
REMARK    1  A    between atoms: N_2  and  C1_3 
ROOT
ATOM      1  C1  UNL d   1      -3.062  -3.749  -4.519  0.00  0.00     0.143 A 
ATOM      2  C2  UNL d   1      -2.426  -4.615  -5.414  0.00  0.00    -0.057 A 
ATOM      3  C3  UNL d   1      -3.094  -5.721  -5.953  0.00  0.00     0.033 A 
ATOM      4  C4  UNL d   1      -4.406  -5.998  -5.582  0.00  0.00    -0.042 A 
ATOM      5  C5  UNL d   1      -5.050  -5.164  -4.675  0.00  0.00     0.033 A 
ATOM      6  C6  UNL d   1      -4.380  -4.058  -4.145  0.00  0.00    -0.057 A 
ENDROOT
BRANCH   1   7
ATOM      7  N   UNL d   1      -2.421  -2.689  -3.873  0.00  0.00    -0.732 N 
ATOM      8  C   UNL d   1      -1.026  -2.403  -4.132  0.00  0.00     0.284 C 
ATOM      9  H3  UNL d   1      -3.009  -1.862  -3.806  0.00  0.00     0.395 HD
ENDBRANCH   1   7
TORSDOF 1
ENDMDL
