MODEL 1
REMARK minimizedAffinity 19.5003319
REMARK minimizedRMSD -1
REMARK  1 active torsions:
REMARK  status: ('A' for Active; 'I' for Inactive)
REMARK    1  A    between atoms: N_2  and  C1_3 
ROOT
ATOM      1  C1  UNL d   1       3.653   3.444  -4.265  0.00  0.00     0.143 A 
ATOM      2  C2  UNL d   1       2.706   3.266  -3.252  0.00  0.00    -0.057 A 
ATOM      3  C3  UNL d   1       1.877   4.316  -2.840  0.00  0.00     0.033 A 
ATOM      4  C4  UNL d   1       2.001   5.576  -3.416  0.00  0.00    -0.042 A 
ATOM      5  C5  UNL d   1       2.954   5.782  -4.408  0.00  0.00     0.033 A 
ATOM      6  C6  UNL d   1       3.774   4.728  -4.820  0.00  0.00    -0.057 A 
ENDROOT
BRANCH   1   7
ATOM      7  N   UNL d   1       4.574   2.466  -4.650  0.00  0.00    -0.732 N 
ATOM      8  C   UNL d   1       4.584   1.170  -4.007  0.00  0.00     0.284 C 
ATOM      9  H3  UNL d   1       4.704   2.431  -5.659  0.00  0.00     0.395 HD
ENDBRANCH   1   7
TORSDOF 1
ENDMDL
