MODEL 1
REMARK minimizedAffinity 15.3156385
REMARK minimizedRMSD -1
REMARK  1 active torsions:
REMARK  status: ('A' for Active; 'I' for Inactive)
REMARK    1  A    between atoms: N_2  and  C1_3 
ROOT
ATOM      1  C1  UNL d   1      -0.730  -1.043  -0.899  0.00  0.00     0.143 A 
ATOM      2  C2  UNL d   1      -0.955  -1.321  -2.251  0.00  0.00    -0.057 A 
ATOM      3  C3  UNL d   1       0.083  -1.752  -3.087  0.00  0.00     0.033 A 
ATOM      4  C4  UNL d   1       1.375  -1.883  -2.588  0.00  0.00    -0.042 A 
ATOM      5  C5  UNL d   1       1.627  -1.588  -1.253  0.00  0.00     0.033 A 
ATOM      6  C6  UNL d   1       0.585  -1.165  -0.423  0.00  0.00    -0.057 A 
ENDROOT
BRANCH   1   7
ATOM      7  N   UNL d   1      -1.700  -0.517  -0.041  0.00  0.00    -0.732 N 
ATOM      8  C   UNL d   1      -1.858   0.914   0.104  0.00  0.00     0.284 C 
ATOM      9  H3  UNL d   1      -2.578  -1.030  -0.087  0.00  0.00     0.395 HD
ENDBRANCH   1   7
TORSDOF 1
ENDMDL
