MODEL 1
REMARK minimizedAffinity 10.0365486
REMARK minimizedRMSD -1
REMARK  1 active torsions:
REMARK  status: ('A' for Active; 'I' for Inactive)
REMARK    1  A    between atoms: N_2  and  C1_3 
ROOT
ATOM      1  C1  UNL d   1       0.638  -1.796  -1.475  0.00  0.00     0.143 A 
ATOM      2  C2  UNL d   1       0.318  -1.085  -2.637  0.00  0.00    -0.057 A 
ATOM      3  C3  UNL d   1       1.295  -0.771  -3.589  0.00  0.00     0.033 A 
ATOM      4  C4  UNL d   1       2.620  -1.138  -3.382  0.00  0.00    -0.042 A 
ATOM      5  C5  UNL d   1       2.967  -1.823  -2.222  0.00  0.00     0.033 A 
ATOM      6  C6  UNL d   1       1.985  -2.140  -1.278  0.00  0.00    -0.057 A 
ENDROOT
BRANCH   1   7
ATOM      7  N   UNL d   1      -0.269  -2.052  -0.445  0.00  0.00    -0.732 N 
ATOM      8  C   UNL d   1      -1.409  -1.185  -0.234  0.00  0.00     0.284 C 
ATOM      9  H3  UNL d   1      -0.477  -3.043  -0.348  0.00  0.00     0.395 HD
ENDBRANCH   1   7
TORSDOF 1
ENDMDL
