MODEL 1
REMARK minimizedAffinity 15.9739246
REMARK minimizedRMSD -1
REMARK  1 active torsions:
REMARK  status: ('A' for Active; 'I' for Inactive)
REMARK    1  A    between atoms: N_2  and  C1_3 
ROOT
ATOM      1  C1  UNL d   1       3.561   4.890  -1.040  0.00  0.00     0.143 A 
ATOM      2  C2  UNL d   1       4.788   4.516  -0.482  0.00  0.00    -0.057 A 
ATOM      3  C3  UNL d   1       5.997   4.803  -1.127  0.00  0.00     0.033 A 
ATOM      4  C4  UNL d   1       5.999   5.446  -2.361  0.00  0.00    -0.042 A 
ATOM      5  C5  UNL d   1       4.790   5.805  -2.946  0.00  0.00     0.033 A 
ATOM      6  C6  UNL d   1       3.586   5.522  -2.294  0.00  0.00    -0.057 A 
ENDROOT
BRANCH   1   7
ATOM      7  N   UNL d   1       2.322   4.546  -0.496  0.00  0.00    -0.732 N 
ATOM      8  C   UNL d   1       1.866   5.148   0.739  0.00  0.00     0.284 C 
ATOM      9  H3  UNL d   1       1.598   4.454  -1.205  0.00  0.00     0.395 HD
ENDBRANCH   1   7
TORSDOF 1
ENDMDL
