MODEL 1
REMARK minimizedAffinity 10.1981258
REMARK minimizedRMSD -1
REMARK  1 active torsions:
REMARK  status: ('A' for Active; 'I' for Inactive)
REMARK    1  A    between atoms: N_2  and  C1_3 
ROOT
ATOM      1  C1  UNL d   1       1.909  -2.111  -2.172  0.00  0.00     0.143 A 
ATOM      2  C2  UNL d   1       3.025  -1.376  -1.758  0.00  0.00    -0.057 A 
ATOM      3  C3  UNL d   1       4.213  -1.379  -2.499  0.00  0.00     0.033 A 
ATOM      4  C4  UNL d   1       4.315  -2.143  -3.657  0.00  0.00    -0.042 A 
ATOM      5  C5  UNL d   1       3.227  -2.901  -4.075  0.00  0.00     0.033 A 
ATOM      6  C6  UNL d   1       2.041  -2.889  -3.334  0.00  0.00    -0.057 A 
ENDROOT
BRANCH   1   7
ATOM      7  N   UNL d   1       0.734  -2.228  -1.427  0.00  0.00    -0.732 N 
ATOM      8  C   UNL d   1      -0.459  -1.504  -1.813  0.00  0.00     0.284 C 
ATOM      9  H3  UNL d   1       0.560  -3.183  -1.122  0.00  0.00     0.395 HD
ENDBRANCH   1   7
TORSDOF 1
ENDMDL
