MODEL 1
REMARK minimizedAffinity 5.69838047
REMARK minimizedRMSD -1
REMARK  0 active torsions:
REMARK  status: ('A' for Active; 'I' for Inactive)
ROOT
ATOM      1  N1  IND d   1       0.927  -2.171   2.596  0.00  0.00    -0.196 N 
ATOM      2  C2  IND d   1       1.418  -0.918   2.361  0.00  0.00     0.054 A 
ATOM      3  C3  IND d   1       2.612  -0.757   2.975  0.00  0.00    -0.031 A 
ATOM      4  C4  IND d   1       3.993  -2.453   4.333  0.00  0.00     0.051 A 
ATOM      5  C5  IND d   1       3.941  -3.717   4.850  0.00  0.00    -0.031 A 
ATOM      6  C6  IND d   1       2.861  -4.548   4.635  0.00  0.00     0.015 A 
ATOM      7  C7  IND d   1       1.793  -4.149   3.883  0.00  0.00    -0.016 A 
ATOM      8  C8  IND d   1       1.839  -2.863   3.362  0.00  0.00    -0.047 A 
ATOM      9  C9  IND d   1       2.913  -2.000   3.612  0.00  0.00    -0.096 A 
ATOM     10  HN1 IND d   1       0.174  -2.477   2.313  0.00  0.00     0.298 HD
ENDROOT
TORSDOF 0
ENDMDL
