MODEL 1
REMARK minimizedAffinity 8.63707256
REMARK minimizedRMSD -1
REMARK  0 active torsions:
REMARK  status: ('A' for Active; 'I' for Inactive)
ROOT
ATOM      1  N1  IND d   1       1.145  -2.237   2.605  0.00  0.00    -0.196 N 
ATOM      2  C2  IND d   1       1.819  -1.087   2.301  0.00  0.00     0.054 A 
ATOM      3  C3  IND d   1       3.023  -1.072   2.916  0.00  0.00    -0.031 A 
ATOM      4  C4  IND d   1       4.134  -2.873   4.382  0.00  0.00     0.051 A 
ATOM      5  C5  IND d   1       3.892  -4.082   4.972  0.00  0.00    -0.031 A 
ATOM      6  C6  IND d   1       2.699  -4.753   4.796  0.00  0.00     0.015 A 
ATOM      7  C7  IND d   1       1.703  -4.243   4.012  0.00  0.00    -0.016 A 
ATOM      8  C8  IND d   1       1.942  -3.012   3.418  0.00  0.00    -0.047 A 
ATOM      9  C9  IND d   1       3.135  -2.306   3.627  0.00  0.00    -0.096 A 
ATOM     10  HN1 IND d   1       0.355  -2.442   2.334  0.00  0.00     0.298 HD
ENDROOT
TORSDOF 0
ENDMDL
