MODEL 1
REMARK minimizedAffinity 4.00244379
REMARK minimizedRMSD -1
REMARK  0 active torsions:
REMARK  status: ('A' for Active; 'I' for Inactive)
ROOT
ATOM      1  N1  IND d   1       1.246  -0.714   4.491  0.00  0.00    -0.196 N 
ATOM      2  C2  IND d   1       1.345  -1.892   3.803  0.00  0.00     0.054 A 
ATOM      3  C3  IND d   1       1.914  -1.684   2.595  0.00  0.00    -0.031 A 
ATOM      4  C4  IND d   1       2.851   0.488   1.579  0.00  0.00     0.051 A 
ATOM      5  C5  IND d   1       2.955   1.830   1.816  0.00  0.00    -0.031 A 
ATOM      6  C6  IND d   1       2.487   2.404   2.980  0.00  0.00     0.015 A 
ATOM      7  C7  IND d   1       1.906   1.652   3.962  0.00  0.00    -0.016 A 
ATOM      8  C8  IND d   1       1.793   0.290   3.722  0.00  0.00    -0.047 A 
ATOM      9  C9  IND d   1       2.227  -0.292   2.524  0.00  0.00    -0.096 A 
ATOM     10  HN1 IND d   1       0.900  -0.617   5.272  0.00  0.00     0.298 HD
ENDROOT
TORSDOF 0
ENDMDL
