MODEL 1
REMARK minimizedAffinity 1.84405458
REMARK minimizedRMSD -1
REMARK  0 active torsions:
REMARK  status: ('A' for Active; 'I' for Inactive)
ROOT
ATOM      1  N1  IND d   1       3.653  -0.572   1.442  0.00  0.00    -0.196 N 
ATOM      2  C2  IND d   1       2.742   0.372   1.060  0.00  0.00     0.054 A 
ATOM      3  C3  IND d   1       1.543   0.129   1.637  0.00  0.00    -0.031 A 
ATOM      4  C4  IND d   1       0.880  -1.700   3.322  0.00  0.00     0.051 A 
ATOM      5  C5  IND d   1       1.362  -2.817   3.945  0.00  0.00    -0.031 A 
ATOM      6  C6  IND d   1       2.660  -3.249   3.764  0.00  0.00     0.015 A 
ATOM      7  C7  IND d   1       3.531  -2.572   2.959  0.00  0.00    -0.016 A 
ATOM      8  C8  IND d   1       3.043  -1.442   2.319  0.00  0.00    -0.047 A 
ATOM      9  C9  IND d   1       1.714  -1.022   2.465  0.00  0.00    -0.096 A 
ATOM     10  HN1 IND d   1       4.471  -0.615   1.179  0.00  0.00     0.298 HD
ENDROOT
TORSDOF 0
ENDMDL
