MODEL 1
REMARK minimizedAffinity 4.23281622
REMARK minimizedRMSD -1
REMARK  0 active torsions:
REMARK  status: ('A' for Active; 'I' for Inactive)
ROOT
ATOM      1  N1  IND d   1      -2.448   0.263  -2.422  0.00  0.00    -0.196 N 
ATOM      2  C2  IND d   1      -3.065   0.765  -3.534  0.00  0.00     0.054 A 
ATOM      3  C3  IND d   1      -3.660   1.945  -3.250  0.00  0.00    -0.031 A 
ATOM      4  C4  IND d   1      -3.663   3.288  -1.053  0.00  0.00     0.051 A 
ATOM      5  C5  IND d   1      -3.265   3.219   0.252  0.00  0.00    -0.031 A 
ATOM      6  C6  IND d   1      -2.557   2.140   0.742  0.00  0.00     0.015 A 
ATOM      7  C7  IND d   1      -2.210   1.091  -0.061  0.00  0.00    -0.016 A 
ATOM      8  C8  IND d   1      -2.619   1.155  -1.386  0.00  0.00    -0.047 A 
ATOM      9  C9  IND d   1      -3.374   2.227  -1.879  0.00  0.00    -0.096 A 
ATOM     10  HN1 IND d   1      -2.025  -0.484  -2.377  0.00  0.00     0.298 HD
ENDROOT
TORSDOF 0
ENDMDL
