MODEL 1
REMARK minimizedAffinity 6.56445026
REMARK minimizedRMSD -1
REMARK  0 active torsions:
REMARK  status: ('A' for Active; 'I' for Inactive)
ROOT
ATOM      1  C   UNL d   1       2.738  -2.962   0.773  0.00  0.00     0.077 C 
ATOM      2  C1  UNL d   1       2.187  -2.355   2.029  0.00  0.00    -0.074 A 
ATOM      3  C2  UNL d   1       1.523  -1.124   2.002  0.00  0.00    -0.005 A 
ATOM      4  C3  UNL d   1       1.008  -0.577   3.177  0.00  0.00     0.006 A 
ATOM      5  C4  UNL d   1       1.150  -1.254   4.389  0.00  0.00    -0.005 A 
ATOM      6  C5  UNL d   1       1.809  -2.487   4.435  0.00  0.00    -0.074 A 
ATOM      7  C6  UNL d   1       1.962  -3.232   5.727  0.00  0.00     0.077 C 
ATOM      8  C7  UNL d   1       2.318  -3.033   3.249  0.00  0.00    -0.001 A 
ENDROOT
TORSDOF 0
ENDMDL
