MODEL 1
REMARK minimizedAffinity 2.05300307
REMARK minimizedRMSD -1
REMARK  0 active torsions:
REMARK  status: ('A' for Active; 'I' for Inactive)
ROOT
ATOM      1  C   UNL d   1       0.990  -2.277   6.000  0.00  0.00     0.077 C 
ATOM      2  C1  UNL d   1       1.309  -2.057   4.551  0.00  0.00    -0.074 A 
ATOM      3  C2  UNL d   1       2.182  -2.911   3.870  0.00  0.00    -0.005 A 
ATOM      4  C3  UNL d   1       2.462  -2.700   2.520  0.00  0.00     0.006 A 
ATOM      5  C4  UNL d   1       1.872  -1.635   1.838  0.00  0.00    -0.005 A 
ATOM      6  C5  UNL d   1       0.995  -0.771   2.502  0.00  0.00    -0.074 A 
ATOM      7  C6  UNL d   1       0.344   0.372   1.782  0.00  0.00     0.077 C 
ATOM      8  C7  UNL d   1       0.714  -0.994   3.857  0.00  0.00    -0.001 A 
ENDROOT
TORSDOF 0
ENDMDL
