MODEL 1
REMARK minimizedAffinity 2.15025711
REMARK minimizedRMSD -1
REMARK  0 active torsions:
REMARK  status: ('A' for Active; 'I' for Inactive)
ROOT
ATOM      1  C   UNL d   1      -6.000   3.734  -1.726  0.00  0.00     0.077 C 
ATOM      2  C1  UNL d   1      -5.726   3.419  -3.167  0.00  0.00    -0.074 A 
ATOM      3  C2  UNL d   1      -5.785   4.417  -4.144  0.00  0.00    -0.005 A 
ATOM      4  C3  UNL d   1      -5.519   4.111  -5.479  0.00  0.00     0.006 A 
ATOM      5  C4  UNL d   1      -5.192   2.806  -5.849  0.00  0.00    -0.005 A 
ATOM      6  C5  UNL d   1      -5.127   1.795  -4.885  0.00  0.00    -0.074 A 
ATOM      7  C6  UNL d   1      -4.767   0.389  -5.264  0.00  0.00     0.077 C 
ATOM      8  C7  UNL d   1      -5.389   2.112  -3.545  0.00  0.00    -0.001 A 
ENDROOT
TORSDOF 0
ENDMDL
