MODEL 1
REMARK minimizedAffinity 5.32758188
REMARK minimizedRMSD -1
REMARK  0 active torsions:
REMARK  status: ('A' for Active; 'I' for Inactive)
ROOT
ATOM      1  C   UNL d   1      -2.652  -0.636  -0.614  0.00  0.00     0.077 C 
ATOM      2  C1  UNL d   1      -2.347  -2.105  -0.613  0.00  0.00    -0.074 A 
ATOM      3  C2  UNL d   1      -3.166  -3.008   0.073  0.00  0.00    -0.005 A 
ATOM      4  C3  UNL d   1      -2.875  -4.372   0.057  0.00  0.00     0.006 A 
ATOM      5  C4  UNL d   1      -1.765  -4.846  -0.643  0.00  0.00    -0.005 A 
ATOM      6  C5  UNL d   1      -0.936  -3.958  -1.335  0.00  0.00    -0.074 A 
ATOM      7  C6  UNL d   1       0.255  -4.452  -2.101  0.00  0.00     0.077 C 
ATOM      8  C7  UNL d   1      -1.239  -2.589  -1.320  0.00  0.00    -0.001 A 
ENDROOT
TORSDOF 0
ENDMDL
