MODEL 1
REMARK minimizedAffinity 8.70588493
REMARK minimizedRMSD -1
REMARK  0 active torsions:
REMARK  status: ('A' for Active; 'I' for Inactive)
ROOT
ATOM      1  C   UNL d   1      -5.221  -2.268  -0.831  0.00  0.00     0.077 C 
ATOM      2  C1  UNL d   1      -3.758  -2.326  -0.505  0.00  0.00    -0.074 A 
ATOM      3  C2  UNL d   1      -3.053  -3.532  -0.573  0.00  0.00    -0.005 A 
ATOM      4  C3  UNL d   1      -1.691  -3.568  -0.276  0.00  0.00     0.006 A 
ATOM      5  C4  UNL d   1      -1.020  -2.401   0.090  0.00  0.00    -0.005 A 
ATOM      6  C5  UNL d   1      -1.708  -1.185   0.162  0.00  0.00    -0.074 A 
ATOM      7  C6  UNL d   1      -1.000   0.081   0.545  0.00  0.00     0.077 C 
ATOM      8  C7  UNL d   1      -3.075  -1.156  -0.144  0.00  0.00    -0.001 A 
ENDROOT
TORSDOF 0
ENDMDL
