MODEL 1
REMARK minimizedAffinity 9.90179348
REMARK minimizedRMSD -1
REMARK  0 active torsions:
REMARK  status: ('A' for Active; 'I' for Inactive)
ROOT
ATOM      1  C   UNL d   1       1.774   5.128  -0.070  0.00  0.00     0.077 C 
ATOM      2  C1  UNL d   1       3.242   5.433  -0.097  0.00  0.00    -0.074 A 
ATOM      3  C2  UNL d   1       3.968   5.578   1.089  0.00  0.00    -0.005 A 
ATOM      4  C3  UNL d   1       5.335   5.852   1.048  0.00  0.00     0.006 A 
ATOM      5  C4  UNL d   1       5.989   5.984  -0.178  0.00  0.00    -0.005 A 
ATOM      6  C5  UNL d   1       5.280   5.842  -1.374  0.00  0.00    -0.074 A 
ATOM      7  C6  UNL d   1       5.969   5.971  -2.700  0.00  0.00     0.077 C 
ATOM      8  C7  UNL d   1       3.908   5.559  -1.325  0.00  0.00    -0.001 A 
ENDROOT
TORSDOF 0
ENDMDL
