MODEL 1
REMARK minimizedAffinity 14.3598471
REMARK minimizedRMSD -1
REMARK  0 active torsions:
REMARK  status: ('A' for Active; 'I' for Inactive)
ROOT
ATOM      1  C   UNL d   1       1.155  -0.372   2.632  0.00  0.00     0.077 C 
ATOM      2  C1  UNL d   1       0.142   0.325   1.774  0.00  0.00    -0.074 A 
ATOM      3  C2  UNL d   1      -1.078  -0.285   1.463  0.00  0.00    -0.005 A 
ATOM      4  C3  UNL d   1      -2.015   0.380   0.671  0.00  0.00     0.006 A 
ATOM      5  C4  UNL d   1      -1.742   1.658   0.183  0.00  0.00    -0.005 A 
ATOM      6  C5  UNL d   1      -0.528   2.284   0.484  0.00  0.00    -0.074 A 
ATOM      7  C6  UNL d   1      -0.222   3.661  -0.025  0.00  0.00     0.077 C 
ATOM      8  C7  UNL d   1       0.405   1.612   1.286  0.00  0.00    -0.001 A 
ENDROOT
TORSDOF 0
ENDMDL
