MODEL 1
REMARK minimizedAffinity 9.46788979
REMARK minimizedRMSD -1
REMARK  0 active torsions:
REMARK  status: ('A' for Active; 'I' for Inactive)
ROOT
ATOM      1  C   UNL d   1       3.132  -5.155  -0.172  0.00  0.00     0.078 C 
ATOM      2  C1  UNL d   1       2.576  -3.868  -0.703  0.00  0.00    -0.077 A 
ATOM      3  C2  UNL d   1       1.570  -3.864  -1.677  0.00  0.00    -0.001 A 
ATOM      4  C3  UNL d   1       1.069  -2.657  -2.169  0.00  0.00     0.003 A 
ATOM      5  C4  UNL d   1       1.569  -1.446  -1.694  0.00  0.00    -0.005 A 
ATOM      6  C5  UNL d   1       2.572  -1.440  -0.727  0.00  0.00     0.003 A 
ATOM      7  C6  UNL d   1       3.074  -2.645  -0.234  0.00  0.00    -0.001 A 
ENDROOT
TORSDOF 0
ENDMDL
