MODEL 1
REMARK minimizedAffinity 9.13965416
REMARK minimizedRMSD -1
REMARK  0 active torsions:
REMARK  status: ('A' for Active; 'I' for Inactive)
ROOT
ATOM      1  C   UNL d   1       0.473  -5.430  -3.970  0.00  0.00     0.078 C 
ATOM      2  C1  UNL d   1       1.358  -4.726  -2.985  0.00  0.00    -0.077 A 
ATOM      3  C2  UNL d   1       1.171  -3.370  -2.689  0.00  0.00    -0.001 A 
ATOM      4  C3  UNL d   1       2.008  -2.725  -1.777  0.00  0.00     0.003 A 
ATOM      5  C4  UNL d   1       3.038  -3.427  -1.155  0.00  0.00    -0.005 A 
ATOM      6  C5  UNL d   1       3.234  -4.775  -1.445  0.00  0.00     0.003 A 
ATOM      7  C6  UNL d   1       2.398  -5.422  -2.357  0.00  0.00    -0.001 A 
ENDROOT
TORSDOF 0
ENDMDL
