MODEL 1
REMARK minimizedAffinity 15.4244881
REMARK minimizedRMSD -1
REMARK  0 active torsions:
REMARK  status: ('A' for Active; 'I' for Inactive)
ROOT
ATOM      1  C   UNL d   1       0.777   4.522   0.743  0.00  0.00     0.078 C 
ATOM      2  C1  UNL d   1       1.808   3.445   0.583  0.00  0.00    -0.077 A 
ATOM      3  C2  UNL d   1       2.157   2.616   1.656  0.00  0.00    -0.001 A 
ATOM      4  C3  UNL d   1       3.126   1.624   1.495  0.00  0.00     0.003 A 
ATOM      5  C4  UNL d   1       3.753   1.452   0.263  0.00  0.00    -0.005 A 
ATOM      6  C5  UNL d   1       3.414   2.273  -0.810  0.00  0.00     0.003 A 
ATOM      7  C6  UNL d   1       2.445   3.266  -0.651  0.00  0.00    -0.001 A 
ENDROOT
TORSDOF 0
ENDMDL
