MODEL 1
REMARK minimizedAffinity 1.3809458
REMARK minimizedRMSD -1
REMARK  0 active torsions:
REMARK  status: ('A' for Active; 'I' for Inactive)
ROOT
ATOM      1  C   UNL d   1      -2.053  -4.510  -2.566  0.00  0.00     0.078 C 
ATOM      2  C1  UNL d   1      -2.652  -3.831  -3.761  0.00  0.00    -0.077 A 
ATOM      3  C2  UNL d   1      -2.874  -2.448  -3.769  0.00  0.00    -0.001 A 
ATOM      4  C3  UNL d   1      -3.442  -1.831  -4.884  0.00  0.00     0.003 A 
ATOM      5  C4  UNL d   1      -3.794  -2.589  -6.000  0.00  0.00    -0.005 A 
ATOM      6  C5  UNL d   1      -3.579  -3.965  -6.000  0.00  0.00     0.003 A 
ATOM      7  C6  UNL d   1      -3.011  -4.584  -4.885  0.00  0.00    -0.001 A 
ENDROOT
TORSDOF 0
ENDMDL
