MODEL 1
REMARK minimizedAffinity 6.63690805
REMARK minimizedRMSD -1
REMARK  0 active torsions:
REMARK  status: ('A' for Active; 'I' for Inactive)
ROOT
ATOM      1  C   UNL d   1       2.957  -3.769  -0.350  0.00  0.00     0.078 C 
ATOM      2  C1  UNL d   1       2.609  -2.371  -0.768  0.00  0.00    -0.077 A 
ATOM      3  C2  UNL d   1       1.789  -2.134  -1.878  0.00  0.00    -0.001 A 
ATOM      4  C3  UNL d   1       1.482  -0.828  -2.262  0.00  0.00     0.003 A 
ATOM      5  C4  UNL d   1       1.991   0.251  -1.543  0.00  0.00    -0.005 A 
ATOM      6  C5  UNL d   1       2.810   0.025  -0.438  0.00  0.00     0.003 A 
ATOM      7  C6  UNL d   1       3.118  -1.281  -0.053  0.00  0.00    -0.001 A 
ENDROOT
TORSDOF 0
ENDMDL
