MODEL 1
REMARK minimizedAffinity 8.10579014
REMARK minimizedRMSD -1
REMARK  0 active torsions:
REMARK  status: ('A' for Active; 'I' for Inactive)
ROOT
ATOM      1  C   UNL d   1       2.379   1.965  -2.621  0.00  0.00     0.078 C 
ATOM      2  C1  UNL d   1       2.565   0.777  -1.725  0.00  0.00    -0.077 A 
ATOM      3  C2  UNL d   1       1.817  -0.392  -1.913  0.00  0.00    -0.001 A 
ATOM      4  C3  UNL d   1       1.994  -1.486  -1.065  0.00  0.00     0.003 A 
ATOM      5  C4  UNL d   1       2.916  -1.423  -0.023  0.00  0.00    -0.005 A 
ATOM      6  C5  UNL d   1       3.663  -0.263   0.174  0.00  0.00     0.003 A 
ATOM      7  C6  UNL d   1       3.488   0.833  -0.673  0.00  0.00    -0.001 A 
ENDROOT
TORSDOF 0
ENDMDL
