MODEL 1
REMARK minimizedAffinity -1.3795718
REMARK minimizedRMSD -1
REMARK  0 active torsions:
REMARK  status: ('A' for Active; 'I' for Inactive)
ROOT
ATOM      1  C   UNL d   1       2.444   1.124  -0.778  0.00  0.00     0.078 C 
ATOM      2  C1  UNL d   1       2.566  -0.340  -1.080  0.00  0.00    -0.077 A 
ATOM      3  C2  UNL d   1       2.019  -0.884  -2.249  0.00  0.00    -0.001 A 
ATOM      4  C3  UNL d   1       2.132  -2.250  -2.512  0.00  0.00     0.003 A 
ATOM      5  C4  UNL d   1       2.790  -3.084  -1.611  0.00  0.00    -0.005 A 
ATOM      6  C5  UNL d   1       3.336  -2.552  -0.444  0.00  0.00     0.003 A 
ATOM      7  C6  UNL d   1       3.224  -1.187  -0.179  0.00  0.00    -0.001 A 
ENDROOT
TORSDOF 0
ENDMDL
