MODEL 1
REMARK minimizedAffinity 14.264719
REMARK minimizedRMSD -1
REMARK  0 active torsions:
REMARK  status: ('A' for Active; 'I' for Inactive)
ROOT
ATOM      1  C   UNL d   1      -4.628   2.614   3.895  0.00  0.00     0.078 C 
ATOM      2  C1  UNL d   1      -3.612   1.718   3.253  0.00  0.00    -0.077 A 
ATOM      3  C2  UNL d   1      -2.525   2.248   2.547  0.00  0.00    -0.001 A 
ATOM      4  C3  UNL d   1      -1.592   1.401   1.946  0.00  0.00     0.003 A 
ATOM      5  C4  UNL d   1      -1.738   0.019   2.043  0.00  0.00    -0.005 A 
ATOM      6  C5  UNL d   1      -2.818  -0.518   2.741  0.00  0.00     0.003 A 
ATOM      7  C6  UNL d   1      -3.751   0.327   3.343  0.00  0.00    -0.001 A 
ENDROOT
TORSDOF 0
ENDMDL
