MODEL 1
REMARK minimizedAffinity 6.80253887
REMARK minimizedRMSD -1
REMARK  0 active torsions:
REMARK  status: ('A' for Active; 'I' for Inactive)
ROOT
ATOM      1  C   UNL d   1      -1.975  -2.286  -5.417  0.00  0.00     0.078 C 
ATOM      2  C1  UNL d   1      -3.312  -2.930  -5.626  0.00  0.00    -0.077 A 
ATOM      3  C2  UNL d   1      -4.487  -2.169  -5.626  0.00  0.00    -0.001 A 
ATOM      4  C3  UNL d   1      -5.727  -2.784  -5.812  0.00  0.00     0.003 A 
ATOM      5  C4  UNL d   1      -5.803  -4.163  -5.999  0.00  0.00    -0.005 A 
ATOM      6  C5  UNL d   1      -4.639  -4.929  -5.999  0.00  0.00     0.003 A 
ATOM      7  C6  UNL d   1      -3.399  -4.316  -5.813  0.00  0.00    -0.001 A 
ENDROOT
TORSDOF 0
ENDMDL
