MODEL 1
REMARK minimizedAffinity 11.36518
REMARK minimizedRMSD -1
REMARK  0 active torsions:
REMARK  status: ('A' for Active; 'I' for Inactive)
ROOT
ATOM      1  C   UNL d   1       4.321  -5.935   0.440  0.00  0.00     0.078 C 
ATOM      2  C1  UNL d   1       2.844  -5.691   0.358  0.00  0.00    -0.077 A 
ATOM      3  C2  UNL d   1       2.137  -5.170   1.448  0.00  0.00    -0.001 A 
ATOM      4  C3  UNL d   1       0.761  -4.958   1.361  0.00  0.00     0.003 A 
ATOM      5  C4  UNL d   1       0.078  -5.265   0.185  0.00  0.00    -0.005 A 
ATOM      6  C5  UNL d   1       0.773  -5.787  -0.904  0.00  0.00     0.003 A 
ATOM      7  C6  UNL d   1       2.149  -5.999  -0.819  0.00  0.00    -0.001 A 
ENDROOT
TORSDOF 0
ENDMDL
