MODEL 1
REMARK minimizedAffinity 13.3031702
REMARK minimizedRMSD -1
REMARK  0 active torsions:
REMARK  status: ('A' for Active; 'I' for Inactive)
ROOT
ATOM      1  C   UNL d   1       0.576   5.999   1.542  0.00  0.00     0.078 C 
ATOM      2  C1  UNL d   1       1.071   5.295   0.314  0.00  0.00    -0.077 A 
ATOM      3  C2  UNL d   1       1.420   3.940   0.350  0.00  0.00    -0.001 A 
ATOM      4  C3  UNL d   1       1.888   3.301  -0.799  0.00  0.00     0.003 A 
ATOM      5  C4  UNL d   1       2.012   4.009  -1.993  0.00  0.00    -0.005 A 
ATOM      6  C5  UNL d   1       1.669   5.359  -2.038  0.00  0.00     0.003 A 
ATOM      7  C6  UNL d   1       1.201   6.000  -0.890  0.00  0.00    -0.001 A 
ENDROOT
TORSDOF 0
ENDMDL
