MODEL 1
REMARK minimizedAffinity 5.4849143
REMARK minimizedRMSD -1
REMARK  0 active torsions:
REMARK  status: ('A' for Active; 'I' for Inactive)
ROOT
ATOM      1  C   UNL d   1       0.677   2.277  -4.126  0.00  0.00     0.078 C 
ATOM      2  C1  UNL d   1      -0.597   2.941  -4.555  0.00  0.00    -0.077 A 
ATOM      3  C2  UNL d   1      -1.055   4.101  -3.919  0.00  0.00    -0.001 A 
ATOM      4  C3  UNL d   1      -2.248   4.703  -4.322  0.00  0.00     0.003 A 
ATOM      5  C4  UNL d   1      -2.993   4.152  -5.362  0.00  0.00    -0.005 A 
ATOM      6  C5  UNL d   1      -2.547   2.996  -6.000  0.00  0.00     0.003 A 
ATOM      7  C6  UNL d   1      -1.354   2.392  -5.598  0.00  0.00    -0.001 A 
ENDROOT
TORSDOF 0
ENDMDL
