MODEL 1
REMARK minimizedAffinity 7.89919615
REMARK minimizedRMSD -1
REMARK  0 active torsions:
REMARK  status: ('A' for Active; 'I' for Inactive)
ROOT
ATOM      1  C   UNL d   1       3.130  -4.229  -0.138  0.00  0.00     0.078 C 
ATOM      2  C1  UNL d   1       2.464  -3.127  -0.907  0.00  0.00    -0.077 A 
ATOM      3  C2  UNL d   1       1.919  -3.360  -2.176  0.00  0.00    -0.001 A 
ATOM      4  C3  UNL d   1       1.311  -2.323  -2.885  0.00  0.00     0.003 A 
ATOM      5  C4  UNL d   1       1.244  -1.045  -2.334  0.00  0.00    -0.005 A 
ATOM      6  C5  UNL d   1       1.785  -0.802  -1.073  0.00  0.00     0.003 A 
ATOM      7  C6  UNL d   1       2.394  -1.838  -0.363  0.00  0.00    -0.001 A 
ENDROOT
TORSDOF 0
ENDMDL
