MODEL 1
REMARK minimizedAffinity -0.55215019
REMARK minimizedRMSD -1
REMARK  0 active torsions:
REMARK  status: ('A' for Active; 'I' for Inactive)
ROOT
ATOM      1  C   UNL d   1      -5.943  -1.864  -5.992  0.00  0.00     0.078 C 
ATOM      2  C1  UNL d   1      -4.934  -2.973  -5.983  0.00  0.00    -0.077 A 
ATOM      3  C2  UNL d   1      -3.561  -2.698  -5.973  0.00  0.00    -0.001 A 
ATOM      4  C3  UNL d   1      -2.632  -3.740  -5.974  0.00  0.00     0.003 A 
ATOM      5  C4  UNL d   1      -3.066  -5.064  -5.987  0.00  0.00    -0.005 A 
ATOM      6  C5  UNL d   1      -4.430  -5.347  -6.000  0.00  0.00     0.003 A 
ATOM      7  C6  UNL d   1      -5.360  -4.307  -5.999  0.00  0.00    -0.001 A 
ENDROOT
TORSDOF 0
ENDMDL
