MODEL 1
REMARK minimizedAffinity 2.2489717
REMARK minimizedRMSD -1
REMARK  0 active torsions:
REMARK  status: ('A' for Active; 'I' for Inactive)
ROOT
ATOM      1  C   UNL d   1       1.430  -1.354  -1.735  0.00  0.00     0.078 C 
ATOM      2  C1  UNL d   1       1.995  -2.743  -1.761  0.00  0.00    -0.077 A 
ATOM      3  C2  UNL d   1       2.998  -3.131  -0.864  0.00  0.00    -0.001 A 
ATOM      4  C3  UNL d   1       3.520  -4.424  -0.906  0.00  0.00     0.003 A 
ATOM      5  C4  UNL d   1       3.047  -5.340  -1.843  0.00  0.00    -0.005 A 
ATOM      6  C5  UNL d   1       2.051  -4.962  -2.741  0.00  0.00     0.003 A 
ATOM      7  C6  UNL d   1       1.527  -3.669  -2.701  0.00  0.00    -0.001 A 
ENDROOT
TORSDOF 0
ENDMDL
