MODEL 1
REMARK minimizedAffinity 3.8855803
REMARK minimizedRMSD -1
REMARK  0 active torsions:
REMARK  status: ('A' for Active; 'I' for Inactive)
ROOT
ATOM      1  C   UNL d   1       1.338   4.570  -0.395  0.00  0.00     0.078 C 
ATOM      2  C1  UNL d   1       2.533   3.744  -0.022  0.00  0.00    -0.077 A 
ATOM      3  C2  UNL d   1       2.517   2.923   1.112  0.00  0.00    -0.001 A 
ATOM      4  C3  UNL d   1       3.640   2.168   1.453  0.00  0.00     0.003 A 
ATOM      5  C4  UNL d   1       4.788   2.226   0.665  0.00  0.00    -0.005 A 
ATOM      6  C5  UNL d   1       4.814   3.042  -0.464  0.00  0.00     0.003 A 
ATOM      7  C6  UNL d   1       3.692   3.798  -0.806  0.00  0.00    -0.001 A 
ENDROOT
TORSDOF 0
ENDMDL
