MODEL 1
REMARK minimizedAffinity 15.4933777
REMARK minimizedRMSD -1
REMARK  0 active torsions:
REMARK  status: ('A' for Active; 'I' for Inactive)
ROOT
ATOM      1  C   UNL d   1      -2.770   0.387   1.960  0.00  0.00     0.078 C 
ATOM      2  C1  UNL d   1      -3.893  -0.555   2.275  0.00  0.00    -0.077 A 
ATOM      3  C2  UNL d   1      -4.774  -0.988   1.276  0.00  0.00    -0.001 A 
ATOM      4  C3  UNL d   1      -5.821  -1.858   1.586  0.00  0.00     0.003 A 
ATOM      5  C4  UNL d   1      -5.998  -2.301   2.895  0.00  0.00    -0.005 A 
ATOM      6  C5  UNL d   1      -5.128  -1.874   3.896  0.00  0.00     0.003 A 
ATOM      7  C6  UNL d   1      -4.080  -1.005   3.589  0.00  0.00    -0.001 A 
ENDROOT
TORSDOF 0
ENDMDL
