MODEL 1
REMARK minimizedAffinity 14.1566601
REMARK minimizedRMSD -1
REMARK  0 active torsions:
REMARK  status: ('A' for Active; 'I' for Inactive)
ROOT
ATOM      1  C   UNL d   1       0.937   3.861  -5.978  0.00  0.00     0.020 A 
ATOM      2  C1  UNL d   1       1.221   2.497  -5.934  0.00  0.00     0.020 A 
ATOM      3  C2  UNL d   1       0.178   1.568  -5.895  0.00  0.00     0.034 A 
ATOM      4  C3  UNL d   1      -1.152   2.002  -5.901  0.00  0.00     0.017 A 
ATOM      5  C4  UNL d   1      -1.436   3.372  -5.945  0.00  0.00     0.017 A 
ATOM      6  C5  UNL d   1      -0.388   4.298  -5.983  0.00  0.00     0.034 A 
ATOM      7 Cl   UNL d   1      -3.052   3.984  -5.954  0.00  0.00    -0.070 Cl
ATOM      8 Cl1  UNL d   1      -2.391   0.799  -5.852  0.00  0.00    -0.070 Cl
ENDROOT
TORSDOF 0
ENDMDL
