MODEL 1
REMARK minimizedAffinity 9.58872223
REMARK minimizedRMSD -1
REMARK  0 active torsions:
REMARK  status: ('A' for Active; 'I' for Inactive)
ROOT
ATOM      1  C   UNL d   1       3.288   2.001   2.168  0.00  0.00     0.020 A 
ATOM      2  C1  UNL d   1       4.021   1.088   1.411  0.00  0.00     0.020 A 
ATOM      3  C2  UNL d   1       3.394  -0.043   0.883  0.00  0.00     0.034 A 
ATOM      4  C3  UNL d   1       2.031  -0.264   1.112  0.00  0.00     0.017 A 
ATOM      5  C4  UNL d   1       1.297   0.653   1.872  0.00  0.00     0.017 A 
ATOM      6  C5  UNL d   1       1.929   1.784   2.398  0.00  0.00     0.034 A 
ATOM      7 Cl   UNL d   1      -0.389   0.449   2.196  0.00  0.00    -0.070 Cl
ATOM      8 Cl1  UNL d   1       1.322  -1.684   0.428  0.00  0.00    -0.070 Cl
ENDROOT
TORSDOF 0
ENDMDL
