MODEL 1
REMARK minimizedAffinity 6.93075418
REMARK minimizedRMSD -1
REMARK  0 active torsions:
REMARK  status: ('A' for Active; 'I' for Inactive)
ROOT
ATOM      1  C   UNL d   1      -3.397  -2.299  -2.643  0.00  0.00     0.020 A 
ATOM      2  C1  UNL d   1      -2.098  -2.783  -2.494  0.00  0.00     0.020 A 
ATOM      3  C2  UNL d   1      -1.784  -3.625  -1.426  0.00  0.00     0.034 A 
ATOM      4  C3  UNL d   1      -2.771  -3.988  -0.502  0.00  0.00     0.017 A 
ATOM      5  C4  UNL d   1      -4.075  -3.502  -0.652  0.00  0.00     0.017 A 
ATOM      6  C5  UNL d   1      -4.384  -2.658  -1.724  0.00  0.00     0.034 A 
ATOM      7 Cl   UNL d   1      -5.346  -3.905   0.448  0.00  0.00    -0.070 Cl
ATOM      8 Cl1  UNL d   1      -2.313  -5.033   0.795  0.00  0.00    -0.070 Cl
ENDROOT
TORSDOF 0
ENDMDL
