MODEL 1
REMARK minimizedAffinity 0.0384202078
REMARK minimizedRMSD -1
REMARK  0 active torsions:
REMARK  status: ('A' for Active; 'I' for Inactive)
ROOT
ATOM      1  C   UNL d   1       0.112  -2.682   1.781  0.00  0.00     0.020 A 
ATOM      2  C1  UNL d   1      -1.239  -2.542   1.465  0.00  0.00     0.020 A 
ATOM      3  C2  UNL d   1      -1.654  -2.596   0.133  0.00  0.00     0.034 A 
ATOM      4  C3  UNL d   1      -0.717  -2.791  -0.889  0.00  0.00     0.017 A 
ATOM      5  C4  UNL d   1       0.638  -2.932  -0.571  0.00  0.00     0.017 A 
ATOM      6  C5  UNL d   1       1.049  -2.877   0.765  0.00  0.00     0.034 A 
ATOM      7 Cl   UNL d   1       1.853  -3.176  -1.777  0.00  0.00    -0.070 Cl
ATOM      8 Cl1  UNL d   1      -1.301  -2.849  -2.514  0.00  0.00    -0.070 Cl
ENDROOT
TORSDOF 0
ENDMDL
