MODEL 1
REMARK minimizedAffinity 4.90588808
REMARK minimizedRMSD -1
REMARK  0 active torsions:
REMARK  status: ('A' for Active; 'I' for Inactive)
ROOT
ATOM      1  C   UNL d   1      -5.529  -1.503   2.251  0.00  0.00     0.020 A 
ATOM      2  C1  UNL d   1      -5.998  -2.151   3.393  0.00  0.00     0.020 A 
ATOM      3  C2  UNL d   1      -5.116  -2.466   4.429  0.00  0.00     0.034 A 
ATOM      4  C3  UNL d   1      -3.761  -2.133   4.325  0.00  0.00     0.017 A 
ATOM      5  C4  UNL d   1      -3.291  -1.483   3.179  0.00  0.00     0.017 A 
ATOM      6  C5  UNL d   1      -4.178  -1.170   2.144  0.00  0.00     0.034 A 
ATOM      7 Cl   UNL d   1      -1.632  -1.040   2.978  0.00  0.00    -0.070 Cl
ATOM      8 Cl1  UNL d   1      -2.727  -2.553   5.645  0.00  0.00    -0.070 Cl
ENDROOT
TORSDOF 0
ENDMDL
