MODEL 1
REMARK minimizedAffinity 3.75247693
REMARK minimizedRMSD -1
REMARK  0 active torsions:
REMARK  status: ('A' for Active; 'I' for Inactive)
ROOT
ATOM      1  C   UNL d   1       5.111   5.970   5.191  0.00  0.00     0.020 A 
ATOM      2  C1  UNL d   1       3.717   5.952   5.241  0.00  0.00     0.020 A 
ATOM      3  C2  UNL d   1       2.977   5.940   4.057  0.00  0.00     0.034 A 
ATOM      4  C3  UNL d   1       3.630   5.946   2.818  0.00  0.00     0.017 A 
ATOM      5  C4  UNL d   1       5.028   5.963   2.770  0.00  0.00     0.017 A 
ATOM      6  C5  UNL d   1       5.764   5.976   3.959  0.00  0.00     0.034 A 
ATOM      7 Cl   UNL d   1       5.904   5.971   1.280  0.00  0.00    -0.070 Cl
ATOM      8 Cl1  UNL d   1       2.651   5.929   1.394  0.00  0.00    -0.070 Cl
ENDROOT
TORSDOF 0
ENDMDL
