MODEL 1
REMARK minimizedAffinity 15.2873049
REMARK minimizedRMSD -1
REMARK  0 active torsions:
REMARK  status: ('A' for Active; 'I' for Inactive)
ROOT
ATOM      1  C   UNL d   1       3.201   5.692   5.675  0.00  0.00     0.020 A 
ATOM      2  C1  UNL d   1       2.808   4.393   5.997  0.00  0.00     0.020 A 
ATOM      3  C2  UNL d   1       2.806   3.401   5.014  0.00  0.00     0.034 A 
ATOM      4  C3  UNL d   1       3.196   3.706   3.705  0.00  0.00     0.017 A 
ATOM      5  C4  UNL d   1       3.590   5.009   3.383  0.00  0.00     0.017 A 
ATOM      6  C5  UNL d   1       3.591   5.999   4.371  0.00  0.00     0.034 A 
ATOM      7 Cl   UNL d   1       4.086   5.462   1.790  0.00  0.00    -0.070 Cl
ATOM      8 Cl1  UNL d   1       3.169   2.429   2.541  0.00  0.00    -0.070 Cl
ENDROOT
TORSDOF 0
ENDMDL
