MODEL 1
REMARK minimizedAffinity 9.53277302
REMARK minimizedRMSD -1
REMARK  0 active torsions:
REMARK  status: ('A' for Active; 'I' for Inactive)
ROOT
ATOM      1  C   UNL d   1       5.548   5.847   4.252  0.00  0.00     0.020 A 
ATOM      2  C1  UNL d   1       5.056   5.999   5.548  0.00  0.00     0.020 A 
ATOM      3  C2  UNL d   1       3.927   5.285   5.954  0.00  0.00     0.034 A 
ATOM      4  C3  UNL d   1       3.286   4.416   5.064  0.00  0.00     0.017 A 
ATOM      5  C4  UNL d   1       3.780   4.264   3.763  0.00  0.00     0.017 A 
ATOM      6  C5  UNL d   1       4.911   4.982   3.362  0.00  0.00     0.034 A 
ATOM      7 Cl   UNL d   1       3.043   3.211   2.608  0.00  0.00    -0.070 Cl
ATOM      8 Cl1  UNL d   1       1.894   3.565   5.634  0.00  0.00    -0.070 Cl
ENDROOT
TORSDOF 0
ENDMDL
