MODEL 1
REMARK minimizedAffinity 9.65703964
REMARK minimizedRMSD -1
REMARK  0 active torsions:
REMARK  status: ('A' for Active; 'I' for Inactive)
ROOT
ATOM      1  C   UNL d   1       0.292   1.890  -4.881  0.00  0.00     0.020 A 
ATOM      2  C1  UNL d   1       0.352   3.042  -5.666  0.00  0.00     0.020 A 
ATOM      3  C2  UNL d   1      -0.821   3.722  -5.999  0.00  0.00     0.034 A 
ATOM      4  C3  UNL d   1      -2.060   3.251  -5.548  0.00  0.00     0.017 A 
ATOM      5  C4  UNL d   1      -2.119   2.096  -4.760  0.00  0.00     0.017 A 
ATOM      6  C5  UNL d   1      -0.941   1.419  -4.430  0.00  0.00     0.034 A 
ATOM      7 Cl   UNL d   1      -3.610   1.455  -4.166  0.00  0.00    -0.070 Cl
ATOM      8 Cl1  UNL d   1      -3.470   4.142  -5.998  0.00  0.00    -0.070 Cl
ENDROOT
TORSDOF 0
ENDMDL
