MODEL 1
REMARK minimizedAffinity 0.90298301
REMARK minimizedRMSD -1
REMARK  0 active torsions:
REMARK  status: ('A' for Active; 'I' for Inactive)
ROOT
ATOM      1  C   UNL d   1       2.217  -3.702  -0.250  0.00  0.00     0.020 A 
ATOM      2  C1  UNL d   1       1.417  -3.410   0.854  0.00  0.00     0.020 A 
ATOM      3  C2  UNL d   1       1.283  -2.090   1.290  0.00  0.00     0.034 A 
ATOM      4  C3  UNL d   1       1.951  -1.057   0.622  0.00  0.00     0.017 A 
ATOM      5  C4  UNL d   1       2.754  -1.351  -0.486  0.00  0.00     0.017 A 
ATOM      6  C5  UNL d   1       2.884  -2.675  -0.919  0.00  0.00     0.034 A 
ATOM      7 Cl   UNL d   1       3.609  -0.130  -1.361  0.00  0.00    -0.070 Cl
ATOM      8 Cl1  UNL d   1       1.741   0.552   1.216  0.00  0.00    -0.070 Cl
ENDROOT
TORSDOF 0
ENDMDL
