MODEL 1
REMARK minimizedAffinity 6.62020159
REMARK minimizedRMSD -1
REMARK  0 active torsions:
REMARK  status: ('A' for Active; 'I' for Inactive)
ROOT
ATOM      1  C   UNL d   1       1.068   2.633  -5.438  0.00  0.00     0.020 A 
ATOM      2  C1  UNL d   1       1.116   2.208  -4.111  0.00  0.00     0.020 A 
ATOM      3  C2  UNL d   1      -0.050   2.185  -3.343  0.00  0.00     0.034 A 
ATOM      4  C3  UNL d   1      -1.269   2.588  -3.901  0.00  0.00     0.017 A 
ATOM      5  C4  UNL d   1      -1.316   3.014  -5.233  0.00  0.00     0.017 A 
ATOM      6  C5  UNL d   1      -0.145   3.035  -5.998  0.00  0.00     0.034 A 
ATOM      7 Cl   UNL d   1      -2.782   3.526  -5.992  0.00  0.00    -0.070 Cl
ATOM      8 Cl1  UNL d   1      -2.671   2.535  -2.893  0.00  0.00    -0.070 Cl
ENDROOT
TORSDOF 0
ENDMDL
