MODEL 1
REMARK minimizedAffinity 6.3496151
REMARK minimizedRMSD -1
REMARK  0 active torsions:
REMARK  status: ('A' for Active; 'I' for Inactive)
ROOT
ATOM      1  C   UNL d   1       1.918   2.230  -5.424  0.00  0.00     0.020 A 
ATOM      2  C1  UNL d   1       1.848   1.788  -4.104  0.00  0.00     0.020 A 
ATOM      3  C2  UNL d   1       0.700   2.029  -3.347  0.00  0.00     0.034 A 
ATOM      4  C3  UNL d   1      -0.382   2.715  -3.909  0.00  0.00     0.017 A 
ATOM      5  C4  UNL d   1      -0.311   3.159  -5.234  0.00  0.00     0.017 A 
ATOM      6  C5  UNL d   1       0.841   2.914  -5.988  0.00  0.00     0.034 A 
ATOM      7 Cl   UNL d   1      -1.607   4.012  -5.997  0.00  0.00    -0.070 Cl
ATOM      8 Cl1  UNL d   1      -1.771   2.979  -2.914  0.00  0.00    -0.070 Cl
ENDROOT
TORSDOF 0
ENDMDL
