MODEL 1
REMARK minimizedAffinity -0.687249243
REMARK minimizedRMSD -1
REMARK  0 active torsions:
REMARK  status: ('A' for Active; 'I' for Inactive)
ROOT
ATOM      1  C   UNL d   1      -2.119   1.774   2.351  0.00  0.00     0.020 A 
ATOM      2  C1  UNL d   1      -2.648   2.669   1.423  0.00  0.00     0.020 A 
ATOM      3  C2  UNL d   1      -3.825   2.353   0.741  0.00  0.00     0.034 A 
ATOM      4  C3  UNL d   1      -4.477   1.139   0.986  0.00  0.00     0.017 A 
ATOM      5  C4  UNL d   1      -3.944   0.241   1.919  0.00  0.00     0.017 A 
ATOM      6  C5  UNL d   1      -2.765   0.562   2.598  0.00  0.00     0.034 A 
ATOM      7 Cl   UNL d   1      -4.691  -1.277   2.275  0.00  0.00    -0.070 Cl
ATOM      8 Cl1  UNL d   1      -5.928   0.813   0.108  0.00  0.00    -0.070 Cl
ENDROOT
TORSDOF 0
ENDMDL
