MODEL 1
REMARK minimizedAffinity 1.15611458
REMARK minimizedRMSD -1
REMARK  0 active torsions:
REMARK  status: ('A' for Active; 'I' for Inactive)
ROOT
ATOM      1  C   UNL d   1      -3.902   2.095   1.430  0.00  0.00     0.020 A 
ATOM      2  C1  UNL d   1      -4.448   0.833   1.195  0.00  0.00     0.020 A 
ATOM      3  C2  UNL d   1      -3.637  -0.302   1.261  0.00  0.00     0.034 A 
ATOM      4  C3  UNL d   1      -2.276  -0.178   1.564  0.00  0.00     0.017 A 
ATOM      5  C4  UNL d   1      -1.729   1.089   1.800  0.00  0.00     0.017 A 
ATOM      6  C5  UNL d   1      -2.546   2.222   1.732  0.00  0.00     0.034 A 
ATOM      7 Cl   UNL d   1      -0.059   1.321   2.178  0.00  0.00    -0.070 Cl
ATOM      8 Cl1  UNL d   1      -1.333  -1.624   1.629  0.00  0.00    -0.070 Cl
ENDROOT
TORSDOF 0
ENDMDL
