MODEL 1
REMARK minimizedAffinity 6.53945589
REMARK minimizedRMSD -1
REMARK  0 active torsions:
REMARK  status: ('A' for Active; 'I' for Inactive)
ROOT
ATOM      1  C   UNL d   1       0.180   2.397  -5.983  0.00  0.00     0.020 A 
ATOM      2  C1  UNL d   1       0.997   2.522  -4.860  0.00  0.00     0.020 A 
ATOM      3  C2  UNL d   1       0.556   3.250  -3.753  0.00  0.00     0.034 A 
ATOM      4  C3  UNL d   1      -0.706   3.856  -3.766  0.00  0.00     0.017 A 
ATOM      5  C4  UNL d   1      -1.525   3.730  -4.894  0.00  0.00     0.017 A 
ATOM      6  C5  UNL d   1      -1.079   2.999  -5.999  0.00  0.00     0.034 A 
ATOM      7 Cl   UNL d   1      -3.094   4.449  -4.984  0.00  0.00    -0.070 Cl
ATOM      8 Cl1  UNL d   1      -1.187   4.741  -2.362  0.00  0.00    -0.070 Cl
ENDROOT
TORSDOF 0
ENDMDL
