MODEL 1
REMARK minimizedAffinity -2.05019069
REMARK minimizedRMSD -1
REMARK  0 active torsions:
REMARK  status: ('A' for Active; 'I' for Inactive)
ROOT
ATOM      1  C   UNL d   1      -0.829   1.617  -0.578  0.00  0.00     0.020 A 
ATOM      2  C1  UNL d   1      -1.894   2.147  -1.305  0.00  0.00     0.020 A 
ATOM      3  C2  UNL d   1      -3.191   2.084  -0.791  0.00  0.00     0.034 A 
ATOM      4  C3  UNL d   1      -3.426   1.490   0.454  0.00  0.00     0.017 A 
ATOM      5  C4  UNL d   1      -2.357   0.958   1.183  0.00  0.00     0.017 A 
ATOM      6  C5  UNL d   1      -1.060   1.024   0.664  0.00  0.00     0.034 A 
ATOM      7 Cl   UNL d   1      -2.569   0.209   2.727  0.00  0.00    -0.070 Cl
ATOM      8 Cl1  UNL d   1      -5.055   1.447   1.029  0.00  0.00    -0.070 Cl
ENDROOT
TORSDOF 0
ENDMDL
