MODEL 1
REMARK minimizedAffinity 4.11528444
REMARK minimizedRMSD -1
REMARK  0 active torsions:
REMARK  status: ('A' for Active; 'I' for Inactive)
ROOT
ATOM      1  C   UNL d   1      -1.727   3.141  -5.804  0.00  0.00     0.020 A 
ATOM      2  C1  UNL d   1      -1.528   4.512  -5.960  0.00  0.00     0.020 A 
ATOM      3  C2  UNL d   1      -2.623   5.377  -6.000  0.00  0.00     0.034 A 
ATOM      4  C3  UNL d   1      -3.923   4.872  -5.883  0.00  0.00     0.017 A 
ATOM      5  C4  UNL d   1      -4.123   3.496  -5.726  0.00  0.00     0.017 A 
ATOM      6  C5  UNL d   1      -3.022   2.634  -5.687  0.00  0.00     0.034 A 
ATOM      7 Cl   UNL d   1      -5.697   2.799  -5.575  0.00  0.00    -0.070 Cl
ATOM      8 Cl1  UNL d   1      -5.231   6.000  -5.940  0.00  0.00    -0.070 Cl
ENDROOT
TORSDOF 0
ENDMDL
