MODEL 1
REMARK minimizedAffinity 8.1671133
REMARK minimizedRMSD -1
REMARK  1 active torsions:
REMARK  status: ('A' for Active; 'I' for Inactive)
REMARK    1  A    between atoms: C1_2  and  C2_3 
ROOT
ATOM      1  C2  UNL d   1       1.112   1.456  -3.627  0.00  0.00    -0.081 A 
ATOM      2  C3  UNL d   1       2.365   1.884  -3.173  0.00  0.00     0.006 A 
ATOM      3  C4  UNL d   1       2.991   1.237  -2.105  0.00  0.00     0.002 A 
ATOM      4  C5  UNL d   1       2.379   0.145  -1.479  0.00  0.00    -0.080 A 
ATOM      5  C6  UNL d   1       3.054  -0.578  -0.352  0.00  0.00     0.076 C 
ATOM      6  C7  UNL d   1       1.119  -0.272  -1.921  0.00  0.00     0.002 A 
ATOM      7  C8  UNL d   1       0.492   0.376  -2.988  0.00  0.00     0.006 A 
ENDROOT
BRANCH   1   8
ATOM      8  C1  UNL d   1       0.463   2.111  -4.819  0.00  0.00     0.054 C 
ATOM      9  C   UNL d   1       0.380   1.154  -5.999  0.00  0.00     0.018 C 
ENDBRANCH   1   8
TORSDOF 1
ENDMDL
