MODEL 1
REMARK minimizedAffinity 13.4087582
REMARK minimizedRMSD -1
REMARK  1 active torsions:
REMARK  status: ('A' for Active; 'I' for Inactive)
REMARK    1  A    between atoms: C1_2  and  C2_3 
ROOT
ATOM      1  C2  UNL d   1      -3.049   4.367   4.171  0.00  0.00    -0.081 A 
ATOM      2  C3  UNL d   1      -2.132   3.431   4.666  0.00  0.00     0.006 A 
ATOM      3  C4  UNL d   1      -2.202   2.093   4.270  0.00  0.00     0.002 A 
ATOM      4  C5  UNL d   1      -3.184   1.670   3.368  0.00  0.00    -0.080 A 
ATOM      5  C6  UNL d   1      -3.252   0.243   2.912  0.00  0.00     0.076 C 
ATOM      6  C7  UNL d   1      -4.111   2.602   2.887  0.00  0.00     0.002 A 
ATOM      7  C8  UNL d   1      -4.042   3.939   3.283  0.00  0.00     0.006 A 
ENDROOT
BRANCH   1   8
ATOM      8  C1  UNL d   1      -2.936   5.822   4.546  0.00  0.00     0.054 C 
ATOM      9  C   UNL d   1      -2.459   5.989   5.982  0.00  0.00     0.018 C 
ENDBRANCH   1   8
TORSDOF 1
ENDMDL
