MODEL 1
REMARK minimizedAffinity 17.6186104
REMARK minimizedRMSD -1
REMARK  1 active torsions:
REMARK  status: ('A' for Active; 'I' for Inactive)
REMARK    1  A    between atoms: C1_2  and  C2_3 
ROOT
ATOM      1  C2  UNL d   1      -3.637   2.610   3.357  0.00  0.00    -0.081 A 
ATOM      2  C3  UNL d   1      -2.369   3.052   3.754  0.00  0.00     0.006 A 
ATOM      3  C4  UNL d   1      -2.236   4.156   4.599  0.00  0.00     0.002 A 
ATOM      4  C5  UNL d   1      -3.368   4.832   5.068  0.00  0.00    -0.080 A 
ATOM      5  C6  UNL d   1      -3.241   6.000   6.000  0.00  0.00     0.076 C 
ATOM      6  C7  UNL d   1      -4.635   4.401   4.658  0.00  0.00     0.002 A 
ATOM      7  C8  UNL d   1      -4.768   3.297   3.812  0.00  0.00     0.006 A 
ENDROOT
BRANCH   1   8
ATOM      8  C1  UNL d   1      -3.786   1.381   2.498  0.00  0.00     0.054 C 
ATOM      9  C   UNL d   1      -2.599   0.443   2.664  0.00  0.00     0.018 C 
ENDBRANCH   1   8
TORSDOF 1
ENDMDL
