MODEL 1
REMARK minimizedAffinity 3.65838003
REMARK minimizedRMSD -1
REMARK  1 active torsions:
REMARK  status: ('A' for Active; 'I' for Inactive)
REMARK    1  A    between atoms: C1_2  and  C2_3 
ROOT
ATOM      1  C2  UNL d   1       2.017   2.158  -2.270  0.00  0.00    -0.081 A 
ATOM      2  C3  UNL d   1       2.717   1.103  -1.671  0.00  0.00     0.006 A 
ATOM      3  C4  UNL d   1       2.105  -0.140  -1.489  0.00  0.00     0.002 A 
ATOM      4  C5  UNL d   1       0.788  -0.351  -1.908  0.00  0.00    -0.080 A 
ATOM      5  C6  UNL d   1       0.130  -1.689  -1.746  0.00  0.00     0.076 C 
ATOM      6  C7  UNL d   1       0.082   0.708  -2.490  0.00  0.00     0.002 A 
ATOM      7  C8  UNL d   1       0.693   1.951  -2.672  0.00  0.00     0.006 A 
ENDROOT
BRANCH   1   8
ATOM      8  C1  UNL d   1       2.694   3.479  -2.526  0.00  0.00     0.054 C 
ATOM      9  C   UNL d   1       2.283   4.522  -1.496  0.00  0.00     0.018 C 
ENDBRANCH   1   8
TORSDOF 1
ENDMDL
