MODEL 1
REMARK minimizedAffinity 15.7811403
REMARK minimizedRMSD -1
REMARK  1 active torsions:
REMARK  status: ('A' for Active; 'I' for Inactive)
REMARK    1  A    between atoms: C1_2  and  C2_3 
ROOT
ATOM      1  C2  UNL d   1      -3.883   0.114   3.833  0.00  0.00    -0.081 A 
ATOM      2  C3  UNL d   1      -2.820   1.020   3.729  0.00  0.00     0.006 A 
ATOM      3  C4  UNL d   1      -2.970   2.209   3.012  0.00  0.00     0.002 A 
ATOM      4  C5  UNL d   1      -4.187   2.516   2.394  0.00  0.00    -0.080 A 
ATOM      5  C6  UNL d   1      -4.371   3.803   1.646  0.00  0.00     0.076 C 
ATOM      6  C7  UNL d   1      -5.244   1.604   2.483  0.00  0.00     0.002 A 
ATOM      7  C8  UNL d   1      -5.094   0.414   3.200  0.00  0.00     0.006 A 
ENDROOT
BRANCH   1   8
ATOM      8  C1  UNL d   1      -3.744  -1.138   4.660  0.00  0.00     0.054 C 
ATOM      9  C   UNL d   1      -4.454  -0.998   6.000  0.00  0.00     0.018 C 
ENDBRANCH   1   8
TORSDOF 1
ENDMDL
