MODEL 1
REMARK minimizedAffinity 17.923605
REMARK minimizedRMSD -1
REMARK  1 active torsions:
REMARK  status: ('A' for Active; 'I' for Inactive)
REMARK    1  A    between atoms: C1_2  and  C2_3 
ROOT
ATOM      1  C2  UNL d   1      -0.543   0.793  -1.579  0.00  0.00    -0.081 A 
ATOM      2  C3  UNL d   1       0.353  -0.202  -1.168  0.00  0.00     0.006 A 
ATOM      3  C4  UNL d   1       1.672  -0.201  -1.628  0.00  0.00     0.002 A 
ATOM      4  C5  UNL d   1       2.119   0.797  -2.500  0.00  0.00    -0.080 A 
ATOM      5  C6  UNL d   1       3.540   0.826  -2.978  0.00  0.00     0.076 C 
ATOM      6  C7  UNL d   1       1.219   1.780  -2.926  0.00  0.00     0.002 A 
ATOM      7  C8  UNL d   1      -0.100   1.780  -2.466  0.00  0.00     0.006 A 
ENDROOT
BRANCH   1   8
ATOM      8  C1  UNL d   1      -1.947   0.832  -1.034  0.00  0.00     0.054 C 
ATOM      9  C   UNL d   1      -2.155  -0.230   0.037  0.00  0.00     0.018 C 
ENDBRANCH   1   8
TORSDOF 1
ENDMDL
