MODEL 1
REMARK minimizedAffinity 3.85499883
REMARK minimizedRMSD -1
REMARK  1 active torsions:
REMARK  status: ('A' for Active; 'I' for Inactive)
REMARK    1  A    between atoms: C1_2  and  C2_3 
ROOT
ATOM      1  C2  UNL d   1       5.080   4.963   3.393  0.00  0.00    -0.081 A 
ATOM      2  C3  UNL d   1       4.113   4.309   2.619  0.00  0.00     0.006 A 
ATOM      3  C4  UNL d   1       4.075   4.490   1.234  0.00  0.00     0.002 A 
ATOM      4  C5  UNL d   1       5.005   5.320   0.600  0.00  0.00    -0.080 A 
ATOM      5  C6  UNL d   1       4.994   5.499  -0.889  0.00  0.00     0.076 C 
ATOM      6  C7  UNL d   1       5.960   5.987   1.376  0.00  0.00     0.002 A 
ATOM      7  C8  UNL d   1       5.999   5.808   2.761  0.00  0.00     0.006 A 
ENDROOT
BRANCH   1   8
ATOM      8  C1  UNL d   1       5.165   4.720   4.879  0.00  0.00     0.054 C 
ATOM      9  C   UNL d   1       5.926   5.836   5.579  0.00  0.00     0.018 C 
ENDBRANCH   1   8
TORSDOF 1
ENDMDL
