MODEL 1
REMARK minimizedAffinity 5.68737984
REMARK minimizedRMSD -1
REMARK  1 active torsions:
REMARK  status: ('A' for Active; 'I' for Inactive)
REMARK    1  A    between atoms: C1_2  and  C2_3 
ROOT
ATOM      1  C2  UNL d   1       1.380   1.764  -3.112  0.00  0.00    -0.081 A 
ATOM      2  C3  UNL d   1       1.691   3.094  -2.803  0.00  0.00     0.006 A 
ATOM      3  C4  UNL d   1       2.357   3.899  -3.730  0.00  0.00     0.002 A 
ATOM      4  C5  UNL d   1       2.715   3.391  -4.983  0.00  0.00    -0.080 A 
ATOM      5  C6  UNL d   1       3.403   4.254  -5.999  0.00  0.00     0.076 C 
ATOM      6  C7  UNL d   1       2.420   2.057  -5.285  0.00  0.00     0.002 A 
ATOM      7  C8  UNL d   1       1.755   1.251  -4.359  0.00  0.00     0.006 A 
ENDROOT
BRANCH   1   8
ATOM      8  C1  UNL d   1       0.605   0.912  -2.139  0.00  0.00     0.054 C 
ATOM      9  C   UNL d   1      -0.389   1.746  -1.344  0.00  0.00     0.018 C 
ENDBRANCH   1   8
TORSDOF 1
ENDMDL
