MODEL 1
REMARK minimizedAffinity 9.95297146
REMARK minimizedRMSD -1
REMARK  1 active torsions:
REMARK  status: ('A' for Active; 'I' for Inactive)
REMARK    1  A    between atoms: C1_2  and  C2_3 
ROOT
ATOM      1  C2  UNL d   1       0.733   0.381  -2.749  0.00  0.00    -0.081 A 
ATOM      2  C3  UNL d   1       1.357   0.393  -4.002  0.00  0.00     0.006 A 
ATOM      3  C4  UNL d   1       2.009   1.542  -4.457  0.00  0.00     0.002 A 
ATOM      4  C5  UNL d   1       2.055   2.693  -3.664  0.00  0.00    -0.080 A 
ATOM      5  C6  UNL d   1       2.777   3.923  -4.127  0.00  0.00     0.076 C 
ATOM      6  C7  UNL d   1       1.416   2.686  -2.419  0.00  0.00     0.002 A 
ATOM      7  C8  UNL d   1       0.764   1.539  -1.964  0.00  0.00     0.006 A 
ENDROOT
BRANCH   1   8
ATOM      8  C1  UNL d   1       0.085  -0.877  -2.228  0.00  0.00     0.054 C 
ATOM      9  C   UNL d   1       1.118  -1.832  -1.648  0.00  0.00     0.018 C 
ENDBRANCH   1   8
TORSDOF 1
ENDMDL
