MODEL 1
REMARK minimizedAffinity 3.17306209
REMARK minimizedRMSD -1
REMARK  1 active torsions:
REMARK  status: ('A' for Active; 'I' for Inactive)
REMARK    1  A    between atoms: C1_2  and  C2_3 
ROOT
ATOM      1  C2  UNL d   1       1.323   1.523  -2.813  0.00  0.00    -0.081 A 
ATOM      2  C3  UNL d   1       1.893   2.767  -2.518  0.00  0.00     0.006 A 
ATOM      3  C4  UNL d   1       2.341   3.602  -3.545  0.00  0.00     0.002 A 
ATOM      4  C5  UNL d   1       2.218   3.211  -4.882  0.00  0.00    -0.080 A 
ATOM      5  C6  UNL d   1       2.666   4.111  -5.995  0.00  0.00     0.076 C 
ATOM      6  C7  UNL d   1       1.664   1.960  -5.176  0.00  0.00     0.002 A 
ATOM      7  C8  UNL d   1       1.217   1.124  -4.150  0.00  0.00     0.006 A 
ENDROOT
BRANCH   1   8
ATOM      8  C1  UNL d   1       0.780   0.648  -1.712  0.00  0.00     0.054 C 
ATOM      9  C   UNL d   1      -0.499   1.227  -1.125  0.00  0.00     0.018 C 
ENDBRANCH   1   8
TORSDOF 1
ENDMDL
