MODEL 1
REMARK minimizedAffinity 2.06375265
REMARK minimizedRMSD -1
REMARK  1 active torsions:
REMARK  status: ('A' for Active; 'I' for Inactive)
REMARK    1  A    between atoms: C1_2  and  C2_3 
ROOT
ATOM      1  C2  UNL d   1       2.048   1.839  -3.566  0.00  0.00    -0.081 A 
ATOM      2  C3  UNL d   1       0.843   1.508  -2.934  0.00  0.00     0.006 A 
ATOM      3  C4  UNL d   1       0.773   0.410  -2.074  0.00  0.00     0.002 A 
ATOM      4  C5  UNL d   1       1.907  -0.371  -1.825  0.00  0.00    -0.080 A 
ATOM      5  C6  UNL d   1       1.853  -1.534  -0.880  0.00  0.00     0.076 C 
ATOM      6  C7  UNL d   1       3.107  -0.050  -2.470  0.00  0.00     0.002 A 
ATOM      7  C8  UNL d   1       3.177   1.047  -3.331  0.00  0.00     0.006 A 
ENDROOT
BRANCH   1   8
ATOM      8  C1  UNL d   1       2.142   3.061  -4.443  0.00  0.00     0.054 C 
ATOM      9  C   UNL d   1       3.034   4.124  -3.818  0.00  0.00     0.018 C 
ENDBRANCH   1   8
TORSDOF 1
ENDMDL
