MODEL 1
REMARK minimizedAffinity 4.2119956
REMARK minimizedRMSD -1
REMARK  1 active torsions:
REMARK  status: ('A' for Active; 'I' for Inactive)
REMARK    1  A    between atoms: C1_2  and  C2_3 
ROOT
ATOM      1  C2  UNL d   1       3.399   3.649  -2.859  0.00  0.00    -0.081 A 
ATOM      2  C3  UNL d   1       2.352   3.557  -1.934  0.00  0.00     0.006 A 
ATOM      3  C4  UNL d   1       1.456   2.486  -1.982  0.00  0.00     0.002 A 
ATOM      4  C5  UNL d   1       1.597   1.486  -2.950  0.00  0.00    -0.080 A 
ATOM      5  C6  UNL d   1       0.660   0.315  -2.994  0.00  0.00     0.076 C 
ATOM      6  C7  UNL d   1       2.632   1.587  -3.885  0.00  0.00     0.002 A 
ATOM      7  C8  UNL d   1       3.528   2.657  -3.838  0.00  0.00     0.006 A 
ENDROOT
BRANCH   1   8
ATOM      8  C1  UNL d   1       4.405   4.767  -2.770  0.00  0.00     0.054 C 
ATOM      9  C   UNL d   1       5.671   4.317  -2.055  0.00  0.00     0.018 C 
ENDBRANCH   1   8
TORSDOF 1
ENDMDL
