MODEL 1
REMARK minimizedAffinity 7.85732079
REMARK minimizedRMSD -1
REMARK  1 active torsions:
REMARK  status: ('A' for Active; 'I' for Inactive)
REMARK    1  A    between atoms: C1_2  and  C2_3 
ROOT
ATOM      1  C2  UNL d   1       3.157   0.929  -3.504  0.00  0.00    -0.081 A 
ATOM      2  C3  UNL d   1       2.205   1.897  -3.846  0.00  0.00     0.006 A 
ATOM      3  C4  UNL d   1       1.018   2.012  -3.118  0.00  0.00     0.002 A 
ATOM      4  C5  UNL d   1       0.767   1.166  -2.033  0.00  0.00    -0.080 A 
ATOM      5  C6  UNL d   1      -0.489   1.298  -1.224  0.00  0.00     0.076 C 
ATOM      6  C7  UNL d   1       1.710   0.187  -1.702  0.00  0.00     0.002 A 
ATOM      7  C8  UNL d   1       2.896   0.071  -2.430  0.00  0.00     0.006 A 
ENDROOT
BRANCH   1   8
ATOM      8  C1  UNL d   1       4.466   0.845  -4.247  0.00  0.00     0.054 C 
ATOM      9  C   UNL d   1       5.617   0.527  -3.303  0.00  0.00     0.018 C 
ENDBRANCH   1   8
TORSDOF 1
ENDMDL
