MODEL 1
REMARK minimizedAffinity 13.4451256
REMARK minimizedRMSD -1
REMARK  1 active torsions:
REMARK  status: ('A' for Active; 'I' for Inactive)
REMARK    1  A    between atoms: C1_2  and  C2_3 
ROOT
ATOM      1  C2  UNL d   1       0.338  -0.659  -2.995  0.00  0.00    -0.081 A 
ATOM      2  C3  UNL d   1       1.378  -0.331  -3.874  0.00  0.00     0.006 A 
ATOM      3  C4  UNL d   1       1.897   0.965  -3.905  0.00  0.00     0.002 A 
ATOM      4  C5  UNL d   1       1.392   1.953  -3.053  0.00  0.00    -0.080 A 
ATOM      5  C6  UNL d   1       1.961   3.340  -3.055  0.00  0.00     0.076 C 
ATOM      6  C7  UNL d   1       0.341   1.630  -2.187  0.00  0.00     0.002 A 
ATOM      7  C8  UNL d   1      -0.179   0.335  -2.157  0.00  0.00     0.006 A 
ENDROOT
BRANCH   1   8
ATOM      8  C1  UNL d   1      -0.180  -2.072  -2.914  0.00  0.00     0.054 C 
ATOM      9  C   UNL d   1       0.959  -3.073  -2.788  0.00  0.00     0.018 C 
ENDBRANCH   1   8
TORSDOF 1
ENDMDL
