MODEL 1
REMARK minimizedAffinity -2.53956318
REMARK minimizedRMSD -1
REMARK  3 active torsions:
REMARK  status: ('A' for Active; 'I' for Inactive)
REMARK    1  A    between atoms: C3'_2  and  C2'_3 
REMARK    2  A    between atoms: C2'_3  and  C1'_4 
REMARK    3  A    between atoms: C1'_4  and  C1_5 
ROOT
ATOM      1  C1  N4B d   1       0.838  -0.475  -2.314  0.00  0.00    -0.075 A 
ATOM      2  C2  N4B d   1       1.910   0.395  -2.609  0.00  0.00     0.002 A 
ATOM      3  C3  N4B d   1       2.029   0.936  -3.866  0.00  0.00     0.002 A 
ATOM      4  C4  N4B d   1       1.102   0.608  -4.844  0.00  0.00    -0.004 A 
ATOM      5  C5  N4B d   1       0.055  -0.213  -4.543  0.00  0.00     0.002 A 
ATOM      6  C6  N4B d   1      -0.079  -0.761  -3.283  0.00  0.00     0.002 A 
ENDROOT
BRANCH   1   7
ATOM      7  C1' N4B d   1       0.715  -1.159  -0.979  0.00  0.00     0.057 C 
BRANCH   7   8
ATOM      8  C2' N4B d   1       0.377  -0.120   0.086  0.00  0.00     0.009 C 
BRANCH   8   9
ATOM      9  C3' N4B d   1      -1.115  -0.060   0.368  0.00  0.00     0.004 C 
ATOM     10  C4' N4B d   1      -1.423   0.234   1.806  0.00  0.00     0.003 C 
ENDBRANCH   8   9
ENDBRANCH   7   8
ENDBRANCH   1   7
TORSDOF 3
ENDMDL
