MODEL 1
REMARK minimizedAffinity -3.94945717
REMARK minimizedRMSD -1
REMARK  3 active torsions:
REMARK  status: ('A' for Active; 'I' for Inactive)
REMARK    1  A    between atoms: C3'_2  and  C2'_3 
REMARK    2  A    between atoms: C2'_3  and  C1'_4 
REMARK    3  A    between atoms: C1'_4  and  C1_5 
ROOT
ATOM      1  C1  N4B d   1       0.710  -0.413  -0.422  0.00  0.00    -0.075 A 
ATOM      2  C2  N4B d   1       1.422   0.030   0.714  0.00  0.00     0.002 A 
ATOM      3  C3  N4B d   1       0.791   0.794   1.665  0.00  0.00     0.002 A 
ATOM      4  C4  N4B d   1      -0.541   1.141   1.493  0.00  0.00    -0.004 A 
ATOM      5  C5  N4B d   1      -1.228   0.687   0.405  0.00  0.00     0.002 A 
ATOM      6  C6  N4B d   1      -0.608  -0.085  -0.556  0.00  0.00     0.002 A 
ENDROOT
BRANCH   1   7
ATOM      7  C1' N4B d   1       1.380  -1.178  -1.531  0.00  0.00     0.057 C 
BRANCH   7   8
ATOM      8  C2' N4B d   1       0.652  -0.901  -2.842  0.00  0.00     0.009 C 
BRANCH   8   9
ATOM      9  C3' N4B d   1       1.508  -0.101  -3.810  0.00  0.00     0.004 C 
ATOM     10  C4' N4B d   1       0.696   0.623  -4.842  0.00  0.00     0.003 C 
ENDBRANCH   8   9
ENDBRANCH   7   8
ENDBRANCH   1   7
TORSDOF 3
ENDMDL
