MODEL 1
REMARK minimizedAffinity -3.29659748
REMARK minimizedRMSD -1
REMARK  3 active torsions:
REMARK  status: ('A' for Active; 'I' for Inactive)
REMARK    1  A    between atoms: C3'_2  and  C2'_3 
REMARK    2  A    between atoms: C2'_3  and  C1'_4 
REMARK    3  A    between atoms: C1'_4  and  C1_5 
ROOT
ATOM      1  C1  N4B d   1       0.328  -0.042  -1.350  0.00  0.00    -0.075 A 
ATOM      2  C2  N4B d   1       0.320   1.111  -2.165  0.00  0.00     0.002 A 
ATOM      3  C3  N4B d   1       1.002   1.113  -3.358  0.00  0.00     0.002 A 
ATOM      4  C4  N4B d   1       1.711  -0.014  -3.744  0.00  0.00    -0.004 A 
ATOM      5  C5  N4B d   1       1.693  -1.132  -2.963  0.00  0.00     0.002 A 
ATOM      6  C6  N4B d   1       1.009  -1.150  -1.764  0.00  0.00     0.002 A 
ENDROOT
BRANCH   1   7
ATOM      7  C1' N4B d   1      -0.331  -0.063   0.002  0.00  0.00     0.057 C 
BRANCH   7   8
ATOM      8  C2' N4B d   1       0.484   0.789   0.970  0.00  0.00     0.009 C 
BRANCH   8   9
ATOM      9  C3' N4B d   1       0.816   0.038   2.248  0.00  0.00     0.004 C 
ATOM     10  C4' N4B d   1       2.265  -0.337   2.342  0.00  0.00     0.003 C 
ENDBRANCH   8   9
ENDBRANCH   7   8
ENDBRANCH   1   7
TORSDOF 3
ENDMDL
