MODEL 1
REMARK minimizedAffinity -5.83901072
REMARK minimizedRMSD -1
REMARK  3 active torsions:
REMARK  status: ('A' for Active; 'I' for Inactive)
REMARK    1  A    between atoms: C3'_2  and  C2'_3 
REMARK    2  A    between atoms: C2'_3  and  C1'_4 
REMARK    3  A    between atoms: C1'_4  and  C1_5 
ROOT
ATOM      1  C1  N4B d   1       0.205  -0.112   0.420  0.00  0.00    -0.075 A 
ATOM      2  C2  N4B d   1       0.940   0.712   1.301  0.00  0.00     0.002 A 
ATOM      3  C3  N4B d   1       0.285   1.466   2.244  0.00  0.00     0.002 A 
ATOM      4  C4  N4B d   1      -1.099   1.427   2.312  0.00  0.00    -0.004 A 
ATOM      5  C5  N4B d   1      -1.801   0.609   1.475  0.00  0.00     0.002 A 
ATOM      6  C6  N4B d   1      -1.155  -0.157   0.525  0.00  0.00     0.002 A 
ENDROOT
BRANCH   1   7
ATOM      7  C1' N4B d   1       0.870  -0.888  -0.683  0.00  0.00     0.057 C 
BRANCH   7   8
ATOM      8  C2' N4B d   1       0.355  -0.387  -2.029  0.00  0.00     0.009 C 
BRANCH   8   9
ATOM      9  C3' N4B d   1       1.421   0.373  -2.798  0.00  0.00     0.004 C 
ATOM     10  C4' N4B d   1       0.976   0.765  -4.176  0.00  0.00     0.003 C 
ENDBRANCH   8   9
ENDBRANCH   7   8
ENDBRANCH   1   7
TORSDOF 3
ENDMDL
