MODEL 1
REMARK minimizedAffinity -5.41166067
REMARK minimizedRMSD -1
REMARK  3 active torsions:
REMARK  status: ('A' for Active; 'I' for Inactive)
REMARK    1  A    between atoms: C3'_2  and  C2'_3 
REMARK    2  A    between atoms: C2'_3  and  C1'_4 
REMARK    3  A    between atoms: C1'_4  and  C1_5 
ROOT
ATOM      1  C1  N4B d   1      -0.578   0.975   1.212  0.00  0.00    -0.075 A 
ATOM      2  C2  N4B d   1       0.565   0.492   0.536  0.00  0.00     0.002 A 
ATOM      3  C3  N4B d   1       0.427  -0.422  -0.479  0.00  0.00     0.002 A 
ATOM      4  C4  N4B d   1      -0.836  -0.881  -0.822  0.00  0.00    -0.004 A 
ATOM      5  C5  N4B d   1      -1.937  -0.392  -0.182  0.00  0.00     0.002 A 
ATOM      6  C6  N4B d   1      -1.813   0.531   0.838  0.00  0.00     0.002 A 
ENDROOT
BRANCH   1   7
ATOM      7  C1' N4B d   1      -0.471   1.910   2.385  0.00  0.00     0.057 C 
BRANCH   7   8
ATOM      8  C2' N4B d   1      -0.137   1.106   3.638  0.00  0.00     0.009 C 
BRANCH   8   9
ATOM      9  C3' N4B d   1       1.237   0.464   3.552  0.00  0.00     0.004 C 
ATOM     10  C4' N4B d   1       1.193  -1.026   3.713  0.00  0.00     0.003 C 
ENDBRANCH   8   9
ENDBRANCH   7   8
ENDBRANCH   1   7
TORSDOF 3
ENDMDL
