MODEL 1
REMARK minimizedAffinity -4.75065136
REMARK minimizedRMSD -1
REMARK  1 active torsions:
REMARK  status: ('A' for Active; 'I' for Inactive)
REMARK    1  A    between atoms: C1_2  and  C2_3 
ROOT
ATOM      1  C2  UNL d   1      -1.465  -0.894  -1.236  0.00  0.00    -0.081 A 
ATOM      2  C3  UNL d   1      -0.427  -1.389  -0.437  0.00  0.00     0.006 A 
ATOM      3  C4  UNL d   1       0.213  -0.560   0.487  0.00  0.00     0.002 A 
ATOM      4  C5  UNL d   1      -0.180   0.775   0.634  0.00  0.00    -0.080 A 
ATOM      5  C6  UNL d   1       0.478   1.668   1.644  0.00  0.00     0.076 C 
ATOM      6  C7  UNL d   1      -1.205   1.275  -0.176  0.00  0.00     0.002 A 
ATOM      7  C8  UNL d   1      -1.845   0.446  -1.101  0.00  0.00     0.006 A 
ENDROOT
BRANCH   1   8
ATOM      8  C1  UNL d   1      -2.200  -1.802  -2.188  0.00  0.00     0.054 C 
ATOM      9  C   UNL d   1      -2.130  -1.281  -3.616  0.00  0.00     0.018 C 
ENDBRANCH   1   8
TORSDOF 1
ENDMDL
