MODEL 1
REMARK minimizedAffinity -3.66153717
REMARK minimizedRMSD -1
REMARK  1 active torsions:
REMARK  status: ('A' for Active; 'I' for Inactive)
REMARK    1  A    between atoms: C1_2  and  C2_3 
ROOT
ATOM      1  C2  UNL d   1      -1.242  -1.165  -1.148  0.00  0.00    -0.081 A 
ATOM      2  C3  UNL d   1      -0.254  -1.597  -0.254  0.00  0.00     0.006 A 
ATOM      3  C4  UNL d   1       0.336  -0.699   0.638  0.00  0.00     0.002 A 
ATOM      4  C5  UNL d   1      -0.056   0.644   0.657  0.00  0.00    -0.080 A 
ATOM      5  C6  UNL d   1       0.548   1.612   1.630  0.00  0.00     0.076 C 
ATOM      6  C7  UNL d   1      -1.030   1.080  -0.248  0.00  0.00     0.002 A 
ATOM      7  C8  UNL d   1      -1.620   0.182  -1.141  0.00  0.00     0.006 A 
ENDROOT
BRANCH   1   8
ATOM      8  C1  UNL d   1      -1.926  -2.145  -2.066  0.00  0.00     0.054 C 
ATOM      9  C   UNL d   1      -2.363  -1.476  -3.362  0.00  0.00     0.018 C 
ENDBRANCH   1   8
TORSDOF 1
ENDMDL
