MODEL 1
REMARK minimizedAffinity -3.59372902
REMARK minimizedRMSD -1
REMARK  1 active torsions:
REMARK  status: ('A' for Active; 'I' for Inactive)
REMARK    1  A    between atoms: C1_2  and  C2_3 
ROOT
ATOM      1  C2  UNL d   1      -0.987  -1.232  -0.756  0.00  0.00    -0.081 A 
ATOM      2  C3  UNL d   1      -1.456  -0.886   0.517  0.00  0.00     0.006 A 
ATOM      3  C4  UNL d   1      -0.683  -0.088   1.364  0.00  0.00     0.002 A 
ATOM      4  C5  UNL d   1       0.567   0.383   0.950  0.00  0.00    -0.080 A 
ATOM      5  C6  UNL d   1       1.393   1.265   1.838  0.00  0.00     0.076 C 
ATOM      6  C7  UNL d   1       1.044   0.023  -0.315  0.00  0.00     0.002 A 
ATOM      7  C8  UNL d   1       0.272  -0.775  -1.162  0.00  0.00     0.006 A 
ENDROOT
BRANCH   1   8
ATOM      8  C1  UNL d   1      -1.845  -2.038  -1.697  0.00  0.00     0.054 C 
ATOM      9  C   UNL d   1      -2.255  -1.218  -2.913  0.00  0.00     0.018 C 
ENDBRANCH   1   8
TORSDOF 1
ENDMDL
