MODEL 1
REMARK minimizedAffinity 1.80327201
REMARK minimizedRMSD -1
REMARK  1 active torsions:
REMARK  status: ('A' for Active; 'I' for Inactive)
REMARK    1  A    between atoms: C1_2  and  C2_3 
ROOT
ATOM      1  C2  UNL d   1      -0.558   0.122  -1.625  0.00  0.00    -0.081 A 
ATOM      2  C3  UNL d   1       0.771  -0.150  -1.277  0.00  0.00     0.006 A 
ATOM      3  C4  UNL d   1       1.262   0.208  -0.019  0.00  0.00     0.002 A 
ATOM      4  C5  UNL d   1       0.430   0.835   0.915  0.00  0.00    -0.080 A 
ATOM      5  C6  UNL d   1       0.935   1.196   2.280  0.00  0.00     0.076 C 
ATOM      6  C7  UNL d   1      -0.893   1.121   0.562  0.00  0.00     0.002 A 
ATOM      7  C8  UNL d   1      -1.384   0.765  -0.696  0.00  0.00     0.006 A 
ENDROOT
BRANCH   1   8
ATOM      8  C1  UNL d   1      -1.108  -0.321  -2.957  0.00  0.00     0.054 C 
ATOM      9  C   UNL d   1      -2.392  -1.119  -2.787  0.00  0.00     0.018 C 
ENDBRANCH   1   8
TORSDOF 1
ENDMDL
