MODEL 1
REMARK minimizedAffinity -0.78380245
REMARK minimizedRMSD -1
REMARK  1 active torsions:
REMARK  status: ('A' for Active; 'I' for Inactive)
REMARK    1  A    between atoms: C1_2  and  C2_3 
ROOT
ATOM      1  C2  UNL d   1      -1.397  -1.302  -1.313  0.00  0.00    -0.081 A 
ATOM      2  C3  UNL d   1      -0.282  -1.680  -0.555  0.00  0.00     0.006 A 
ATOM      3  C4  UNL d   1       0.214  -0.838   0.443  0.00  0.00     0.002 A 
ATOM      4  C5  UNL d   1      -0.402   0.390   0.706  0.00  0.00    -0.080 A 
ATOM      5  C6  UNL d   1       0.102   1.290   1.796  0.00  0.00     0.076 C 
ATOM      6  C7  UNL d   1      -1.505   0.776  -0.062  0.00  0.00     0.002 A 
ATOM      7  C8  UNL d   1      -2.001  -0.065  -1.062  0.00  0.00     0.006 A 
ENDROOT
BRANCH   1   8
ATOM      8  C1  UNL d   1      -1.973  -2.236  -2.347  0.00  0.00     0.054 C 
ATOM      9  C   UNL d   1      -2.220  -1.517  -3.665  0.00  0.00     0.018 C 
ENDBRANCH   1   8
TORSDOF 1
ENDMDL
