MODEL 1
REMARK minimizedAffinity -2.49140954
REMARK minimizedRMSD -1
REMARK  1 active torsions:
REMARK  status: ('A' for Active; 'I' for Inactive)
REMARK    1  A    between atoms: C1_2  and  C2_3 
ROOT
ATOM      1  C2  UNL d   1      -1.192  -1.067  -0.659  0.00  0.00    -0.081 A 
ATOM      2  C3  UNL d   1       0.195  -0.924  -0.788  0.00  0.00     0.006 A 
ATOM      3  C4  UNL d   1       0.900  -0.070   0.064  0.00  0.00     0.002 A 
ATOM      4  C5  UNL d   1       0.232   0.647   1.062  0.00  0.00    -0.080 A 
ATOM      5  C6  UNL d   1       0.982   1.543   2.003  0.00  0.00     0.076 C 
ATOM      6  C7  UNL d   1      -1.156   0.517   1.179  0.00  0.00     0.002 A 
ATOM      7  C8  UNL d   1      -1.862  -0.335   0.327  0.00  0.00     0.006 A 
ENDROOT
BRANCH   1   8
ATOM      8  C1  UNL d   1      -1.947  -2.036  -1.534  0.00  0.00     0.054 C 
ATOM      9  C   UNL d   1      -3.067  -1.339  -2.293  0.00  0.00     0.018 C 
ENDBRANCH   1   8
TORSDOF 1
ENDMDL
