MODEL 1
REMARK minimizedAffinity -0.736185253
REMARK minimizedRMSD -1
REMARK  1 active torsions:
REMARK  status: ('A' for Active; 'I' for Inactive)
REMARK    1  A    between atoms: C1_2  and  C2_3 
ROOT
ATOM      1  C2  UNL d   1      -1.518  -0.454  -1.106  0.00  0.00    -0.081 A 
ATOM      2  C3  UNL d   1      -0.222  -0.785  -0.695  0.00  0.00     0.006 A 
ATOM      3  C4  UNL d   1       0.370  -0.122   0.383  0.00  0.00     0.002 A 
ATOM      4  C5  UNL d   1      -0.327   0.877   1.071  0.00  0.00    -0.080 A 
ATOM      5  C6  UNL d   1       0.285   1.575   2.249  0.00  0.00     0.076 C 
ATOM      6  C7  UNL d   1      -1.616   1.220   0.649  0.00  0.00     0.002 A 
ATOM      7  C8  UNL d   1      -2.208   0.558  -0.429  0.00  0.00     0.006 A 
ENDROOT
BRANCH   1   8
ATOM      8  C1  UNL d   1      -2.184  -1.212  -2.227  0.00  0.00     0.054 C 
ATOM      9  C   UNL d   1      -3.165  -2.244  -1.691  0.00  0.00     0.018 C 
ENDBRANCH   1   8
TORSDOF 1
ENDMDL
