MODEL 1
REMARK minimizedAffinity -2.49595952
REMARK minimizedRMSD -1
REMARK  1 active torsions:
REMARK  status: ('A' for Active; 'I' for Inactive)
REMARK    1  A    between atoms: C1_2  and  C2_3 
ROOT
ATOM      1  C2  UNL d   1      -0.992  -1.074  -0.509  0.00  0.00    -0.081 A 
ATOM      2  C3  UNL d   1       0.389  -0.945  -0.699  0.00  0.00     0.006 A 
ATOM      3  C4  UNL d   1       1.139  -0.088   0.111  0.00  0.00     0.002 A 
ATOM      4  C5  UNL d   1       0.521   0.648   1.127  0.00  0.00    -0.080 A 
ATOM      5  C6  UNL d   1       1.319   1.549   2.023  0.00  0.00     0.076 C 
ATOM      6  C7  UNL d   1      -0.861   0.534   1.306  0.00  0.00     0.002 A 
ATOM      7  C8  UNL d   1      -1.611  -0.323   0.497  0.00  0.00     0.006 A 
ENDROOT
BRANCH   1   8
ATOM      8  C1  UNL d   1      -1.793  -2.046  -1.337  0.00  0.00     0.054 C 
ATOM      9  C   UNL d   1      -2.160  -1.450  -2.688  0.00  0.00     0.018 C 
ENDBRANCH   1   8
TORSDOF 1
ENDMDL
