MODEL 1
REMARK minimizedAffinity -0.144601658
REMARK minimizedRMSD -1
REMARK  1 active torsions:
REMARK  status: ('A' for Active; 'I' for Inactive)
REMARK    1  A    between atoms: C1_2  and  C2_3 
ROOT
ATOM      1  C2  UNL d   1       4.183   0.824  -4.361  0.00  0.00    -0.081 A 
ATOM      2  C3  UNL d   1       3.747   0.050  -5.444  0.00  0.00     0.006 A 
ATOM      3  C4  UNL d   1       2.404  -0.321  -5.554  0.00  0.00     0.002 A 
ATOM      4  C5  UNL d   1       1.475   0.082  -4.589  0.00  0.00    -0.080 A 
ATOM      5  C6  UNL d   1       0.026  -0.283  -4.711  0.00  0.00     0.076 C 
ATOM      6  C7  UNL d   1       1.914   0.840  -3.498  0.00  0.00     0.002 A 
ATOM      7  C8  UNL d   1       3.256   1.211  -3.387  0.00  0.00     0.006 A 
ENDROOT
BRANCH   1   8
ATOM      8  C1  UNL d   1       5.617   1.279  -4.274  0.00  0.00     0.054 C 
ATOM      9  C   UNL d   1       5.718   2.681  -3.689  0.00  0.00     0.018 C 
ENDBRANCH   1   8
TORSDOF 1
ENDMDL
