MODEL 1
REMARK minimizedAffinity -1.25254667
REMARK minimizedRMSD -1
REMARK  1 active torsions:
REMARK  status: ('A' for Active; 'I' for Inactive)
REMARK    1  A    between atoms: C1_2  and  C2_3 
ROOT
ATOM      1  C2  UNL d   1      -0.780  -1.228  -0.532  0.00  0.00    -0.081 A 
ATOM      2  C3  UNL d   1      -1.438  -0.815   0.633  0.00  0.00     0.006 A 
ATOM      3  C4  UNL d   1      -0.899   0.198   1.430  0.00  0.00     0.002 A 
ATOM      4  C5  UNL d   1       0.302   0.820   1.071  0.00  0.00    -0.080 A 
ATOM      5  C6  UNL d   1       0.876   1.929   1.901  0.00  0.00     0.076 C 
ATOM      6  C7  UNL d   1       0.968   0.395  -0.084  0.00  0.00     0.002 A 
ATOM      7  C8  UNL d   1       0.430  -0.618  -0.880  0.00  0.00     0.006 A 
ENDROOT
BRANCH   1   8
ATOM      8  C1  UNL d   1      -1.392  -2.275  -1.427  0.00  0.00     0.054 C 
ATOM      9  C   UNL d   1      -1.430  -1.811  -2.876  0.00  0.00     0.018 C 
ENDBRANCH   1   8
TORSDOF 1
ENDMDL
