MODEL 1
REMARK minimizedAffinity 11.3965864
REMARK minimizedRMSD -1
REMARK  1 active torsions:
REMARK  status: ('A' for Active; 'I' for Inactive)
REMARK    1  A    between atoms: C1_2  and  C2_3 
ROOT
ATOM      1  C2  UNL d   1       1.106   0.685   1.723  0.00  0.00    -0.081 A 
ATOM      2  C3  UNL d   1       2.199  -0.181   1.842  0.00  0.00     0.006 A 
ATOM      3  C4  UNL d   1       2.100  -1.509   1.419  0.00  0.00     0.002 A 
ATOM      4  C5  UNL d   1       0.910  -1.989   0.863  0.00  0.00    -0.080 A 
ATOM      5  C6  UNL d   1       0.800  -3.404   0.376  0.00  0.00     0.076 C 
ATOM      6  C7  UNL d   1      -0.188  -1.129   0.760  0.00  0.00     0.002 A 
ATOM      7  C8  UNL d   1      -0.090   0.199   1.184  0.00  0.00     0.006 A 
ENDROOT
BRANCH   1   8
ATOM      8  C1  UNL d   1       1.230   2.134   2.119  0.00  0.00     0.054 C 
ATOM      9  C   UNL d   1       2.283   2.324   3.202  0.00  0.00     0.018 C 
ENDBRANCH   1   8
TORSDOF 1
ENDMDL
