MODEL 1
REMARK minimizedAffinity 10.4938126
REMARK minimizedRMSD -1
REMARK  1 active torsions:
REMARK  status: ('A' for Active; 'I' for Inactive)
REMARK    1  A    between atoms: C1_2  and  C2_3 
ROOT
ATOM      1  C2  UNL d   1      -0.055  -5.629  -1.123  0.00  0.00    -0.081 A 
ATOM      2  C3  UNL d   1       0.067  -5.447  -2.506  0.00  0.00     0.006 A 
ATOM      3  C4  UNL d   1       1.315  -5.545  -3.125  0.00  0.00     0.002 A 
ATOM      4  C5  UNL d   1       2.460  -5.835  -2.374  0.00  0.00    -0.080 A 
ATOM      5  C6  UNL d   1       3.801  -5.974  -3.031  0.00  0.00     0.076 C 
ATOM      6  C7  UNL d   1       2.340  -6.000  -0.990  0.00  0.00     0.002 A 
ATOM      7  C8  UNL d   1       1.093  -5.901  -0.370  0.00  0.00     0.006 A 
ENDROOT
BRANCH   1   8
ATOM      8  C1  UNL d   1      -1.409  -5.587  -0.461  0.00  0.00     0.054 C 
ATOM      9  C   UNL d   1      -2.529  -5.634  -1.490  0.00  0.00     0.018 C 
ENDBRANCH   1   8
TORSDOF 1
ENDMDL
