MODEL 1
REMARK minimizedAffinity 6.86659479
REMARK minimizedRMSD -1
REMARK  1 active torsions:
REMARK  status: ('A' for Active; 'I' for Inactive)
REMARK    1  A    between atoms: C1_2  and  C2_3 
ROOT
ATOM      1  C2  UNL d   1      -4.440  -1.812  -5.318  0.00  0.00    -0.081 A 
ATOM      2  C3  UNL d   1      -3.456  -2.683  -5.800  0.00  0.00     0.006 A 
ATOM      3  C4  UNL d   1      -3.744  -4.036  -5.999  0.00  0.00     0.002 A 
ATOM      4  C5  UNL d   1      -5.022  -4.537  -5.728  0.00  0.00    -0.080 A 
ATOM      5  C6  UNL d   1      -5.352  -5.980  -5.967  0.00  0.00     0.076 C 
ATOM      6  C7  UNL d   1      -6.000  -3.670  -5.230  0.00  0.00     0.002 A 
ATOM      7  C8  UNL d   1      -5.713  -2.318  -5.030  0.00  0.00     0.006 A 
ENDROOT
BRANCH   1   8
ATOM      8  C1  UNL d   1      -4.152  -0.340  -5.163  0.00  0.00     0.054 C 
ATOM      9  C   UNL d   1      -3.390  -0.059  -3.876  0.00  0.00     0.018 C 
ENDBRANCH   1   8
TORSDOF 1
ENDMDL
