MODEL 1
REMARK minimizedAffinity 13.0125666
REMARK minimizedRMSD -1
REMARK  1 active torsions:
REMARK  status: ('A' for Active; 'I' for Inactive)
REMARK    1  A    between atoms: C1_2  and  C2_3 
ROOT
ATOM      1  C2  UNL d   1       1.878  -3.701   2.339  0.00  0.00    -0.081 A 
ATOM      2  C3  UNL d   1       1.504  -3.323   1.044  0.00  0.00     0.006 A 
ATOM      3  C4  UNL d   1       1.189  -1.992   0.758  0.00  0.00     0.002 A 
ATOM      4  C5  UNL d   1       1.251  -1.017   1.759  0.00  0.00    -0.080 A 
ATOM      5  C6  UNL d   1       0.944   0.420   1.458  0.00  0.00     0.076 C 
ATOM      6  C7  UNL d   1       1.608  -1.398   3.057  0.00  0.00     0.002 A 
ATOM      7  C8  UNL d   1       1.922  -2.728   3.344  0.00  0.00     0.006 A 
ENDROOT
BRANCH   1   8
ATOM      8  C1  UNL d   1       2.281  -5.123   2.636  0.00  0.00     0.054 C 
ATOM      9  C   UNL d   1       2.170  -5.999   1.397  0.00  0.00     0.018 C 
ENDBRANCH   1   8
TORSDOF 1
ENDMDL
