MODEL 1
REMARK minimizedAffinity 9.54552937
REMARK minimizedRMSD -1
REMARK  1 active torsions:
REMARK  status: ('A' for Active; 'I' for Inactive)
REMARK    1  A    between atoms: C1_2  and  C2_3 
ROOT
ATOM      1  C2  UNL d   1      -4.926  -3.759  -5.320  0.00  0.00    -0.081 A 
ATOM      2  C3  UNL d   1      -4.170  -2.797  -6.000  0.00  0.00     0.006 A 
ATOM      3  C4  UNL d   1      -3.761  -1.629  -5.351  0.00  0.00     0.002 A 
ATOM      4  C5  UNL d   1      -4.095  -1.409  -4.010  0.00  0.00    -0.080 A 
ATOM      5  C6  UNL d   1      -3.636  -0.174  -3.293  0.00  0.00     0.076 C 
ATOM      6  C7  UNL d   1      -4.866  -2.362  -3.336  0.00  0.00     0.002 A 
ATOM      7  C8  UNL d   1      -5.275  -3.529  -3.985  0.00  0.00     0.006 A 
ENDROOT
BRANCH   1   8
ATOM      8  C1  UNL d   1      -5.314  -5.048  -5.998  0.00  0.00     0.054 C 
ATOM      9  C   UNL d   1      -5.999  -6.000  -5.028  0.00  0.00     0.018 C 
ENDBRANCH   1   8
TORSDOF 1
ENDMDL
