MODEL 1
REMARK minimizedAffinity 3.88872123
REMARK minimizedRMSD -1
REMARK  1 active torsions:
REMARK  status: ('A' for Active; 'I' for Inactive)
REMARK    1  A    between atoms: C1_2  and  C2_3 
ROOT
ATOM      1  C2  UNL d   1       5.504  -3.472  -5.293  0.00  0.00    -0.081 A 
ATOM      2  C3  UNL d   1       4.671  -3.375  -4.172  0.00  0.00     0.006 A 
ATOM      3  C4  UNL d   1       4.164  -2.137  -3.771  0.00  0.00     0.002 A 
ATOM      4  C5  UNL d   1       4.475  -0.977  -4.489  0.00  0.00    -0.080 A 
ATOM      5  C6  UNL d   1       3.912   0.355  -4.088  0.00  0.00     0.076 C 
ATOM      6  C7  UNL d   1       5.321  -1.071  -5.599  0.00  0.00     0.002 A 
ATOM      7  C8  UNL d   1       5.829  -2.309  -6.000  0.00  0.00     0.006 A 
ENDROOT
BRANCH   1   8
ATOM      8  C1  UNL d   1       6.000  -4.815  -5.766  0.00  0.00     0.054 C 
ATOM      9  C   UNL d   1       5.979  -5.839  -4.641  0.00  0.00     0.018 C 
ENDBRANCH   1   8
TORSDOF 1
ENDMDL
