MODEL 1
REMARK minimizedAffinity -1.99602592
REMARK minimizedRMSD -1
REMARK  0 active torsions:
REMARK  status: ('A' for Active; 'I' for Inactive)
ROOT
ATOM      1  C4' PXY d   1       0.847  -2.229  -1.880  0.00  0.00     0.077 C 
ATOM      2  C1' PXY d   1      -0.970   1.535   2.114  0.00  0.00     0.077 C 
ATOM      3  C1  PXY d   1      -0.490   0.558   1.059  0.00  0.00    -0.082 A 
ATOM      4  C2  PXY d   1      -0.978  -0.672   1.036  0.00  0.00     0.003 A 
ATOM      5  C3  PXY d   1      -0.532  -1.578   0.108  0.00  0.00     0.003 A 
ATOM      6  C4  PXY d   1       0.385  -1.206  -0.839  0.00  0.00    -0.082 A 
ATOM      7  C5  PXY d   1       0.879   0.050  -0.828  0.00  0.00     0.003 A 
ATOM      8  C6  PXY d   1       0.444   0.942   0.147  0.00  0.00     0.003 A 
ENDROOT
TORSDOF 0
ENDMDL
