MODEL 1
REMARK minimizedAffinity -2.68257928
REMARK minimizedRMSD -1
REMARK  0 active torsions:
REMARK  status: ('A' for Active; 'I' for Inactive)
ROOT
ATOM      1  C4' PXY d   1      -0.269   3.628   1.426  0.00  0.00     0.077 C 
ATOM      2  C1' PXY d   1       0.862  -1.774  -0.293  0.00  0.00     0.077 C 
ATOM      3  C1  PXY d   1       0.556  -0.362   0.166  0.00  0.00    -0.082 A 
ATOM      4  C2  PXY d   1       0.881   0.662  -0.607  0.00  0.00     0.003 A 
ATOM      5  C3  PXY d   1       0.640   1.947  -0.194  0.00  0.00     0.003 A 
ATOM      6  C4  PXY d   1       0.012   2.184   0.999  0.00  0.00    -0.082 A 
ATOM      7  C5  PXY d   1      -0.332   1.145   1.789  0.00  0.00     0.003 A 
ATOM      8  C6  PXY d   1      -0.042  -0.150   1.370  0.00  0.00     0.003 A 
ENDROOT
TORSDOF 0
ENDMDL
