MODEL 1
REMARK minimizedAffinity -3.30188298
REMARK minimizedRMSD -1
REMARK  0 active torsions:
REMARK  status: ('A' for Active; 'I' for Inactive)
ROOT
ATOM      1  C4' PXY d   1       0.892  -2.615  -2.801  0.00  0.00     0.077 C 
ATOM      2  C1' PXY d   1      -0.712   0.586   1.736  0.00  0.00     0.077 C 
ATOM      3  C1  PXY d   1      -0.288  -0.243   0.540  0.00  0.00    -0.082 A 
ATOM      4  C2  PXY d   1      -0.810  -1.444   0.358  0.00  0.00     0.003 A 
ATOM      5  C3  PXY d   1      -0.414  -2.220  -0.700  0.00  0.00     0.003 A 
ATOM      6  C4  PXY d   1       0.487  -1.740  -1.613  0.00  0.00    -0.082 A 
ATOM      7  C5  PXY d   1       1.016  -0.510  -1.440  0.00  0.00     0.003 A 
ATOM      8  C6  PXY d   1       0.632   0.245  -0.336  0.00  0.00     0.003 A 
ENDROOT
TORSDOF 0
ENDMDL
