MODEL 1
REMARK minimizedAffinity -3.43770218
REMARK minimizedRMSD -1
REMARK  0 active torsions:
REMARK  status: ('A' for Active; 'I' for Inactive)
ROOT
ATOM      1  C4' PXY d   1       1.079  -2.680  -1.755  0.00  0.00     0.077 C 
ATOM      2  C1' PXY d   1      -1.200   1.191   1.883  0.00  0.00     0.077 C 
ATOM      3  C1  PXY d   1      -0.595   0.185   0.923  0.00  0.00    -0.082 A 
ATOM      4  C2  PXY d   1      -1.227  -0.953   0.685  0.00  0.00     0.003 A 
ATOM      5  C3  PXY d   1      -0.679  -1.887  -0.156  0.00  0.00     0.003 A 
ATOM      6  C4  PXY d   1       0.502  -1.631  -0.800  0.00  0.00    -0.082 A 
ATOM      7  C5  PXY d   1       1.147  -0.468  -0.570  0.00  0.00     0.003 A 
ATOM      8  C6  PXY d   1       0.594   0.450   0.318  0.00  0.00     0.003 A 
ENDROOT
TORSDOF 0
ENDMDL
