MODEL 1
REMARK minimizedAffinity -3.06562543
REMARK minimizedRMSD -1
REMARK  0 active torsions:
REMARK  status: ('A' for Active; 'I' for Inactive)
ROOT
ATOM      1  C4' PXY d   1       1.264  -2.378  -1.134  0.00  0.00     0.077 C 
ATOM      2  C1' PXY d   1      -1.110   1.721   2.179  0.00  0.00     0.077 C 
ATOM      3  C1  PXY d   1      -0.486   0.655   1.301  0.00  0.00    -0.082 A 
ATOM      4  C2  PXY d   1      -0.726  -0.622   1.552  0.00  0.00     0.003 A 
ATOM      5  C3  PXY d   1      -0.144  -1.601   0.787  0.00  0.00     0.003 A 
ATOM      6  C4  PXY d   1       0.648  -1.267  -0.279  0.00  0.00    -0.082 A 
ATOM      7  C5  PXY d   1       0.888   0.033  -0.548  0.00  0.00     0.003 A 
ATOM      8  C6  PXY d   1       0.322   1.010   0.265  0.00  0.00     0.003 A 
ENDROOT
TORSDOF 0
ENDMDL
