MODEL 1
REMARK minimizedAffinity 1.50297022
REMARK minimizedRMSD -1
REMARK  0 active torsions:
REMARK  status: ('A' for Active; 'I' for Inactive)
ROOT
ATOM      1  C4' PXY d   1       0.402  -1.889  -3.426  0.00  0.00     0.077 C 
ATOM      2  C1' PXY d   1       2.259  -6.000   0.189  0.00  0.00     0.077 C 
ATOM      3  C1  PXY d   1       1.767  -4.931  -0.768  0.00  0.00    -0.082 A 
ATOM      4  C2  PXY d   1       2.311  -3.725  -0.736  0.00  0.00     0.003 A 
ATOM      5  C3  PXY d   1       1.857  -2.738  -1.572  0.00  0.00     0.003 A 
ATOM      6  C4  PXY d   1       0.873  -3.002  -2.486  0.00  0.00    -0.082 A 
ATOM      7  C5  PXY d   1       0.320  -4.232  -2.531  0.00  0.00     0.003 A 
ATOM      8  C6  PXY d   1       0.766  -5.209  -1.646  0.00  0.00     0.003 A 
ENDROOT
TORSDOF 0
ENDMDL
