MODEL 1
REMARK minimizedAffinity -0.545887172
REMARK minimizedRMSD -1
REMARK  0 active torsions:
REMARK  status: ('A' for Active; 'I' for Inactive)
ROOT
ATOM      1  C4' PXY d   1      -0.796   1.306   2.198  0.00  0.00     0.077 C 
ATOM      2  C1' PXY d   1       0.606  -2.520  -1.902  0.00  0.00     0.077 C 
ATOM      3  C1  PXY d   1       0.226  -1.521  -0.827  0.00  0.00    -0.082 A 
ATOM      4  C2  PXY d   1       0.961  -0.434  -0.655  0.00  0.00     0.003 A 
ATOM      5  C3  PXY d   1       0.650   0.464   0.333  0.00  0.00     0.003 A 
ATOM      6  C4  PXY d   1      -0.455   0.274   1.119  0.00  0.00    -0.082 A 
ATOM      7  C5  PXY d   1      -1.216  -0.827   0.943  0.00  0.00     0.003 A 
ATOM      8  C6  PXY d   1      -0.860  -1.747  -0.039  0.00  0.00     0.003 A 
ENDROOT
TORSDOF 0
ENDMDL
