MODEL 1
REMARK minimizedAffinity -2.76908064
REMARK minimizedRMSD -1
REMARK  0 active torsions:
REMARK  status: ('A' for Active; 'I' for Inactive)
ROOT
ATOM      1  C4' PXY d   1       0.822  -2.526  -2.371  0.00  0.00     0.077 C 
ATOM      2  C1' PXY d   1      -0.872   0.962   1.916  0.00  0.00     0.077 C 
ATOM      3  C1  PXY d   1      -0.420   0.057   0.788  0.00  0.00    -0.082 A 
ATOM      4  C2  PXY d   1      -1.234  -0.884   0.337  0.00  0.00     0.003 A 
ATOM      5  C3  PXY d   1      -0.829  -1.732  -0.661  0.00  0.00     0.003 A 
ATOM      6  C4  PXY d   1       0.403  -1.582  -1.240  0.00  0.00    -0.082 A 
ATOM      7  C5  PXY d   1       1.236  -0.619  -0.792  0.00  0.00     0.003 A 
ATOM      8  C6  PXY d   1       0.821   0.206   0.250  0.00  0.00     0.003 A 
ENDROOT
TORSDOF 0
ENDMDL
