MODEL 1
REMARK minimizedAffinity -0.801507294
REMARK minimizedRMSD -1
REMARK  0 active torsions:
REMARK  status: ('A' for Active; 'I' for Inactive)
ROOT
ATOM      1  C4' PXY d   1      -1.563   1.809   2.015  0.00  0.00     0.077 C 
ATOM      2  C1' PXY d   1       1.584  -2.009  -0.974  0.00  0.00     0.077 C 
ATOM      3  C1  PXY d   1       0.768  -0.999  -0.192  0.00  0.00    -0.082 A 
ATOM      4  C2  PXY d   1      -0.085  -1.418   0.729  0.00  0.00     0.003 A 
ATOM      5  C3  PXY d   1      -0.854  -0.520   1.422  0.00  0.00     0.003 A 
ATOM      6  C4  PXY d   1      -0.711   0.825   1.209  0.00  0.00    -0.082 A 
ATOM      7  C5  PXY d   1       0.164   1.261   0.278  0.00  0.00     0.003 A 
ATOM      8  C6  PXY d   1       0.906   0.331  -0.444  0.00  0.00     0.003 A 
ENDROOT
TORSDOF 0
ENDMDL
