MODEL 1
REMARK minimizedAffinity -0.742463708
REMARK minimizedRMSD -1
REMARK  0 active torsions:
REMARK  status: ('A' for Active; 'I' for Inactive)
ROOT
ATOM      1  C4' PXY d   1       0.126  -1.200   3.184  0.00  0.00     0.077 C 
ATOM      2  C1' PXY d   1       0.839   1.720  -1.753  0.00  0.00     0.077 C 
ATOM      3  C1  PXY d   1       0.647   0.965  -0.453  0.00  0.00    -0.082 A 
ATOM      4  C2  PXY d   1       1.379  -0.109  -0.206  0.00  0.00     0.003 A 
ATOM      5  C3  PXY d   1       1.196  -0.823   0.950  0.00  0.00     0.003 A 
ATOM      6  C4  PXY d   1       0.292  -0.401   1.889  0.00  0.00    -0.082 A 
ATOM      7  C5  PXY d   1      -0.451   0.700   1.649  0.00  0.00     0.003 A 
ATOM      8  C6  PXY d   1      -0.279   1.386   0.451  0.00  0.00     0.003 A 
ENDROOT
TORSDOF 0
ENDMDL
