MODEL 1
REMARK minimizedAffinity -3.94933462
REMARK minimizedRMSD -1
REMARK  0 active torsions:
REMARK  status: ('A' for Active; 'I' for Inactive)
ROOT
ATOM      1  C4' PXY d   1       0.738  -1.310  -0.771  0.00  0.00     0.077 C 
ATOM      2  C1' PXY d   1      -1.777   3.052   2.069  0.00  0.00     0.077 C 
ATOM      3  C1  PXY d   1      -1.117   1.915   1.314  0.00  0.00    -0.082 A 
ATOM      4  C2  PXY d   1      -1.252   0.674   1.751  0.00  0.00     0.003 A 
ATOM      5  C3  PXY d   1      -0.635  -0.362   1.098  0.00  0.00     0.003 A 
ATOM      6  C4  PXY d   1       0.082  -0.132  -0.045  0.00  0.00    -0.082 A 
ATOM      7  C5  PXY d   1       0.215   1.131  -0.504  0.00  0.00     0.003 A 
ATOM      8  C6  PXY d   1      -0.384   2.173   0.197  0.00  0.00     0.003 A 
ENDROOT
TORSDOF 0
ENDMDL
