MODEL 1
REMARK minimizedAffinity -3.94777465
REMARK minimizedRMSD -1
REMARK  0 active torsions:
REMARK  status: ('A' for Active; 'I' for Inactive)
ROOT
ATOM      1  C4' PXY d   1       0.905  -1.854  -1.215  0.00  0.00     0.077 C 
ATOM      2  C1' PXY d   1      -0.957   3.333   0.528  0.00  0.00     0.077 C 
ATOM      3  C1  PXY d   1      -0.465   1.978   0.059  0.00  0.00    -0.082 A 
ATOM      4  C2  PXY d   1      -0.950   0.879   0.614  0.00  0.00     0.003 A 
ATOM      5  C3  PXY d   1      -0.493  -0.354   0.225  0.00  0.00     0.003 A 
ATOM      6  C4  PXY d   1       0.431  -0.465  -0.780  0.00  0.00    -0.082 A 
ATOM      7  C5  PXY d   1       0.922   0.652  -1.359  0.00  0.00     0.003 A 
ATOM      8  C6  PXY d   1       0.475   1.895  -0.921  0.00  0.00     0.003 A 
ENDROOT
TORSDOF 0
ENDMDL
