MODEL 1
REMARK minimizedAffinity -3.01524854
REMARK minimizedRMSD -1
REMARK  0 active torsions:
REMARK  status: ('A' for Active; 'I' for Inactive)
ROOT
ATOM      1  C4' PXY d   1      -0.996   3.623   1.819  0.00  0.00     0.077 C 
ATOM      2  C1' PXY d   1       0.621  -1.204  -0.919  0.00  0.00     0.077 C 
ATOM      3  C1  PXY d   1       0.206   0.068  -0.208  0.00  0.00    -0.082 A 
ATOM      4  C2  PXY d   1      -0.375  -0.005   0.979  0.00  0.00     0.003 A 
ATOM      5  C3  PXY d   1      -0.786   1.134   1.622  0.00  0.00     0.003 A 
ATOM      6  C4  PXY d   1      -0.552   2.364   1.069  0.00  0.00    -0.082 A 
ATOM      7  C5  PXY d   1       0.050   2.448  -0.137  0.00  0.00     0.003 A 
ATOM      8  C6  PXY d   1       0.422   1.278  -0.792  0.00  0.00     0.003 A 
ENDROOT
TORSDOF 0
ENDMDL
