MODEL 1
REMARK minimizedAffinity -3.89490199
REMARK minimizedRMSD -1
REMARK  0 active torsions:
REMARK  status: ('A' for Active; 'I' for Inactive)
ROOT
ATOM      1  C4' PXY d   1      -1.422   1.628   1.897  0.00  0.00     0.077 C 
ATOM      2  C1' PXY d   1       0.966  -2.216  -1.700  0.00  0.00     0.077 C 
ATOM      3  C1  PXY d   1       0.347  -1.213  -0.746  0.00  0.00    -0.082 A 
ATOM      4  C2  PXY d   1      -0.805  -0.640  -1.058  0.00  0.00     0.003 A 
ATOM      5  C3  PXY d   1      -1.363   0.293  -0.222  0.00  0.00     0.003 A 
ATOM      6  C4  PXY d   1      -0.764   0.603   0.969  0.00  0.00    -0.082 A 
ATOM      7  C5  PXY d   1       0.405   0.014   1.299  0.00  0.00     0.003 A 
ATOM      8  C6  PXY d   1       0.977  -0.899   0.418  0.00  0.00     0.003 A 
ENDROOT
TORSDOF 0
ENDMDL
