MODEL 1
REMARK minimizedAffinity -4.00904226
REMARK minimizedRMSD -1
REMARK  0 active torsions:
REMARK  status: ('A' for Active; 'I' for Inactive)
ROOT
ATOM      1  C4' PXY d   1      -0.313  -1.748   1.979  0.00  0.00     0.077 C 
ATOM      2  C1' PXY d   1      -1.331   3.786   0.657  0.00  0.00     0.077 C 
ATOM      3  C1  PXY d   1      -1.063   2.332   0.991  0.00  0.00    -0.082 A 
ATOM      4  C2  PXY d   1      -1.481   1.838   2.145  0.00  0.00     0.003 A 
ATOM      5  C3  PXY d   1      -1.219   0.534   2.477  0.00  0.00     0.003 A 
ATOM      6  C4  PXY d   1      -0.569  -0.288   1.596  0.00  0.00    -0.082 A 
ATOM      7  C5  PXY d   1      -0.149   0.205   0.411  0.00  0.00     0.003 A 
ATOM      8  C6  PXY d   1      -0.389   1.543   0.111  0.00  0.00     0.003 A 
ENDROOT
TORSDOF 0
ENDMDL
