MODEL 1
REMARK minimizedAffinity -2.54028559
REMARK minimizedRMSD -1
REMARK  0 active torsions:
REMARK  status: ('A' for Active; 'I' for Inactive)
ROOT
ATOM      1  C4' PXY d   1      -0.217   4.210  -0.103  0.00  0.00     0.077 C 
ATOM      2  C1' PXY d   1      -0.424  -1.330   1.536  0.00  0.00     0.077 C 
ATOM      3  C1  PXY d   1      -0.380   0.126   1.113  0.00  0.00    -0.082 A 
ATOM      4  C2  PXY d   1       0.204   0.459  -0.027  0.00  0.00     0.003 A 
ATOM      5  C3  PXY d   1       0.280   1.773  -0.408  0.00  0.00     0.003 A 
ATOM      6  C4  PXY d   1      -0.293   2.752   0.359  0.00  0.00    -0.082 A 
ATOM      7  C5  PXY d   1      -0.900   2.419   1.518  0.00  0.00     0.003 A 
ATOM      8  C6  PXY d   1      -0.931   1.083   1.907  0.00  0.00     0.003 A 
ENDROOT
TORSDOF 0
ENDMDL
