MODEL 1
REMARK minimizedAffinity -5.10246944
REMARK minimizedRMSD -1
REMARK  0 active torsions:
REMARK  status: ('A' for Active; 'I' for Inactive)
ROOT
ATOM      1  C4' PXY d   1      -0.814  -0.813   2.632  0.00  0.00     0.077 C 
ATOM      2  C1' PXY d   1       0.643   3.441  -1.001  0.00  0.00     0.077 C 
ATOM      3  C1  PXY d   1       0.263   2.317  -0.057  0.00  0.00    -0.082 A 
ATOM      4  C2  PXY d   1      -0.518   2.569   0.980  0.00  0.00     0.003 A 
ATOM      5  C3  PXY d   1      -0.846   1.571   1.861  0.00  0.00     0.003 A 
ATOM      6  C4  PXY d   1      -0.412   0.290   1.648  0.00  0.00    -0.082 A 
ATOM      7  C5  PXY d   1       0.376   0.022   0.586  0.00  0.00     0.003 A 
ATOM      8  C6  PXY d   1       0.731   1.058  -0.274  0.00  0.00     0.003 A 
ENDROOT
TORSDOF 0
ENDMDL
