MODEL 1
REMARK minimizedAffinity -2.95318937
REMARK minimizedRMSD -1
REMARK  0 active torsions:
REMARK  status: ('A' for Active; 'I' for Inactive)
ROOT
ATOM      1  C4' PXY d   1       0.158   4.304   0.356  0.00  0.00     0.077 C 
ATOM      2  C1' PXY d   1      -0.403  -1.302   1.652  0.00  0.00     0.077 C 
ATOM      3  C1  PXY d   1      -0.244   0.166   1.307  0.00  0.00    -0.082 A 
ATOM      4  C2  PXY d   1      -0.932   1.074   1.980  0.00  0.00     0.003 A 
ATOM      5  C3  PXY d   1      -0.824   2.403   1.660  0.00  0.00     0.003 A 
ATOM      6  C4  PXY d   1       0.036   2.811   0.676  0.00  0.00    -0.082 A 
ATOM      7  C5  PXY d   1       0.749   1.892  -0.007  0.00  0.00     0.003 A 
ATOM      8  C6  PXY d   1       0.595   0.544   0.305  0.00  0.00     0.003 A 
ENDROOT
TORSDOF 0
ENDMDL
