MODEL 1
REMARK minimizedAffinity -4.81219912
REMARK minimizedRMSD -1
REMARK  0 active torsions:
REMARK  status: ('A' for Active; 'I' for Inactive)
ROOT
ATOM      1  C4' PXY d   1       0.655  -1.959  -1.268  0.00  0.00     0.077 C 
ATOM      2  C1' PXY d   1      -0.850   2.797   1.652  0.00  0.00     0.077 C 
ATOM      3  C1  PXY d   1      -0.459   1.542   0.896  0.00  0.00    -0.082 A 
ATOM      4  C2  PXY d   1       0.450   1.613  -0.062  0.00  0.00     0.003 A 
ATOM      5  C3  PXY d   1       0.792   0.494  -0.778  0.00  0.00     0.003 A 
ATOM      6  C4  PXY d   1       0.237  -0.720  -0.473  0.00  0.00    -0.082 A 
ATOM      7  C5  PXY d   1      -0.684  -0.802   0.512  0.00  0.00     0.003 A 
ATOM      8  C6  PXY d   1      -1.047   0.353   1.198  0.00  0.00     0.003 A 
ENDROOT
TORSDOF 0
ENDMDL
