MODEL 1
REMARK minimizedAffinity -2.34215307
REMARK minimizedRMSD -1
REMARK  0 active torsions:
REMARK  status: ('A' for Active; 'I' for Inactive)
ROOT
ATOM      1  C4' PXY d   1      -0.384   1.953   2.212  0.00  0.00     0.077 C 
ATOM      2  C1' PXY d   1       1.028  -2.024  -1.738  0.00  0.00     0.077 C 
ATOM      3  C1  PXY d   1       0.668  -0.974  -0.706  0.00  0.00    -0.082 A 
ATOM      4  C2  PXY d   1       0.000  -1.326   0.380  0.00  0.00     0.003 A 
ATOM      5  C3  PXY d   1      -0.362  -0.384   1.308  0.00  0.00     0.003 A 
ATOM      6  C4  PXY d   1       0.009   0.924   1.148  0.00  0.00    -0.082 A 
ATOM      7  C5  PXY d   1       0.700   1.290   0.047  0.00  0.00     0.003 A 
ATOM      8  C6  PXY d   1       1.022   0.325  -0.903  0.00  0.00     0.003 A 
ENDROOT
TORSDOF 0
ENDMDL
