MODEL 1
REMARK minimizedAffinity -4.19867229
REMARK minimizedRMSD -1
REMARK  0 active torsions:
REMARK  status: ('A' for Active; 'I' for Inactive)
ROOT
ATOM      1  C   UNL d   1       0.351  -1.097   0.487  0.00  0.00     0.023 A 
ATOM      2  C1  UNL d   1       1.709  -0.788   0.412  0.00  0.00     0.003 A 
ATOM      3  C2  UNL d   1       2.652  -1.809   0.277  0.00  0.00     0.048 A 
ATOM      4  C3  UNL d   1       2.231  -3.137   0.216  0.00  0.00     0.023 A 
ATOM      5  C4  UNL d   1       0.872  -3.451   0.290  0.00  0.00     0.048 A 
ATOM      6  C5  UNL d   1      -0.067  -2.427   0.426  0.00  0.00     0.003 A 
ATOM      7  I   UNL d   1       3.633  -4.657   0.015  0.00  0.00    -0.146 I 
ENDROOT
TORSDOF 0
ENDMDL
