MODEL 1
REMARK minimizedAffinity 0.058784876
REMARK minimizedRMSD -1
REMARK  0 active torsions:
REMARK  status: ('A' for Active; 'I' for Inactive)
ROOT
ATOM      1  C   UNL d   1       2.407  -3.150  -0.229  0.00  0.00     0.023 A 
ATOM      2  C1  UNL d   1       1.153  -3.665   0.101  0.00  0.00     0.003 A 
ATOM      3  C2  UNL d   1       0.152  -2.816   0.577  0.00  0.00     0.048 A 
ATOM      4  C3  UNL d   1       0.411  -1.453   0.719  0.00  0.00     0.023 A 
ATOM      5  C4  UNL d   1       1.663  -0.934   0.389  0.00  0.00     0.048 A 
ATOM      6  C5  UNL d   1       2.662  -1.787  -0.085  0.00  0.00     0.003 A 
ATOM      7  I   UNL d   1      -1.079  -0.187   1.426  0.00  0.00    -0.146 I 
ENDROOT
TORSDOF 0
ENDMDL
