MODEL 1
REMARK minimizedAffinity -1.08416164
REMARK minimizedRMSD -1
REMARK  0 active torsions:
REMARK  status: ('A' for Active; 'I' for Inactive)
ROOT
ATOM      1  C   UNL d   1       0.744  -1.673   0.231  0.00  0.00     0.023 A 
ATOM      2  C1  UNL d   1       0.395  -3.014   0.064  0.00  0.00     0.003 A 
ATOM      3  C2  UNL d   1       1.390  -3.991  -0.013  0.00  0.00     0.048 A 
ATOM      4  C3  UNL d   1       2.731  -3.622   0.079  0.00  0.00     0.023 A 
ATOM      5  C4  UNL d   1       3.085  -2.282   0.247  0.00  0.00     0.048 A 
ATOM      6  C5  UNL d   1       2.087  -1.308   0.322  0.00  0.00     0.003 A 
ATOM      7  I   UNL d   1       4.213  -5.075  -0.034  0.00  0.00    -0.146 I 
ENDROOT
TORSDOF 0
ENDMDL
