MODEL 1
REMARK minimizedAffinity 1.18356717
REMARK minimizedRMSD -1
REMARK  0 active torsions:
REMARK  status: ('A' for Active; 'I' for Inactive)
ROOT
ATOM      1  C   UNL d   1      -0.551  -3.099   0.222  0.00  0.00     0.023 A 
ATOM      2  C1  UNL d   1       0.813  -3.393   0.178  0.00  0.00     0.003 A 
ATOM      3  C2  UNL d   1       1.750  -2.417   0.523  0.00  0.00     0.048 A 
ATOM      4  C3  UNL d   1       1.317  -1.150   0.912  0.00  0.00     0.023 A 
ATOM      5  C4  UNL d   1      -0.046  -0.852   0.959  0.00  0.00     0.048 A 
ATOM      6  C5  UNL d   1      -0.979  -1.830   0.612  0.00  0.00     0.003 A 
ATOM      7  I   UNL d   1       2.710   0.305   1.427  0.00  0.00    -0.146 I 
ENDROOT
TORSDOF 0
ENDMDL
