MODEL 1
REMARK minimizedAffinity 4.43977451
REMARK minimizedRMSD -1
REMARK  0 active torsions:
REMARK  status: ('A' for Active; 'I' for Inactive)
ROOT
ATOM      1  C   UNL d   1       0.444  -1.479   0.479  0.00  0.00     0.023 A 
ATOM      2  C1  UNL d   1       0.098  -2.827   0.383  0.00  0.00     0.003 A 
ATOM      3  C2  UNL d   1       1.079  -3.785   0.121  0.00  0.00     0.048 A 
ATOM      4  C3  UNL d   1       2.406  -3.387  -0.045  0.00  0.00     0.023 A 
ATOM      5  C4  UNL d   1       2.757  -2.040   0.051  0.00  0.00     0.048 A 
ATOM      6  C5  UNL d   1       1.772  -1.086   0.313  0.00  0.00     0.003 A 
ATOM      7  I   UNL d   1       3.869  -4.811  -0.436  0.00  0.00    -0.146 I 
ENDROOT
TORSDOF 0
ENDMDL
