MODEL 1
REMARK minimizedAffinity -4.70727253
REMARK minimizedRMSD -1
REMARK  0 active torsions:
REMARK  status: ('A' for Active; 'I' for Inactive)
ROOT
ATOM      1  C   UNL d   1       0.439  -0.978   0.835  0.00  0.00     0.023 A 
ATOM      2  C1  UNL d   1       0.170  -2.346   0.899  0.00  0.00     0.003 A 
ATOM      3  C2  UNL d   1       1.176  -3.271   0.614  0.00  0.00     0.048 A 
ATOM      4  C3  UNL d   1       2.450  -2.822   0.267  0.00  0.00     0.023 A 
ATOM      5  C4  UNL d   1       2.724  -1.454   0.203  0.00  0.00     0.048 A 
ATOM      6  C5  UNL d   1       1.714  -0.533   0.488  0.00  0.00     0.003 A 
ATOM      7  I   UNL d   1       3.949  -4.197  -0.158  0.00  0.00    -0.146 I 
ENDROOT
TORSDOF 0
ENDMDL
