MODEL 1
REMARK minimizedAffinity -3.08535838
REMARK minimizedRMSD -1
REMARK  0 active torsions:
REMARK  status: ('A' for Active; 'I' for Inactive)
ROOT
ATOM      1  C   UNL d   1       0.748  -1.091   0.457  0.00  0.00     0.023 A 
ATOM      2  C1  UNL d   1       2.089  -0.762   0.264  0.00  0.00     0.003 A 
ATOM      3  C2  UNL d   1       3.031  -1.769   0.039  0.00  0.00     0.048 A 
ATOM      4  C3  UNL d   1       2.623  -3.102   0.006  0.00  0.00     0.023 A 
ATOM      5  C4  UNL d   1       1.282  -3.436   0.198  0.00  0.00     0.048 A 
ATOM      6  C5  UNL d   1       0.344  -2.426   0.424  0.00  0.00     0.003 A 
ATOM      7  I   UNL d   1       4.023  -4.602  -0.330  0.00  0.00    -0.146 I 
ENDROOT
TORSDOF 0
ENDMDL
