MODEL 1
REMARK minimizedAffinity 2.6922729
REMARK minimizedRMSD -1
REMARK  0 active torsions:
REMARK  status: ('A' for Active; 'I' for Inactive)
ROOT
ATOM      1  C   UNL d   1      -0.379  -0.671   0.926  0.00  0.00     0.023 A 
ATOM      2  C1  UNL d   1       0.920  -0.615   1.432  0.00  0.00     0.003 A 
ATOM      3  C2  UNL d   1       1.791  -1.690   1.244  0.00  0.00     0.048 A 
ATOM      4  C3  UNL d   1       1.357  -2.818   0.548  0.00  0.00     0.023 A 
ATOM      5  C4  UNL d   1       0.059  -2.878   0.039  0.00  0.00     0.048 A 
ATOM      6  C5  UNL d   1      -0.809  -1.801   0.230  0.00  0.00     0.003 A 
ATOM      7  I   UNL d   1       2.652  -4.419   0.266  0.00  0.00    -0.146 I 
ENDROOT
TORSDOF 0
ENDMDL
