MODEL 1
REMARK minimizedAffinity 0.323866457
REMARK minimizedRMSD -1
REMARK  0 active torsions:
REMARK  status: ('A' for Active; 'I' for Inactive)
ROOT
ATOM      1  C   UNL d   1       0.683  -1.395   0.270  0.00  0.00     0.023 A 
ATOM      2  C1  UNL d   1       2.030  -1.055   0.387  0.00  0.00     0.003 A 
ATOM      3  C2  UNL d   1       3.010  -2.048   0.330  0.00  0.00     0.048 A 
ATOM      4  C3  UNL d   1       2.635  -3.380   0.153  0.00  0.00     0.023 A 
ATOM      5  C4  UNL d   1       1.288  -3.724   0.033  0.00  0.00     0.048 A 
ATOM      6  C5  UNL d   1       0.312  -2.728   0.093  0.00  0.00     0.003 A 
ATOM      7  I   UNL d   1       4.092  -4.860   0.066  0.00  0.00    -0.146 I 
ENDROOT
TORSDOF 0
ENDMDL
