MODEL 1
REMARK minimizedAffinity 2.73297286
REMARK minimizedRMSD -1
REMARK  0 active torsions:
REMARK  status: ('A' for Active; 'I' for Inactive)
ROOT
ATOM      1  C   UNL d   1      -1.139  -1.548   0.573  0.00  0.00     0.023 A 
ATOM      2  C1  UNL d   1      -0.259  -2.623   0.695  0.00  0.00     0.003 A 
ATOM      3  C2  UNL d   1       1.063  -2.405   1.086  0.00  0.00     0.048 A 
ATOM      4  C3  UNL d   1       1.499  -1.108   1.356  0.00  0.00     0.023 A 
ATOM      5  C4  UNL d   1       0.622  -0.029   1.237  0.00  0.00     0.048 A 
ATOM      6  C5  UNL d   1      -0.699  -0.252   0.844  0.00  0.00     0.003 A 
ATOM      7  I   UNL d   1       3.467  -0.780   1.939  0.00  0.00    -0.146 I 
ENDROOT
TORSDOF 0
ENDMDL
