MODEL 1
REMARK minimizedAffinity -3.14910173
REMARK minimizedRMSD -1
REMARK  0 active torsions:
REMARK  status: ('A' for Active; 'I' for Inactive)
ROOT
ATOM      1  C   UNL d   1       0.081  -0.831   0.881  0.00  0.00     0.023 A 
ATOM      2  C1  UNL d   1       1.399  -0.449   0.630  0.00  0.00     0.003 A 
ATOM      3  C2  UNL d   1       2.367  -1.418   0.357  0.00  0.00     0.048 A 
ATOM      4  C3  UNL d   1       2.010  -2.766   0.335  0.00  0.00     0.023 A 
ATOM      5  C4  UNL d   1       0.692  -3.152   0.585  0.00  0.00     0.048 A 
ATOM      6  C5  UNL d   1      -0.272  -2.180   0.858  0.00  0.00     0.003 A 
ATOM      7  I   UNL d   1       3.449  -4.209  -0.072  0.00  0.00    -0.146 I 
ENDROOT
TORSDOF 0
ENDMDL
