MODEL 1
REMARK minimizedAffinity 2.74517584
REMARK minimizedRMSD -1
REMARK  0 active torsions:
REMARK  status: ('A' for Active; 'I' for Inactive)
ROOT
ATOM      1  C   UNL d   1      -0.127  -0.915   1.126  0.00  0.00     0.023 A 
ATOM      2  C1  UNL d   1      -0.353  -2.290   1.200  0.00  0.00     0.003 A 
ATOM      3  C2  UNL d   1       0.663  -3.184   0.857  0.00  0.00     0.048 A 
ATOM      4  C3  UNL d   1       1.902  -2.698   0.442  0.00  0.00     0.023 A 
ATOM      5  C4  UNL d   1       2.132  -1.323   0.368  0.00  0.00     0.048 A 
ATOM      6  C5  UNL d   1       1.114  -0.432   0.711  0.00  0.00     0.003 A 
ATOM      7  I   UNL d   1       3.415  -4.027  -0.069  0.00  0.00    -0.146 I 
ENDROOT
TORSDOF 0
ENDMDL
