MODEL 1
REMARK minimizedAffinity -1.52823305
REMARK minimizedRMSD -1
REMARK  0 active torsions:
REMARK  status: ('A' for Active; 'I' for Inactive)
ROOT
ATOM      1  C   UNL d   1      -0.241  -0.829   0.863  0.00  0.00     0.023 A 
ATOM      2  C1  UNL d   1       0.954  -0.609   0.176  0.00  0.00     0.003 A 
ATOM      3  C2  UNL d   1       1.818  -1.675  -0.083  0.00  0.00     0.048 A 
ATOM      4  C3  UNL d   1       1.481  -2.958   0.345  0.00  0.00     0.023 A 
ATOM      5  C4  UNL d   1       0.286  -3.184   1.031  0.00  0.00     0.048 A 
ATOM      6  C5  UNL d   1      -0.574  -2.115   1.290  0.00  0.00     0.003 A 
ATOM      7  I   UNL d   1       2.765  -4.546  -0.041  0.00  0.00    -0.146 I 
ENDROOT
TORSDOF 0
ENDMDL
