MODEL 1
REMARK minimizedAffinity 5.42604494
REMARK minimizedRMSD -1
REMARK  1 active torsions:
REMARK  status: ('A' for Active; 'I' for Inactive)
REMARK    1  A    between atoms: C1_2  and  C2_3 
ROOT
ATOM      1  C2  UNL d   1       2.448  -0.186  -0.238  0.00  0.00    -0.076 A 
ATOM      2  C3  UNL d   1       3.212   0.894   0.237  0.00  0.00     0.004 A 
ATOM      3  C4  UNL d   1       3.141   2.146  -0.371  0.00  0.00    -0.003 A 
ATOM      4  C5  UNL d   1       2.304   2.338  -1.465  0.00  0.00     0.000 A 
ATOM      5  C6  UNL d   1       1.527   1.282  -1.940  0.00  0.00     0.000 A 
ATOM      6  C7  UNL d   1       1.574   0.018  -1.327  0.00  0.00    -0.073 A 
ATOM      7  C8  UNL d   1       0.718  -1.086  -1.884  0.00  0.00     0.078 C 
ENDROOT
BRANCH   1   8
ATOM      8  C1  UNL d   1       2.587  -1.528   0.445  0.00  0.00     0.053 C 
ATOM      9  C   UNL d   1       1.845  -1.586   1.771  0.00  0.00     0.018 C 
ENDBRANCH   1   8
TORSDOF 1
ENDMDL
