MODEL 1
REMARK minimizedAffinity 9.03716183
REMARK minimizedRMSD -1
REMARK  1 active torsions:
REMARK  status: ('A' for Active; 'I' for Inactive)
REMARK    1  A    between atoms: C1_2  and  C2_3 
ROOT
ATOM      1  C2  UNL d   1      -0.552  -0.228   3.301  0.00  0.00    -0.076 A 
ATOM      2  C3  UNL d   1       0.534   0.575   3.690  0.00  0.00     0.004 A 
ATOM      3  C4  UNL d   1       1.847   0.165   3.465  0.00  0.00    -0.003 A 
ATOM      4  C5  UNL d   1       2.095  -1.055   2.846  0.00  0.00     0.000 A 
ATOM      5  C6  UNL d   1       1.029  -1.857   2.437  0.00  0.00     0.000 A 
ATOM      6  C7  UNL d   1      -0.300  -1.450   2.642  0.00  0.00    -0.073 A 
ATOM      7  C8  UNL d   1      -1.411  -2.357   2.186  0.00  0.00     0.078 C 
ENDROOT
BRANCH   1   8
ATOM      8  C1  UNL d   1      -1.954   0.257   3.596  0.00  0.00     0.053 C 
ATOM      9  C   UNL d   1      -2.626   0.871   2.377  0.00  0.00     0.018 C 
ENDBRANCH   1   8
TORSDOF 1
ENDMDL
