MODEL 1
REMARK minimizedAffinity 9.05869675
REMARK minimizedRMSD -1
REMARK  1 active torsions:
REMARK  status: ('A' for Active; 'I' for Inactive)
REMARK    1  A    between atoms: C1_2  and  C2_3 
ROOT
ATOM      1  C2  UNL d   1       4.133  -3.541   4.329  0.00  0.00    -0.076 A 
ATOM      2  C3  UNL d   1       3.464  -4.722   3.963  0.00  0.00     0.004 A 
ATOM      3  C4  UNL d   1       3.743  -5.931   4.598  0.00  0.00    -0.003 A 
ATOM      4  C5  UNL d   1       4.697  -5.979   5.608  0.00  0.00     0.000 A 
ATOM      5  C6  UNL d   1       5.358  -4.815   5.996  0.00  0.00     0.000 A 
ATOM      6  C7  UNL d   1       5.076  -3.584   5.378  0.00  0.00    -0.073 A 
ATOM      7  C8  UNL d   1       5.824  -2.360   5.832  0.00  0.00     0.078 C 
ENDROOT
BRANCH   1   8
ATOM      8  C1  UNL d   1       3.808  -2.264   3.588  0.00  0.00     0.053 C 
ATOM      9  C   UNL d   1       2.396  -1.773   3.865  0.00  0.00     0.018 C 
ENDBRANCH   1   8
TORSDOF 1
ENDMDL
