MODEL 1
REMARK minimizedAffinity -3.07135224
REMARK minimizedRMSD -1
REMARK  1 active torsions:
REMARK  status: ('A' for Active; 'I' for Inactive)
REMARK    1  A    between atoms: C1_2  and  C2_3 
ROOT
ATOM      1  C2  UNL d   1      -2.536   0.396  -4.084  0.00  0.00    -0.076 A 
ATOM      2  C3  UNL d   1      -1.664   0.985  -3.151  0.00  0.00     0.004 A 
ATOM      3  C4  UNL d   1      -1.232   0.280  -2.029  0.00  0.00    -0.003 A 
ATOM      4  C5  UNL d   1      -1.665  -1.025  -1.821  0.00  0.00     0.000 A 
ATOM      5  C6  UNL d   1      -2.516  -1.631  -2.745  0.00  0.00     0.000 A 
ATOM      6  C7  UNL d   1      -2.947  -0.940  -3.891  0.00  0.00    -0.073 A 
ATOM      7  C8  UNL d   1      -3.870  -1.640  -4.851  0.00  0.00     0.078 C 
ENDROOT
BRANCH   1   8
ATOM      8  C1  UNL d   1      -2.992   1.218  -5.268  0.00  0.00     0.053 C 
ATOM      9  C   UNL d   1      -3.600   2.549  -4.853  0.00  0.00     0.018 C 
ENDBRANCH   1   8
TORSDOF 1
ENDMDL
