MODEL 1
REMARK minimizedAffinity 7.85407162
REMARK minimizedRMSD -1
REMARK  1 active torsions:
REMARK  status: ('A' for Active; 'I' for Inactive)
REMARK    1  A    between atoms: C1_2  and  C2_3 
ROOT
ATOM      1  C2  UNL d   1       1.858  -0.116  -0.480  0.00  0.00    -0.076 A 
ATOM      2  C3  UNL d   1       2.656   1.004  -0.193  0.00  0.00     0.004 A 
ATOM      3  C4  UNL d   1       2.382   2.246  -0.764  0.00  0.00    -0.003 A 
ATOM      4  C5  UNL d   1       1.303   2.387  -1.630  0.00  0.00     0.000 A 
ATOM      5  C6  UNL d   1       0.490   1.290  -1.912  0.00  0.00     0.000 A 
ATOM      6  C7  UNL d   1       0.743   0.035  -1.333  0.00  0.00    -0.073 A 
ATOM      7  C8  UNL d   1      -0.163  -1.115  -1.677  0.00  0.00     0.078 C 
ENDROOT
BRANCH   1   8
ATOM      8  C1  UNL d   1       2.221  -1.444   0.147  0.00  0.00     0.053 C 
ATOM      9  C   UNL d   1       1.673  -1.590   1.558  0.00  0.00     0.018 C 
ENDBRANCH   1   8
TORSDOF 1
ENDMDL
