MODEL 1
REMARK minimizedAffinity 4.41112995
REMARK minimizedRMSD -1
REMARK  1 active torsions:
REMARK  status: ('A' for Active; 'I' for Inactive)
REMARK    1  A    between atoms: C1_2  and  C2_3 
ROOT
ATOM      1  C2  UNL d   1      -0.678  -1.385   1.393  0.00  0.00    -0.076 A 
ATOM      2  C3  UNL d   1      -1.314  -2.540   1.880  0.00  0.00     0.004 A 
ATOM      3  C4  UNL d   1      -0.838  -3.198   3.013  0.00  0.00    -0.003 A 
ATOM      4  C5  UNL d   1       0.283  -2.711   3.677  0.00  0.00     0.000 A 
ATOM      5  C6  UNL d   1       0.916  -1.557   3.218  0.00  0.00     0.000 A 
ATOM      6  C7  UNL d   1       0.439  -0.872   2.087  0.00  0.00    -0.073 A 
ATOM      7  C8  UNL d   1       1.164   0.364   1.633  0.00  0.00     0.078 C 
ENDROOT
BRANCH   1   8
ATOM      8  C1  UNL d   1      -1.223  -0.730   0.144  0.00  0.00     0.053 C 
ATOM      9  C   UNL d   1      -1.983  -1.705  -0.741  0.00  0.00     0.018 C 
ENDBRANCH   1   8
TORSDOF 1
ENDMDL
