MODEL 1
REMARK minimizedAffinity -2.84854555
REMARK minimizedRMSD -1
REMARK  0 active torsions:
REMARK  status: ('A' for Active; 'I' for Inactive)
ROOT
ATOM      1  O1  BZF d   1      -3.347   1.728  -2.449  0.00  0.00    -0.204 OA
ATOM      2  C2  BZF d   1      -4.397   1.609  -3.340  0.00  0.00     0.174 A 
ATOM      3  C3  BZF d   1      -5.579   1.617  -2.690  0.00  0.00    -0.012 A 
ATOM      4  C3A BZF d   1      -5.251   1.841  -1.315  0.00  0.00    -0.107 A 
ATOM      5  C4  BZF d   1      -6.000   1.966  -0.180  0.00  0.00     0.055 A 
ATOM      6  C5  BZF d   1      -5.369   2.106   1.015  0.00  0.00    -0.016 A 
ATOM      7  C6  BZF d   1      -3.993   2.119   1.113  0.00  0.00     0.022 A 
ATOM      8  C7  BZF d   1      -3.208   2.003   0.014  0.00  0.00     0.029 A 
ATOM      9  C7A BZF d   1      -3.843   1.895  -1.199  0.00  0.00     0.058 A 
ENDROOT
TORSDOF 0
ENDMDL
