MODEL 1
REMARK minimizedAffinity 4.09210157
REMARK minimizedRMSD -1
REMARK  0 active torsions:
REMARK  status: ('A' for Active; 'I' for Inactive)
ROOT
ATOM      1  O1  BZF d   1       3.137  -5.878  -5.299  0.00  0.00    -0.204 OA
ATOM      2  C2  BZF d   1       1.906  -5.897  -5.926  0.00  0.00     0.174 A 
ATOM      3  C3  BZF d   1       0.910  -5.997  -5.022  0.00  0.00    -0.012 A 
ATOM      4  C3A BZF d   1       1.554  -5.951  -3.746  0.00  0.00    -0.107 A 
ATOM      5  C4  BZF d   1       1.095  -5.991  -2.460  0.00  0.00     0.055 A 
ATOM      6  C5  BZF d   1       1.991  -6.000  -1.439  0.00  0.00    -0.016 A 
ATOM      7  C6  BZF d   1       3.351  -5.974  -1.666  0.00  0.00     0.022 A 
ATOM      8  C7  BZF d   1       3.855  -5.928  -2.923  0.00  0.00     0.029 A 
ATOM      9  C7A BZF d   1       2.951  -5.887  -3.957  0.00  0.00     0.058 A 
ENDROOT
TORSDOF 0
ENDMDL
