MODEL 1
REMARK minimizedAffinity 7.01543331
REMARK minimizedRMSD -1
REMARK  0 active torsions:
REMARK  status: ('A' for Active; 'I' for Inactive)
ROOT
ATOM      1  O1  BZF d   1       3.419  -3.739   0.096  0.00  0.00    -0.204 OA
ATOM      2  C2  BZF d   1       3.584  -3.043  -1.086  0.00  0.00     0.174 A 
ATOM      3  C3  BZF d   1       3.188  -1.762  -0.945  0.00  0.00    -0.012 A 
ATOM      4  C3A BZF d   1       2.835  -1.626   0.435  0.00  0.00    -0.107 A 
ATOM      5  C4  BZF d   1       2.382  -0.582   1.190  0.00  0.00     0.055 A 
ATOM      6  C5  BZF d   1       2.061  -0.799   2.492  0.00  0.00    -0.016 A 
ATOM      7  C6  BZF d   1       2.176  -2.046   3.070  0.00  0.00     0.022 A 
ATOM      8  C7  BZF d   1       2.626  -3.111   2.363  0.00  0.00     0.029 A 
ATOM      9  C7A BZF d   1       2.982  -2.888   1.055  0.00  0.00     0.058 A 
ENDROOT
TORSDOF 0
ENDMDL
