MODEL 1
REMARK minimizedAffinity 10.7913132
REMARK minimizedRMSD -1
REMARK  0 active torsions:
REMARK  status: ('A' for Active; 'I' for Inactive)
ROOT
ATOM      1  O1  BZF d   1       4.701   1.021  -5.063  0.00  0.00    -0.204 OA
ATOM      2  C2  BZF d   1       5.817   0.396  -5.586  0.00  0.00     0.174 A 
ATOM      3  C3  BZF d   1       6.000  -0.812  -5.013  0.00  0.00    -0.012 A 
ATOM      4  C3A BZF d   1       4.880  -0.989  -4.141  0.00  0.00    -0.107 A 
ATOM      5  C4  BZF d   1       4.489  -1.998  -3.308  0.00  0.00     0.055 A 
ATOM      6  C5  BZF d   1       3.382  -1.827  -2.538  0.00  0.00    -0.016 A 
ATOM      7  C6  BZF d   1       2.647  -0.660  -2.572  0.00  0.00     0.022 A 
ATOM      8  C7  BZF d   1       2.993   0.367  -3.386  0.00  0.00     0.029 A 
ATOM      9  C7A BZF d   1       4.092   0.184  -4.189  0.00  0.00     0.058 A 
ENDROOT
TORSDOF 0
ENDMDL
