MODEL 1
REMARK minimizedAffinity -3.04685307
REMARK minimizedRMSD -1
REMARK  1 active torsions:
REMARK  status: ('A' for Active; 'I' for Inactive)
REMARK    1  A    between atoms: C1_2  and  C2_3 
ROOT
ATOM      1  C2  UNL d   1      -3.816   5.863  -3.378  0.00  0.00    -0.073 A 
ATOM      2  C3  UNL d   1      -3.095   6.000  -2.185  0.00  0.00    -0.002 A 
ATOM      3  C4  UNL d   1      -1.701   5.939  -2.193  0.00  0.00     0.004 A 
ATOM      4  C5  UNL d   1      -1.014   5.748  -3.392  0.00  0.00    -0.004 A 
ATOM      5  C6  UNL d   1      -1.715   5.621  -4.595  0.00  0.00    -0.075 A 
ATOM      6  C7  UNL d   1      -0.991   5.413  -5.892  0.00  0.00     0.076 C 
ATOM      7  C8  UNL d   1      -3.115   5.681  -4.579  0.00  0.00     0.001 A 
ENDROOT
BRANCH   1   8
ATOM      8  C1  UNL d   1      -5.321   5.935  -3.375  0.00  0.00     0.053 C 
ATOM      9  C   UNL d   1      -5.936   4.966  -2.377  0.00  0.00     0.018 C 
ENDBRANCH   1   8
TORSDOF 1
ENDMDL
