MODEL 1
REMARK minimizedAffinity 6.59735489
REMARK minimizedRMSD -1
REMARK  1 active torsions:
REMARK  status: ('A' for Active; 'I' for Inactive)
REMARK    1  A    between atoms: C1_2  and  C2_3 
ROOT
ATOM      1  C2  UNL d   1      -1.405  -0.929   2.387  0.00  0.00    -0.073 A 
ATOM      2  C3  UNL d   1      -2.494  -1.602   1.820  0.00  0.00    -0.002 A 
ATOM      3  C4  UNL d   1      -2.288  -2.723   1.015  0.00  0.00     0.004 A 
ATOM      4  C5  UNL d   1      -0.995  -3.187   0.775  0.00  0.00    -0.004 A 
ATOM      5  C6  UNL d   1       0.105  -2.535   1.342  0.00  0.00    -0.075 A 
ATOM      6  C7  UNL d   1       1.503  -3.020   1.091  0.00  0.00     0.076 C 
ATOM      7  C8  UNL d   1      -0.109  -1.408   2.147  0.00  0.00     0.001 A 
ENDROOT
BRANCH   1   8
ATOM      8  C1  UNL d   1      -1.623   0.278   3.262  0.00  0.00     0.053 C 
ATOM      9  C   UNL d   1      -2.279  -0.086   4.584  0.00  0.00     0.018 C 
ENDBRANCH   1   8
TORSDOF 1
ENDMDL
