MODEL 1
REMARK minimizedAffinity 11.0062799
REMARK minimizedRMSD -1
REMARK  1 active torsions:
REMARK  status: ('A' for Active; 'I' for Inactive)
REMARK    1  A    between atoms: C1_2  and  C2_3 
ROOT
ATOM      1  C2  UNL d   1      -1.745  -1.098   1.573  0.00  0.00    -0.073 A 
ATOM      2  C3  UNL d   1      -1.400  -0.122   2.514  0.00  0.00    -0.002 A 
ATOM      3  C4  UNL d   1      -2.140   1.058   2.611  0.00  0.00     0.004 A 
ATOM      4  C5  UNL d   1      -3.235   1.270   1.773  0.00  0.00    -0.004 A 
ATOM      5  C6  UNL d   1      -3.602   0.301   0.833  0.00  0.00    -0.075 A 
ATOM      6  C7  UNL d   1      -4.776   0.516  -0.077  0.00  0.00     0.076 C 
ATOM      7  C8  UNL d   1      -2.853  -0.879   0.741  0.00  0.00     0.001 A 
ENDROOT
BRANCH   1   8
ATOM      8  C1  UNL d   1      -0.953  -2.375   1.469  0.00  0.00     0.053 C 
ATOM      9  C   UNL d   1       0.322  -2.323   2.295  0.00  0.00     0.018 C 
ENDBRANCH   1   8
TORSDOF 1
ENDMDL
