MODEL 1
REMARK minimizedAffinity 9.05447483
REMARK minimizedRMSD -1
REMARK  1 active torsions:
REMARK  status: ('A' for Active; 'I' for Inactive)
REMARK    1  A    between atoms: C1_2  and  C2_3 
ROOT
ATOM      1  C2  UNL d   1      -5.102  -3.660   2.483  0.00  0.00    -0.073 A 
ATOM      2  C3  UNL d   1      -5.343  -4.825   1.747  0.00  0.00    -0.002 A 
ATOM      3  C4  UNL d   1      -5.787  -5.984   2.386  0.00  0.00     0.004 A 
ATOM      4  C5  UNL d   1      -5.999  -5.988   3.764  0.00  0.00    -0.004 A 
ATOM      5  C6  UNL d   1      -5.775  -4.830   4.516  0.00  0.00    -0.075 A 
ATOM      6  C7  UNL d   1      -5.997  -4.818   6.000  0.00  0.00     0.076 C 
ATOM      7  C8  UNL d   1      -5.327  -3.671   3.867  0.00  0.00     0.001 A 
ENDROOT
BRANCH   1   8
ATOM      8  C1  UNL d   1      -4.629  -2.404   1.797  0.00  0.00     0.053 C 
ATOM      9  C   UNL d   1      -3.123  -2.226   1.908  0.00  0.00     0.018 C 
ENDBRANCH   1   8
TORSDOF 1
ENDMDL
