MODEL 1
REMARK minimizedAffinity 14.4470243
REMARK minimizedRMSD -1
REMARK  1 active torsions:
REMARK  status: ('A' for Active; 'I' for Inactive)
REMARK    1  A    between atoms: C1_2  and  C2_3 
ROOT
ATOM      1  C2  UNL d   1       0.169  -5.141  -4.508  0.00  0.00    -0.073 A 
ATOM      2  C3  UNL d   1      -0.151  -4.017  -3.739  0.00  0.00    -0.002 A 
ATOM      3  C4  UNL d   1      -1.459  -3.533  -3.708  0.00  0.00     0.004 A 
ATOM      4  C5  UNL d   1      -2.461  -4.170  -4.439  0.00  0.00    -0.004 A 
ATOM      5  C6  UNL d   1      -2.164  -5.303  -5.205  0.00  0.00    -0.075 A 
ATOM      6  C7  UNL d   1      -3.230  -5.999  -5.998  0.00  0.00     0.076 C 
ATOM      7  C8  UNL d   1      -0.847  -5.781  -5.233  0.00  0.00     0.001 A 
ENDROOT
BRANCH   1   8
ATOM      8  C1  UNL d   1       1.579  -5.672  -4.539  0.00  0.00     0.053 C 
ATOM      9  C   UNL d   1       2.377  -5.241  -3.319  0.00  0.00     0.018 C 
ENDBRANCH   1   8
TORSDOF 1
ENDMDL
