MODEL 1
REMARK minimizedAffinity 10.4698811
REMARK minimizedRMSD -1
REMARK  1 active torsions:
REMARK  status: ('A' for Active; 'I' for Inactive)
REMARK    1  A    between atoms: C1_2  and  C2_3 
ROOT
ATOM      1  C2  UNL d   1       3.740   1.857   0.995  0.00  0.00    -0.073 A 
ATOM      2  C3  UNL d   1       4.541   1.878  -0.153  0.00  0.00    -0.002 A 
ATOM      3  C4  UNL d   1       5.662   2.706  -0.216  0.00  0.00     0.004 A 
ATOM      4  C5  UNL d   1       5.998   3.515   0.869  0.00  0.00    -0.004 A 
ATOM      5  C6  UNL d   1       5.218   3.500   2.029  0.00  0.00    -0.075 A 
ATOM      6  C7  UNL d   1       5.565   4.367   3.204  0.00  0.00     0.076 C 
ATOM      7  C8  UNL d   1       4.091   2.668   2.083  0.00  0.00     0.001 A 
ENDROOT
BRANCH   1   8
ATOM      8  C1  UNL d   1       2.532   0.960   1.069  0.00  0.00     0.053 C 
ATOM      9  C   UNL d   1       2.831  -0.339   1.800  0.00  0.00     0.018 C 
ENDBRANCH   1   8
TORSDOF 1
ENDMDL
