MODEL 1
REMARK minimizedAffinity 7.22500229
REMARK minimizedRMSD -1
REMARK  1 active torsions:
REMARK  status: ('A' for Active; 'I' for Inactive)
REMARK    1  A    between atoms: C1_2  and  C2_3 
ROOT
ATOM      1  C2  UNL d   1      -3.733   0.431   0.543  0.00  0.00    -0.073 A 
ATOM      2  C3  UNL d   1      -4.912   1.006   1.030  0.00  0.00    -0.002 A 
ATOM      3  C4  UNL d   1      -6.000   1.210   0.180  0.00  0.00     0.004 A 
ATOM      4  C5  UNL d   1      -5.923   0.835  -1.161  0.00  0.00    -0.004 A 
ATOM      5  C6  UNL d   1      -4.758   0.248  -1.663  0.00  0.00    -0.075 A 
ATOM      6  C7  UNL d   1      -4.658  -0.159  -3.104  0.00  0.00     0.076 C 
ATOM      7  C8  UNL d   1      -3.668   0.049  -0.805  0.00  0.00     0.001 A 
ENDROOT
BRANCH   1   8
ATOM      8  C1  UNL d   1      -2.557   0.203   1.458  0.00  0.00     0.053 C 
ATOM      9  C   UNL d   1      -1.805  -1.072   1.113  0.00  0.00     0.018 C 
ENDBRANCH   1   8
TORSDOF 1
ENDMDL
