MODEL 1
REMARK minimizedAffinity 11.7094574
REMARK minimizedRMSD -1
REMARK  1 active torsions:
REMARK  status: ('A' for Active; 'I' for Inactive)
REMARK    1  A    between atoms: C1_2  and  C2_3 
ROOT
ATOM      1  C2  UNL d   1       4.905   4.947  -2.950  0.00  0.00    -0.073 A 
ATOM      2  C3  UNL d   1       3.616   4.908  -2.407  0.00  0.00    -0.002 A 
ATOM      3  C4  UNL d   1       2.625   4.124  -2.998  0.00  0.00     0.004 A 
ATOM      4  C5  UNL d   1       2.914   3.365  -4.133  0.00  0.00    -0.004 A 
ATOM      5  C6  UNL d   1       4.200   3.382  -4.684  0.00  0.00    -0.075 A 
ATOM      6  C7  UNL d   1       4.526   2.573  -5.905  0.00  0.00     0.076 C 
ATOM      7  C8  UNL d   1       5.188   4.174  -4.086  0.00  0.00     0.001 A 
ENDROOT
BRANCH   1   8
ATOM      8  C1  UNL d   1       5.980   5.788  -2.312  0.00  0.00     0.053 C 
ATOM      9  C   UNL d   1       5.731   6.000  -0.827  0.00  0.00     0.018 C 
ENDBRANCH   1   8
TORSDOF 1
ENDMDL
