MODEL 1
REMARK minimizedAffinity 10.1303568
REMARK minimizedRMSD -1
REMARK  1 active torsions:
REMARK  status: ('A' for Active; 'I' for Inactive)
REMARK    1  A    between atoms: C1_2  and  C2_3 
ROOT
ATOM      1  C2  UNL d   1      -3.205   5.949  -3.257  0.00  0.00    -0.073 A 
ATOM      2  C3  UNL d   1      -4.193   5.986  -4.248  0.00  0.00    -0.002 A 
ATOM      3  C4  UNL d   1      -3.839   5.945  -5.597  0.00  0.00     0.004 A 
ATOM      4  C5  UNL d   1      -2.498   5.858  -5.969  0.00  0.00    -0.004 A 
ATOM      5  C6  UNL d   1      -1.497   5.807  -4.993  0.00  0.00    -0.075 A 
ATOM      6  C7  UNL d   1      -0.049   5.715  -5.377  0.00  0.00     0.076 C 
ATOM      7  C8  UNL d   1      -1.860   5.852  -3.640  0.00  0.00     0.001 A 
ENDROOT
BRANCH   1   8
ATOM      8  C1  UNL d   1      -3.583   5.987  -1.798  0.00  0.00     0.053 C 
ATOM      9  C   UNL d   1      -5.090   5.978  -1.599  0.00  0.00     0.018 C 
ENDBRANCH   1   8
TORSDOF 1
ENDMDL
