MODEL 1
REMARK minimizedAffinity 10.7815962
REMARK minimizedRMSD -1
REMARK  1 active torsions:
REMARK  status: ('A' for Active; 'I' for Inactive)
REMARK    1  A    between atoms: C1_2  and  C2_3 
ROOT
ATOM      1  C2  UNL d   1      -4.347   1.055   1.025  0.00  0.00    -0.073 A 
ATOM      2  C3  UNL d   1      -4.007   1.794   2.163  0.00  0.00    -0.002 A 
ATOM      3  C4  UNL d   1      -2.923   1.411   2.954  0.00  0.00     0.004 A 
ATOM      4  C5  UNL d   1      -2.165   0.291   2.612  0.00  0.00    -0.004 A 
ATOM      5  C6  UNL d   1      -2.482  -0.453   1.471  0.00  0.00    -0.075 A 
ATOM      6  C7  UNL d   1      -1.678  -1.662   1.090  0.00  0.00     0.076 C 
ATOM      7  C8  UNL d   1      -3.574  -0.064   0.684  0.00  0.00     0.001 A 
ENDROOT
BRANCH   1   8
ATOM      8  C1  UNL d   1      -5.513   1.469   0.164  0.00  0.00     0.053 C 
ATOM      9  C   UNL d   1      -5.118   2.514  -0.867  0.00  0.00     0.018 C 
ENDBRANCH   1   8
TORSDOF 1
ENDMDL
