MODEL 1
REMARK minimizedAffinity 1.97788763
REMARK minimizedRMSD -1
REMARK  1 active torsions:
REMARK  status: ('A' for Active; 'I' for Inactive)
REMARK    1  A    between atoms: C1_2  and  C2_3 
ROOT
ATOM      1  C2  UNL d   1      -2.366  -0.218   0.711  0.00  0.00    -0.073 A 
ATOM      2  C3  UNL d   1      -3.158   0.519   1.600  0.00  0.00    -0.002 A 
ATOM      3  C4  UNL d   1      -2.979   0.388   2.977  0.00  0.00     0.004 A 
ATOM      4  C5  UNL d   1      -2.005  -0.474   3.480  0.00  0.00    -0.004 A 
ATOM      5  C6  UNL d   1      -1.196  -1.210   2.608  0.00  0.00    -0.075 A 
ATOM      6  C7  UNL d   1      -0.146  -2.144   3.133  0.00  0.00     0.076 C 
ATOM      7  C8  UNL d   1      -1.384  -1.075   1.226  0.00  0.00     0.001 A 
ENDROOT
BRANCH   1   8
ATOM      8  C1  UNL d   1      -2.551  -0.075  -0.778  0.00  0.00     0.053 C 
ATOM      9  C   UNL d   1      -3.965   0.353  -1.138  0.00  0.00     0.018 C 
ENDBRANCH   1   8
TORSDOF 1
ENDMDL
