MODEL 1
REMARK minimizedAffinity 6.40560102
REMARK minimizedRMSD -1
REMARK  1 active torsions:
REMARK  status: ('A' for Active; 'I' for Inactive)
REMARK    1  A    between atoms: C1_2  and  C2_3 
ROOT
ATOM      1  C2  UNL d   1      -3.654   5.783  -3.286  0.00  0.00    -0.073 A 
ATOM      2  C3  UNL d   1      -4.637   5.945  -4.268  0.00  0.00    -0.002 A 
ATOM      3  C4  UNL d   1      -4.286   5.983  -5.618  0.00  0.00     0.004 A 
ATOM      4  C5  UNL d   1      -2.951   5.853  -6.000  0.00  0.00    -0.004 A 
ATOM      5  C6  UNL d   1      -1.955   5.678  -5.034  0.00  0.00    -0.075 A 
ATOM      6  C7  UNL d   1      -0.514   5.538  -5.428  0.00  0.00     0.076 C 
ATOM      7  C8  UNL d   1      -2.315   5.644  -3.680  0.00  0.00     0.001 A 
ENDROOT
BRANCH   1   8
ATOM      8  C1  UNL d   1      -4.029   5.735  -1.827  0.00  0.00     0.053 C 
ATOM      9  C   UNL d   1      -5.525   5.553  -1.629  0.00  0.00     0.018 C 
ENDBRANCH   1   8
TORSDOF 1
ENDMDL
