MODEL 1
REMARK minimizedAffinity 7.38560295
REMARK minimizedRMSD -1
REMARK  1 active torsions:
REMARK  status: ('A' for Active; 'I' for Inactive)
REMARK    1  A    between atoms: C1_2  and  C2_3 
ROOT
ATOM      1  C2  UNL d   1      -3.380   0.852   3.296  0.00  0.00    -0.073 A 
ATOM      2  C3  UNL d   1      -4.268   0.801   2.215  0.00  0.00    -0.002 A 
ATOM      3  C4  UNL d   1      -5.573   1.277   2.353  0.00  0.00     0.004 A 
ATOM      4  C5  UNL d   1      -6.000   1.814   3.567  0.00  0.00    -0.004 A 
ATOM      5  C6  UNL d   1      -5.123   1.884   4.655  0.00  0.00    -0.075 A 
ATOM      6  C7  UNL d   1      -5.568   2.457   5.968  0.00  0.00     0.076 C 
ATOM      7  C8  UNL d   1      -3.815   1.402   4.510  0.00  0.00     0.001 A 
ENDROOT
BRANCH   1   8
ATOM      8  C1  UNL d   1      -1.968   0.346   3.150  0.00  0.00     0.053 C 
ATOM      9  C   UNL d   1      -1.897  -0.908   2.293  0.00  0.00     0.018 C 
ENDBRANCH   1   8
TORSDOF 1
ENDMDL
