MODEL 1
REMARK minimizedAffinity -3.23457098
REMARK minimizedRMSD -1
REMARK  0 active torsions:
REMARK  status: ('A' for Active; 'I' for Inactive)
ROOT
ATOM      1  C1  DEN d   1      -0.831  -0.063  -0.329  0.00  0.00     0.130 A 
ATOM      2  C2  DEN d   1       0.049   1.095  -0.196  0.00  0.00    -0.031 A 
ATOM      3  C3  DEN d   1       1.328   0.634   0.380  0.00  0.00     0.027 A 
ATOM      4  C4  DEN d   1       2.029  -1.750   1.072  0.00  0.00     0.027 A 
ATOM      5  C5  DEN d   1       1.616  -3.061   1.159  0.00  0.00    -0.003 A 
ATOM      6  C6  DEN d   1       0.357  -3.456   0.791  0.00  0.00     0.001 A 
ATOM      7  C7  DEN d   1      -0.519  -2.537   0.276  0.00  0.00     0.017 A 
ATOM      8  C8  DEN d   1      -0.112  -1.212   0.192  0.00  0.00    -0.094 A 
ATOM      9  C9  DEN d   1       1.169  -0.835   0.558  0.00  0.00    -0.072 A 
ENDROOT
TORSDOF 0
ENDMDL
