MODEL 1
REMARK minimizedAffinity -5.19260788
REMARK minimizedRMSD -1
REMARK  0 active torsions:
REMARK  status: ('A' for Active; 'I' for Inactive)
ROOT
ATOM      1  C1  DEN d   1      -0.860   1.641  -1.967  0.00  0.00     0.130 A 
ATOM      2  C2  DEN d   1      -2.296   1.437  -1.794  0.00  0.00    -0.031 A 
ATOM      3  C3  DEN d   1      -2.488   0.407  -0.753  0.00  0.00     0.027 A 
ATOM      4  C4  DEN d   1      -0.712  -0.883   0.601  0.00  0.00     0.027 A 
ATOM      5  C5  DEN d   1       0.640  -1.061   0.797  0.00  0.00    -0.003 A 
ATOM      6  C6  DEN d   1       1.579  -0.381   0.067  0.00  0.00     0.001 A 
ATOM      7  C7  DEN d   1       1.178   0.542  -0.862  0.00  0.00     0.017 A 
ATOM      8  C8  DEN d   1      -0.183   0.722  -1.070  0.00  0.00    -0.094 A 
ATOM      9  C9  DEN d   1      -1.117   0.034  -0.314  0.00  0.00    -0.072 A 
ENDROOT
TORSDOF 0
ENDMDL
