MODEL 1
REMARK minimizedAffinity 3.39499426
REMARK minimizedRMSD -1
REMARK  0 active torsions:
REMARK  status: ('A' for Active; 'I' for Inactive)
ROOT
ATOM      1  C1  DEN d   1       0.174   1.932  -0.601  0.00  0.00     0.130 A 
ATOM      2  C2  DEN d   1      -0.166   0.769   0.215  0.00  0.00    -0.031 A 
ATOM      3  C3  DEN d   1      -1.362   0.133  -0.373  0.00  0.00     0.027 A 
ATOM      4  C4  DEN d   1      -2.710   0.828  -2.459  0.00  0.00     0.027 A 
ATOM      5  C5  DEN d   1      -2.811   1.755  -3.472  0.00  0.00    -0.003 A 
ATOM      6  C6  DEN d   1      -1.953   2.817  -3.579  0.00  0.00     0.001 A 
ATOM      7  C7  DEN d   1      -0.926   2.953  -2.682  0.00  0.00     0.017 A 
ATOM      8  C8  DEN d   1      -0.822   2.026  -1.653  0.00  0.00    -0.094 A 
ATOM      9  C9  DEN d   1      -1.692   0.952  -1.570  0.00  0.00    -0.072 A 
ENDROOT
TORSDOF 0
ENDMDL
