MODEL 1
REMARK minimizedAffinity -1.92513442
REMARK minimizedRMSD -1
REMARK  0 active torsions:
REMARK  status: ('A' for Active; 'I' for Inactive)
ROOT
ATOM      1  C1  DEN d   1       0.530  -2.250   1.813  0.00  0.00     0.130 A 
ATOM      2  C2  DEN d   1       1.531  -3.094   1.166  0.00  0.00    -0.031 A 
ATOM      3  C3  DEN d   1       1.833  -2.513  -0.157  0.00  0.00     0.027 A 
ATOM      4  C4  DEN d   1       0.857  -0.396  -1.261  0.00  0.00     0.027 A 
ATOM      5  C5  DEN d   1      -0.033   0.644  -1.103  0.00  0.00    -0.003 A 
ATOM      6  C6  DEN d   1      -0.816   0.771   0.014  0.00  0.00     0.001 A 
ATOM      7  C7  DEN d   1      -0.691  -0.131   1.037  0.00  0.00     0.017 A 
ATOM      8  C8  DEN d   1       0.199  -1.186   0.882  0.00  0.00    -0.094 A 
ATOM      9  C9  DEN d   1       0.990  -1.291  -0.249  0.00  0.00    -0.072 A 
ENDROOT
TORSDOF 0
ENDMDL
