MODEL 1
REMARK minimizedAffinity -3.54869556
REMARK minimizedRMSD -1
REMARK  0 active torsions:
REMARK  status: ('A' for Active; 'I' for Inactive)
ROOT
ATOM      1  C1  DEN d   1       1.180   0.720   0.031  0.00  0.00     0.130 A 
ATOM      2  C2  DEN d   1       2.509   0.442  -0.506  0.00  0.00    -0.031 A 
ATOM      3  C3  DEN d   1       2.782  -0.999  -0.327  0.00  0.00     0.027 A 
ATOM      4  C4  DEN d   1       1.281  -2.816   0.720  0.00  0.00     0.027 A 
ATOM      5  C5  DEN d   1       0.068  -3.058   1.326  0.00  0.00    -0.003 A 
ATOM      6  C6  DEN d   1      -0.837  -2.060   1.572  0.00  0.00     0.001 A 
ATOM      7  C7  DEN d   1      -0.563  -0.780   1.168  0.00  0.00     0.017 A 
ATOM      8  C8  DEN d   1       0.661  -0.527   0.563  0.00  0.00    -0.094 A 
ATOM      9  C9  DEN d   1       1.558  -1.552   0.313  0.00  0.00    -0.072 A 
ENDROOT
TORSDOF 0
ENDMDL
