MODEL 1
REMARK minimizedAffinity -3.44760442
REMARK minimizedRMSD -1
REMARK  0 active torsions:
REMARK  status: ('A' for Active; 'I' for Inactive)
ROOT
ATOM      1  C1  DEN d   1      -1.960   0.420  -3.344  0.00  0.00     0.130 A 
ATOM      2  C2  DEN d   1      -2.374   1.810  -3.515  0.00  0.00    -0.031 A 
ATOM      3  C3  DEN d   1      -1.995   2.552  -2.296  0.00  0.00     0.027 A 
ATOM      4  C4  DEN d   1      -0.811   1.689  -0.173  0.00  0.00     0.027 A 
ATOM      5  C5  DEN d   1      -0.275   0.578   0.440  0.00  0.00    -0.003 A 
ATOM      6  C6  DEN d   1      -0.293  -0.660  -0.146  0.00  0.00     0.001 A 
ATOM      7  C7  DEN d   1      -0.819  -0.808  -1.402  0.00  0.00     0.017 A 
ATOM      8  C8  DEN d   1      -1.368   0.305  -2.024  0.00  0.00    -0.094 A 
ATOM      9  C9  DEN d   1      -1.329   1.551  -1.420  0.00  0.00    -0.072 A 
ENDROOT
TORSDOF 0
ENDMDL
