MODEL 1
REMARK minimizedAffinity -3.20715427
REMARK minimizedRMSD -1
REMARK  0 active torsions:
REMARK  status: ('A' for Active; 'I' for Inactive)
ROOT
ATOM      1  C1  DEN d   1       1.292   1.123   0.195  0.00  0.00     0.130 A 
ATOM      2  C2  DEN d   1      -0.027   1.694  -0.062  0.00  0.00    -0.031 A 
ATOM      3  C3  DEN d   1      -1.008   0.590  -0.076  0.00  0.00     0.027 A 
ATOM      4  C4  DEN d   1      -0.615  -1.934   0.279  0.00  0.00     0.027 A 
ATOM      5  C5  DEN d   1       0.339  -2.899   0.518  0.00  0.00    -0.003 A 
ATOM      6  C6  DEN d   1       1.670  -2.598   0.631  0.00  0.00     0.001 A 
ATOM      7  C7  DEN d   1       2.080  -1.293   0.551  0.00  0.00     0.017 A 
ATOM      8  C8  DEN d   1       1.125  -0.316   0.302  0.00  0.00    -0.094 A 
ATOM      9  C9  DEN d   1      -0.217  -0.639   0.203  0.00  0.00    -0.072 A 
ENDROOT
TORSDOF 0
ENDMDL
