MODEL 1
REMARK minimizedAffinity -3.0719049
REMARK minimizedRMSD -1
REMARK  0 active torsions:
REMARK  status: ('A' for Active; 'I' for Inactive)
ROOT
ATOM      1  C1  DEN d   1      -0.010  -2.276   0.849  0.00  0.00     0.130 A 
ATOM      2  C2  DEN d   1       1.377  -2.473   1.262  0.00  0.00    -0.031 A 
ATOM      3  C3  DEN d   1       2.116  -1.224   0.990  0.00  0.00     0.027 A 
ATOM      4  C4  DEN d   1       1.252   0.986  -0.020  0.00  0.00     0.027 A 
ATOM      5  C5  DEN d   1       0.148   1.628  -0.537  0.00  0.00    -0.003 A 
ATOM      6  C6  DEN d   1      -1.067   1.008  -0.658  0.00  0.00     0.001 A 
ATOM      7  C7  DEN d   1      -1.219  -0.280  -0.216  0.00  0.00     0.017 A 
ATOM      8  C8  DEN d   1      -0.109  -0.936   0.299  0.00  0.00    -0.094 A 
ATOM      9  C9  DEN d   1       1.107  -0.288   0.426  0.00  0.00    -0.072 A 
ENDROOT
TORSDOF 0
ENDMDL
