MODEL 1
REMARK minimizedAffinity -3.66163206
REMARK minimizedRMSD -1
REMARK  0 active torsions:
REMARK  status: ('A' for Active; 'I' for Inactive)
ROOT
ATOM      1  C1  DEN d   1       1.479   0.347  -0.785  0.00  0.00     0.130 A 
ATOM      2  C2  DEN d   1       0.324   1.214  -1.001  0.00  0.00    -0.031 A 
ATOM      3  C3  DEN d   1      -0.829   0.623  -0.292  0.00  0.00     0.027 A 
ATOM      4  C4  DEN d   1      -0.935  -1.535   1.117  0.00  0.00     0.027 A 
ATOM      5  C5  DEN d   1      -0.210  -2.611   1.578  0.00  0.00    -0.003 A 
ATOM      6  C6  DEN d   1       1.109  -2.794   1.258  0.00  0.00     0.001 A 
ATOM      7  C7  DEN d   1       1.757  -1.862   0.491  0.00  0.00     0.017 A 
ATOM      8  C8  DEN d   1       1.031  -0.777   0.017  0.00  0.00    -0.094 A 
ATOM      9  C9  DEN d   1      -0.299  -0.604   0.361  0.00  0.00    -0.072 A 
ENDROOT
TORSDOF 0
ENDMDL
