MODEL 1
REMARK minimizedAffinity -3.84547019
REMARK minimizedRMSD -1
REMARK  0 active torsions:
REMARK  status: ('A' for Active; 'I' for Inactive)
ROOT
ATOM      1  C1  DEN d   1       1.855   0.698  -0.367  0.00  0.00     0.130 A 
ATOM      2  C2  DEN d   1       0.580   1.161  -0.909  0.00  0.00    -0.031 A 
ATOM      3  C3  DEN d   1      -0.462   0.191  -0.517  0.00  0.00     0.027 A 
ATOM      4  C4  DEN d   1      -0.230  -1.967   0.875  0.00  0.00     0.027 A 
ATOM      5  C5  DEN d   1       0.657  -2.781   1.545  0.00  0.00    -0.003 A 
ATOM      6  C6  DEN d   1       2.000  -2.513   1.595  0.00  0.00     0.001 A 
ATOM      7  C7  DEN d   1       2.488  -1.378   1.002  0.00  0.00     0.017 A 
ATOM      8  C8  DEN d   1       1.601  -0.557   0.319  0.00  0.00    -0.094 A 
ATOM      9  C9  DEN d   1       0.245  -0.839   0.290  0.00  0.00    -0.072 A 
ENDROOT
TORSDOF 0
ENDMDL
