MODEL 1
REMARK minimizedAffinity -5.01084042
REMARK minimizedRMSD -1
REMARK  0 active torsions:
REMARK  status: ('A' for Active; 'I' for Inactive)
ROOT
ATOM      1  C1  DEN d   1       0.387  -2.361   1.710  0.00  0.00     0.130 A 
ATOM      2  C2  DEN d   1       1.767  -2.814   1.563  0.00  0.00    -0.031 A 
ATOM      3  C3  DEN d   1       2.499  -1.800   0.778  0.00  0.00     0.027 A 
ATOM      4  C4  DEN d   1       1.634   0.417  -0.217  0.00  0.00     0.027 A 
ATOM      5  C5  DEN d   1       0.528   1.225  -0.365  0.00  0.00    -0.003 A 
ATOM      6  C6  DEN d   1      -0.700   0.881   0.135  0.00  0.00     0.001 A 
ATOM      7  C7  DEN d   1      -0.842  -0.281   0.846  0.00  0.00     0.017 A 
ATOM      8  C8  DEN d   1       0.267  -1.104   0.993  0.00  0.00    -0.094 A 
ATOM      9  C9  DEN d   1       1.502  -0.733   0.491  0.00  0.00    -0.072 A 
ENDROOT
TORSDOF 0
ENDMDL
