MODEL 1
REMARK minimizedAffinity -3.07332993
REMARK minimizedRMSD -1
REMARK  0 active torsions:
REMARK  status: ('A' for Active; 'I' for Inactive)
ROOT
ATOM      1  C1  DEN d   1       0.011  -2.166   1.424  0.00  0.00     0.130 A 
ATOM      2  C2  DEN d   1       1.360  -2.679   1.203  0.00  0.00    -0.031 A 
ATOM      3  C3  DEN d   1       2.086  -1.706   0.363  0.00  0.00     0.027 A 
ATOM      4  C4  DEN d   1       1.258   0.535  -0.609  0.00  0.00     0.027 A 
ATOM      5  C5  DEN d   1       0.180   1.388  -0.703  0.00  0.00    -0.003 A 
ATOM      6  C6  DEN d   1      -1.029   1.102  -0.128  0.00  0.00     0.001 A 
ATOM      7  C7  DEN d   1      -1.178  -0.045   0.606  0.00  0.00     0.017 A 
ATOM      8  C8  DEN d   1      -0.099  -0.913   0.699  0.00  0.00    -0.094 A 
ATOM      9  C9  DEN d   1       1.120  -0.601   0.120  0.00  0.00    -0.072 A 
ENDROOT
TORSDOF 0
ENDMDL
