MODEL 1
REMARK minimizedAffinity -2.36365151
REMARK minimizedRMSD -1
REMARK  0 active torsions:
REMARK  status: ('A' for Active; 'I' for Inactive)
ROOT
ATOM      1  C1  DEN d   1      -0.790  -0.727  -0.666  0.00  0.00     0.130 A 
ATOM      2  C2  DEN d   1       0.202  -0.183   0.258  0.00  0.00    -0.031 A 
ATOM      3  C3  DEN d   1       0.345   1.259  -0.023  0.00  0.00     0.027 A 
ATOM      4  C4  DEN d   1      -0.869   2.698  -1.787  0.00  0.00     0.027 A 
ATOM      5  C5  DEN d   1      -1.791   2.678  -2.810  0.00  0.00    -0.003 A 
ATOM      6  C6  DEN d   1      -2.414   1.525  -3.210  0.00  0.00     0.001 A 
ATOM      7  C7  DEN d   1      -2.156   0.351  -2.552  0.00  0.00     0.017 A 
ATOM      8  C8  DEN d   1      -1.222   0.362  -1.525  0.00  0.00    -0.094 A 
ATOM      9  C9  DEN d   1      -0.612   1.540  -1.127  0.00  0.00    -0.072 A 
ENDROOT
TORSDOF 0
ENDMDL
