MODEL 1
REMARK minimizedAffinity -2.11716604
REMARK minimizedRMSD -1
REMARK  0 active torsions:
REMARK  status: ('A' for Active; 'I' for Inactive)
ROOT
ATOM      1  C1  DEN d   1      -1.656  -0.092   0.004  0.00  0.00     0.130 A 
ATOM      2  C2  DEN d   1      -1.183   1.205  -0.472  0.00  0.00    -0.031 A 
ATOM      3  C3  DEN d   1       0.293   1.171  -0.500  0.00  0.00     0.027 A 
ATOM      4  C4  DEN d   1       1.883  -0.756   0.140  0.00  0.00     0.027 A 
ATOM      5  C5  DEN d   1       1.948  -2.049   0.611  0.00  0.00    -0.003 A 
ATOM      6  C6  DEN d   1       0.827  -2.762   0.943  0.00  0.00     0.001 A 
ATOM      7  C7  DEN d   1      -0.411  -2.202   0.765  0.00  0.00     0.017 A 
ATOM      8  C8  DEN d   1      -0.484  -0.897   0.297  0.00  0.00    -0.094 A 
ATOM      9  C9  DEN d   1       0.661  -0.197  -0.045  0.00  0.00    -0.072 A 
ENDROOT
TORSDOF 0
ENDMDL
