MODEL 1
REMARK minimizedAffinity 5.29554749
REMARK minimizedRMSD -1
REMARK  1 active torsions:
REMARK  status: ('A' for Active; 'I' for Inactive)
REMARK    1  A    between atoms: C3_4  and  O_7 
ROOT
ATOM      1  C   UNL d   1       5.614  -3.684  -0.907  0.00  0.00    -0.033 A 
ATOM      2  C1  UNL d   1       4.539  -3.978  -0.065  0.00  0.00     0.039 A 
ATOM      3  C2  UNL d   1       3.821  -2.944   0.539  0.00  0.00    -0.080 A 
ATOM      4  C3  UNL d   1       4.186  -1.624   0.294  0.00  0.00     0.150 A 
ATOM      5  C4  UNL d   1       5.253  -1.324  -0.547  0.00  0.00    -0.007 A 
ATOM      6  C5  UNL d   1       5.970  -2.357  -1.149  0.00  0.00     0.039 A 
ENDROOT
BRANCH   4   7
ATOM      7  O   UNL d   1       3.518  -0.581   0.865  0.00  0.00    -0.526 OA
ATOM      8  H5  UNL d   1       2.824  -0.940   1.443  0.00  0.00     0.418 HD
ENDBRANCH   4   7
TORSDOF 1
ENDMDL
