MODEL 1
REMARK minimizedAffinity 6.082829
REMARK minimizedRMSD -1
REMARK  1 active torsions:
REMARK  status: ('A' for Active; 'I' for Inactive)
REMARK    1  A    between atoms: C3_4  and  O_7 
ROOT
ATOM      1  C   UNL d   1       4.706  -4.879  -2.397  0.00  0.00    -0.033 A 
ATOM      2  C1  UNL d   1       5.168  -4.757  -1.085  0.00  0.00     0.039 A 
ATOM      3  C2  UNL d   1       5.362  -3.493  -0.525  0.00  0.00    -0.080 A 
ATOM      4  C3  UNL d   1       5.089  -2.359  -1.287  0.00  0.00     0.150 A 
ATOM      5  C4  UNL d   1       4.625  -2.473  -2.593  0.00  0.00    -0.007 A 
ATOM      6  C5  UNL d   1       4.433  -3.737  -3.151  0.00  0.00     0.039 A 
ENDROOT
BRANCH   4   7
ATOM      7  O   UNL d   1       5.267  -1.104  -0.785  0.00  0.00    -0.526 OA
ATOM      8  H5  UNL d   1       5.619  -1.181   0.117  0.00  0.00     0.418 HD
ENDBRANCH   4   7
TORSDOF 1
ENDMDL
