MODEL 1
REMARK minimizedAffinity 1.04455972
REMARK minimizedRMSD -1
REMARK  1 active torsions:
REMARK  status: ('A' for Active; 'I' for Inactive)
REMARK    1  A    between atoms: C3_4  and  O_7 
ROOT
ATOM      1  C   UNL d   1       4.566  -3.999  -0.886  0.00  0.00    -0.033 A 
ATOM      2  C1  UNL d   1       4.234  -4.798  -1.982  0.00  0.00     0.039 A 
ATOM      3  C2  UNL d   1       2.896  -5.078  -2.264  0.00  0.00    -0.080 A 
ATOM      4  C3  UNL d   1       1.900  -4.554  -1.445  0.00  0.00     0.150 A 
ATOM      5  C4  UNL d   1       2.223  -3.754  -0.353  0.00  0.00    -0.007 A 
ATOM      6  C5  UNL d   1       3.560  -3.476  -0.072  0.00  0.00     0.039 A 
ENDROOT
BRANCH   4   7
ATOM      7  O   UNL d   1       0.580  -4.803  -1.677  0.00  0.00    -0.526 OA
ATOM      8  H5  UNL d   1       0.510  -5.393  -2.447  0.00  0.00     0.418 HD
ENDBRANCH   4   7
TORSDOF 1
ENDMDL
