MODEL 1
REMARK minimizedAffinity 6.75636435
REMARK minimizedRMSD -1
REMARK  1 active torsions:
REMARK  status: ('A' for Active; 'I' for Inactive)
REMARK    1  A    between atoms: C3_4  and  O_7 
ROOT
ATOM      1  C   UNL d   1       4.509  -1.301  -0.895  0.00  0.00    -0.033 A 
ATOM      2  C1  UNL d   1       3.679  -2.004  -0.019  0.00  0.00     0.039 A 
ATOM      3  C2  UNL d   1       4.007  -3.306   0.364  0.00  0.00    -0.080 A 
ATOM      4  C3  UNL d   1       5.167  -3.893  -0.135  0.00  0.00     0.150 A 
ATOM      5  C4  UNL d   1       6.000  -3.197  -1.005  0.00  0.00    -0.007 A 
ATOM      6  C5  UNL d   1       5.670  -1.898  -1.387  0.00  0.00     0.039 A 
ENDROOT
BRANCH   4   7
ATOM      7  O   UNL d   1       5.526  -5.163   0.206  0.00  0.00    -0.526 OA
ATOM      8  H5  UNL d   1       4.842  -5.530   0.790  0.00  0.00     0.418 HD
ENDBRANCH   4   7
TORSDOF 1
ENDMDL
