MODEL 1
REMARK minimizedAffinity 5.22716761
REMARK minimizedRMSD -1
REMARK  1 active torsions:
REMARK  status: ('A' for Active; 'I' for Inactive)
REMARK    1  A    between atoms: C3_4  and  O_7 
ROOT
ATOM      1  C   UNL d   1       5.578  -2.616  -1.303  0.00  0.00    -0.033 A 
ATOM      2  C1  UNL d   1       4.569  -1.709  -0.972  0.00  0.00     0.039 A 
ATOM      3  C2  UNL d   1       3.433  -2.146  -0.288  0.00  0.00    -0.080 A 
ATOM      4  C3  UNL d   1       3.319  -3.489   0.060  0.00  0.00     0.150 A 
ATOM      5  C4  UNL d   1       4.322  -4.397  -0.264  0.00  0.00    -0.007 A 
ATOM      6  C5  UNL d   1       5.455  -3.959  -0.948  0.00  0.00     0.039 A 
ENDROOT
BRANCH   4   7
ATOM      7  O   UNL d   1       2.227  -3.963   0.724  0.00  0.00    -0.526 OA
ATOM      8  H5  UNL d   1       1.604  -3.229   0.855  0.00  0.00     0.418 HD
ENDBRANCH   4   7
TORSDOF 1
ENDMDL
