MODEL 1
REMARK minimizedAffinity 7.65077019
REMARK minimizedRMSD -1
REMARK  1 active torsions:
REMARK  status: ('A' for Active; 'I' for Inactive)
REMARK    1  A    between atoms: C3_4  and  O_7 
ROOT
ATOM      1  C   UNL d   1       0.261   4.302   1.190  0.00  0.00    -0.033 A 
ATOM      2  C1  UNL d   1       0.684   5.591   0.860  0.00  0.00     0.039 A 
ATOM      3  C2  UNL d   1       0.735   5.991  -0.477  0.00  0.00    -0.080 A 
ATOM      4  C3  UNL d   1       0.359   5.093  -1.473  0.00  0.00     0.150 A 
ATOM      5  C4  UNL d   1      -0.068   3.809  -1.151  0.00  0.00    -0.007 A 
ATOM      6  C5  UNL d   1      -0.116   3.412   0.185  0.00  0.00     0.039 A 
ENDROOT
BRANCH   4   7
ATOM      7  O   UNL d   1       0.396   5.436  -2.792  0.00  0.00    -0.526 OA
ATOM      8  H5  UNL d   1       0.738   6.343  -2.865  0.00  0.00     0.418 HD
ENDBRANCH   4   7
TORSDOF 1
ENDMDL
