MODEL 1
REMARK minimizedAffinity 1.51163244
REMARK minimizedRMSD -1
REMARK  1 active torsions:
REMARK  status: ('A' for Active; 'I' for Inactive)
REMARK    1  A    between atoms: C3_4  and  O_7 
ROOT
ATOM      1  C   UNL d   1       0.774   4.122   0.497  0.00  0.00    -0.033 A 
ATOM      2  C1  UNL d   1       1.210   5.352  -0.000  0.00  0.00     0.039 A 
ATOM      3  C2  UNL d   1       0.485   6.000  -1.002  0.00  0.00    -0.080 A 
ATOM      4  C3  UNL d   1      -0.674   5.408  -1.497  0.00  0.00     0.150 A 
ATOM      5  C4  UNL d   1      -1.117   4.185  -1.004  0.00  0.00    -0.007 A 
ATOM      6  C5  UNL d   1      -0.390   3.540  -0.004  0.00  0.00     0.039 A 
ENDROOT
BRANCH   4   7
ATOM      7  O   UNL d   1      -1.413   6.000  -2.478  0.00  0.00    -0.526 OA
ATOM      8  H5  UNL d   1      -0.972   6.825  -2.741  0.00  0.00     0.418 HD
ENDBRANCH   4   7
TORSDOF 1
ENDMDL
