MODEL 1
REMARK minimizedAffinity 1.21908808
REMARK minimizedRMSD -1
REMARK  1 active torsions:
REMARK  status: ('A' for Active; 'I' for Inactive)
REMARK    1  A    between atoms: C3_4  and  O_7 
ROOT
ATOM      1  C   UNL d   1       5.255  -4.132  -1.922  0.00  0.00    -0.033 A 
ATOM      2  C1  UNL d   1       4.294  -3.182  -2.274  0.00  0.00     0.039 A 
ATOM      3  C2  UNL d   1       4.049  -2.092  -1.437  0.00  0.00    -0.080 A 
ATOM      4  C3  UNL d   1       4.773  -1.962  -0.254  0.00  0.00     0.150 A 
ATOM      5  C4  UNL d   1       5.734  -2.903   0.100  0.00  0.00    -0.007 A 
ATOM      6  C5  UNL d   1       5.976  -3.992  -0.737  0.00  0.00     0.039 A 
ENDROOT
BRANCH   4   7
ATOM      7  O   UNL d   1       4.566  -0.917   0.597  0.00  0.00    -0.526 OA
ATOM      8  H5  UNL d   1       3.853  -0.364   0.237  0.00  0.00     0.418 HD
ENDBRANCH   4   7
TORSDOF 1
ENDMDL
