MODEL 1
REMARK minimizedAffinity -0.0675899163
REMARK minimizedRMSD -1
REMARK  0 active torsions:
REMARK  status: ('A' for Active; 'I' for Inactive)
ROOT
ATOM      1  N1  IND d   1       1.962   4.384  -4.479  0.00  0.00    -0.196 N 
ATOM      2  C2  IND d   1       1.330   5.268  -5.308  0.00  0.00     0.054 A 
ATOM      3  C3  IND d   1       2.236   5.997  -5.998  0.00  0.00    -0.031 A 
ATOM      4  C4  IND d   1       4.805   5.835  -5.999  0.00  0.00     0.051 A 
ATOM      5  C5  IND d   1       5.845   5.202  -5.378  0.00  0.00    -0.031 A 
ATOM      6  C6  IND d   1       5.640   4.243  -4.408  0.00  0.00     0.015 A 
ATOM      7  C7  IND d   1       4.381   3.871  -4.029  0.00  0.00    -0.016 A 
ATOM      8  C8  IND d   1       3.322   4.516  -4.652  0.00  0.00    -0.047 A 
ATOM      9  C9  IND d   1       3.525   5.521  -5.607  0.00  0.00    -0.096 A 
ATOM     10  HN1 IND d   1       1.576   3.837  -3.940  0.00  0.00     0.298 HD
ENDROOT
TORSDOF 0
ENDMDL
