MODEL 1
REMARK minimizedAffinity 1.34302509
REMARK minimizedRMSD -1
REMARK  0 active torsions:
REMARK  status: ('A' for Active; 'I' for Inactive)
ROOT
ATOM      1  N1  IND d   1       1.856   4.093  -4.842  0.00  0.00    -0.196 N 
ATOM      2  C2  IND d   1       1.173   5.084  -5.490  0.00  0.00     0.054 A 
ATOM      3  C3  IND d   1       2.035   5.993  -5.999  0.00  0.00    -0.031 A 
ATOM      4  C4  IND d   1       4.609   5.999  -5.977  0.00  0.00     0.051 A 
ATOM      5  C5  IND d   1       5.683   5.320  -5.474  0.00  0.00    -0.031 A 
ATOM      6  C6  IND d   1       5.534   4.173  -4.721  0.00  0.00     0.015 A 
ATOM      7  C7  IND d   1       4.300   3.654  -4.452  0.00  0.00    -0.016 A 
ATOM      8  C8  IND d   1       3.206   4.344  -4.956  0.00  0.00    -0.047 A 
ATOM      9  C9  IND d   1       3.350   5.531  -5.684  0.00  0.00    -0.096 A 
ATOM     10  HN1 IND d   1       1.502   3.425  -4.432  0.00  0.00     0.298 HD
ENDROOT
TORSDOF 0
ENDMDL
