MODEL 1
REMARK minimizedAffinity 9.42726135
REMARK minimizedRMSD -1
REMARK  0 active torsions:
REMARK  status: ('A' for Active; 'I' for Inactive)
ROOT
ATOM      1  N1  IND d   1       4.251   2.471  -3.992  0.00  0.00    -0.196 N 
ATOM      2  C2  IND d   1       3.629   2.281  -2.790  0.00  0.00     0.054 A 
ATOM      3  C3  IND d   1       2.797   3.312  -2.522  0.00  0.00    -0.031 A 
ATOM      4  C4  IND d   1       2.224   5.368  -3.962  0.00  0.00     0.051 A 
ATOM      5  C5  IND d   1       2.568   5.998  -5.125  0.00  0.00    -0.031 A 
ATOM      6  C6  IND d   1       3.508   5.472  -5.989  0.00  0.00     0.015 A 
ATOM      7  C7  IND d   1       4.133   4.286  -5.726  0.00  0.00    -0.016 A 
ATOM      8  C8  IND d   1       3.791   3.648  -4.542  0.00  0.00    -0.047 A 
ATOM      9  C9  IND d   1       2.870   4.197  -3.641  0.00  0.00    -0.096 A 
ATOM     10  HN1 IND d   1       4.832   1.945  -4.345  0.00  0.00     0.298 HD
ENDROOT
TORSDOF 0
ENDMDL
