MODEL 1
REMARK minimizedAffinity 1.32385778
REMARK minimizedRMSD -1
REMARK  0 active torsions:
REMARK  status: ('A' for Active; 'I' for Inactive)
ROOT
ATOM      1  N1  IND d   1       5.288   4.141  -4.737  0.00  0.00    -0.196 N 
ATOM      2  C2  IND d   1       5.977   5.150  -5.350  0.00  0.00     0.054 A 
ATOM      3  C3  IND d   1       5.122   6.000  -5.962  0.00  0.00    -0.031 A 
ATOM      4  C4  IND d   1       2.548   5.985  -5.999  0.00  0.00     0.051 A 
ATOM      5  C5  IND d   1       1.470   5.241  -5.611  0.00  0.00    -0.031 A 
ATOM      6  C6  IND d   1       1.611   4.070  -4.895  0.00  0.00     0.015 A 
ATOM      7  C7  IND d   1       2.842   3.603  -4.528  0.00  0.00    -0.016 A 
ATOM      8  C8  IND d   1       3.940   4.353  -4.927  0.00  0.00    -0.047 A 
ATOM      9  C9  IND d   1       3.805   5.519  -5.691  0.00  0.00    -0.096 A 
ATOM     10  HN1 IND d   1       5.637   3.485  -4.305  0.00  0.00     0.298 HD
ENDROOT
TORSDOF 0
ENDMDL
