MODEL 1
REMARK minimizedAffinity 3.73319578
REMARK minimizedRMSD -1
REMARK  0 active torsions:
REMARK  status: ('A' for Active; 'I' for Inactive)
ROOT
ATOM      1  N1  IND d   1       3.196   4.707  -5.998  0.00  0.00    -0.196 N 
ATOM      2  C2  IND d   1       3.263   5.978  -5.498  0.00  0.00     0.054 A 
ATOM      3  C3  IND d   1       3.672   5.956  -4.210  0.00  0.00    -0.031 A 
ATOM      4  C4  IND d   1       4.385   3.956  -2.754  0.00  0.00     0.051 A 
ATOM      5  C5  IND d   1       4.459   2.591  -2.760  0.00  0.00    -0.031 A 
ATOM      6  C6  IND d   1       4.111   1.847  -3.869  0.00  0.00     0.015 A 
ATOM      7  C7  IND d   1       3.686   2.443  -5.022  0.00  0.00    -0.016 A 
ATOM      8  C8  IND d   1       3.603   3.829  -5.017  0.00  0.00    -0.047 A 
ATOM      9  C9  IND d   1       3.914   4.587  -3.881  0.00  0.00    -0.096 A 
ATOM     10  HN1 IND d   1       2.943   4.492  -6.791  0.00  0.00     0.298 HD
ENDROOT
TORSDOF 0
ENDMDL
