MODEL 1
REMARK minimizedAffinity 2.24724531
REMARK minimizedRMSD -1
REMARK  0 active torsions:
REMARK  status: ('A' for Active; 'I' for Inactive)
ROOT
ATOM      1  N1  IND d   1      -1.231   2.641   2.850  0.00  0.00    -0.196 N 
ATOM      2  C2  IND d   1      -0.137   1.967   2.383  0.00  0.00     0.054 A 
ATOM      3  C3  IND d   1      -0.389   0.639   2.333  0.00  0.00    -0.031 A 
ATOM      4  C4  IND d   1      -2.561  -0.635   2.871  0.00  0.00     0.051 A 
ATOM      5  C5  IND d   1      -3.821  -0.454   3.369  0.00  0.00    -0.031 A 
ATOM      6  C6  IND d   1      -4.292   0.794   3.724  0.00  0.00     0.015 A 
ATOM      7  C7  IND d   1      -3.522   1.913   3.583  0.00  0.00    -0.016 A 
ATOM      8  C8  IND d   1      -2.239   1.732   3.084  0.00  0.00    -0.047 A 
ATOM      9  C9  IND d   1      -1.740   0.463   2.762  0.00  0.00    -0.096 A 
ATOM     10  HN1 IND d   1      -1.280   3.490   2.977  0.00  0.00     0.298 HD
ENDROOT
TORSDOF 0
ENDMDL
