MODEL 1
REMARK minimizedAffinity 6.79658604
REMARK minimizedRMSD -1
REMARK  0 active torsions:
REMARK  status: ('A' for Active; 'I' for Inactive)
ROOT
ATOM      1  N1  IND d   1      -4.203   3.327   5.420  0.00  0.00    -0.196 N 
ATOM      2  C2  IND d   1      -5.187   2.571   5.995  0.00  0.00     0.054 A 
ATOM      3  C3  IND d   1      -5.202   1.331   5.457  0.00  0.00    -0.031 A 
ATOM      4  C4  IND d   1      -3.640   0.295   3.692  0.00  0.00     0.051 A 
ATOM      5  C5  IND d   1      -2.612   0.607   2.847  0.00  0.00    -0.031 A 
ATOM      6  C6  IND d   1      -2.049   1.867   2.817  0.00  0.00     0.015 A 
ATOM      7  C7  IND d   1      -2.488   2.862   3.644  0.00  0.00    -0.016 A 
ATOM      8  C8  IND d   1      -3.536   2.551   4.499  0.00  0.00    -0.047 A 
ATOM      9  C9  IND d   1      -4.139   1.287   4.503  0.00  0.00    -0.096 A 
ATOM     10  HN1 IND d   1      -4.031   4.149   5.604  0.00  0.00     0.298 HD
ENDROOT
TORSDOF 0
ENDMDL
