MODEL 1
REMARK minimizedAffinity -3.50949383
REMARK minimizedRMSD -1
REMARK  0 active torsions:
REMARK  status: ('A' for Active; 'I' for Inactive)
ROOT
ATOM      1  N1  IND d   1      -0.147   2.375   1.984  0.00  0.00    -0.196 N 
ATOM      2  C2  IND d   1       0.815   1.661   1.327  0.00  0.00     0.054 A 
ATOM      3  C3  IND d   1       0.432   0.372   1.187  0.00  0.00    -0.031 A 
ATOM      4  C4  IND d   1      -1.777  -0.760   1.870  0.00  0.00     0.051 A 
ATOM      5  C5  IND d   1      -2.949  -0.523   2.534  0.00  0.00    -0.031 A 
ATOM      6  C6  IND d   1      -3.253   0.717   3.056  0.00  0.00     0.015 A 
ATOM      7  C7  IND d   1      -2.399   1.775   2.924  0.00  0.00    -0.016 A 
ATOM      8  C8  IND d   1      -1.206   1.537   2.257  0.00  0.00    -0.047 A 
ATOM      9  C9  IND d   1      -0.872   0.270   1.762  0.00  0.00    -0.096 A 
ATOM     10  HN1 IND d   1      -0.100   3.208   2.192  0.00  0.00     0.298 HD
ENDROOT
TORSDOF 0
ENDMDL
