MODEL 1
REMARK minimizedAffinity 12.5326061
REMARK minimizedRMSD -1
REMARK  0 active torsions:
REMARK  status: ('A' for Active; 'I' for Inactive)
ROOT
ATOM      1  N1  IND d   1       5.273   4.487  -5.829  0.00  0.00    -0.196 N 
ATOM      2  C2  IND d   1       4.885   5.788  -5.988  0.00  0.00     0.054 A 
ATOM      3  C3  IND d   1       3.692   5.999  -5.388  0.00  0.00    -0.031 A 
ATOM      4  C4  IND d   1       2.248   4.379  -4.003  0.00  0.00     0.051 A 
ATOM      5  C5  IND d   1       2.169   3.073  -3.611  0.00  0.00    -0.031 A 
ATOM      6  C6  IND d   1       3.143   2.152  -3.942  0.00  0.00     0.015 A 
ATOM      7  C7  IND d   1       4.241   2.509  -4.672  0.00  0.00    -0.016 A 
ATOM      8  C8  IND d   1       4.321   3.833  -5.078  0.00  0.00    -0.047 A 
ATOM      9  C9  IND d   1       3.315   4.762  -4.781  0.00  0.00    -0.096 A 
ATOM     10  HN1 IND d   1       5.992   4.135  -6.145  0.00  0.00     0.298 HD
ENDROOT
TORSDOF 0
ENDMDL
