MODEL 1
REMARK minimizedAffinity 5.89694738
REMARK minimizedRMSD -1
REMARK  0 active torsions:
REMARK  status: ('A' for Active; 'I' for Inactive)
ROOT
ATOM      1  N1  IND d   1      -3.849  -3.082  -1.739  0.00  0.00    -0.196 N 
ATOM      2  C2  IND d   1      -3.707  -1.784  -1.335  0.00  0.00     0.054 A 
ATOM      3  C3  IND d   1      -2.664  -1.669  -0.482  0.00  0.00    -0.031 A 
ATOM      4  C4  IND d   1      -0.994  -3.460   0.310  0.00  0.00     0.051 A 
ATOM      5  C5  IND d   1      -0.739  -4.801   0.241  0.00  0.00    -0.031 A 
ATOM      6  C6  IND d   1      -1.522  -5.654  -0.509  0.00  0.00     0.015 A 
ATOM      7  C7  IND d   1      -2.587  -5.194  -1.231  0.00  0.00    -0.016 A 
ATOM      8  C8  IND d   1      -2.853  -3.834  -1.157  0.00  0.00    -0.047 A 
ATOM      9  C9  IND d   1      -2.088  -2.970  -0.363  0.00  0.00    -0.096 A 
ATOM     10  HN1 IND d   1      -4.459  -3.378  -2.268  0.00  0.00     0.298 HD
ENDROOT
TORSDOF 0
ENDMDL
