MODEL 1
REMARK minimizedAffinity 6.32378864
REMARK minimizedRMSD -1
REMARK  0 active torsions:
REMARK  status: ('A' for Active; 'I' for Inactive)
ROOT
ATOM      1  N1  IND d   1      -3.002   1.815   3.039  0.00  0.00    -0.196 N 
ATOM      2  C2  IND d   1      -1.948   2.542   2.560  0.00  0.00     0.054 A 
ATOM      3  C3  IND d   1      -0.936   1.721   2.201  0.00  0.00    -0.031 A 
ATOM      4  C4  IND d   1      -0.831  -0.852   2.218  0.00  0.00     0.051 A 
ATOM      5  C5  IND d   1      -1.538  -1.956   2.604  0.00  0.00    -0.031 A 
ATOM      6  C6  IND d   1      -2.796  -1.857   3.164  0.00  0.00     0.015 A 
ATOM      7  C7  IND d   1      -3.401  -0.646   3.348  0.00  0.00    -0.016 A 
ATOM      8  C8  IND d   1      -2.683   0.477   2.964  0.00  0.00    -0.047 A 
ATOM      9  C9  IND d   1      -1.389   0.386   2.435  0.00  0.00    -0.096 A 
ATOM     10  HN1 IND d   1      -3.741   2.140   3.337  0.00  0.00     0.298 HD
ENDROOT
TORSDOF 0
ENDMDL
