MODEL 1
REMARK minimizedAffinity 11.6886806
REMARK minimizedRMSD -1
REMARK  0 active torsions:
REMARK  status: ('A' for Active; 'I' for Inactive)
ROOT
ATOM      1  N1  IND d   1       1.261   0.034   3.254  0.00  0.00    -0.196 N 
ATOM      2  C2  IND d   1       0.701  -1.098   3.779  0.00  0.00     0.054 A 
ATOM      3  C3  IND d   1      -0.648  -1.000   3.776  0.00  0.00    -0.031 A 
ATOM      4  C4  IND d   1      -2.149   0.881   2.863  0.00  0.00     0.051 A 
ATOM      5  C5  IND d   1      -2.096   2.135   2.322  0.00  0.00    -0.031 A 
ATOM      6  C6  IND d   1      -0.897   2.764   2.056  0.00  0.00     0.015 A 
ATOM      7  C7  IND d   1       0.299   2.156   2.313  0.00  0.00    -0.016 A 
ATOM      8  C8  IND d   1       0.249   0.885   2.868  0.00  0.00    -0.047 A 
ATOM      9  C9  IND d   1      -0.965   0.258   3.179  0.00  0.00    -0.096 A 
ATOM     10  HN1 IND d   1       2.103   0.187   3.178  0.00  0.00     0.298 HD
ENDROOT
TORSDOF 0
ENDMDL
