MODEL 1
REMARK minimizedAffinity 5.39499712
REMARK minimizedRMSD -1
REMARK  0 active torsions:
REMARK  status: ('A' for Active; 'I' for Inactive)
ROOT
ATOM      1  N1  IND d   1      -4.558   3.176   3.268  0.00  0.00    -0.196 N 
ATOM      2  C2  IND d   1      -4.614   2.264   4.284  0.00  0.00     0.054 A 
ATOM      3  C3  IND d   1      -3.461   1.561   4.350  0.00  0.00    -0.031 A 
ATOM      4  C4  IND d   1      -1.312   1.811   2.955  0.00  0.00     0.051 A 
ATOM      5  C5  IND d   1      -0.795   2.485   1.884  0.00  0.00    -0.031 A 
ATOM      6  C6  IND d   1      -1.520   3.445   1.208  0.00  0.00     0.015 A 
ATOM      7  C7  IND d   1      -2.790   3.777   1.586  0.00  0.00    -0.016 A 
ATOM      8  C8  IND d   1      -3.321   3.089   2.669  0.00  0.00    -0.047 A 
ATOM      9  C9  IND d   1      -2.606   2.084   3.332  0.00  0.00    -0.096 A 
ATOM     10  HN1 IND d   1      -5.189   3.714   3.041  0.00  0.00     0.298 HD
ENDROOT
TORSDOF 0
ENDMDL
