MODEL 1
REMARK minimizedAffinity 6.73602009
REMARK minimizedRMSD -1
REMARK  0 active torsions:
REMARK  status: ('A' for Active; 'I' for Inactive)
ROOT
ATOM      1  N1  IND d   1       4.432  -0.564   2.967  0.00  0.00    -0.196 N 
ATOM      2  C2  IND d   1       3.071  -0.597   3.088  0.00  0.00     0.054 A 
ATOM      3  C3  IND d   1       2.496  -0.793   1.880  0.00  0.00    -0.031 A 
ATOM      4  C4  IND d   1       3.600  -1.187  -0.412  0.00  0.00     0.051 A 
ATOM      5  C5  IND d   1       4.818  -1.209  -1.031  0.00  0.00    -0.031 A 
ATOM      6  C6  IND d   1       5.994  -1.016  -0.335  0.00  0.00     0.015 A 
ATOM      7  C7  IND d   1       5.995  -0.804   1.015  0.00  0.00    -0.016 A 
ATOM      8  C8  IND d   1       4.760  -0.774   1.646  0.00  0.00    -0.047 A 
ATOM      9  C9  IND d   1       3.561  -0.927   0.938  0.00  0.00    -0.096 A 
ATOM     10  HN1 IND d   1       4.990  -0.434   3.609  0.00  0.00     0.298 HD
ENDROOT
TORSDOF 0
ENDMDL
