MODEL 1
REMARK minimizedAffinity 3.91882181
REMARK minimizedRMSD -1
REMARK  0 active torsions:
REMARK  status: ('A' for Active; 'I' for Inactive)
ROOT
ATOM      1  N1  IND d   1       1.891  -1.493  -3.293  0.00  0.00    -0.196 N 
ATOM      2  C2  IND d   1       1.361  -2.585  -2.664  0.00  0.00     0.054 A 
ATOM      3  C3  IND d   1       1.600  -2.525  -1.335  0.00  0.00    -0.031 A 
ATOM      4  C4  IND d   1       2.752  -0.677   0.038  0.00  0.00     0.051 A 
ATOM      5  C5  IND d   1       3.432   0.501  -0.098  0.00  0.00    -0.031 A 
ATOM      6  C6  IND d   1       3.635   1.088  -1.331  0.00  0.00     0.015 A 
ATOM      7  C7  IND d   1       3.153   0.521  -2.477  0.00  0.00    -0.016 A 
ATOM      8  C8  IND d   1       2.468  -0.678  -2.344  0.00  0.00    -0.047 A 
ATOM      9  C9  IND d   1       2.296  -1.300  -1.100  0.00  0.00    -0.096 A 
ATOM     10  HN1 IND d   1       1.868  -1.340  -4.139  0.00  0.00     0.298 HD
ENDROOT
TORSDOF 0
ENDMDL
