MODEL 1
REMARK minimizedAffinity 6.99720478
REMARK minimizedRMSD -1
REMARK  0 active torsions:
REMARK  status: ('A' for Active; 'I' for Inactive)
ROOT
ATOM      1  N1  IND d   1      -4.190   3.174   4.446  0.00  0.00    -0.196 N 
ATOM      2  C2  IND d   1      -4.987   2.135   4.838  0.00  0.00     0.054 A 
ATOM      3  C3  IND d   1      -4.564   0.980   4.277  0.00  0.00    -0.031 A 
ATOM      4  C4  IND d   1      -2.526   0.547   2.764  0.00  0.00     0.051 A 
ATOM      5  C5  IND d   1      -1.520   1.192   2.102  0.00  0.00    -0.031 A 
ATOM      6  C6  IND d   1      -1.346   2.558   2.192  0.00  0.00     0.015 A 
ATOM      7  C7  IND d   1      -2.170   3.332   2.959  0.00  0.00    -0.016 A 
ATOM      8  C8  IND d   1      -3.198   2.681   3.627  0.00  0.00    -0.047 A 
ATOM      9  C9  IND d   1      -3.405   1.301   3.506  0.00  0.00    -0.096 A 
ATOM     10  HN1 IND d   1      -4.291   3.997   4.673  0.00  0.00     0.298 HD
ENDROOT
TORSDOF 0
ENDMDL
