MODEL 1
REMARK minimizedAffinity 4.91138697
REMARK minimizedRMSD -1
REMARK  0 active torsions:
REMARK  status: ('A' for Active; 'I' for Inactive)
ROOT
ATOM      1  N1  IND d   1       0.769   4.129  -3.909  0.00  0.00    -0.196 N 
ATOM      2  C2  IND d   1       1.571   4.264  -5.008  0.00  0.00     0.054 A 
ATOM      3  C3  IND d   1       0.909   4.902  -5.998  0.00  0.00    -0.031 A 
ATOM      4  C4  IND d   1      -1.462   5.905  -6.000  0.00  0.00     0.051 A 
ATOM      5  C5  IND d   1      -2.592   5.999  -5.236  0.00  0.00    -0.031 A 
ATOM      6  C6  IND d   1      -2.659   5.467  -3.965  0.00  0.00     0.015 A 
ATOM      7  C7  IND d   1      -1.591   4.828  -3.403  0.00  0.00    -0.016 A 
ATOM      8  C8  IND d   1      -0.445   4.723  -4.177  0.00  0.00    -0.047 A 
ATOM      9  C9  IND d   1      -0.384   5.224  -5.484  0.00  0.00    -0.096 A 
ATOM     10  HN1 IND d   1       0.986   3.739  -3.174  0.00  0.00     0.298 HD
ENDROOT
TORSDOF 0
ENDMDL
