MODEL 1
REMARK minimizedAffinity 11.675931
REMARK minimizedRMSD -1
REMARK  0 active torsions:
REMARK  status: ('A' for Active; 'I' for Inactive)
ROOT
ATOM      1  N1  IND d   1      -3.865  -1.899  -4.880  0.00  0.00    -0.196 N 
ATOM      2  C2  IND d   1      -5.008  -1.171  -5.061  0.00  0.00     0.054 A 
ATOM      3  C3  IND d   1      -6.000  -1.960  -5.531  0.00  0.00    -0.031 A 
ATOM      4  C4  IND d   1      -5.998  -4.495  -5.981  0.00  0.00     0.051 A 
ATOM      5  C5  IND d   1      -5.174  -5.585  -5.999  0.00  0.00    -0.031 A 
ATOM      6  C6  IND d   1      -3.846  -5.501  -5.635  0.00  0.00     0.015 A 
ATOM      7  C7  IND d   1      -3.292  -4.321  -5.227  0.00  0.00    -0.016 A 
ATOM      8  C8  IND d   1      -4.124  -3.210  -5.214  0.00  0.00    -0.047 A 
ATOM      9  C9  IND d   1      -5.462  -3.281  -5.623  0.00  0.00    -0.096 A 
ATOM     10  HN1 IND d   1      -3.112  -1.590  -4.604  0.00  0.00     0.298 HD
ENDROOT
TORSDOF 0
ENDMDL
