MODEL 1
REMARK minimizedAffinity 6.50663662
REMARK minimizedRMSD -1
REMARK  0 active torsions:
REMARK  status: ('A' for Active; 'I' for Inactive)
ROOT
ATOM      1  N1  IND d   1      -1.204   5.381  -5.984  0.00  0.00    -0.196 N 
ATOM      2  C2  IND d   1      -2.139   5.997  -5.200  0.00  0.00     0.054 A 
ATOM      3  C3  IND d   1      -1.746   5.991  -3.906  0.00  0.00    -0.031 A 
ATOM      4  C4  IND d   1       0.439   5.115  -2.865  0.00  0.00     0.051 A 
ATOM      5  C5  IND d   1       1.584   4.436  -3.175  0.00  0.00    -0.031 A 
ATOM      6  C6  IND d   1       1.865   4.032  -4.464  0.00  0.00     0.015 A 
ATOM      7  C7  IND d   1       1.014   4.303  -5.497  0.00  0.00    -0.016 A 
ATOM      8  C8  IND d   1      -0.153   4.985  -5.184  0.00  0.00    -0.047 A 
ATOM      9  C9  IND d   1      -0.464   5.361  -3.871  0.00  0.00    -0.096 A 
ATOM     10  HN1 IND d   1      -1.262   5.260  -6.833  0.00  0.00     0.298 HD
ENDROOT
TORSDOF 0
ENDMDL
