MODEL 1
REMARK minimizedAffinity 8.01749897
REMARK minimizedRMSD -1
REMARK  0 active torsions:
REMARK  status: ('A' for Active; 'I' for Inactive)
ROOT
ATOM      1  N1  IND d   1      -2.050   0.978   3.942  0.00  0.00    -0.196 N 
ATOM      2  C2  IND d   1      -2.170   1.197   5.286  0.00  0.00     0.054 A 
ATOM      3  C3  IND d   1      -3.296   0.615   5.758  0.00  0.00    -0.031 A 
ATOM      4  C4  IND d   1      -5.032  -0.830   4.524  0.00  0.00     0.051 A 
ATOM      5  C5  IND d   1      -5.369  -1.280   3.278  0.00  0.00    -0.031 A 
ATOM      6  C6  IND d   1      -4.600  -0.996   2.167  0.00  0.00     0.015 A 
ATOM      7  C7  IND d   1      -3.454  -0.258   2.264  0.00  0.00    -0.016 A 
ATOM      8  C8  IND d   1      -3.112   0.205   3.527  0.00  0.00    -0.047 A 
ATOM      9  C9  IND d   1      -3.911  -0.044   4.650  0.00  0.00    -0.096 A 
ATOM     10  HN1 IND d   1      -1.417   1.273   3.441  0.00  0.00     0.298 HD
ENDROOT
TORSDOF 0
ENDMDL
