MODEL 1
REMARK minimizedAffinity 8.71898651
REMARK minimizedRMSD -1
REMARK  0 active torsions:
REMARK  status: ('A' for Active; 'I' for Inactive)
ROOT
ATOM      1  N1  IND d   1       4.167  -0.511   1.890  0.00  0.00    -0.196 N 
ATOM      2  C2  IND d   1       2.888  -0.383   1.426  0.00  0.00     0.054 A 
ATOM      3  C3  IND d   1       2.489   0.907   1.497  0.00  0.00    -0.031 A 
ATOM      4  C4  IND d   1       3.806   2.988   2.245  0.00  0.00     0.051 A 
ATOM      5  C5  IND d   1       5.001   3.369   2.789  0.00  0.00    -0.031 A 
ATOM      6  C6  IND d   1       6.000   2.457   3.064  0.00  0.00     0.015 A 
ATOM      7  C7  IND d   1       5.845   1.127   2.793  0.00  0.00    -0.016 A 
ATOM      8  C8  IND d   1       4.631   0.736   2.248  0.00  0.00    -0.047 A 
ATOM      9  C9  IND d   1       3.597   1.650   2.006  0.00  0.00    -0.096 A 
ATOM     10  HN1 IND d   1       4.609  -1.247   1.949  0.00  0.00     0.298 HD
ENDROOT
TORSDOF 0
ENDMDL
