MODEL 1
REMARK minimizedAffinity 13.0916805
REMARK minimizedRMSD -1
REMARK  0 active torsions:
REMARK  status: ('A' for Active; 'I' for Inactive)
ROOT
ATOM      1  N1  IND d   1       0.234   5.177  -3.911  0.00  0.00    -0.196 N 
ATOM      2  C2  IND d   1       0.929   5.601  -5.010  0.00  0.00     0.054 A 
ATOM      3  C3  IND d   1       0.077   5.948  -6.000  0.00  0.00    -0.031 A 
ATOM      4  C4  IND d   1      -2.497   5.998  -6.000  0.00  0.00     0.051 A 
ATOM      5  C5  IND d   1      -3.581   5.666  -5.236  0.00  0.00    -0.031 A 
ATOM      6  C6  IND d   1      -3.446   5.147  -3.965  0.00  0.00     0.015 A 
ATOM      7  C7  IND d   1      -2.216   4.949  -3.404  0.00  0.00    -0.016 A 
ATOM      8  C8  IND d   1      -1.113   5.278  -4.179  0.00  0.00    -0.047 A 
ATOM      9  C9  IND d   1      -1.243   5.766  -5.485  0.00  0.00    -0.096 A 
ATOM     10  HN1 IND d   1       0.581   4.895  -3.177  0.00  0.00     0.298 HD
ENDROOT
TORSDOF 0
ENDMDL
