MODEL 1
REMARK minimizedAffinity 6.19865704
REMARK minimizedRMSD -1
REMARK  0 active torsions:
REMARK  status: ('A' for Active; 'I' for Inactive)
ROOT
ATOM      1  N1  IND d   1      -0.103  -3.744   0.080  0.00  0.00    -0.196 N 
ATOM      2  C2  IND d   1      -1.392  -3.724  -0.374  0.00  0.00     0.054 A 
ATOM      3  C3  IND d   1      -2.137  -2.868   0.362  0.00  0.00    -0.031 A 
ATOM      4  C4  IND d   1      -1.422  -1.323   2.293  0.00  0.00     0.051 A 
ATOM      5  C5  IND d   1      -0.354  -1.016   3.088  0.00  0.00    -0.031 A 
ATOM      6  C6  IND d   1       0.878  -1.612   2.916  0.00  0.00     0.015 A 
ATOM      7  C7  IND d   1       1.092  -2.534   1.930  0.00  0.00    -0.016 A 
ATOM      8  C8  IND d   1       0.008  -2.854   1.126  0.00  0.00    -0.047 A 
ATOM      9  C9  IND d   1      -1.256  -2.283   1.323  0.00  0.00    -0.096 A 
ATOM     10  HN1 IND d   1       0.532  -4.231  -0.234  0.00  0.00     0.298 HD
ENDROOT
TORSDOF 0
ENDMDL
