MODEL 1
REMARK minimizedAffinity 14.4091215
REMARK minimizedRMSD -1
REMARK  0 active torsions:
REMARK  status: ('A' for Active; 'I' for Inactive)
ROOT
ATOM      1  N1  IND d   1       4.373  -1.783   2.845  0.00  0.00    -0.196 N 
ATOM      2  C2  IND d   1       4.853  -0.745   2.096  0.00  0.00     0.054 A 
ATOM      3  C3  IND d   1       3.832  -0.048   1.549  0.00  0.00    -0.031 A 
ATOM      4  C4  IND d   1       1.294  -0.372   1.831  0.00  0.00     0.051 A 
ATOM      5  C5  IND d   1       0.371  -1.210   2.391  0.00  0.00    -0.031 A 
ATOM      6  C6  IND d   1       0.742  -2.302   3.148  0.00  0.00     0.015 A 
ATOM      7  C7  IND d   1       2.056  -2.592   3.385  0.00  0.00    -0.016 A 
ATOM      8  C8  IND d   1       2.996  -1.747   2.812  0.00  0.00    -0.047 A 
ATOM      9  C9  IND d   1       2.626  -0.662   2.007  0.00  0.00    -0.096 A 
ATOM     10  HN1 IND d   1       4.850  -2.361   3.267  0.00  0.00     0.298 HD
ENDROOT
TORSDOF 0
ENDMDL
