MODEL 1
REMARK minimizedAffinity 8.4874649
REMARK minimizedRMSD -1
REMARK  0 active torsions:
REMARK  status: ('A' for Active; 'I' for Inactive)
ROOT
ATOM      1  N1  IND d   1      -2.860  -4.168   0.059  0.00  0.00    -0.196 N 
ATOM      2  C2  IND d   1      -3.843  -3.488   0.722  0.00  0.00     0.054 A 
ATOM      3  C3  IND d   1      -3.304  -2.526   1.504  0.00  0.00    -0.031 A 
ATOM      4  C4  IND d   1      -0.841  -1.825   1.771  0.00  0.00     0.051 A 
ATOM      5  C5  IND d   1       0.425  -2.177   1.397  0.00  0.00    -0.031 A 
ATOM      6  C6  IND d   1       0.666  -3.229   0.538  0.00  0.00     0.015 A 
ATOM      7  C7  IND d   1      -0.356  -3.966   0.010  0.00  0.00    -0.016 A 
ATOM      8  C8  IND d   1      -1.643  -3.617   0.393  0.00  0.00    -0.047 A 
ATOM      9  C9  IND d   1      -1.891  -2.576   1.298  0.00  0.00    -0.096 A 
ATOM     10  HN1 IND d   1      -2.982  -4.829  -0.477  0.00  0.00     0.298 HD
ENDROOT
TORSDOF 0
ENDMDL
