MODEL 1
REMARK minimizedAffinity 6.97591019
REMARK minimizedRMSD -1
REMARK  0 active torsions:
REMARK  status: ('A' for Active; 'I' for Inactive)
ROOT
ATOM      1  N1  IND d   1       3.951   2.768   3.360  0.00  0.00    -0.196 N 
ATOM      2  C2  IND d   1       5.263   3.003   3.665  0.00  0.00     0.054 A 
ATOM      3  C3  IND d   1       6.000   1.888   3.458  0.00  0.00    -0.031 A 
ATOM      4  C4  IND d   1       5.278  -0.400   2.525  0.00  0.00     0.051 A 
ATOM      5  C5  IND d   1       4.174  -1.106   2.138  0.00  0.00    -0.031 A 
ATOM      6  C6  IND d   1       2.913  -0.544   2.135  0.00  0.00     0.015 A 
ATOM      7  C7  IND d   1       2.711   0.754   2.511  0.00  0.00    -0.016 A 
ATOM      8  C8  IND d   1       3.830   1.471   2.912  0.00  0.00    -0.047 A 
ATOM      9  C9  IND d   1       5.105   0.894   2.957  0.00  0.00    -0.096 A 
ATOM     10  HN1 IND d   1       3.309   3.336   3.436  0.00  0.00     0.298 HD
ENDROOT
TORSDOF 0
ENDMDL
