MODEL 1
REMARK minimizedAffinity 16.5297947
REMARK minimizedRMSD -1
REMARK  0 active torsions:
REMARK  status: ('A' for Active; 'I' for Inactive)
ROOT
ATOM      1  N1  IND d   1       0.310  -4.102   1.858  0.00  0.00    -0.196 N 
ATOM      2  C2  IND d   1      -0.382  -4.056   0.680  0.00  0.00     0.054 A 
ATOM      3  C3  IND d   1      -1.132  -2.933   0.619  0.00  0.00    -0.031 A 
ATOM      4  C4  IND d   1      -1.299  -0.984   2.292  0.00  0.00     0.051 A 
ATOM      5  C5  IND d   1      -0.881  -0.590   3.532  0.00  0.00    -0.031 A 
ATOM      6  C6  IND d   1      -0.025  -1.362   4.292  0.00  0.00     0.015 A 
ATOM      7  C7  IND d   1       0.455  -2.555   3.833  0.00  0.00    -0.016 A 
ATOM      8  C8  IND d   1       0.028  -2.961   2.577  0.00  0.00    -0.047 A 
ATOM      9  C9  IND d   1      -0.874  -2.203   1.819  0.00  0.00    -0.096 A 
ATOM     10  HN1 IND d   1       0.833  -4.737   2.108  0.00  0.00     0.298 HD
ENDROOT
TORSDOF 0
ENDMDL
