MODEL 1
REMARK minimizedAffinity 5.68317986
REMARK minimizedRMSD -1
REMARK  0 active torsions:
REMARK  status: ('A' for Active; 'I' for Inactive)
ROOT
ATOM      1  N1  IND d   1      -4.465   0.772  -1.634  0.00  0.00    -0.196 N 
ATOM      2  C2  IND d   1      -3.921  -0.136  -2.499  0.00  0.00     0.054 A 
ATOM      3  C3  IND d   1      -2.996  -0.892  -1.866  0.00  0.00    -0.031 A 
ATOM      4  C4  IND d   1      -2.290  -0.881   0.609  0.00  0.00     0.051 A 
ATOM      5  C5  IND d   1      -2.482  -0.204   1.781  0.00  0.00    -0.031 A 
ATOM      6  C6  IND d   1      -3.365   0.852   1.877  0.00  0.00     0.015 A 
ATOM      7  C7  IND d   1      -4.100   1.266   0.802  0.00  0.00    -0.016 A 
ATOM      8  C8  IND d   1      -3.903   0.585  -0.391  0.00  0.00    -0.047 A 
ATOM      9  C9  IND d   1      -2.977  -0.460  -0.505  0.00  0.00    -0.096 A 
ATOM     10  HN1 IND d   1      -5.060   1.360  -1.834  0.00  0.00     0.298 HD
ENDROOT
TORSDOF 0
ENDMDL
