MODEL 1
REMARK minimizedAffinity 5.28432178
REMARK minimizedRMSD -1
REMARK  0 active torsions:
REMARK  status: ('A' for Active; 'I' for Inactive)
ROOT
ATOM      1  N1  IND d   1      -4.720   5.997  -4.585  0.00  0.00    -0.196 N 
ATOM      2  C2  IND d   1      -4.936   5.986  -3.235  0.00  0.00     0.054 A 
ATOM      3  C3  IND d   1      -3.759   5.947  -2.570  0.00  0.00    -0.031 A 
ATOM      4  C4  IND d   1      -1.357   6.000  -3.494  0.00  0.00     0.051 A 
ATOM      5  C5  IND d   1      -0.652   5.974  -4.665  0.00  0.00    -0.031 A 
ATOM      6  C6  IND d   1      -1.280   5.957  -5.894  0.00  0.00     0.015 A 
ATOM      7  C7  IND d   1      -2.642   5.977  -5.998  0.00  0.00    -0.016 A 
ATOM      8  C8  IND d   1      -3.361   5.996  -4.811  0.00  0.00    -0.047 A 
ATOM      9  C9  IND d   1      -2.730   5.970  -3.561  0.00  0.00    -0.096 A 
ATOM     10  HN1 IND d   1      -5.330   6.004  -5.190  0.00  0.00     0.298 HD
ENDROOT
TORSDOF 0
ENDMDL
