MODEL 1
REMARK minimizedAffinity 13.096777
REMARK minimizedRMSD -1
REMARK  0 active torsions:
REMARK  status: ('A' for Active; 'I' for Inactive)
ROOT
ATOM      1  N1  IND d   1      -3.738   1.929   0.550  0.00  0.00    -0.196 N 
ATOM      2  C2  IND d   1      -4.461   1.490  -0.525  0.00  0.00     0.054 A 
ATOM      3  C3  IND d   1      -4.191   0.189  -0.773  0.00  0.00    -0.031 A 
ATOM      4  C4  IND d   1      -2.676  -1.443   0.518  0.00  0.00     0.051 A 
ATOM      5  C5  IND d   1      -1.781  -1.495   1.549  0.00  0.00    -0.031 A 
ATOM      6  C6  IND d   1      -1.489  -0.387   2.318  0.00  0.00     0.015 A 
ATOM      7  C7  IND d   1      -2.092   0.817   2.089  0.00  0.00    -0.016 A 
ATOM      8  C8  IND d   1      -2.996   0.876   1.038  0.00  0.00    -0.047 A 
ATOM      9  C9  IND d   1      -3.265  -0.235   0.228  0.00  0.00    -0.096 A 
ATOM     10  HN1 IND d   1      -3.746   2.728   0.867  0.00  0.00     0.298 HD
ENDROOT
TORSDOF 0
ENDMDL
