MODEL 1
REMARK minimizedAffinity 3.76264977
REMARK minimizedRMSD -1
REMARK  0 active torsions:
REMARK  status: ('A' for Active; 'I' for Inactive)
ROOT
ATOM      1  N1  IND d   1      -4.249  -5.973  -6.000  0.00  0.00    -0.196 N 
ATOM      2  C2  IND d   1      -5.179  -5.232  -5.325  0.00  0.00     0.054 A 
ATOM      3  C3  IND d   1      -4.571  -4.355  -4.495  0.00  0.00    -0.031 A 
ATOM      4  C4  IND d   1      -2.060  -3.893  -4.160  0.00  0.00     0.051 A 
ATOM      5  C5  IND d   1      -0.824  -4.344  -4.528  0.00  0.00    -0.031 A 
ATOM      6  C6  IND d   1      -0.662  -5.379  -5.426  0.00  0.00     0.015 A 
ATOM      7  C7  IND d   1      -1.736  -5.998  -6.000  0.00  0.00    -0.016 A 
ATOM      8  C8  IND d   1      -2.994  -5.548  -5.623  0.00  0.00    -0.047 A 
ATOM      9  C9  IND d   1      -3.164  -4.526  -4.680  0.00  0.00    -0.096 A 
ATOM     10  HN1 IND d   1      -4.420  -6.598  -6.564  0.00  0.00     0.298 HD
ENDROOT
TORSDOF 0
ENDMDL
