MODEL 1
REMARK minimizedAffinity 7.82132387
REMARK minimizedRMSD -1
REMARK  0 active torsions:
REMARK  status: ('A' for Active; 'I' for Inactive)
ROOT
ATOM      1  N1  IND d   1      -0.497   5.526  -6.000  0.00  0.00    -0.196 N 
ATOM      2  C2  IND d   1       0.392   5.173  -5.024  0.00  0.00     0.054 A 
ATOM      3  C3  IND d   1      -0.237   5.063  -3.832  0.00  0.00    -0.031 A 
ATOM      4  C4  IND d   1      -2.737   5.319  -3.272  0.00  0.00     0.051 A 
ATOM      5  C5  IND d   1      -3.934   5.673  -3.828  0.00  0.00    -0.031 A 
ATOM      6  C6  IND d   1      -4.050   6.000  -5.164  0.00  0.00     0.015 A 
ATOM      7  C7  IND d   1      -2.970   5.974  -6.000  0.00  0.00    -0.016 A 
ATOM      8  C8  IND d   1      -1.751   5.622  -5.437  0.00  0.00    -0.047 A 
ATOM      9  C9  IND d   1      -1.619   5.331  -4.073  0.00  0.00    -0.096 A 
ATOM     10  HN1 IND d   1      -0.305   5.665  -6.827  0.00  0.00     0.298 HD
ENDROOT
TORSDOF 0
ENDMDL
