MODEL 1
REMARK minimizedAffinity 5.77186632
REMARK minimizedRMSD -1
REMARK  0 active torsions:
REMARK  status: ('A' for Active; 'I' for Inactive)
ROOT
ATOM      1  N1  IND d   1      -2.660   0.112   2.498  0.00  0.00    -0.196 N 
ATOM      2  C2  IND d   1      -1.879  -1.009   2.461  0.00  0.00     0.054 A 
ATOM      3  C3  IND d   1      -1.799  -1.486   1.199  0.00  0.00    -0.031 A 
ATOM      4  C4  IND d   1      -2.788  -0.529  -0.977  0.00  0.00     0.051 A 
ATOM      5  C5  IND d   1      -3.607   0.461  -1.444  0.00  0.00    -0.031 A 
ATOM      6  C6  IND d   1      -4.161   1.405  -0.604  0.00  0.00     0.015 A 
ATOM      7  C7  IND d   1      -3.907   1.402   0.738  0.00  0.00    -0.016 A 
ATOM      8  C8  IND d   1      -3.081   0.395   1.217  0.00  0.00    -0.047 A 
ATOM      9  C9  IND d   1      -2.550  -0.592   0.376  0.00  0.00    -0.096 A 
ATOM     10  HN1 IND d   1      -2.856   0.564   3.202  0.00  0.00     0.298 HD
ENDROOT
TORSDOF 0
ENDMDL
