MODEL 1
REMARK minimizedAffinity -3.61759686
REMARK minimizedRMSD -1
REMARK  3 active torsions:
REMARK  status: ('A' for Active; 'I' for Inactive)
REMARK    1  A    between atoms: C3'_2  and  C2'_3 
REMARK    2  A    between atoms: C2'_3  and  C1'_4 
REMARK    3  A    between atoms: C1'_4  and  C1_5 
ROOT
ATOM      1  C1  N4B d   1      -0.128   0.429   0.346  0.00  0.00    -0.075 A 
ATOM      2  C2  N4B d   1       0.981   0.845  -0.424  0.00  0.00     0.002 A 
ATOM      3  C3  N4B d   1       1.692   1.961  -0.057  0.00  0.00     0.002 A 
ATOM      4  C4  N4B d   1       1.304   2.685   1.060  0.00  0.00    -0.004 A 
ATOM      5  C5  N4B d   1       0.247   2.263   1.813  0.00  0.00     0.002 A 
ATOM      6  C6  N4B d   1      -0.474   1.140   1.458  0.00  0.00     0.002 A 
ENDROOT
BRANCH   1   7
ATOM      7  C1' N4B d   1      -0.988  -0.735  -0.064  0.00  0.00     0.057 C 
BRANCH   7   8
ATOM      8  C2' N4B d   1      -1.245  -0.663  -1.566  0.00  0.00     0.009 C 
BRANCH   8   9
ATOM      9  C3' N4B d   1      -2.657  -1.096  -1.923  0.00  0.00     0.004 C 
ATOM     10  C4' N4B d   1      -2.918  -1.067  -3.399  0.00  0.00     0.003 C 
ENDBRANCH   8   9
ENDBRANCH   7   8
ENDBRANCH   1   7
TORSDOF 3
ENDMDL
