MODEL 1
REMARK minimizedAffinity -1.82970595
REMARK minimizedRMSD -1
REMARK  3 active torsions:
REMARK  status: ('A' for Active; 'I' for Inactive)
REMARK    1  A    between atoms: C3'_2  and  C2'_3 
REMARK    2  A    between atoms: C2'_3  and  C1'_4 
REMARK    3  A    between atoms: C1'_4  and  C1_5 
ROOT
ATOM      1  C1  N4B d   1       1.222   0.704   0.666  0.00  0.00    -0.075 A 
ATOM      2  C2  N4B d   1       1.443   1.616   1.721  0.00  0.00     0.002 A 
ATOM      3  C3  N4B d   1       2.720   2.025   2.018  0.00  0.00     0.002 A 
ATOM      4  C4  N4B d   1       3.788   1.525   1.289  0.00  0.00    -0.004 A 
ATOM      5  C5  N4B d   1       3.564   0.665   0.254  0.00  0.00     0.002 A 
ATOM      6  C6  N4B d   1       2.286   0.247  -0.058  0.00  0.00     0.002 A 
ENDROOT
BRANCH   1   7
ATOM      7  C1' N4B d   1      -0.147   0.161   0.359  0.00  0.00     0.057 C 
BRANCH   7   8
ATOM      8  C2' N4B d   1      -0.011  -1.045  -0.566  0.00  0.00     0.009 C 
BRANCH   8   9
ATOM      9  C3' N4B d   1      -1.341  -1.748  -0.781  0.00  0.00     0.004 C 
ATOM     10  C4' N4B d   1      -1.721  -1.841  -2.229  0.00  0.00     0.003 C 
ENDBRANCH   8   9
ENDBRANCH   7   8
ENDBRANCH   1   7
TORSDOF 3
ENDMDL
