MODEL 1
REMARK minimizedAffinity -5.94271374
REMARK minimizedRMSD -1
REMARK  3 active torsions:
REMARK  status: ('A' for Active; 'I' for Inactive)
REMARK    1  A    between atoms: C3'_2  and  C2'_3 
REMARK    2  A    between atoms: C2'_3  and  C1'_4 
REMARK    3  A    between atoms: C1'_4  and  C1_5 
ROOT
ATOM      1  C1  N4B d   1      -0.407  -0.051  -0.076  0.00  0.00    -0.075 A 
ATOM      2  C2  N4B d   1      -0.859   0.619   1.082  0.00  0.00     0.002 A 
ATOM      3  C3  N4B d   1      -0.149   1.684   1.581  0.00  0.00     0.002 A 
ATOM      4  C4  N4B d   1       1.021   2.082   0.952  0.00  0.00    -0.004 A 
ATOM      5  C5  N4B d   1       1.438   1.446  -0.180  0.00  0.00     0.002 A 
ATOM      6  C6  N4B d   1       0.732   0.377  -0.695  0.00  0.00     0.002 A 
ENDROOT
BRANCH   1   7
ATOM      7  C1' N4B d   1      -1.103  -1.273  -0.609  0.00  0.00     0.057 C 
BRANCH   7   8
ATOM      8  C2' N4B d   1      -1.051  -1.254  -2.133  0.00  0.00     0.009 C 
BRANCH   8   9
ATOM      9  C3' N4B d   1      -2.221  -2.001  -2.751  0.00  0.00     0.004 C 
ATOM     10  C4' N4B d   1      -3.471  -1.174  -2.813  0.00  0.00     0.003 C 
ENDBRANCH   8   9
ENDBRANCH   7   8
ENDBRANCH   1   7
TORSDOF 3
ENDMDL
