MODEL 1
REMARK minimizedAffinity 4.32103062
REMARK minimizedRMSD -1
REMARK  3 active torsions:
REMARK  status: ('A' for Active; 'I' for Inactive)
REMARK    1  A    between atoms: C3'_2  and  C2'_3 
REMARK    2  A    between atoms: C2'_3  and  C1'_4 
REMARK    3  A    between atoms: C1'_4  and  C1_5 
ROOT
ATOM      1  C1  N4B d   1      -2.461  -3.065   4.502  0.00  0.00    -0.075 A 
ATOM      2  C2  N4B d   1      -2.398  -1.702   4.137  0.00  0.00     0.002 A 
ATOM      3  C3  N4B d   1      -3.381  -0.835   4.547  0.00  0.00     0.002 A 
ATOM      4  C4  N4B d   1      -4.442  -1.310   5.303  0.00  0.00    -0.004 A 
ATOM      5  C5  N4B d   1      -4.482  -2.622   5.673  0.00  0.00     0.002 A 
ATOM      6  C6  N4B d   1      -3.499  -3.504   5.272  0.00  0.00     0.002 A 
ENDROOT
BRANCH   1   7
ATOM      7  C1' N4B d   1      -1.455  -4.067   4.006  0.00  0.00     0.057 C 
BRANCH   7   8
ATOM      8  C2' N4B d   1      -1.519  -4.129   2.483  0.00  0.00     0.009 C 
BRANCH   8   9
ATOM      9  C3' N4B d   1      -0.741  -5.310   1.929  0.00  0.00     0.004 C 
ATOM     10  C4' N4B d   1      -1.173  -5.693   0.545  0.00  0.00     0.003 C 
ENDBRANCH   8   9
ENDBRANCH   7   8
ENDBRANCH   1   7
TORSDOF 3
ENDMDL
