MODEL 1
REMARK minimizedAffinity 1.31385148
REMARK minimizedRMSD -1
REMARK  1 active torsions:
REMARK  status: ('A' for Active; 'I' for Inactive)
REMARK    1  A    between atoms: C1_2  and  C2_3 
ROOT
ATOM      1  C2  UNL d   1       0.605   2.928   0.602  0.00  0.00    -0.077 A 
ATOM      2  C3  UNL d   1       0.855   4.249   0.204  0.00  0.00     0.002 A 
ATOM      3  C4  UNL d   1       0.531   4.670  -1.088  0.00  0.00     0.002 A 
ATOM      4  C5  UNL d   1      -0.049   3.778  -1.988  0.00  0.00    -0.004 A 
ATOM      5  C6  UNL d   1      -0.299   2.462  -1.602  0.00  0.00     0.002 A 
ATOM      6  C7  UNL d   1       0.026   2.039  -0.312  0.00  0.00     0.002 A 
ENDROOT
BRANCH   1   7
ATOM      7  C1  UNL d   1       0.909   2.485   2.010  0.00  0.00     0.055 C 
ATOM      8  C   UNL d   1       2.216   3.085   2.509  0.00  0.00     0.019 C 
ENDBRANCH   1   7
TORSDOF 1
ENDMDL
