MODEL 1
REMARK minimizedAffinity -1.15801549
REMARK minimizedRMSD -1
REMARK  1 active torsions:
REMARK  status: ('A' for Active; 'I' for Inactive)
REMARK    1  A    between atoms: C1_2  and  C2_3 
ROOT
ATOM      1  C2  UNL d   1       0.675   3.982  -0.447  0.00  0.00    -0.077 A 
ATOM      2  C3  UNL d   1       0.761   3.504   0.868  0.00  0.00     0.002 A 
ATOM      3  C4  UNL d   1       0.441   2.176   1.160  0.00  0.00     0.002 A 
ATOM      4  C5  UNL d   1       0.037   1.316   0.142  0.00  0.00    -0.004 A 
ATOM      5  C6  UNL d   1      -0.054   1.782  -1.169  0.00  0.00     0.002 A 
ATOM      6  C7  UNL d   1       0.265   3.108  -1.462  0.00  0.00     0.002 A 
ENDROOT
BRANCH   1   7
ATOM      7  C1  UNL d   1       1.067   5.399  -0.771  0.00  0.00     0.055 C 
ATOM      8  C   UNL d   1       0.154   5.997  -1.832  0.00  0.00     0.019 C 
ENDBRANCH   1   7
TORSDOF 1
ENDMDL
