MODEL 1
REMARK minimizedAffinity -2.46586227
REMARK minimizedRMSD -1
REMARK  1 active torsions:
REMARK  status: ('A' for Active; 'I' for Inactive)
REMARK    1  A    between atoms: C1_2  and  C2_3 
ROOT
ATOM      1  C2  UNL d   1       0.480   3.766  -0.425  0.00  0.00    -0.077 A 
ATOM      2  C3  UNL d   1       0.538   3.456   0.941  0.00  0.00     0.002 A 
ATOM      3  C4  UNL d   1       0.288   2.155   1.381  0.00  0.00     0.002 A 
ATOM      4  C5  UNL d   1      -0.018   1.153   0.462  0.00  0.00    -0.004 A 
ATOM      5  C6  UNL d   1      -0.080   1.452  -0.899  0.00  0.00     0.002 A 
ATOM      6  C7  UNL d   1       0.169   2.753  -1.340  0.00  0.00     0.002 A 
ENDROOT
BRANCH   1   7
ATOM      7  C1  UNL d   1       0.799   5.158  -0.906  0.00  0.00     0.055 C 
ATOM      8  C   UNL d   1       0.483   5.318  -2.386  0.00  0.00     0.019 C 
ENDBRANCH   1   7
TORSDOF 1
ENDMDL
