MODEL 1
REMARK minimizedAffinity 1.13810909
REMARK minimizedRMSD -1
REMARK  1 active torsions:
REMARK  status: ('A' for Active; 'I' for Inactive)
REMARK    1  A    between atoms: C1_2  and  C2_3 
ROOT
ATOM      1  C2  UNL d   1       0.978   2.591   1.209  0.00  0.00    -0.077 A 
ATOM      2  C3  UNL d   1       0.118   1.831   0.403  0.00  0.00     0.002 A 
ATOM      3  C4  UNL d   1      -0.234   2.278  -0.872  0.00  0.00     0.002 A 
ATOM      4  C5  UNL d   1       0.272   3.483  -1.354  0.00  0.00    -0.004 A 
ATOM      5  C6  UNL d   1       1.125   4.247  -0.559  0.00  0.00     0.002 A 
ATOM      6  C7  UNL d   1       1.478   3.803   0.716  0.00  0.00     0.002 A 
ENDROOT
BRANCH   1   7
ATOM      7  C1  UNL d   1       1.398   2.087   2.565  0.00  0.00     0.055 C 
ATOM      8  C   UNL d   1       2.569   2.888   3.115  0.00  0.00     0.019 C 
ENDBRANCH   1   7
TORSDOF 1
ENDMDL
