MODEL 1
REMARK minimizedAffinity 1.55382228
REMARK minimizedRMSD -1
REMARK  1 active torsions:
REMARK  status: ('A' for Active; 'I' for Inactive)
REMARK    1  A    between atoms: C1_2  and  C2_3 
ROOT
ATOM      1  C2  UNL d   1       0.377   3.054  -0.678  0.00  0.00    -0.077 A 
ATOM      2  C3  UNL d   1      -0.810   2.310  -0.613  0.00  0.00     0.002 A 
ATOM      3  C4  UNL d   1      -0.956   1.297   0.336  0.00  0.00     0.002 A 
ATOM      4  C5  UNL d   1       0.077   1.021   1.229  0.00  0.00    -0.004 A 
ATOM      5  C6  UNL d   1       1.262   1.754   1.170  0.00  0.00     0.002 A 
ATOM      6  C7  UNL d   1       1.411   2.767   0.221  0.00  0.00     0.002 A 
ENDROOT
BRANCH   1   7
ATOM      7  C1  UNL d   1       0.518   4.181  -1.669  0.00  0.00     0.055 C 
ATOM      8  C   UNL d   1      -0.580   5.219  -1.486  0.00  0.00     0.019 C 
ENDBRANCH   1   7
TORSDOF 1
ENDMDL
