MODEL 1
REMARK minimizedAffinity -0.638347983
REMARK minimizedRMSD -1
REMARK  1 active torsions:
REMARK  status: ('A' for Active; 'I' for Inactive)
REMARK    1  A    between atoms: C1_2  and  C2_3 
ROOT
ATOM      1  C2  UNL d   1      -0.306   2.775  -0.024  0.00  0.00    -0.077 A 
ATOM      2  C3  UNL d   1       0.825   2.974  -0.828  0.00  0.00     0.002 A 
ATOM      3  C4  UNL d   1       1.058   4.215  -1.425  0.00  0.00     0.002 A 
ATOM      4  C5  UNL d   1       0.166   5.266  -1.222  0.00  0.00    -0.004 A 
ATOM      5  C6  UNL d   1      -0.963   5.077  -0.426  0.00  0.00     0.002 A 
ATOM      6  C7  UNL d   1      -1.198   3.838   0.170  0.00  0.00     0.002 A 
ENDROOT
BRANCH   1   7
ATOM      7  C1  UNL d   1      -0.533   1.453   0.660  0.00  0.00     0.055 C 
ATOM      8  C   UNL d   1       0.740   0.947   1.323  0.00  0.00     0.019 C 
ENDBRANCH   1   7
TORSDOF 1
ENDMDL
