MODEL 1
REMARK minimizedAffinity 3.28794217
REMARK minimizedRMSD -1
REMARK  1 active torsions:
REMARK  status: ('A' for Active; 'I' for Inactive)
REMARK    1  A    between atoms: C1_2  and  C2_3 
ROOT
ATOM      1  C2  UNL d   1       0.517   1.366   0.866  0.00  0.00    -0.077 A 
ATOM      2  C3  UNL d   1       0.053   1.524  -0.447  0.00  0.00     0.002 A 
ATOM      3  C4  UNL d   1       0.393   2.660  -1.184  0.00  0.00     0.002 A 
ATOM      4  C5  UNL d   1       1.200   3.644  -0.618  0.00  0.00    -0.004 A 
ATOM      5  C6  UNL d   1       1.665   3.497   0.689  0.00  0.00     0.002 A 
ATOM      6  C7  UNL d   1       1.326   2.363   1.427  0.00  0.00     0.002 A 
ENDROOT
BRANCH   1   7
ATOM      7  C1  UNL d   1       0.193   0.118   1.646  0.00  0.00     0.055 C 
ATOM      8  C   UNL d   1       1.162  -1.008   1.317  0.00  0.00     0.019 C 
ENDBRANCH   1   7
TORSDOF 1
ENDMDL
