MODEL 1
REMARK minimizedAffinity 0.869045377
REMARK minimizedRMSD -1
REMARK  0 active torsions:
REMARK  status: ('A' for Active; 'I' for Inactive)
ROOT
ATOM      1  C   UNL d   1       3.589  -2.598   4.423  0.00  0.00     0.172 C 
ATOM      2  N   UNL d   1       4.197  -3.824   4.885  0.00  0.00    -0.070 N 
ATOM      3  C1  UNL d   1       3.868  -5.086   4.465  0.00  0.00    -0.004 A 
ATOM      4  C2  UNL d   1       4.672  -5.978   5.141  0.00  0.00    -0.047 A 
ATOM      5  C3  UNL d   1       5.513  -5.227   5.996  0.00  0.00    -0.047 A 
ATOM      6  C4  UNL d   1       5.197  -3.897   5.817  0.00  0.00    -0.004 A 
ENDROOT
TORSDOF 0
ENDMDL
