MODEL 1
REMARK minimizedAffinity 3.57506275
REMARK minimizedRMSD -1
REMARK  0 active torsions:
REMARK  status: ('A' for Active; 'I' for Inactive)
ROOT
ATOM      1  C   UNL d   1       2.264  -1.162  -0.043  0.00  0.00     0.172 C 
ATOM      2  N   UNL d   1       1.787   0.022  -0.720  0.00  0.00    -0.070 N 
ATOM      3  C1  UNL d   1       2.306   1.282  -0.585  0.00  0.00    -0.004 A 
ATOM      4  C2  UNL d   1       1.576   2.127  -1.393  0.00  0.00    -0.047 A 
ATOM      5  C3  UNL d   1       0.584   1.348  -2.035  0.00  0.00    -0.047 A 
ATOM      6  C4  UNL d   1       0.738   0.048  -1.600  0.00  0.00    -0.004 A 
ENDROOT
TORSDOF 0
ENDMDL
