MODEL 1
REMARK minimizedAffinity 1.82908058
REMARK minimizedRMSD -1
REMARK  0 active torsions:
REMARK  status: ('A' for Active; 'I' for Inactive)
ROOT
ATOM      1  C   UNL d   1       1.518  -0.961  -2.074  0.00  0.00     0.172 C 
ATOM      2  N   UNL d   1       1.109  -1.149  -0.702  0.00  0.00    -0.070 N 
ATOM      3  C1  UNL d   1      -0.159  -1.450  -0.281  0.00  0.00    -0.004 A 
ATOM      4  C2  UNL d   1      -0.135  -1.546   1.094  0.00  0.00    -0.047 A 
ATOM      5  C3  UNL d   1       1.192  -1.293   1.513  0.00  0.00    -0.047 A 
ATOM      6  C4  UNL d   1       1.941  -1.050   0.381  0.00  0.00    -0.004 A 
ENDROOT
TORSDOF 0
ENDMDL
