MODEL 1
REMARK minimizedAffinity 1.61289787
REMARK minimizedRMSD -1
REMARK  0 active torsions:
REMARK  status: ('A' for Active; 'I' for Inactive)
ROOT
ATOM      1  C   UNL d   1      -2.664   0.877   2.663  0.00  0.00     0.172 C 
ATOM      2  N   UNL d   1      -1.477   0.072   2.500  0.00  0.00    -0.070 N 
ATOM      3  C1  UNL d   1      -0.195   0.479   2.759  0.00  0.00    -0.004 A 
ATOM      4  C2  UNL d   1       0.647  -0.576   2.480  0.00  0.00    -0.047 A 
ATOM      5  C3  UNL d   1      -0.156  -1.653   2.036  0.00  0.00    -0.047 A 
ATOM      6  C4  UNL d   1      -1.467  -1.225   2.059  0.00  0.00    -0.004 A 
ENDROOT
TORSDOF 0
ENDMDL
