MODEL 1
REMARK minimizedAffinity 4.7874074
REMARK minimizedRMSD -1
REMARK  0 active torsions:
REMARK  status: ('A' for Active; 'I' for Inactive)
ROOT
ATOM      1  C   UNL d   1       1.685  -0.382  -0.886  0.00  0.00     0.172 C 
ATOM      2  N   UNL d   1       1.687  -1.164   0.328  0.00  0.00    -0.070 N 
ATOM      3  C1  UNL d   1       0.881  -0.955   1.414  0.00  0.00    -0.004 A 
ATOM      4  C2  UNL d   1       1.189  -1.910   2.359  0.00  0.00    -0.047 A 
ATOM      5  C3  UNL d   1       2.217  -2.721   1.822  0.00  0.00    -0.047 A 
ATOM      6  C4  UNL d   1       2.506  -2.237   0.563  0.00  0.00    -0.004 A 
ENDROOT
TORSDOF 0
ENDMDL
