MODEL 1
REMARK minimizedAffinity 1.44660437
REMARK minimizedRMSD -1
REMARK  0 active torsions:
REMARK  status: ('A' for Active; 'I' for Inactive)
ROOT
ATOM      1  C   UNL d   1      -3.298   1.591   2.793  0.00  0.00     0.172 C 
ATOM      2  N   UNL d   1      -3.551   2.273   4.041  0.00  0.00    -0.070 N 
ATOM      3  C1  UNL d   1      -4.520   1.942   4.950  0.00  0.00    -0.004 A 
ATOM      4  C2  UNL d   1      -4.435   2.830   6.000  0.00  0.00    -0.047 A 
ATOM      5  C3  UNL d   1      -3.379   3.727   5.711  0.00  0.00    -0.047 A 
ATOM      6  C4  UNL d   1      -2.849   3.359   4.493  0.00  0.00    -0.004 A 
ENDROOT
TORSDOF 0
ENDMDL
