MODEL 1
REMARK minimizedAffinity 2.26073599
REMARK minimizedRMSD -1
REMARK  0 active torsions:
REMARK  status: ('A' for Active; 'I' for Inactive)
ROOT
ATOM      1  C   UNL d   1       1.511  -1.479   0.266  0.00  0.00     0.172 C 
ATOM      2  N   UNL d   1       0.642  -1.086   1.350  0.00  0.00    -0.070 N 
ATOM      3  C1  UNL d   1      -0.446  -0.261   1.242  0.00  0.00    -0.004 A 
ATOM      4  C2  UNL d   1      -1.006  -0.134   2.495  0.00  0.00    -0.047 A 
ATOM      5  C3  UNL d   1      -0.228  -0.910   3.387  0.00  0.00    -0.047 A 
ATOM      6  C4  UNL d   1       0.786  -1.488   2.652  0.00  0.00    -0.004 A 
ENDROOT
TORSDOF 0
ENDMDL
