MODEL 1
REMARK minimizedAffinity 1.32380831
REMARK minimizedRMSD -1
REMARK  0 active torsions:
REMARK  status: ('A' for Active; 'I' for Inactive)
ROOT
ATOM      1  C   UNL d   1       2.331  -1.690   0.468  0.00  0.00     0.172 C 
ATOM      2  N   UNL d   1       2.130  -0.580  -0.434  0.00  0.00    -0.070 N 
ATOM      3  C1  UNL d   1       1.557  -0.653  -1.675  0.00  0.00    -0.004 A 
ATOM      4  C2  UNL d   1       1.549   0.616  -2.212  0.00  0.00    -0.047 A 
ATOM      5  C3  UNL d   1       2.138   1.482  -1.260  0.00  0.00    -0.047 A 
ATOM      6  C4  UNL d   1       2.488   0.716  -0.169  0.00  0.00    -0.004 A 
ENDROOT
TORSDOF 0
ENDMDL
