MODEL 1
REMARK minimizedAffinity -0.901805162
REMARK minimizedRMSD -1
REMARK  1 active torsions:
REMARK  status: ('A' for Active; 'I' for Inactive)
REMARK    1  A    between atoms: C1_2  and  C2_3 
ROOT
ATOM      1  C2  UNL d   1       0.706  -1.046   0.854  0.00  0.00    -0.073 A 
ATOM      2  C3  UNL d   1      -0.571  -1.128   0.287  0.00  0.00    -0.002 A 
ATOM      3  C4  UNL d   1      -0.933  -2.239  -0.476  0.00  0.00     0.004 A 
ATOM      4  C5  UNL d   1      -0.027  -3.281  -0.674  0.00  0.00    -0.004 A 
ATOM      5  C6  UNL d   1       1.249  -3.223  -0.105  0.00  0.00    -0.075 A 
ATOM      6  C7  UNL d   1       2.237  -4.334  -0.310  0.00  0.00     0.076 C 
ATOM      7  C8  UNL d   1       1.607  -2.103   0.658  0.00  0.00     0.001 A 
ENDROOT
BRANCH   1   8
ATOM      8  C1  UNL d   1       1.100   0.148   1.685  0.00  0.00     0.053 C 
ATOM      9  C   UNL d   1       1.529  -0.250   3.088  0.00  0.00     0.018 C 
ENDBRANCH   1   8
TORSDOF 1
ENDMDL
