MODEL 1
REMARK minimizedAffinity 5.39956808
REMARK minimizedRMSD -1
REMARK  1 active torsions:
REMARK  status: ('A' for Active; 'I' for Inactive)
REMARK    1  A    between atoms: C1_2  and  C2_3 
ROOT
ATOM      1  C2  UNL d   1       0.964  -2.353   0.006  0.00  0.00    -0.073 A 
ATOM      2  C3  UNL d   1      -0.392  -2.013  -0.067  0.00  0.00    -0.002 A 
ATOM      3  C4  UNL d   1      -0.888  -0.931   0.662  0.00  0.00     0.004 A 
ATOM      4  C5  UNL d   1      -0.034  -0.174   1.463  0.00  0.00    -0.004 A 
ATOM      5  C6  UNL d   1       1.327  -0.490   1.540  0.00  0.00    -0.075 A 
ATOM      6  C7  UNL d   1       2.258   0.312   2.400  0.00  0.00     0.076 C 
ATOM      7  C8  UNL d   1       1.816  -1.580   0.808  0.00  0.00     0.001 A 
ENDROOT
BRANCH   1   8
ATOM      8  C1  UNL d   1       1.505  -3.516  -0.784  0.00  0.00     0.053 C 
ATOM      9  C   UNL d   1       2.812  -4.038  -0.208  0.00  0.00     0.018 C 
ENDBRANCH   1   8
TORSDOF 1
ENDMDL
