MODEL 1
REMARK minimizedAffinity 2.56863356
REMARK minimizedRMSD -1
REMARK  1 active torsions:
REMARK  status: ('A' for Active; 'I' for Inactive)
REMARK    1  A    between atoms: C1_2  and  C2_3 
ROOT
ATOM      1  C2  UNL d   1      -2.359  -2.644   1.154  0.00  0.00    -0.073 A 
ATOM      2  C3  UNL d   1      -2.323  -1.280   1.466  0.00  0.00    -0.002 A 
ATOM      3  C4  UNL d   1      -1.140  -0.554   1.322  0.00  0.00     0.004 A 
ATOM      4  C5  UNL d   1       0.016  -1.182   0.858  0.00  0.00    -0.004 A 
ATOM      5  C6  UNL d   1      -0.002  -2.541   0.530  0.00  0.00    -0.075 A 
ATOM      6  C7  UNL d   1       1.233  -3.232   0.032  0.00  0.00     0.076 C 
ATOM      7  C8  UNL d   1      -1.194  -3.264   0.680  0.00  0.00     0.001 A 
ENDROOT
BRANCH   1   8
ATOM      8  C1  UNL d   1      -3.636  -3.430   1.302  0.00  0.00     0.053 C 
ATOM      9  C   UNL d   1      -4.554  -2.832   2.356  0.00  0.00     0.018 C 
ENDBRANCH   1   8
TORSDOF 1
ENDMDL
