MODEL 1
REMARK minimizedAffinity -1.84670293
REMARK minimizedRMSD -1
REMARK  1 active torsions:
REMARK  status: ('A' for Active; 'I' for Inactive)
REMARK    1  A    between atoms: C1_2  and  C2_3 
ROOT
ATOM      1  C2  UNL d   1       1.650  -1.720   0.016  0.00  0.00    -0.073 A 
ATOM      2  C3  UNL d   1       0.728  -2.715  -0.329  0.00  0.00    -0.002 A 
ATOM      3  C4  UNL d   1      -0.603  -2.614   0.076  0.00  0.00     0.004 A 
ATOM      4  C5  UNL d   1      -1.028  -1.515   0.823  0.00  0.00    -0.004 A 
ATOM      5  C6  UNL d   1      -0.125  -0.505   1.167  0.00  0.00    -0.075 A 
ATOM      6  C7  UNL d   1      -0.565   0.683   1.973  0.00  0.00     0.076 C 
ATOM      7  C8  UNL d   1       1.211  -0.615   0.759  0.00  0.00     0.001 A 
ENDROOT
BRANCH   1   8
ATOM      8  C1  UNL d   1       3.087  -1.822  -0.425  0.00  0.00     0.053 C 
ATOM      9  C   UNL d   1       3.509  -3.263  -0.665  0.00  0.00     0.018 C 
ENDBRANCH   1   8
TORSDOF 1
ENDMDL
