MODEL 1
REMARK minimizedAffinity -0.528537273
REMARK minimizedRMSD -1
REMARK  1 active torsions:
REMARK  status: ('A' for Active; 'I' for Inactive)
REMARK    1  A    between atoms: C1_2  and  C2_3 
ROOT
ATOM      1  C2  UNL d   1       1.114  -0.836   0.959  0.00  0.00    -0.073 A 
ATOM      2  C3  UNL d   1      -0.193  -0.336   0.957  0.00  0.00    -0.002 A 
ATOM      3  C4  UNL d   1      -1.230  -1.074   0.384  0.00  0.00     0.004 A 
ATOM      4  C5  UNL d   1      -0.972  -2.321  -0.186  0.00  0.00    -0.004 A 
ATOM      5  C6  UNL d   1       0.326  -2.842  -0.184  0.00  0.00    -0.075 A 
ATOM      6  C7  UNL d   1       0.620  -4.181  -0.796  0.00  0.00     0.076 C 
ATOM      7  C8  UNL d   1       1.362  -2.094   0.391  0.00  0.00     0.001 A 
ENDROOT
BRANCH   1   8
ATOM      8  C1  UNL d   1       2.235  -0.045   1.582  0.00  0.00     0.053 C 
ATOM      9  C   UNL d   1       2.481  -0.448   3.027  0.00  0.00     0.018 C 
ENDBRANCH   1   8
TORSDOF 1
ENDMDL
