MODEL 1
REMARK minimizedAffinity 3.05337954
REMARK minimizedRMSD -1
REMARK  1 active torsions:
REMARK  status: ('A' for Active; 'I' for Inactive)
REMARK    1  A    between atoms: C1_2  and  C2_3 
ROOT
ATOM      1  C2  UNL d   1      -1.197   0.152   1.384  0.00  0.00    -0.073 A 
ATOM      2  C3  UNL d   1      -0.121   0.545   2.190  0.00  0.00    -0.002 A 
ATOM      3  C4  UNL d   1       1.116  -0.090   2.072  0.00  0.00     0.004 A 
ATOM      4  C5  UNL d   1       1.293  -1.117   1.145  0.00  0.00    -0.004 A 
ATOM      5  C6  UNL d   1       0.234  -1.515   0.323  0.00  0.00    -0.075 A 
ATOM      6  C7  UNL d   1       0.408  -2.620  -0.678  0.00  0.00     0.076 C 
ATOM      7  C8  UNL d   1      -1.006  -0.876   0.449  0.00  0.00     0.001 A 
ENDROOT
BRANCH   1   8
ATOM      8  C1  UNL d   1      -2.533   0.838   1.503  0.00  0.00     0.053 C 
ATOM      9  C   UNL d   1      -3.380   0.656   0.254  0.00  0.00     0.018 C 
ENDBRANCH   1   8
TORSDOF 1
ENDMDL
