MODEL 1
REMARK minimizedAffinity 3.02306962
REMARK minimizedRMSD -1
REMARK  1 active torsions:
REMARK  status: ('A' for Active; 'I' for Inactive)
REMARK    1  A    between atoms: C1_2  and  C2_3 
ROOT
ATOM      1  C2  UNL d   1       0.699  -1.427   0.100  0.00  0.00    -0.073 A 
ATOM      2  C3  UNL d   1      -0.637  -1.012   0.076  0.00  0.00    -0.002 A 
ATOM      3  C4  UNL d   1      -1.335  -0.814   1.268  0.00  0.00     0.004 A 
ATOM      4  C5  UNL d   1      -0.703  -1.020   2.494  0.00  0.00    -0.004 A 
ATOM      5  C6  UNL d   1       0.635  -1.423   2.539  0.00  0.00    -0.075 A 
ATOM      6  C7  UNL d   1       1.329  -1.651   3.850  0.00  0.00     0.076 C 
ATOM      7  C8  UNL d   1       1.328  -1.623   1.338  0.00  0.00     0.001 A 
ENDROOT
BRANCH   1   8
ATOM      8  C1  UNL d   1       1.459  -1.636  -1.184  0.00  0.00     0.053 C 
ATOM      9  C   UNL d   1       0.543  -2.041  -2.328  0.00  0.00     0.018 C 
ENDBRANCH   1   8
TORSDOF 1
ENDMDL
