MODEL 1
REMARK minimizedAffinity 3.15947986
REMARK minimizedRMSD -1
REMARK  1 active torsions:
REMARK  status: ('A' for Active; 'I' for Inactive)
REMARK    1  A    between atoms: C1_2  and  C2_3 
ROOT
ATOM      1  C2  UNL d   1       0.803  -2.486  -0.059  0.00  0.00    -0.073 A 
ATOM      2  C3  UNL d   1      -0.554  -2.152   0.022  0.00  0.00    -0.002 A 
ATOM      3  C4  UNL d   1      -0.949  -0.951   0.614  0.00  0.00     0.004 A 
ATOM      4  C5  UNL d   1       0.006  -0.071   1.123  0.00  0.00    -0.004 A 
ATOM      5  C6  UNL d   1       1.367  -0.382   1.040  0.00  0.00    -0.075 A 
ATOM      6  C7  UNL d   1       2.407   0.552   1.584  0.00  0.00     0.076 C 
ATOM      7  C8  UNL d   1       1.756  -1.591   0.447  0.00  0.00     0.001 A 
ENDROOT
BRANCH   1   8
ATOM      8  C1  UNL d   1       1.235  -3.778  -0.703  0.00  0.00     0.053 C 
ATOM      9  C   UNL d   1       2.654  -4.162  -0.314  0.00  0.00     0.018 C 
ENDBRANCH   1   8
TORSDOF 1
ENDMDL
