MODEL 1
REMARK minimizedAffinity 0.387014329
REMARK minimizedRMSD -1
REMARK  0 active torsions:
REMARK  status: ('A' for Active; 'I' for Inactive)
ROOT
ATOM      1  C   UNL d   1      -1.008  -0.774  -5.629  0.00  0.00     0.172 C 
ATOM      2  N   UNL d   1       0.415  -0.819  -5.387  0.00  0.00    -0.070 N 
ATOM      3  C1  UNL d   1       1.355  -0.033  -6.000  0.00  0.00    -0.004 A 
ATOM      4  C2  UNL d   1       2.589  -0.381  -5.496  0.00  0.00    -0.047 A 
ATOM      5  C3  UNL d   1       2.385  -1.413  -4.549  0.00  0.00    -0.047 A 
ATOM      6  C4  UNL d   1       1.030  -1.664  -4.501  0.00  0.00    -0.004 A 
ENDROOT
TORSDOF 0
ENDMDL
