MODEL 1
REMARK minimizedAffinity 2.75229812
REMARK minimizedRMSD -1
REMARK  0 active torsions:
REMARK  status: ('A' for Active; 'I' for Inactive)
ROOT
ATOM      1  C   UNL d   1       2.462  -0.013  -6.000  0.00  0.00     0.172 C 
ATOM      2  N   UNL d   1       1.325  -0.666  -5.394  0.00  0.00    -0.070 N 
ATOM      3  C1  UNL d   1       0.118  -0.892  -5.999  0.00  0.00    -0.004 A 
ATOM      4  C2  UNL d   1      -0.695  -1.537  -5.092  0.00  0.00    -0.047 A 
ATOM      5  C3  UNL d   1       0.049  -1.703  -3.900  0.00  0.00    -0.047 A 
ATOM      6  C4  UNL d   1       1.296  -1.155  -4.114  0.00  0.00    -0.004 A 
ENDROOT
TORSDOF 0
ENDMDL
