MODEL 1
REMARK minimizedAffinity 4.82014322
REMARK minimizedRMSD -1
REMARK  0 active torsions:
REMARK  status: ('A' for Active; 'I' for Inactive)
ROOT
ATOM      1  C   UNL d   1       3.025  -1.126   5.194  0.00  0.00     0.172 C 
ATOM      2  N   UNL d   1       1.988  -1.245   4.197  0.00  0.00    -0.070 N 
ATOM      3  C1  UNL d   1       2.110  -1.880   2.990  0.00  0.00    -0.004 A 
ATOM      4  C2  UNL d   1       0.904  -1.773   2.332  0.00  0.00    -0.047 A 
ATOM      5  C3  UNL d   1       0.026  -1.047   3.173  0.00  0.00    -0.047 A 
ATOM      6  C4  UNL d   1       0.723  -0.733   4.320  0.00  0.00    -0.004 A 
ENDROOT
TORSDOF 0
ENDMDL
