MODEL 1
REMARK minimizedAffinity 2.80329585
REMARK minimizedRMSD -1
REMARK  0 active torsions:
REMARK  status: ('A' for Active; 'I' for Inactive)
ROOT
ATOM      1  C   UNL d   1       2.233  -0.369  -6.000  0.00  0.00     0.172 C 
ATOM      2  N   UNL d   1       0.894  -0.609  -5.514  0.00  0.00    -0.070 N 
ATOM      3  C1  UNL d   1       0.027  -1.552  -5.998  0.00  0.00    -0.004 A 
ATOM      4  C2  UNL d   1      -1.141  -1.464  -5.271  0.00  0.00    -0.047 A 
ATOM      5  C3  UNL d   1      -0.969  -0.432  -4.319  0.00  0.00    -0.047 A 
ATOM      6  C4  UNL d   1       0.299   0.080  -4.491  0.00  0.00    -0.004 A 
ENDROOT
TORSDOF 0
ENDMDL
