MODEL 1
REMARK minimizedAffinity -3.25317121
REMARK minimizedRMSD -1
REMARK  0 active torsions:
REMARK  status: ('A' for Active; 'I' for Inactive)
ROOT
ATOM      1  C   UNL d   1       1.198  -1.442   3.114  0.00  0.00     0.172 C 
ATOM      2  N   UNL d   1       0.255  -0.727   2.285  0.00  0.00    -0.070 N 
ATOM      3  C1  UNL d   1      -1.108  -0.833   2.354  0.00  0.00    -0.004 A 
ATOM      4  C2  UNL d   1      -1.645   0.006   1.401  0.00  0.00    -0.047 A 
ATOM      5  C3  UNL d   1      -0.567   0.637   0.736  0.00  0.00    -0.047 A 
ATOM      6  C4  UNL d   1       0.598   0.165   1.303  0.00  0.00    -0.004 A 
ENDROOT
TORSDOF 0
ENDMDL
