MODEL 1
REMARK minimizedAffinity -1.21851361
REMARK minimizedRMSD -1
REMARK  0 active torsions:
REMARK  status: ('A' for Active; 'I' for Inactive)
ROOT
ATOM      1  C   UNL d   1       2.757  -0.380  -5.949  0.00  0.00     0.172 C 
ATOM      2  N   UNL d   1       1.446  -0.640  -5.402  0.00  0.00    -0.070 N 
ATOM      3  C1  UNL d   1       0.255  -0.327  -6.000  0.00  0.00    -0.004 A 
ATOM      4  C2  UNL d   1      -0.759  -0.738  -5.161  0.00  0.00    -0.047 A 
ATOM      5  C3  UNL d   1      -0.156  -1.316  -4.020  0.00  0.00    -0.047 A 
ATOM      6  C4  UNL d   1       1.210  -1.243  -4.195  0.00  0.00    -0.004 A 
ENDROOT
TORSDOF 0
ENDMDL
