MODEL 1
REMARK minimizedAffinity 1.1104697
REMARK minimizedRMSD -1
REMARK  0 active torsions:
REMARK  status: ('A' for Active; 'I' for Inactive)
ROOT
ATOM      1  C   UNL d   1       2.498   0.031  -5.985  0.00  0.00     0.172 C 
ATOM      2  N   UNL d   1       3.793  -0.040  -5.350  0.00  0.00    -0.070 N 
ATOM      3  C1  UNL d   1       5.000  -0.042  -5.997  0.00  0.00    -0.004 A 
ATOM      4  C2  UNL d   1       5.991  -0.120  -5.042  0.00  0.00    -0.047 A 
ATOM      5  C3  UNL d   1       5.357  -0.168  -3.777  0.00  0.00    -0.047 A 
ATOM      6  C4  UNL d   1       3.997  -0.117  -3.997  0.00  0.00    -0.004 A 
ENDROOT
TORSDOF 0
ENDMDL
