MODEL 1
REMARK minimizedAffinity -3.15590072
REMARK minimizedRMSD -1
REMARK  1 active torsions:
REMARK  status: ('A' for Active; 'I' for Inactive)
REMARK    1  A    between atoms: C1_2  and  C2_3 
ROOT
ATOM      1  C2  UNL d   1      -0.008  -0.182   0.282  0.00  0.00    -0.076 A 
ATOM      2  C3  UNL d   1       1.023   0.663   0.731  0.00  0.00     0.004 A 
ATOM      3  C4  UNL d   1       1.337   0.753   2.086  0.00  0.00    -0.003 A 
ATOM      4  C5  UNL d   1       0.627  -0.000   3.014  0.00  0.00     0.000 A 
ATOM      5  C6  UNL d   1      -0.386  -0.857   2.584  0.00  0.00     0.000 A 
ATOM      6  C7  UNL d   1      -0.705  -0.972   1.220  0.00  0.00    -0.073 A 
ATOM      7  C8  UNL d   1      -1.811  -1.907   0.814  0.00  0.00     0.078 C 
ENDROOT
BRANCH   1   8
ATOM      8  C1  UNL d   1      -0.322  -0.218  -1.197  0.00  0.00     0.053 C 
ATOM      9  C   UNL d   1      -1.013   1.049  -1.677  0.00  0.00     0.018 C 
ENDBRANCH   1   8
TORSDOF 1
ENDMDL
