MODEL 1
REMARK minimizedAffinity -5.18717957
REMARK minimizedRMSD -1
REMARK  1 active torsions:
REMARK  status: ('A' for Active; 'I' for Inactive)
REMARK    1  A    between atoms: C1_2  and  C2_3 
ROOT
ATOM      1  C2  UNL d   1      -0.965   3.036  -1.288  0.00  0.00    -0.076 A 
ATOM      2  C3  UNL d   1      -2.063   3.240  -0.435  0.00  0.00     0.004 A 
ATOM      3  C4  UNL d   1      -3.172   3.973  -0.856  0.00  0.00    -0.003 A 
ATOM      4  C5  UNL d   1      -3.200   4.513  -2.137  0.00  0.00     0.000 A 
ATOM      5  C6  UNL d   1      -2.127   4.305  -3.002  0.00  0.00     0.000 A 
ATOM      6  C7  UNL d   1      -1.009   3.555  -2.600  0.00  0.00    -0.073 A 
ATOM      7  C8  UNL d   1       0.123   3.367  -3.572  0.00  0.00     0.078 C 
ENDROOT
BRANCH   1   8
ATOM      8  C1  UNL d   1       0.221   2.256  -0.767  0.00  0.00     0.053 C 
ATOM      9  C   UNL d   1      -0.193   1.010   0.001  0.00  0.00     0.018 C 
ENDBRANCH   1   8
TORSDOF 1
ENDMDL
