MODEL 1
REMARK minimizedAffinity -0.481474668
REMARK minimizedRMSD -1
REMARK  1 active torsions:
REMARK  status: ('A' for Active; 'I' for Inactive)
REMARK    1  A    between atoms: C1_2  and  C2_3 
ROOT
ATOM      1  C2  UNL d   1      -0.131  -0.097  -0.499  0.00  0.00    -0.076 A 
ATOM      2  C3  UNL d   1      -1.168   0.389   0.317  0.00  0.00     0.004 A 
ATOM      3  C4  UNL d   1      -1.271   0.001   1.652  0.00  0.00    -0.003 A 
ATOM      4  C5  UNL d   1      -0.339  -0.878   2.192  0.00  0.00     0.000 A 
ATOM      5  C6  UNL d   1       0.706  -1.356   1.402  0.00  0.00     0.000 A 
ATOM      6  C7  UNL d   1       0.834  -0.962   0.059  0.00  0.00    -0.073 A 
ATOM      7  C8  UNL d   1       1.977  -1.513  -0.748  0.00  0.00     0.078 C 
ENDROOT
BRANCH   1   8
ATOM      8  C1  UNL d   1      -0.085   0.337  -1.947  0.00  0.00     0.053 C 
ATOM      9  C   UNL d   1      -1.173   1.343  -2.288  0.00  0.00     0.018 C 
ENDBRANCH   1   8
TORSDOF 1
ENDMDL
