MODEL 1
REMARK minimizedAffinity 0.888093233
REMARK minimizedRMSD -1
REMARK  1 active torsions:
REMARK  status: ('A' for Active; 'I' for Inactive)
REMARK    1  A    between atoms: C1_2  and  C2_3 
ROOT
ATOM      1  C2  UNL d   1      -1.342   1.193  -1.502  0.00  0.00    -0.076 A 
ATOM      2  C3  UNL d   1      -1.951   0.353  -0.553  0.00  0.00     0.004 A 
ATOM      3  C4  UNL d   1      -1.186  -0.369   0.361  0.00  0.00    -0.003 A 
ATOM      4  C5  UNL d   1       0.201  -0.263   0.342  0.00  0.00     0.000 A 
ATOM      5  C6  UNL d   1       0.820   0.579  -0.581  0.00  0.00     0.000 A 
ATOM      6  C7  UNL d   1       0.063   1.327  -1.499  0.00  0.00    -0.073 A 
ATOM      7  C8  UNL d   1       0.784   2.214  -2.476  0.00  0.00     0.078 C 
ENDROOT
BRANCH   1   8
ATOM      8  C1  UNL d   1      -2.221   1.930  -2.487  0.00  0.00     0.053 C 
ATOM      9  C   UNL d   1      -2.541   3.347  -2.034  0.00  0.00     0.018 C 
ENDBRANCH   1   8
TORSDOF 1
ENDMDL
