MODEL 1
REMARK minimizedAffinity -0.423079699
REMARK minimizedRMSD -1
REMARK  1 active torsions:
REMARK  status: ('A' for Active; 'I' for Inactive)
REMARK    1  A    between atoms: C1_2  and  C2_3 
ROOT
ATOM      1  C2  UNL d   1      -1.360   2.119  -2.078  0.00  0.00    -0.076 A 
ATOM      2  C3  UNL d   1      -0.008   2.459  -2.258  0.00  0.00     0.004 A 
ATOM      3  C4  UNL d   1       0.357   3.694  -2.790  0.00  0.00    -0.003 A 
ATOM      4  C5  UNL d   1      -0.625   4.611  -3.150  0.00  0.00     0.000 A 
ATOM      5  C6  UNL d   1      -1.970   4.298  -2.962  0.00  0.00     0.000 A 
ATOM      6  C7  UNL d   1      -2.355   3.063  -2.412  0.00  0.00    -0.073 A 
ATOM      7  C8  UNL d   1      -3.821   2.776  -2.237  0.00  0.00     0.078 C 
ENDROOT
BRANCH   1   8
ATOM      8  C1  UNL d   1      -1.696   0.754  -1.522  0.00  0.00     0.053 C 
ATOM      9  C   UNL d   1      -0.457  -0.043  -1.144  0.00  0.00     0.018 C 
ENDBRANCH   1   8
TORSDOF 1
ENDMDL
