MODEL 1
REMARK minimizedAffinity -3.34202909
REMARK minimizedRMSD -1
REMARK  1 active torsions:
REMARK  status: ('A' for Active; 'I' for Inactive)
REMARK    1  A    between atoms: C1_2  and  C2_3 
ROOT
ATOM      1  C2  UNL d   1       0.691  -0.956   0.488  0.00  0.00    -0.076 A 
ATOM      2  C3  UNL d   1       0.290  -0.994   1.835  0.00  0.00     0.004 A 
ATOM      3  C4  UNL d   1       0.831  -1.927   2.718  0.00  0.00    -0.003 A 
ATOM      4  C5  UNL d   1       1.782  -2.837   2.269  0.00  0.00     0.000 A 
ATOM      5  C6  UNL d   1       2.204  -2.802   0.940  0.00  0.00     0.000 A 
ATOM      6  C7  UNL d   1       1.681  -1.857   0.041  0.00  0.00    -0.073 A 
ATOM      7  C8  UNL d   1       2.167  -1.868  -1.383  0.00  0.00     0.078 C 
ENDROOT
BRANCH   1   8
ATOM      8  C1  UNL d   1       0.050   0.061  -0.430  0.00  0.00     0.053 C 
ATOM      9  C   UNL d   1      -0.833  -0.584  -1.487  0.00  0.00     0.018 C 
ENDBRANCH   1   8
TORSDOF 1
ENDMDL
