MODEL 1
REMARK minimizedAffinity -2.78892684
REMARK minimizedRMSD -1
REMARK  1 active torsions:
REMARK  status: ('A' for Active; 'I' for Inactive)
REMARK    1  A    between atoms: C1_2  and  C2_3 
ROOT
ATOM      1  C2  UNL d   1      -0.106  -0.434   0.707  0.00  0.00    -0.076 A 
ATOM      2  C3  UNL d   1      -0.574  -0.085   1.986  0.00  0.00     0.004 A 
ATOM      3  C4  UNL d   1       0.256  -0.172   3.102  0.00  0.00    -0.003 A 
ATOM      4  C5  UNL d   1       1.568  -0.609   2.958  0.00  0.00     0.000 A 
ATOM      5  C6  UNL d   1       2.054  -0.942   1.694  0.00  0.00     0.000 A 
ATOM      6  C7  UNL d   1       1.236  -0.845   0.556  0.00  0.00    -0.073 A 
ATOM      7  C8  UNL d   1       1.811  -1.223  -0.781  0.00  0.00     0.078 C 
ENDROOT
BRANCH   1   8
ATOM      8  C1  UNL d   1      -1.060  -0.345  -0.463  0.00  0.00     0.053 C 
ATOM      9  C   UNL d   1      -1.061   1.031  -1.111  0.00  0.00     0.018 C 
ENDBRANCH   1   8
TORSDOF 1
ENDMDL
