MODEL 1
REMARK minimizedAffinity -1.33307648
REMARK minimizedRMSD -1
REMARK  1 active torsions:
REMARK  status: ('A' for Active; 'I' for Inactive)
REMARK    1  A    between atoms: C1_2  and  C2_3 
ROOT
ATOM      1  C2  UNL d   1      -0.270  -0.669  -0.320  0.00  0.00    -0.076 A 
ATOM      2  C3  UNL d   1      -1.065  -0.579   0.836  0.00  0.00     0.004 A 
ATOM      3  C4  UNL d   1      -0.641  -1.130   2.044  0.00  0.00    -0.003 A 
ATOM      4  C5  UNL d   1       0.586  -1.781   2.115  0.00  0.00     0.000 A 
ATOM      5  C6  UNL d   1       1.395  -1.865   0.983  0.00  0.00     0.000 A 
ATOM      6  C7  UNL d   1       0.990  -1.300  -0.238  0.00  0.00    -0.073 A 
ATOM      7  C8  UNL d   1       1.900  -1.426  -1.429  0.00  0.00     0.078 C 
ENDROOT
BRANCH   1   8
ATOM      8  C1  UNL d   1      -0.795  -0.076  -1.608  0.00  0.00     0.053 C 
ATOM      9  C   UNL d   1      -0.430   1.392  -1.764  0.00  0.00     0.018 C 
ENDBRANCH   1   8
TORSDOF 1
ENDMDL
