MODEL 1
REMARK minimizedAffinity -3.80646896
REMARK minimizedRMSD -1
REMARK  1 active torsions:
REMARK  status: ('A' for Active; 'I' for Inactive)
REMARK    1  A    between atoms: C1_2  and  C2_3 
ROOT
ATOM      1  C2  UNL d   1       0.032  -0.660  -0.399  0.00  0.00    -0.076 A 
ATOM      2  C3  UNL d   1      -1.218  -0.807   0.227  0.00  0.00     0.004 A 
ATOM      3  C4  UNL d   1      -1.309  -1.084   1.590  0.00  0.00    -0.003 A 
ATOM      4  C5  UNL d   1      -0.152  -1.218   2.350  0.00  0.00     0.000 A 
ATOM      5  C6  UNL d   1       1.096  -1.058   1.748  0.00  0.00     0.000 A 
ATOM      6  C7  UNL d   1       1.206  -0.762   0.379  0.00  0.00    -0.073 A 
ATOM      7  C8  UNL d   1       2.577  -0.606  -0.219  0.00  0.00     0.078 C 
ENDROOT
BRANCH   1   8
ATOM      8  C1  UNL d   1       0.070  -0.387  -1.886  0.00  0.00     0.053 C 
ATOM      9  C   UNL d   1      -0.399   1.018  -2.232  0.00  0.00     0.018 C 
ENDBRANCH   1   8
TORSDOF 1
ENDMDL
