MODEL 1
REMARK minimizedAffinity -1.12305188
REMARK minimizedRMSD -1
REMARK  0 active torsions:
REMARK  status: ('A' for Active; 'I' for Inactive)
ROOT
ATOM      1  C   UNL d   1       4.358  -0.884   3.212  0.00  0.00     0.020 A 
ATOM      2  C1  UNL d   1       4.105  -0.650   1.861  0.00  0.00     0.020 A 
ATOM      3  C2  UNL d   1       2.793  -0.671   1.382  0.00  0.00     0.034 A 
ATOM      4  C3  UNL d   1       1.730  -0.927   2.256  0.00  0.00     0.017 A 
ATOM      5  C4  UNL d   1       1.985  -1.161   3.612  0.00  0.00     0.017 A 
ATOM      6  C5  UNL d   1       3.300  -1.139   4.085  0.00  0.00     0.034 A 
ATOM      7 Cl   UNL d   1       0.725  -1.483   4.750  0.00  0.00    -0.070 Cl
ATOM      8 Cl1  UNL d   1       0.133  -0.937   1.596  0.00  0.00    -0.070 Cl
ENDROOT
TORSDOF 0
ENDMDL
