MODEL 1
REMARK minimizedAffinity -3.11565113
REMARK minimizedRMSD -1
REMARK  0 active torsions:
REMARK  status: ('A' for Active; 'I' for Inactive)
ROOT
ATOM      1  C   UNL d   1      -4.833   1.154  -0.842  0.00  0.00     0.020 A 
ATOM      2  C1  UNL d   1      -3.687   0.498  -0.392  0.00  0.00     0.020 A 
ATOM      3  C2  UNL d   1      -2.518   0.533  -1.156  0.00  0.00     0.034 A 
ATOM      4  C3  UNL d   1      -2.492   1.225  -2.372  0.00  0.00     0.017 A 
ATOM      5  C4  UNL d   1      -3.643   1.882  -2.823  0.00  0.00     0.017 A 
ATOM      6  C5  UNL d   1      -4.811   1.844  -2.055  0.00  0.00     0.034 A 
ATOM      7 Cl   UNL d   1      -3.687   2.756  -4.313  0.00  0.00    -0.070 Cl
ATOM      8 Cl1  UNL d   1      -1.012   1.226  -3.264  0.00  0.00    -0.070 Cl
ENDROOT
TORSDOF 0
ENDMDL
