MODEL 1
REMARK minimizedAffinity -0.764522612
REMARK minimizedRMSD -1
REMARK  0 active torsions:
REMARK  status: ('A' for Active; 'I' for Inactive)
ROOT
ATOM      1  C   UNL d   1       0.807  -0.164   0.330  0.00  0.00     0.020 A 
ATOM      2  C1  UNL d   1       0.236  -1.410   0.073  0.00  0.00     0.020 A 
ATOM      3  C2  UNL d   1       0.606  -2.518   0.837  0.00  0.00     0.034 A 
ATOM      4  C3  UNL d   1       1.550  -2.383   1.862  0.00  0.00     0.017 A 
ATOM      5  C4  UNL d   1       2.123  -1.133   2.119  0.00  0.00     0.017 A 
ATOM      6  C5  UNL d   1       1.748  -0.026   1.351  0.00  0.00     0.034 A 
ATOM      7 Cl   UNL d   1       3.294  -0.888   3.367  0.00  0.00    -0.070 Cl
ATOM      8 Cl1  UNL d   1       1.960  -3.797   2.768  0.00  0.00    -0.070 Cl
ENDROOT
TORSDOF 0
ENDMDL
