MODEL 1
REMARK minimizedAffinity 0.0557289943
REMARK minimizedRMSD -1
REMARK  0 active torsions:
REMARK  status: ('A' for Active; 'I' for Inactive)
ROOT
ATOM      1  C   UNL d   1       4.263  -0.766   3.000  0.00  0.00     0.020 A 
ATOM      2  C1  UNL d   1       3.309  -1.501   3.704  0.00  0.00     0.020 A 
ATOM      3  C2  UNL d   1       2.022  -1.652   3.184  0.00  0.00     0.034 A 
ATOM      4  C3  UNL d   1       1.685  -1.069   1.957  0.00  0.00     0.017 A 
ATOM      5  C4  UNL d   1       2.643  -0.332   1.252  0.00  0.00     0.017 A 
ATOM      6  C5  UNL d   1       3.930  -0.183   1.777  0.00  0.00     0.034 A 
ATOM      7 Cl   UNL d   1       2.301   0.418  -0.268  0.00  0.00    -0.070 Cl
ATOM      8 Cl1  UNL d   1       0.074  -1.297   1.374  0.00  0.00    -0.070 Cl
ENDROOT
TORSDOF 0
ENDMDL
