MODEL 1
REMARK minimizedAffinity 2.5644021
REMARK minimizedRMSD -1
REMARK  0 active torsions:
REMARK  status: ('A' for Active; 'I' for Inactive)
ROOT
ATOM      1  C   UNL d   1       3.579  -1.541   2.836  0.00  0.00     0.020 A 
ATOM      2  C1  UNL d   1       2.334  -1.969   3.295  0.00  0.00     0.020 A 
ATOM      3  C2  UNL d   1       1.172  -1.588   2.620  0.00  0.00     0.034 A 
ATOM      4  C3  UNL d   1       1.253  -0.776   1.483  0.00  0.00     0.017 A 
ATOM      5  C4  UNL d   1       2.503  -0.346   1.023  0.00  0.00     0.017 A 
ATOM      6  C5  UNL d   1       3.663  -0.731   1.703  0.00  0.00     0.034 A 
ATOM      7 Cl   UNL d   1       2.683   0.657  -0.372  0.00  0.00    -0.070 Cl
ATOM      8 Cl1  UNL d   1      -0.224  -0.343   0.698  0.00  0.00    -0.070 Cl
ENDROOT
TORSDOF 0
ENDMDL
