MODEL 1
REMARK minimizedAffinity -2.77923036
REMARK minimizedRMSD -1
REMARK  0 active torsions:
REMARK  status: ('A' for Active; 'I' for Inactive)
ROOT
ATOM      1  C   UNL d   1      -5.319   1.509  -2.150  0.00  0.00     0.020 A 
ATOM      2  C1  UNL d   1      -4.335   0.760  -2.793  0.00  0.00     0.020 A 
ATOM      3  C2  UNL d   1      -3.827  -0.392  -2.188  0.00  0.00     0.034 A 
ATOM      4  C3  UNL d   1      -4.303  -0.797  -0.936  0.00  0.00     0.017 A 
ATOM      5  C4  UNL d   1      -5.291  -0.044  -0.291  0.00  0.00     0.017 A 
ATOM      6  C5  UNL d   1      -5.796   1.108  -0.901  0.00  0.00     0.034 A 
ATOM      7 Cl   UNL d   1      -5.928  -0.481   1.255  0.00  0.00    -0.070 Cl
ATOM      8 Cl1  UNL d   1      -3.630  -2.231  -0.247  0.00  0.00    -0.070 Cl
ENDROOT
TORSDOF 0
ENDMDL
