MODEL 1
REMARK minimizedAffinity 3.87652278
REMARK minimizedRMSD -1
REMARK  0 active torsions:
REMARK  status: ('A' for Active; 'I' for Inactive)
ROOT
ATOM      1  C   UNL d   1       4.790   3.915   0.282  0.00  0.00     0.020 A 
ATOM      2  C1  UNL d   1       4.388   5.179   0.710  0.00  0.00     0.020 A 
ATOM      3  C2  UNL d   1       3.033   5.450   0.912  0.00  0.00     0.034 A 
ATOM      4  C3  UNL d   1       2.075   4.454   0.687  0.00  0.00     0.017 A 
ATOM      5  C4  UNL d   1       2.480   3.185   0.257  0.00  0.00     0.017 A 
ATOM      6  C5  UNL d   1       3.838   2.920   0.056  0.00  0.00     0.034 A 
ATOM      7 Cl   UNL d   1       1.356   1.906  -0.043  0.00  0.00    -0.070 Cl
ATOM      8 Cl1  UNL d   1       0.417   4.858   0.958  0.00  0.00    -0.070 Cl
ENDROOT
TORSDOF 0
ENDMDL
