MODEL 1
REMARK minimizedAffinity 2.77716446
REMARK minimizedRMSD -1
REMARK  0 active torsions:
REMARK  status: ('A' for Active; 'I' for Inactive)
ROOT
ATOM      1  C   UNL d   1       0.692  -0.108   0.217  0.00  0.00     0.020 A 
ATOM      2  C1  UNL d   1       1.882   0.143  -0.464  0.00  0.00     0.020 A 
ATOM      3  C2  UNL d   1       3.108  -0.071   0.170  0.00  0.00     0.034 A 
ATOM      4  C3  UNL d   1       3.146  -0.538   1.489  0.00  0.00     0.017 A 
ATOM      5  C4  UNL d   1       1.951  -0.790   2.171  0.00  0.00     0.017 A 
ATOM      6  C5  UNL d   1       0.726  -0.574   1.532  0.00  0.00     0.034 A 
ATOM      7 Cl   UNL d   1       1.918  -1.368   3.800  0.00  0.00    -0.070 Cl
ATOM      8 Cl1  UNL d   1       4.697  -0.781   2.210  0.00  0.00    -0.070 Cl
ENDROOT
TORSDOF 0
ENDMDL
