MODEL 1
REMARK minimizedAffinity 3.77630234
REMARK minimizedRMSD -1
REMARK  0 active torsions:
REMARK  status: ('A' for Active; 'I' for Inactive)
ROOT
ATOM      1  C   UNL d   1      -4.144   0.290  -1.171  0.00  0.00     0.020 A 
ATOM      2  C1  UNL d   1      -3.621  -0.453  -0.114  0.00  0.00     0.020 A 
ATOM      3  C2  UNL d   1      -2.238  -0.555   0.051  0.00  0.00     0.034 A 
ATOM      4  C3  UNL d   1      -1.373   0.087  -0.843  0.00  0.00     0.017 A 
ATOM      5  C4  UNL d   1      -1.899   0.833  -1.904  0.00  0.00     0.017 A 
ATOM      6  C5  UNL d   1      -3.284   0.932  -2.064  0.00  0.00     0.034 A 
ATOM      7 Cl   UNL d   1      -0.895   1.654  -3.047  0.00  0.00    -0.070 Cl
ATOM      8 Cl1  UNL d   1       0.326  -0.082  -0.578  0.00  0.00    -0.070 Cl
ENDROOT
TORSDOF 0
ENDMDL
