MODEL 1
REMARK minimizedAffinity 8.3299284
REMARK minimizedRMSD -1
REMARK  0 active torsions:
REMARK  status: ('A' for Active; 'I' for Inactive)
ROOT
ATOM      1  C   UNL d   1       5.180  -0.871   2.567  0.00  0.00     0.020 A 
ATOM      2  C1  UNL d   1       4.864  -1.161   3.894  0.00  0.00     0.020 A 
ATOM      3  C2  UNL d   1       3.534  -1.359   4.268  0.00  0.00     0.034 A 
ATOM      4  C3  UNL d   1       2.513  -1.268   3.314  0.00  0.00     0.017 A 
ATOM      5  C4  UNL d   1       2.831  -0.977   1.983  0.00  0.00     0.017 A 
ATOM      6  C5  UNL d   1       4.165  -0.779   1.614  0.00  0.00     0.034 A 
ATOM      7 Cl   UNL d   1       1.627  -0.847   0.749  0.00  0.00    -0.070 Cl
ATOM      8 Cl1  UNL d   1       0.890  -1.525   3.847  0.00  0.00    -0.070 Cl
ENDROOT
TORSDOF 0
ENDMDL
