MODEL 1
REMARK minimizedAffinity 5.92800665
REMARK minimizedRMSD -1
REMARK  0 active torsions:
REMARK  status: ('A' for Active; 'I' for Inactive)
ROOT
ATOM      1  C   UNL d   1       0.369   0.171   0.777  0.00  0.00     0.020 A 
ATOM      2  C1  UNL d   1       1.408   0.037  -0.142  0.00  0.00     0.020 A 
ATOM      3  C2  UNL d   1       1.579  -1.164  -0.833  0.00  0.00     0.034 A 
ATOM      4  C3  UNL d   1       0.709  -2.237  -0.605  0.00  0.00     0.017 A 
ATOM      5  C4  UNL d   1      -0.334  -2.101   0.318  0.00  0.00     0.017 A 
ATOM      6  C5  UNL d   1      -0.501  -0.896   1.007  0.00  0.00     0.034 A 
ATOM      7 Cl   UNL d   1      -1.448  -3.380   0.652  0.00  0.00    -0.070 Cl
ATOM      8 Cl1  UNL d   1       0.979  -3.693  -1.494  0.00  0.00    -0.070 Cl
ENDROOT
TORSDOF 0
ENDMDL
