MODEL 1
REMARK minimizedAffinity -1.254094
REMARK minimizedRMSD -1
REMARK  0 active torsions:
REMARK  status: ('A' for Active; 'I' for Inactive)
ROOT
ATOM      1  C   UNL d   1       4.700   3.124  -0.885  0.00  0.00     0.020 A 
ATOM      2  C1  UNL d   1       4.605   1.771  -1.209  0.00  0.00     0.020 A 
ATOM      3  C2  UNL d   1       3.452   1.055  -0.881  0.00  0.00     0.034 A 
ATOM      4  C3  UNL d   1       2.390   1.690  -0.227  0.00  0.00     0.017 A 
ATOM      5  C4  UNL d   1       2.487   3.048   0.098  0.00  0.00     0.017 A 
ATOM      6  C5  UNL d   1       3.643   3.761  -0.233  0.00  0.00     0.034 A 
ATOM      7 Cl   UNL d   1       1.218   3.900   0.905  0.00  0.00    -0.070 Cl
ATOM      8 Cl1  UNL d   1       0.995   0.742   0.148  0.00  0.00    -0.070 Cl
ENDROOT
TORSDOF 0
ENDMDL
