MODEL 1
REMARK minimizedAffinity 6.6157527
REMARK minimizedRMSD -1
REMARK  0 active torsions:
REMARK  status: ('A' for Active; 'I' for Inactive)
ROOT
ATOM      1  C   UNL d   1       2.384  -0.236  -0.400  0.00  0.00     0.020 A 
ATOM      2  C1  UNL d   1       1.084   0.003   0.044  0.00  0.00     0.020 A 
ATOM      3  C2  UNL d   1       0.665   1.309   0.308  0.00  0.00     0.034 A 
ATOM      4  C3  UNL d   1       1.547   2.380   0.128  0.00  0.00     0.017 A 
ATOM      5  C4  UNL d   1       2.851   2.140  -0.318  0.00  0.00     0.017 A 
ATOM      6  C5  UNL d   1       3.265   0.830  -0.581  0.00  0.00     0.034 A 
ATOM      7 Cl   UNL d   1       3.996   3.411  -0.564  0.00  0.00    -0.070 Cl
ATOM      8 Cl1  UNL d   1       0.962   3.969   0.474  0.00  0.00    -0.070 Cl
ENDROOT
TORSDOF 0
ENDMDL
