MODEL 1
REMARK minimizedAffinity 8.34349632
REMARK minimizedRMSD -1
REMARK  0 active torsions:
REMARK  status: ('A' for Active; 'I' for Inactive)
ROOT
ATOM      1  C   UNL d   1       1.133   0.086   0.640  0.00  0.00     0.020 A 
ATOM      2  C1  UNL d   1       1.663  -1.204   0.660  0.00  0.00     0.020 A 
ATOM      3  C2  UNL d   1       0.809  -2.308   0.704  0.00  0.00     0.034 A 
ATOM      4  C3  UNL d   1      -0.578  -2.124   0.727  0.00  0.00     0.017 A 
ATOM      5  C4  UNL d   1      -1.109  -0.829   0.707  0.00  0.00     0.017 A 
ATOM      6  C5  UNL d   1      -0.249   0.273   0.663  0.00  0.00     0.034 A 
ATOM      7 Cl   UNL d   1      -2.810  -0.524   0.734  0.00  0.00    -0.070 Cl
ATOM      8 Cl1  UNL d   1      -1.574  -3.535   0.781  0.00  0.00    -0.070 Cl
ENDROOT
TORSDOF 0
ENDMDL
