MODEL 1
REMARK minimizedAffinity 8.51883888
REMARK minimizedRMSD -1
REMARK  0 active torsions:
REMARK  status: ('A' for Active; 'I' for Inactive)
ROOT
ATOM      1  C   UNL d   1       2.852  -5.304  -5.188  0.00  0.00     0.020 A 
ATOM      2  C1  UNL d   1       1.958  -6.000  -6.000  0.00  0.00     0.020 A 
ATOM      3  C2  UNL d   1       0.587  -5.936  -5.744  0.00  0.00     0.034 A 
ATOM      4  C3  UNL d   1       0.106  -5.174  -4.673  0.00  0.00     0.017 A 
ATOM      5  C4  UNL d   1       1.004  -4.475  -3.858  0.00  0.00     0.017 A 
ATOM      6  C5  UNL d   1       2.376  -4.543  -4.119  0.00  0.00     0.034 A 
ATOM      7 Cl   UNL d   1       0.485  -3.514  -2.518  0.00  0.00    -0.070 Cl
ATOM      8 Cl1  UNL d   1      -1.603  -5.139  -4.415  0.00  0.00    -0.070 Cl
ENDROOT
TORSDOF 0
ENDMDL
