MODEL 1
REMARK minimizedAffinity 6.35178471
REMARK minimizedRMSD -1
REMARK  0 active torsions:
REMARK  status: ('A' for Active; 'I' for Inactive)
ROOT
ATOM      1  C   UNL d   1      -1.321  -5.959  -6.000  0.00  0.00     0.020 A 
ATOM      2  C1  UNL d   1      -0.373  -5.585  -5.049  0.00  0.00     0.020 A 
ATOM      3  C2  UNL d   1      -0.776  -5.251  -3.754  0.00  0.00     0.034 A 
ATOM      4  C3  UNL d   1      -2.132  -5.290  -3.407  0.00  0.00     0.017 A 
ATOM      5  C4  UNL d   1      -3.083  -5.665  -4.363  0.00  0.00     0.017 A 
ATOM      6  C5  UNL d   1      -2.674  -5.999  -5.657  0.00  0.00     0.034 A 
ATOM      7 Cl   UNL d   1      -4.774  -5.736  -4.009  0.00  0.00    -0.070 Cl
ATOM      8 Cl1  UNL d   1      -2.559  -4.864  -1.788  0.00  0.00    -0.070 Cl
ENDROOT
TORSDOF 0
ENDMDL
