MODEL 1
REMARK minimizedAffinity 2.14520431
REMARK minimizedRMSD -1
REMARK  0 active torsions:
REMARK  status: ('A' for Active; 'I' for Inactive)
ROOT
ATOM      1  C   UNL d   1       2.686  -1.205   2.954  0.00  0.00     0.020 A 
ATOM      2  C1  UNL d   1       3.779  -1.183   2.089  0.00  0.00     0.020 A 
ATOM      3  C2  UNL d   1       3.608  -0.795   0.758  0.00  0.00     0.034 A 
ATOM      4  C3  UNL d   1       2.342  -0.427   0.289  0.00  0.00     0.017 A 
ATOM      5  C4  UNL d   1       1.245  -0.449   1.159  0.00  0.00     0.017 A 
ATOM      6  C5  UNL d   1       1.422  -0.838   2.490  0.00  0.00     0.034 A 
ATOM      7 Cl   UNL d   1      -0.348  -0.008   0.653  0.00  0.00    -0.070 Cl
ATOM      8 Cl1  UNL d   1       2.204   0.043  -1.368  0.00  0.00    -0.070 Cl
ENDROOT
TORSDOF 0
ENDMDL
