MODEL 1
REMARK minimizedAffinity -5.14421654
REMARK minimizedRMSD -1
REMARK  0 active torsions:
REMARK  status: ('A' for Active; 'I' for Inactive)
ROOT
ATOM      1  C   UNL d   1       3.371   1.136   0.547  0.00  0.00     0.078 C 
ATOM      2  C1  UNL d   1       1.902   0.917   0.751  0.00  0.00    -0.077 A 
ATOM      3  C2  UNL d   1       1.202  -0.030  -0.008  0.00  0.00    -0.001 A 
ATOM      4  C3  UNL d   1      -0.168  -0.216   0.186  0.00  0.00     0.003 A 
ATOM      5  C4  UNL d   1      -0.849   0.541   1.137  0.00  0.00    -0.005 A 
ATOM      6  C5  UNL d   1      -0.162   1.486   1.895  0.00  0.00     0.003 A 
ATOM      7  C6  UNL d   1       1.208   1.674   1.702  0.00  0.00    -0.001 A 
ENDROOT
TORSDOF 0
ENDMDL
