MODEL 1
REMARK minimizedAffinity -4.88767815
REMARK minimizedRMSD -1
REMARK  0 active torsions:
REMARK  status: ('A' for Active; 'I' for Inactive)
ROOT
ATOM      1  C   UNL d   1       2.658   2.255   0.751  0.00  0.00     0.078 C 
ATOM      2  C1  UNL d   1       1.430   1.394   0.729  0.00  0.00    -0.077 A 
ATOM      3  C2  UNL d   1       0.440   1.525   1.711  0.00  0.00    -0.001 A 
ATOM      4  C3  UNL d   1      -0.693   0.711   1.683  0.00  0.00     0.003 A 
ATOM      5  C4  UNL d   1      -0.847  -0.241   0.676  0.00  0.00    -0.005 A 
ATOM      6  C5  UNL d   1       0.134  -0.379  -0.304  0.00  0.00     0.003 A 
ATOM      7  C6  UNL d   1       1.268   0.434  -0.277  0.00  0.00    -0.001 A 
ENDROOT
TORSDOF 0
ENDMDL
