MODEL 1
REMARK minimizedAffinity -5.17586851
REMARK minimizedRMSD -1
REMARK  0 active torsions:
REMARK  status: ('A' for Active; 'I' for Inactive)
ROOT
ATOM      1  C   UNL d   1      -0.848   0.330  -0.213  0.00  0.00     0.078 C 
ATOM      2  C1  UNL d   1       0.531   0.796   0.151  0.00  0.00    -0.077 A 
ATOM      3  C2  UNL d   1       0.721   1.896   0.996  0.00  0.00    -0.001 A 
ATOM      4  C3  UNL d   1       2.010   2.325   1.318  0.00  0.00     0.003 A 
ATOM      5  C4  UNL d   1       3.118   1.660   0.798  0.00  0.00    -0.005 A 
ATOM      6  C5  UNL d   1       2.939   0.566  -0.046  0.00  0.00     0.003 A 
ATOM      7  C6  UNL d   1       1.651   0.136  -0.369  0.00  0.00    -0.001 A 
ENDROOT
TORSDOF 0
ENDMDL
