MODEL 1
REMARK minimizedAffinity 1.24007869
REMARK minimizedRMSD -1
REMARK  0 active torsions:
REMARK  status: ('A' for Active; 'I' for Inactive)
ROOT
ATOM      1  C   UNL d   1      -2.963  -0.799  -2.276  0.00  0.00     0.078 C 
ATOM      2  C1  UNL d   1      -2.091  -0.474  -1.100  0.00  0.00    -0.077 A 
ATOM      3  C2  UNL d   1      -2.047   0.821  -0.570  0.00  0.00    -0.001 A 
ATOM      4  C3  UNL d   1      -1.224   1.111   0.518  0.00  0.00     0.003 A 
ATOM      5  C4  UNL d   1      -0.436   0.112   1.085  0.00  0.00    -0.005 A 
ATOM      6  C5  UNL d   1      -0.470  -1.180   0.564  0.00  0.00     0.003 A 
ATOM      7  C6  UNL d   1      -1.294  -1.472  -0.525  0.00  0.00    -0.001 A 
ENDROOT
TORSDOF 0
ENDMDL
