MODEL 1
REMARK minimizedAffinity -3.57505608
REMARK minimizedRMSD -1
REMARK  0 active torsions:
REMARK  status: ('A' for Active; 'I' for Inactive)
ROOT
ATOM      1  C   UNL d   1      -0.165  -1.164  -0.657  0.00  0.00     0.078 C 
ATOM      2  C1  UNL d   1       0.317   0.110  -0.030  0.00  0.00    -0.077 A 
ATOM      3  C2  UNL d   1       1.463   0.759  -0.505  0.00  0.00    -0.001 A 
ATOM      4  C3  UNL d   1       1.906   1.940   0.094  0.00  0.00     0.003 A 
ATOM      5  C4  UNL d   1       1.208   2.481   1.172  0.00  0.00    -0.005 A 
ATOM      6  C5  UNL d   1       0.067   1.842   1.653  0.00  0.00     0.003 A 
ATOM      7  C6  UNL d   1      -0.376   0.661   1.055  0.00  0.00    -0.001 A 
ENDROOT
TORSDOF 0
ENDMDL
