MODEL 1
REMARK minimizedAffinity 1.43514168
REMARK minimizedRMSD -1
REMARK  0 active torsions:
REMARK  status: ('A' for Active; 'I' for Inactive)
ROOT
ATOM      1  C   UNL d   1       1.720  -0.781  -0.504  0.00  0.00     0.078 C 
ATOM      2  C1  UNL d   1       0.509  -0.245   0.200  0.00  0.00    -0.077 A 
ATOM      3  C2  UNL d   1       0.472  -0.144   1.596  0.00  0.00    -0.001 A 
ATOM      4  C3  UNL d   1      -0.666   0.347   2.238  0.00  0.00     0.003 A 
ATOM      5  C4  UNL d   1      -1.776   0.740   1.493  0.00  0.00    -0.005 A 
ATOM      6  C5  UNL d   1      -1.749   0.641   0.103  0.00  0.00     0.003 A 
ATOM      7  C6  UNL d   1      -0.612   0.150  -0.541  0.00  0.00    -0.001 A 
ENDROOT
TORSDOF 0
ENDMDL
