MODEL 1
REMARK minimizedAffinity -5.86861038
REMARK minimizedRMSD -1
REMARK  0 active torsions:
REMARK  status: ('A' for Active; 'I' for Inactive)
ROOT
ATOM      1  C   UNL d   1      -0.074  -1.168  -0.444  0.00  0.00     0.078 C 
ATOM      2  C1  UNL d   1       0.584   0.089   0.042  0.00  0.00    -0.077 A 
ATOM      3  C2  UNL d   1       1.842   0.475  -0.434  0.00  0.00    -0.001 A 
ATOM      4  C3  UNL d   1       2.447   1.643   0.035  0.00  0.00     0.003 A 
ATOM      5  C4  UNL d   1       1.801   2.432   0.984  0.00  0.00    -0.005 A 
ATOM      6  C5  UNL d   1       0.549   2.055   1.466  0.00  0.00     0.003 A 
ATOM      7  C6  UNL d   1      -0.057   0.888   0.998  0.00  0.00    -0.001 A 
ENDROOT
TORSDOF 0
ENDMDL
