MODEL 1
REMARK minimizedAffinity -2.64577842
REMARK minimizedRMSD -1
REMARK  0 active torsions:
REMARK  status: ('A' for Active; 'I' for Inactive)
ROOT
ATOM      1  C   UNL d   1      -0.908  -0.409  -1.520  0.00  0.00     0.078 C 
ATOM      2  C1  UNL d   1      -0.147   0.039  -0.308  0.00  0.00    -0.077 A 
ATOM      3  C2  UNL d   1       1.209  -0.275  -0.151  0.00  0.00    -0.001 A 
ATOM      4  C3  UNL d   1       1.902   0.139   0.987  0.00  0.00     0.003 A 
ATOM      5  C4  UNL d   1       1.248   0.869   1.978  0.00  0.00    -0.005 A 
ATOM      6  C5  UNL d   1      -0.101   1.184   1.832  0.00  0.00     0.003 A 
ATOM      7  C6  UNL d   1      -0.796   0.770   0.694  0.00  0.00    -0.001 A 
ENDROOT
TORSDOF 0
ENDMDL
