MODEL 1
REMARK minimizedAffinity -5.06155682
REMARK minimizedRMSD -1
REMARK  0 active torsions:
REMARK  status: ('A' for Active; 'I' for Inactive)
ROOT
ATOM      1  C   UNL d   1      -0.877  -0.568  -1.141  0.00  0.00     0.078 C 
ATOM      2  C1  UNL d   1       0.014   0.361  -0.372  0.00  0.00    -0.077 A 
ATOM      3  C2  UNL d   1       1.408   0.252  -0.451  0.00  0.00    -0.001 A 
ATOM      4  C3  UNL d   1       2.226   1.118   0.277  0.00  0.00     0.003 A 
ATOM      5  C4  UNL d   1       1.659   2.098   1.090  0.00  0.00    -0.005 A 
ATOM      6  C5  UNL d   1       0.273   2.212   1.176  0.00  0.00     0.003 A 
ATOM      7  C6  UNL d   1      -0.546   1.347   0.449  0.00  0.00    -0.001 A 
ENDROOT
TORSDOF 0
ENDMDL
