MODEL 1
REMARK minimizedAffinity -2.94305801
REMARK minimizedRMSD -1
REMARK  0 active torsions:
REMARK  status: ('A' for Active; 'I' for Inactive)
ROOT
ATOM      1  C   UNL d   1      -1.526  -1.851   3.043  0.00  0.00     0.078 C 
ATOM      2  C1  UNL d   1      -0.852  -1.115   1.924  0.00  0.00    -0.077 A 
ATOM      3  C2  UNL d   1      -0.649   0.269   1.990  0.00  0.00    -0.001 A 
ATOM      4  C3  UNL d   1      -0.029   0.943   0.937  0.00  0.00     0.003 A 
ATOM      5  C4  UNL d   1       0.391   0.241  -0.191  0.00  0.00    -0.005 A 
ATOM      6  C5  UNL d   1       0.191  -1.136  -0.267  0.00  0.00     0.003 A 
ATOM      7  C6  UNL d   1      -0.428  -1.811   0.785  0.00  0.00    -0.001 A 
ENDROOT
TORSDOF 0
ENDMDL
