MODEL 1
REMARK minimizedAffinity -2.83948064
REMARK minimizedRMSD -1
REMARK  0 active torsions:
REMARK  status: ('A' for Active; 'I' for Inactive)
ROOT
ATOM      1  C   UNL d   1      -2.682  -1.812  -2.423  0.00  0.00     0.078 C 
ATOM      2  C1  UNL d   1      -1.611  -1.216  -1.558  0.00  0.00    -0.077 A 
ATOM      3  C2  UNL d   1      -0.473  -1.952  -1.209  0.00  0.00    -0.001 A 
ATOM      4  C3  UNL d   1       0.511  -1.388  -0.396  0.00  0.00     0.003 A 
ATOM      5  C4  UNL d   1       0.365  -0.085   0.077  0.00  0.00    -0.005 A 
ATOM      6  C5  UNL d   1      -0.765   0.655  -0.263  0.00  0.00     0.003 A 
ATOM      7  C6  UNL d   1      -1.750   0.092  -1.077  0.00  0.00    -0.001 A 
ENDROOT
TORSDOF 0
ENDMDL
