MODEL 1
REMARK minimizedAffinity -3.71837854
REMARK minimizedRMSD -1
REMARK  0 active torsions:
REMARK  status: ('A' for Active; 'I' for Inactive)
ROOT
ATOM      1  C   UNL d   1       1.567  -3.263   1.715  0.00  0.00     0.078 C 
ATOM      2  C1  UNL d   1       1.115  -1.946   1.159  0.00  0.00    -0.077 A 
ATOM      3  C2  UNL d   1      -0.203  -1.505   1.329  0.00  0.00    -0.001 A 
ATOM      4  C3  UNL d   1      -0.612  -0.281   0.796  0.00  0.00     0.003 A 
ATOM      5  C4  UNL d   1       0.291   0.511   0.089  0.00  0.00    -0.005 A 
ATOM      6  C5  UNL d   1       1.604   0.079  -0.087  0.00  0.00     0.003 A 
ATOM      7  C6  UNL d   1       2.015  -1.144   0.445  0.00  0.00    -0.001 A 
ENDROOT
TORSDOF 0
ENDMDL
