MODEL 1
REMARK minimizedAffinity -2.35742688
REMARK minimizedRMSD -1
REMARK  0 active torsions:
REMARK  status: ('A' for Active; 'I' for Inactive)
ROOT
ATOM      1  C   UNL d   1       1.731   0.333  -0.558  0.00  0.00     0.078 C 
ATOM      2  C1  UNL d   1       0.637  -0.249   0.287  0.00  0.00    -0.077 A 
ATOM      3  C2  UNL d   1      -0.485   0.511   0.639  0.00  0.00    -0.001 A 
ATOM      4  C3  UNL d   1      -1.491  -0.041   1.434  0.00  0.00     0.003 A 
ATOM      5  C4  UNL d   1      -1.384  -1.355   1.884  0.00  0.00    -0.005 A 
ATOM      6  C5  UNL d   1      -0.271  -2.119   1.541  0.00  0.00     0.003 A 
ATOM      7  C6  UNL d   1       0.736  -1.569   0.746  0.00  0.00    -0.001 A 
ENDROOT
TORSDOF 0
ENDMDL
