MODEL 1
REMARK minimizedAffinity -4.88530159
REMARK minimizedRMSD -1
REMARK  0 active torsions:
REMARK  status: ('A' for Active; 'I' for Inactive)
ROOT
ATOM      1  C   UNL d   1      -0.171   2.308  -0.334  0.00  0.00     0.078 C 
ATOM      2  C1  UNL d   1       0.414   1.011   0.140  0.00  0.00    -0.077 A 
ATOM      3  C2  UNL d   1       1.771   0.723  -0.044  0.00  0.00    -0.001 A 
ATOM      4  C3  UNL d   1       2.300  -0.493   0.394  0.00  0.00     0.003 A 
ATOM      5  C4  UNL d   1       1.479  -1.430   1.017  0.00  0.00    -0.005 A 
ATOM      6  C5  UNL d   1       0.126  -1.152   1.203  0.00  0.00     0.003 A 
ATOM      7  C6  UNL d   1      -0.405   0.063   0.766  0.00  0.00    -0.001 A 
ENDROOT
TORSDOF 0
ENDMDL
