MODEL 1
REMARK minimizedAffinity -4.18146181
REMARK minimizedRMSD -1
REMARK  0 active torsions:
REMARK  status: ('A' for Active; 'I' for Inactive)
ROOT
ATOM      1  C   UNL d   1      -0.048   4.512  -3.527  0.00  0.00     0.078 C 
ATOM      2  C1  UNL d   1      -0.863   3.365  -3.008  0.00  0.00    -0.077 A 
ATOM      3  C2  UNL d   1      -0.273   2.347  -2.248  0.00  0.00    -0.001 A 
ATOM      4  C3  UNL d   1      -1.042   1.280  -1.780  0.00  0.00     0.003 A 
ATOM      5  C4  UNL d   1      -2.404   1.220  -2.068  0.00  0.00    -0.005 A 
ATOM      6  C5  UNL d   1      -2.999   2.227  -2.825  0.00  0.00     0.003 A 
ATOM      7  C6  UNL d   1      -2.232   3.294  -3.295  0.00  0.00    -0.001 A 
ENDROOT
TORSDOF 0
ENDMDL
