MODEL 1
REMARK minimizedAffinity -5.23864126
REMARK minimizedRMSD -1
REMARK  0 active torsions:
REMARK  status: ('A' for Active; 'I' for Inactive)
ROOT
ATOM      1  C   UNL d   1       1.292  -2.710   0.940  0.00  0.00     0.078 C 
ATOM      2  C1  UNL d   1       0.635  -1.383   0.706  0.00  0.00    -0.077 A 
ATOM      3  C2  UNL d   1       1.269  -0.387  -0.047  0.00  0.00    -0.001 A 
ATOM      4  C3  UNL d   1       0.650   0.848  -0.248  0.00  0.00     0.003 A 
ATOM      5  C4  UNL d   1      -0.606   1.099   0.302  0.00  0.00    -0.005 A 
ATOM      6  C5  UNL d   1      -1.243   0.115   1.055  0.00  0.00     0.003 A 
ATOM      7  C6  UNL d   1      -0.625  -1.121   1.257  0.00  0.00    -0.001 A 
ENDROOT
TORSDOF 0
ENDMDL
