MODEL 1
REMARK minimizedAffinity -0.694249213
REMARK minimizedRMSD -1
REMARK  0 active torsions:
REMARK  status: ('A' for Active; 'I' for Inactive)
ROOT
ATOM      1  C   UNL d   1       0.045   1.295  -0.711  0.00  0.00     0.078 C 
ATOM      2  C1  UNL d   1      -0.384   0.177   0.192  0.00  0.00    -0.077 A 
ATOM      3  C2  UNL d   1      -1.375   0.373   1.161  0.00  0.00    -0.001 A 
ATOM      4  C3  UNL d   1      -1.758  -0.674   2.001  0.00  0.00     0.003 A 
ATOM      5  C4  UNL d   1      -1.154  -1.924   1.881  0.00  0.00    -0.005 A 
ATOM      6  C5  UNL d   1      -0.165  -2.127   0.921  0.00  0.00     0.003 A 
ATOM      7  C6  UNL d   1       0.219  -1.082   0.080  0.00  0.00    -0.001 A 
ENDROOT
TORSDOF 0
ENDMDL
