MODEL 1
REMARK minimizedAffinity -4.15643024
REMARK minimizedRMSD -1
REMARK  0 active torsions:
REMARK  status: ('A' for Active; 'I' for Inactive)
ROOT
ATOM      1  C   UNL d   1      -0.453   0.591  -0.309  0.00  0.00     0.078 C 
ATOM      2  C1  UNL d   1      -0.051  -0.580   0.537  0.00  0.00    -0.077 A 
ATOM      3  C2  UNL d   1      -0.861  -1.021   1.591  0.00  0.00    -0.001 A 
ATOM      4  C3  UNL d   1      -0.470  -2.106   2.376  0.00  0.00     0.003 A 
ATOM      5  C4  UNL d   1       0.732  -2.760   2.116  0.00  0.00    -0.005 A 
ATOM      6  C5  UNL d   1       1.546  -2.328   1.071  0.00  0.00     0.003 A 
ATOM      7  C6  UNL d   1       1.157  -1.242   0.285  0.00  0.00    -0.001 A 
ENDROOT
TORSDOF 0
ENDMDL
