MODEL 1
REMARK minimizedAffinity -4.81620121
REMARK minimizedRMSD -1
REMARK  0 active torsions:
REMARK  status: ('A' for Active; 'I' for Inactive)
ROOT
ATOM      1  C   UNL d   1       0.472  -2.760   0.843  0.00  0.00     0.078 C 
ATOM      2  C1  UNL d   1      -0.216  -1.428   0.847  0.00  0.00    -0.077 A 
ATOM      3  C2  UNL d   1       0.112  -0.444  -0.094  0.00  0.00    -0.001 A 
ATOM      4  C3  UNL d   1      -0.530   0.795  -0.073  0.00  0.00     0.003 A 
ATOM      5  C4  UNL d   1      -1.503   1.063   0.888  0.00  0.00    -0.005 A 
ATOM      6  C5  UNL d   1      -1.834   0.091   1.830  0.00  0.00     0.003 A 
ATOM      7  C6  UNL d   1      -1.193  -1.149   1.811  0.00  0.00    -0.001 A 
ENDROOT
TORSDOF 0
ENDMDL
