MODEL 1
REMARK minimizedAffinity -5.73885298
REMARK minimizedRMSD -1
REMARK  0 active torsions:
REMARK  status: ('A' for Active; 'I' for Inactive)
ROOT
ATOM      1  C   UNL d   1      -0.899   0.338  -0.609  0.00  0.00     0.078 C 
ATOM      2  C1  UNL d   1      -0.414  -0.672   0.387  0.00  0.00    -0.077 A 
ATOM      3  C2  UNL d   1      -1.141  -0.942   1.553  0.00  0.00    -0.001 A 
ATOM      4  C3  UNL d   1      -0.673  -1.877   2.477  0.00  0.00     0.003 A 
ATOM      5  C4  UNL d   1       0.525  -2.551   2.245  0.00  0.00    -0.005 A 
ATOM      6  C5  UNL d   1       1.257  -2.287   1.089  0.00  0.00     0.003 A 
ATOM      7  C6  UNL d   1       0.790  -1.352   0.164  0.00  0.00    -0.001 A 
ENDROOT
TORSDOF 0
ENDMDL
