MODEL 1
REMARK minimizedAffinity -4.30275011
REMARK minimizedRMSD -1
REMARK  0 active torsions:
REMARK  status: ('A' for Active; 'I' for Inactive)
ROOT
ATOM      1  C   UNL d   1       1.174  -2.715   0.740  0.00  0.00     0.078 C 
ATOM      2  C1  UNL d   1       0.765  -1.292   0.499  0.00  0.00    -0.077 A 
ATOM      3  C2  UNL d   1      -0.494  -0.826   0.899  0.00  0.00    -0.001 A 
ATOM      4  C3  UNL d   1      -0.865   0.498   0.660  0.00  0.00     0.003 A 
ATOM      5  C4  UNL d   1       0.016   1.367   0.019  0.00  0.00    -0.005 A 
ATOM      6  C5  UNL d   1       1.270   0.911  -0.385  0.00  0.00     0.003 A 
ATOM      7  C6  UNL d   1       1.642  -0.413  -0.147  0.00  0.00    -0.001 A 
ENDROOT
TORSDOF 0
ENDMDL
