MODEL 1
REMARK minimizedAffinity 1.51016784
REMARK minimizedRMSD -1
REMARK  0 active torsions:
REMARK  status: ('A' for Active; 'I' for Inactive)
ROOT
ATOM      1  C   UNL d   1      -2.544   2.237  -3.405  0.00  0.00     0.078 C 
ATOM      2  C1  UNL d   1      -1.931   1.570  -2.211  0.00  0.00    -0.077 A 
ATOM      3  C2  UNL d   1      -2.612   0.562  -1.518  0.00  0.00    -0.001 A 
ATOM      4  C3  UNL d   1      -2.033  -0.043  -0.402  0.00  0.00     0.003 A 
ATOM      5  C4  UNL d   1      -0.770   0.354   0.032  0.00  0.00    -0.005 A 
ATOM      6  C5  UNL d   1      -0.085   1.358  -0.649  0.00  0.00     0.003 A 
ATOM      7  C6  UNL d   1      -0.663   1.964  -1.765  0.00  0.00    -0.001 A 
ENDROOT
TORSDOF 0
ENDMDL
