MODEL 1
REMARK minimizedAffinity -4.82484722
REMARK minimizedRMSD -1
REMARK  0 active torsions:
REMARK  status: ('A' for Active; 'I' for Inactive)
ROOT
ATOM      1  C   UNL d   1       1.492  -3.051   0.849  0.00  0.00     0.078 C 
ATOM      2  C1  UNL d   1       1.032  -1.679   0.456  0.00  0.00    -0.077 A 
ATOM      3  C2  UNL d   1      -0.278  -1.255   0.716  0.00  0.00    -0.001 A 
ATOM      4  C3  UNL d   1      -0.695   0.021   0.335  0.00  0.00     0.003 A 
ATOM      5  C4  UNL d   1       0.189   0.884  -0.309  0.00  0.00    -0.005 A 
ATOM      6  C5  UNL d   1       1.493   0.470  -0.574  0.00  0.00     0.003 A 
ATOM      7  C6  UNL d   1       1.913  -0.805  -0.194  0.00  0.00    -0.001 A 
ENDROOT
TORSDOF 0
ENDMDL
