MODEL 1
REMARK minimizedAffinity -5.21664953
REMARK minimizedRMSD -1
REMARK  0 active torsions:
REMARK  status: ('A' for Active; 'I' for Inactive)
ROOT
ATOM      1  C   UNL d   1       1.133  -0.020  -0.961  0.00  0.00     0.078 C 
ATOM      2  C1  UNL d   1       0.496  -0.571   0.280  0.00  0.00    -0.077 A 
ATOM      3  C2  UNL d   1      -0.742  -0.094   0.728  0.00  0.00    -0.001 A 
ATOM      4  C3  UNL d   1      -1.318  -0.609   1.890  0.00  0.00     0.003 A 
ATOM      5  C4  UNL d   1      -0.664  -1.604   2.614  0.00  0.00    -0.005 A 
ATOM      6  C5  UNL d   1       0.569  -2.083   2.177  0.00  0.00     0.003 A 
ATOM      7  C6  UNL d   1       1.147  -1.569   1.015  0.00  0.00    -0.001 A 
ENDROOT
TORSDOF 0
ENDMDL
