MODEL 1
REMARK minimizedAffinity -5.11172056
REMARK minimizedRMSD -1
REMARK  0 active torsions:
REMARK  status: ('A' for Active; 'I' for Inactive)
ROOT
ATOM      1  C   UNL d   1       1.514  -2.780   1.118  0.00  0.00     0.078 C 
ATOM      2  C1  UNL d   1       1.060  -1.428   0.655  0.00  0.00    -0.077 A 
ATOM      3  C2  UNL d   1      -0.242  -0.979   0.906  0.00  0.00    -0.001 A 
ATOM      4  C3  UNL d   1      -0.654   0.278   0.460  0.00  0.00     0.003 A 
ATOM      5  C4  UNL d   1       0.230   1.096  -0.240  0.00  0.00    -0.005 A 
ATOM      6  C5  UNL d   1       1.528   0.657  -0.496  0.00  0.00     0.003 A 
ATOM      7  C6  UNL d   1       1.941  -0.600  -0.051  0.00  0.00    -0.001 A 
ENDROOT
TORSDOF 0
ENDMDL
