MODEL 1
REMARK minimizedAffinity -4.32755089
REMARK minimizedRMSD -1
REMARK  0 active torsions:
REMARK  status: ('A' for Active; 'I' for Inactive)
ROOT
ATOM      1  C   UNL d   1      -0.997   0.835  -0.373  0.00  0.00     0.078 C 
ATOM      2  C1  UNL d   1       0.200   0.001  -0.026  0.00  0.00    -0.077 A 
ATOM      3  C2  UNL d   1       0.082  -1.119   0.806  0.00  0.00    -0.001 A 
ATOM      4  C3  UNL d   1       1.206  -1.881   1.129  0.00  0.00     0.003 A 
ATOM      5  C4  UNL d   1       2.457  -1.530   0.625  0.00  0.00    -0.005 A 
ATOM      6  C5  UNL d   1       2.585  -0.416  -0.202  0.00  0.00     0.003 A 
ATOM      7  C6  UNL d   1       1.462   0.347  -0.525  0.00  0.00    -0.001 A 
ENDROOT
TORSDOF 0
ENDMDL
