MODEL 1
REMARK minimizedAffinity -4.70938015
REMARK minimizedRMSD -1
REMARK  0 active torsions:
REMARK  status: ('A' for Active; 'I' for Inactive)
ROOT
ATOM      1  C   UNL d   1      -1.939   1.531  -3.843  0.00  0.00     0.078 C 
ATOM      2  C1  UNL d   1      -1.292   2.873  -3.673  0.00  0.00    -0.077 A 
ATOM      3  C2  UNL d   1      -1.050   3.401  -2.399  0.00  0.00    -0.001 A 
ATOM      4  C3  UNL d   1      -0.456   4.656  -2.256  0.00  0.00     0.003 A 
ATOM      5  C4  UNL d   1      -0.100   5.394  -3.383  0.00  0.00    -0.005 A 
ATOM      6  C5  UNL d   1      -0.339   4.878  -4.655  0.00  0.00     0.003 A 
ATOM      7  C6  UNL d   1      -0.933   3.624  -4.800  0.00  0.00    -0.001 A 
ENDROOT
TORSDOF 0
ENDMDL
