MODEL 1
REMARK minimizedAffinity 10.5297441
REMARK minimizedRMSD -1
REMARK  1 active torsions:
REMARK  status: ('A' for Active; 'I' for Inactive)
REMARK    1  A    between atoms: C1_2  and  C2_3 
ROOT
ATOM      1  C2  UNL d   1       1.654   1.135   1.898  0.00  0.00    -0.077 A 
ATOM      2  C3  UNL d   1       1.365   1.602   0.608  0.00  0.00     0.002 A 
ATOM      3  C4  UNL d   1       2.253   1.369  -0.444  0.00  0.00     0.002 A 
ATOM      4  C5  UNL d   1       3.434   0.665  -0.217  0.00  0.00    -0.004 A 
ATOM      5  C6  UNL d   1       3.732   0.199   1.062  0.00  0.00     0.002 A 
ATOM      6  C7  UNL d   1       2.846   0.432   2.115  0.00  0.00     0.002 A 
ENDROOT
BRANCH   1   7
ATOM      7  C1  UNL d   1       0.674   1.343   3.023  0.00  0.00     0.055 C 
ATOM      8  C   UNL d   1       1.057   0.527   4.248  0.00  0.00     0.019 C 
ENDBRANCH   1   7
TORSDOF 1
ENDMDL
