MODEL 1
REMARK minimizedAffinity 5.44721222
REMARK minimizedRMSD -1
REMARK  1 active torsions:
REMARK  status: ('A' for Active; 'I' for Inactive)
REMARK    1  A    between atoms: C1_2  and  C2_3 
ROOT
ATOM      1  C2  UNL d   1       2.246   2.492   0.211  0.00  0.00    -0.077 A 
ATOM      2  C3  UNL d   1       1.815   1.447   1.041  0.00  0.00     0.002 A 
ATOM      3  C4  UNL d   1       2.093   0.120   0.708  0.00  0.00     0.002 A 
ATOM      4  C5  UNL d   1       2.806  -0.174  -0.453  0.00  0.00    -0.004 A 
ATOM      5  C6  UNL d   1       3.236   0.858  -1.286  0.00  0.00     0.002 A 
ATOM      6  C7  UNL d   1       2.958   2.185  -0.955  0.00  0.00     0.002 A 
ENDROOT
BRANCH   1   7
ATOM      7  C1  UNL d   1       1.990   3.926   0.594  0.00  0.00     0.055 C 
ATOM      8  C   UNL d   1       3.292   4.684   0.804  0.00  0.00     0.019 C 
ENDBRANCH   1   7
TORSDOF 1
ENDMDL
