MODEL 1
REMARK minimizedAffinity 9.8197422
REMARK minimizedRMSD -1
REMARK  1 active torsions:
REMARK  status: ('A' for Active; 'I' for Inactive)
REMARK    1  A    between atoms: C1_2  and  C2_3 
ROOT
ATOM      1  C2  UNL d   1       3.214  -0.058   1.124  0.00  0.00    -0.077 A 
ATOM      2  C3  UNL d   1       3.947  -0.013   2.318  0.00  0.00     0.002 A 
ATOM      3  C4  UNL d   1       5.332  -0.188   2.304  0.00  0.00     0.002 A 
ATOM      4  C5  UNL d   1       5.996  -0.405   1.099  0.00  0.00    -0.004 A 
ATOM      5  C6  UNL d   1       5.276  -0.453  -0.094  0.00  0.00     0.002 A 
ATOM      6  C7  UNL d   1       3.891  -0.279  -0.082  0.00  0.00     0.002 A 
ENDROOT
BRANCH   1   7
ATOM      7  C1  UNL d   1       1.726   0.180   1.131  0.00  0.00     0.055 C 
ATOM      8  C   UNL d   1       1.375   1.464   1.869  0.00  0.00     0.019 C 
ENDBRANCH   1   7
TORSDOF 1
ENDMDL
