MODEL 1
REMARK minimizedAffinity 14.3476
REMARK minimizedRMSD -1
REMARK  1 active torsions:
REMARK  status: ('A' for Active; 'I' for Inactive)
REMARK    1  A    between atoms: C1_2  and  C2_3 
ROOT
ATOM      1  C2  UNL d   1      -2.575  -3.525  -4.419  0.00  0.00    -0.077 A 
ATOM      2  C3  UNL d   1      -2.133  -4.765  -3.938  0.00  0.00     0.002 A 
ATOM      3  C4  UNL d   1      -2.452  -5.175  -2.642  0.00  0.00     0.002 A 
ATOM      4  C5  UNL d   1      -3.218  -4.352  -1.818  0.00  0.00    -0.004 A 
ATOM      5  C6  UNL d   1      -3.661  -3.116  -2.287  0.00  0.00     0.002 A 
ATOM      6  C7  UNL d   1      -3.342  -2.705  -3.582  0.00  0.00     0.002 A 
ENDROOT
BRANCH   1   7
ATOM      7  C1  UNL d   1      -2.273  -3.104  -5.834  0.00  0.00     0.055 C 
ATOM      8  C   UNL d   1      -2.379  -1.594  -5.996  0.00  0.00     0.019 C 
ENDBRANCH   1   7
TORSDOF 1
ENDMDL
