MODEL 1
REMARK minimizedAffinity 16.984663
REMARK minimizedRMSD -1
REMARK  1 active torsions:
REMARK  status: ('A' for Active; 'I' for Inactive)
REMARK    1  A    between atoms: C1_2  and  C2_3 
ROOT
ATOM      1  C2  UNL d   1      -4.319   1.406   3.775  0.00  0.00    -0.077 A 
ATOM      2  C3  UNL d   1      -5.099   0.341   3.303  0.00  0.00     0.002 A 
ATOM      3  C4  UNL d   1      -5.930  -0.366   4.174  0.00  0.00     0.002 A 
ATOM      4  C5  UNL d   1      -5.993  -0.012   5.521  0.00  0.00    -0.004 A 
ATOM      5  C6  UNL d   1      -5.220   1.044   6.000  0.00  0.00     0.002 A 
ATOM      6  C7  UNL d   1      -4.388   1.751   5.131  0.00  0.00     0.002 A 
ENDROOT
BRANCH   1   7
ATOM      7  C1  UNL d   1      -3.460   2.201   2.827  0.00  0.00     0.055 C 
ATOM      8  C   UNL d   1      -1.981   2.020   3.137  0.00  0.00     0.019 C 
ENDBRANCH   1   7
TORSDOF 1
ENDMDL
