MODEL 1
REMARK minimizedAffinity 7.69008112
REMARK minimizedRMSD -1
REMARK  1 active torsions:
REMARK  status: ('A' for Active; 'I' for Inactive)
REMARK    1  A    between atoms: C1_2  and  C2_3 
ROOT
ATOM      1  C2  UNL d   1      -2.342  -2.602  -0.848  0.00  0.00    -0.077 A 
ATOM      2  C3  UNL d   1      -0.994  -2.644  -0.464  0.00  0.00     0.002 A 
ATOM      3  C4  UNL d   1      -0.631  -2.420   0.866  0.00  0.00     0.002 A 
ATOM      4  C5  UNL d   1      -1.609  -2.157   1.822  0.00  0.00    -0.004 A 
ATOM      5  C6  UNL d   1      -2.952  -2.112   1.450  0.00  0.00     0.002 A 
ATOM      6  C7  UNL d   1      -3.317  -2.334   0.121  0.00  0.00     0.002 A 
ENDROOT
BRANCH   1   7
ATOM      7  C1  UNL d   1      -2.739  -2.892  -2.271  0.00  0.00     0.055 C 
ATOM      8  C   UNL d   1      -4.058  -3.649  -2.334  0.00  0.00     0.019 C 
ENDBRANCH   1   7
TORSDOF 1
ENDMDL
