MODEL 1
REMARK minimizedAffinity 10.8716049
REMARK minimizedRMSD -1
REMARK  1 active torsions:
REMARK  status: ('A' for Active; 'I' for Inactive)
REMARK    1  A    between atoms: C1_2  and  C2_3 
ROOT
ATOM      1  C2  UNL d   1      -2.402  -3.812   0.200  0.00  0.00    -0.077 A 
ATOM      2  C3  UNL d   1      -3.254  -4.924   0.152  0.00  0.00     0.002 A 
ATOM      3  C4  UNL d   1      -3.061  -6.000   1.021  0.00  0.00     0.002 A 
ATOM      4  C5  UNL d   1      -2.020  -5.972   1.947  0.00  0.00    -0.004 A 
ATOM      5  C6  UNL d   1      -1.166  -4.871   2.001  0.00  0.00     0.002 A 
ATOM      6  C7  UNL d   1      -1.356  -3.796   1.133  0.00  0.00     0.002 A 
ENDROOT
BRANCH   1   7
ATOM      7  C1  UNL d   1      -2.638  -2.629  -0.702  0.00  0.00     0.055 C 
ATOM      8  C   UNL d   1      -3.038  -3.073  -2.102  0.00  0.00     0.019 C 
ENDBRANCH   1   7
TORSDOF 1
ENDMDL
