MODEL 1
REMARK minimizedAffinity 16.2320614
REMARK minimizedRMSD -1
REMARK  1 active torsions:
REMARK  status: ('A' for Active; 'I' for Inactive)
REMARK    1  A    between atoms: C1_2  and  C2_3 
ROOT
ATOM      1  C2  UNL d   1      -2.839  -2.862  -1.242  0.00  0.00    -0.077 A 
ATOM      2  C3  UNL d   1      -1.872  -3.808  -0.875  0.00  0.00     0.002 A 
ATOM      3  C4  UNL d   1      -1.176  -3.678   0.328  0.00  0.00     0.002 A 
ATOM      4  C5  UNL d   1      -1.444  -2.605   1.176  0.00  0.00    -0.004 A 
ATOM      5  C6  UNL d   1      -2.403  -1.658   0.820  0.00  0.00     0.002 A 
ATOM      6  C7  UNL d   1      -3.098  -1.786  -0.384  0.00  0.00     0.002 A 
ENDROOT
BRANCH   1   7
ATOM      7  C1  UNL d   1      -3.625  -3.028  -2.517  0.00  0.00     0.055 C 
ATOM      8  C   UNL d   1      -5.022  -3.562  -2.239  0.00  0.00     0.019 C 
ENDBRANCH   1   7
TORSDOF 1
ENDMDL
