MODEL 1
REMARK minimizedAffinity 8.73010445
REMARK minimizedRMSD -1
REMARK  1 active torsions:
REMARK  status: ('A' for Active; 'I' for Inactive)
REMARK    1  A    between atoms: C1_2  and  C2_3 
ROOT
ATOM      1  C2  UNL d   1      -3.279  -5.164   1.884  0.00  0.00    -0.077 A 
ATOM      2  C3  UNL d   1      -2.171  -5.725   2.533  0.00  0.00     0.002 A 
ATOM      3  C4  UNL d   1      -1.059  -4.938   2.840  0.00  0.00     0.002 A 
ATOM      4  C5  UNL d   1      -1.047  -3.586   2.506  0.00  0.00    -0.004 A 
ATOM      5  C6  UNL d   1      -2.144  -3.019   1.858  0.00  0.00     0.002 A 
ATOM      6  C7  UNL d   1      -3.256  -3.804   1.549  0.00  0.00     0.002 A 
ENDROOT
BRANCH   1   7
ATOM      7  C1  UNL d   1      -4.499  -6.000   1.596  0.00  0.00     0.055 C 
ATOM      8  C   UNL d   1      -5.479  -5.969   2.760  0.00  0.00     0.019 C 
ENDBRANCH   1   7
TORSDOF 1
ENDMDL
