MODEL 1
REMARK minimizedAffinity 12.492691
REMARK minimizedRMSD -1
REMARK  1 active torsions:
REMARK  status: ('A' for Active; 'I' for Inactive)
REMARK    1  A    between atoms: C1_2  and  C2_3 
ROOT
ATOM      1  C2  UNL d   1      -4.059   3.408   4.590  0.00  0.00    -0.077 A 
ATOM      2  C3  UNL d   1      -5.084   3.679   3.674  0.00  0.00     0.002 A 
ATOM      3  C4  UNL d   1      -5.998   4.706   3.920  0.00  0.00     0.002 A 
ATOM      4  C5  UNL d   1      -5.893   5.471   5.079  0.00  0.00    -0.004 A 
ATOM      5  C6  UNL d   1      -4.878   5.208   5.997  0.00  0.00     0.002 A 
ATOM      6  C7  UNL d   1      -3.964   4.182   5.754  0.00  0.00     0.002 A 
ENDROOT
BRANCH   1   7
ATOM      7  C1  UNL d   1      -3.042   2.334   4.303  0.00  0.00     0.055 C 
ATOM      8  C   UNL d   1      -1.896   2.869   3.458  0.00  0.00     0.019 C 
ENDBRANCH   1   7
TORSDOF 1
ENDMDL
