MODEL 1
REMARK minimizedAffinity 13.4011126
REMARK minimizedRMSD -1
REMARK  1 active torsions:
REMARK  status: ('A' for Active; 'I' for Inactive)
REMARK    1  A    between atoms: C1_2  and  C2_3 
ROOT
ATOM      1  C2  UNL d   1      -0.419  -1.101   0.847  0.00  0.00    -0.077 A 
ATOM      2  C3  UNL d   1       0.256  -0.179   0.035  0.00  0.00     0.002 A 
ATOM      3  C4  UNL d   1       0.992   0.860   0.607  0.00  0.00     0.002 A 
ATOM      4  C5  UNL d   1       1.064   0.984   1.993  0.00  0.00    -0.004 A 
ATOM      5  C6  UNL d   1       0.394   0.074   2.809  0.00  0.00     0.002 A 
ATOM      6  C7  UNL d   1      -0.343  -0.965   2.239  0.00  0.00     0.002 A 
ENDROOT
BRANCH   1   7
ATOM      7  C1  UNL d   1      -1.174  -2.251   0.233  0.00  0.00     0.055 C 
ATOM      8  C   UNL d   1      -1.464  -3.335   1.262  0.00  0.00     0.019 C 
ENDBRANCH   1   7
TORSDOF 1
ENDMDL
