MODEL 1
REMARK minimizedAffinity 10.7195415
REMARK minimizedRMSD -1
REMARK  1 active torsions:
REMARK  status: ('A' for Active; 'I' for Inactive)
REMARK    1  A    between atoms: C1_2  and  C2_3 
ROOT
ATOM      1  C2  UNL d   1       2.923   1.123  -1.161  0.00  0.00    -0.077 A 
ATOM      2  C3  UNL d   1       3.687   0.221  -0.407  0.00  0.00     0.002 A 
ATOM      3  C4  UNL d   1       3.226  -0.235   0.829  0.00  0.00     0.002 A 
ATOM      4  C5  UNL d   1       1.997   0.201   1.320  0.00  0.00    -0.004 A 
ATOM      5  C6  UNL d   1       1.231   1.099   0.579  0.00  0.00     0.002 A 
ATOM      6  C7  UNL d   1       1.691   1.558  -0.656  0.00  0.00     0.002 A 
ENDROOT
BRANCH   1   7
ATOM      7  C1  UNL d   1       3.396   1.578  -2.516  0.00  0.00     0.055 C 
ATOM      8  C   UNL d   1       4.915   1.549  -2.611  0.00  0.00     0.019 C 
ENDBRANCH   1   7
TORSDOF 1
ENDMDL
