MODEL 1
REMARK minimizedAffinity 11.5973368
REMARK minimizedRMSD -1
REMARK  1 active torsions:
REMARK  status: ('A' for Active; 'I' for Inactive)
REMARK    1  A    between atoms: C1_2  and  C2_3 
ROOT
ATOM      1  C2  UNL d   1      -3.896   4.139   4.803  0.00  0.00    -0.077 A 
ATOM      2  C3  UNL d   1      -4.726   4.324   3.688  0.00  0.00     0.002 A 
ATOM      3  C4  UNL d   1      -5.772   5.247   3.731  0.00  0.00     0.002 A 
ATOM      4  C5  UNL d   1      -5.996   5.995   4.885  0.00  0.00    -0.004 A 
ATOM      5  C6  UNL d   1      -5.178   5.818   6.000  0.00  0.00     0.002 A 
ATOM      6  C7  UNL d   1      -4.132   4.894   5.959  0.00  0.00     0.002 A 
ENDROOT
BRANCH   1   7
ATOM      7  C1  UNL d   1      -2.737   3.179   4.742  0.00  0.00     0.055 C 
ATOM      8  C   UNL d   1      -2.047   3.231   3.386  0.00  0.00     0.019 C 
ENDBRANCH   1   7
TORSDOF 1
ENDMDL
