MODEL 1
REMARK minimizedAffinity 13.631443
REMARK minimizedRMSD -1
REMARK  1 active torsions:
REMARK  status: ('A' for Active; 'I' for Inactive)
REMARK    1  A    between atoms: C1_2  and  C2_3 
ROOT
ATOM      1  C2  UNL d   1       2.458   1.024  -0.742  0.00  0.00    -0.077 A 
ATOM      2  C3  UNL d   1       2.437  -0.105   0.090  0.00  0.00     0.002 A 
ATOM      3  C4  UNL d   1       1.687  -0.101   1.267  0.00  0.00     0.002 A 
ATOM      4  C5  UNL d   1       0.950   1.027   1.622  0.00  0.00    -0.004 A 
ATOM      5  C6  UNL d   1       0.966   2.156   0.803  0.00  0.00     0.002 A 
ATOM      6  C7  UNL d   1       1.716   2.154  -0.374  0.00  0.00     0.002 A 
ENDROOT
BRANCH   1   7
ATOM      7  C1  UNL d   1       3.227   1.004  -2.037  0.00  0.00     0.055 C 
ATOM      8  C   UNL d   1       2.872   2.198  -2.910  0.00  0.00     0.019 C 
ENDBRANCH   1   7
TORSDOF 1
ENDMDL
