MODEL 1
REMARK minimizedAffinity 6.45335007
REMARK minimizedRMSD -1
REMARK  1 active torsions:
REMARK  status: ('A' for Active; 'I' for Inactive)
REMARK    1  A    between atoms: C1_2  and  C2_3 
ROOT
ATOM      1  C2  UNL d   1      -4.029   3.990   4.863  0.00  0.00    -0.077 A 
ATOM      2  C3  UNL d   1      -4.228   4.789   5.998  0.00  0.00     0.002 A 
ATOM      3  C4  UNL d   1      -5.208   5.783   6.000  0.00  0.00     0.002 A 
ATOM      4  C5  UNL d   1      -6.000   5.984   4.871  0.00  0.00    -0.004 A 
ATOM      5  C6  UNL d   1      -5.809   5.196   3.737  0.00  0.00     0.002 A 
ATOM      6  C7  UNL d   1      -4.829   4.203   3.733  0.00  0.00     0.002 A 
ENDROOT
BRANCH   1   7
ATOM      7  C1  UNL d   1      -3.006   2.884   4.877  0.00  0.00     0.055 C 
ATOM      8  C   UNL d   1      -2.026   3.023   3.721  0.00  0.00     0.019 C 
ENDBRANCH   1   7
TORSDOF 1
ENDMDL
