MODEL 1
REMARK minimizedAffinity 9.57135296
REMARK minimizedRMSD -1
REMARK  2 active torsions:
REMARK  status: ('A' for Active; 'I' for Inactive)
REMARK    1  A    between atoms: C2'_3  and  C1'_4 
REMARK    2  A    between atoms: C1'_4  and  C1_5 
ROOT
ATOM      1  C1  I4B d   1       0.779  -4.758  -0.523  0.00  0.00    -0.075 A 
ATOM      2  C2  I4B d   1       1.686  -4.193  -1.384  0.00  0.00     0.003 A 
ATOM      3  C3  I4B d   1       2.413  -3.040  -0.998  0.00  0.00     0.002 A 
ATOM      4  C4  I4B d   1       2.167  -2.461   0.230  0.00  0.00    -0.004 A 
ATOM      5  C5  I4B d   1       1.263  -3.049   1.111  0.00  0.00     0.002 A 
ATOM      6  C6  I4B d   1       0.574  -4.212   0.738  0.00  0.00     0.003 A 
ENDROOT
BRANCH   1   7
ATOM      7  C1' I4B d   1       0.005  -5.955  -0.975  0.00  0.00     0.060 C 
BRANCH   7   8
ATOM      8  C2' I4B d   1      -1.006  -5.495  -2.006  0.00  0.00    -0.013 C 
ATOM      9  C4' I4B d   1      -0.648  -5.993  -3.381  0.00  0.00     0.013 C 
ATOM     10  C3' I4B d   1      -2.356  -5.993  -1.584  0.00  0.00     0.013 C 
ENDBRANCH   7   8
ENDBRANCH   1   7
TORSDOF 2
ENDMDL
