MODEL 1
REMARK minimizedAffinity -0.230536386
REMARK minimizedRMSD -1
REMARK  2 active torsions:
REMARK  status: ('A' for Active; 'I' for Inactive)
REMARK    1  A    between atoms: C2'_3  and  C1'_4 
REMARK    2  A    between atoms: C1'_4  and  C1_5 
ROOT
ATOM      1  C1  I4B d   1       3.482   4.463   3.094  0.00  0.00    -0.075 A 
ATOM      2  C2  I4B d   1       4.468   3.670   3.625  0.00  0.00     0.003 A 
ATOM      3  C3  I4B d   1       5.083   4.022   4.850  0.00  0.00     0.002 A 
ATOM      4  C4  I4B d   1       4.720   5.194   5.481  0.00  0.00    -0.004 A 
ATOM      5  C5  I4B d   1       3.704   5.985   4.953  0.00  0.00     0.002 A 
ATOM      6  C6  I4B d   1       3.072   5.612   3.758  0.00  0.00     0.003 A 
ENDROOT
BRANCH   1   7
ATOM      7  C1' I4B d   1       2.876   4.079   1.781  0.00  0.00     0.060 C 
BRANCH   7   8
ATOM      8  C2' I4B d   1       3.905   4.336   0.699  0.00  0.00    -0.013 C 
ATOM      9  C4' I4B d   1       4.080   3.129  -0.184  0.00  0.00     0.013 C 
ATOM     10  C3' I4B d   1       3.456   5.527  -0.094  0.00  0.00     0.013 C 
ENDBRANCH   7   8
ENDBRANCH   1   7
TORSDOF 2
ENDMDL
