MODEL 1
REMARK minimizedAffinity 5.38832569
REMARK minimizedRMSD -1
REMARK  2 active torsions:
REMARK  status: ('A' for Active; 'I' for Inactive)
REMARK    1  A    between atoms: C2'_3  and  C1'_4 
REMARK    2  A    between atoms: C1'_4  and  C1_5 
ROOT
ATOM      1  C1  I4B d   1      -2.179   2.584  -5.960  0.00  0.00    -0.075 A 
ATOM      2  C2  I4B d   1      -1.959   3.939  -5.939  0.00  0.00     0.003 A 
ATOM      3  C3  I4B d   1      -3.053   4.838  -5.933  0.00  0.00     0.002 A 
ATOM      4  C4  I4B d   1      -4.340   4.343  -5.999  0.00  0.00    -0.004 A 
ATOM      5  C5  I4B d   1      -4.561   2.969  -5.996  0.00  0.00     0.002 A 
ATOM      6  C6  I4B d   1      -3.474   2.083  -5.964  0.00  0.00     0.003 A 
ENDROOT
BRANCH   1   7
ATOM      7  C1' I4B d   1      -1.000   1.664  -5.999  0.00  0.00     0.060 C 
BRANCH   7   8
ATOM      8  C2' I4B d   1       0.095   2.271  -5.147  0.00  0.00    -0.013 C 
ATOM      9  C4' I4B d   1       0.370   1.427  -3.930  0.00  0.00     0.013 C 
ATOM     10  C3' I4B d   1       1.322   2.409  -5.999  0.00  0.00     0.013 C 
ENDBRANCH   7   8
ENDBRANCH   1   7
TORSDOF 2
ENDMDL
