MODEL 1
REMARK minimizedAffinity 4.72018385
REMARK minimizedRMSD -1
REMARK  2 active torsions:
REMARK  status: ('A' for Active; 'I' for Inactive)
REMARK    1  A    between atoms: C2'_3  and  C1'_4 
REMARK    2  A    between atoms: C1'_4  and  C1_5 
ROOT
ATOM      1  C1  I4B d   1      -1.779  -0.621   0.741  0.00  0.00    -0.075 A 
ATOM      2  C2  I4B d   1      -0.890  -1.644   0.955  0.00  0.00     0.003 A 
ATOM      3  C3  I4B d   1       0.483  -1.365   1.158  0.00  0.00     0.002 A 
ATOM      4  C4  I4B d   1       0.929  -0.061   1.090  0.00  0.00    -0.004 A 
ATOM      5  C5  I4B d   1       0.023   0.978   0.895  0.00  0.00     0.002 A 
ATOM      6  C6  I4B d   1      -1.342   0.698   0.732  0.00  0.00     0.003 A 
ENDROOT
BRANCH   1   7
ATOM      7  C1' I4B d   1      -3.217  -0.954   0.498  0.00  0.00     0.060 C 
BRANCH   7   8
ATOM      8  C2' I4B d   1      -3.826   0.173  -0.312  0.00  0.00    -0.013 C 
ATOM      9  C4' I4B d   1      -3.888  -0.179  -1.775  0.00  0.00     0.013 C 
ATOM     10  C3' I4B d   1      -5.194   0.450   0.237  0.00  0.00     0.013 C 
ENDBRANCH   7   8
ENDBRANCH   1   7
TORSDOF 2
ENDMDL
