MODEL 1
REMARK minimizedAffinity -0.18286933
REMARK minimizedRMSD -1
REMARK  2 active torsions:
REMARK  status: ('A' for Active; 'I' for Inactive)
REMARK    1  A    between atoms: C2'_3  and  C1'_4 
REMARK    2  A    between atoms: C1'_4  and  C1_5 
ROOT
ATOM      1  C1  I4B d   1       1.419   2.477  -0.362  0.00  0.00    -0.075 A 
ATOM      2  C2  I4B d   1       0.560   1.626   0.286  0.00  0.00     0.003 A 
ATOM      3  C3  I4B d   1      -0.837   1.854   0.243  0.00  0.00     0.002 A 
ATOM      4  C4  I4B d   1      -1.324   2.966  -0.413  0.00  0.00    -0.004 A 
ATOM      5  C5  I4B d   1      -0.453   3.815  -1.089  0.00  0.00     0.002 A 
ATOM      6  C6  I4B d   1       0.927   3.563  -1.074  0.00  0.00     0.003 A 
ENDROOT
BRANCH   1   7
ATOM      7  C1' I4B d   1       2.891   2.225  -0.268  0.00  0.00     0.060 C 
BRANCH   7   8
ATOM      8  C2' I4B d   1       3.254   1.188  -1.311  0.00  0.00    -0.013 C 
ATOM      9  C4' I4B d   1       3.299  -0.194  -0.714  0.00  0.00     0.013 C 
ATOM     10  C3' I4B d   1       2.243   1.267  -2.416  0.00  0.00     0.013 C 
ENDBRANCH   7   8
ENDBRANCH   1   7
TORSDOF 2
ENDMDL
