MODEL 1
REMARK minimizedAffinity 7.3772769
REMARK minimizedRMSD -1
REMARK  2 active torsions:
REMARK  status: ('A' for Active; 'I' for Inactive)
REMARK    1  A    between atoms: C2'_3  and  C1'_4 
REMARK    2  A    between atoms: C1'_4  and  C1_5 
ROOT
ATOM      1  C1  I4B d   1       1.500   2.212  -4.866  0.00  0.00    -0.075 A 
ATOM      2  C2  I4B d   1       1.443   2.630  -3.560  0.00  0.00     0.003 A 
ATOM      3  C3  I4B d   1       1.645   1.706  -2.506  0.00  0.00     0.002 A 
ATOM      4  C4  I4B d   1       1.849   0.374  -2.801  0.00  0.00    -0.004 A 
ATOM      5  C5  I4B d   1       1.928  -0.045  -4.126  0.00  0.00     0.002 A 
ATOM      6  C6  I4B d   1       1.765   0.882  -5.166  0.00  0.00     0.003 A 
ENDROOT
BRANCH   1   7
ATOM      7  C1' I4B d   1       1.249   3.208  -5.954  0.00  0.00     0.060 C 
BRANCH   7   8
ATOM      8  C2' I4B d   1       0.162   4.151  -5.481  0.00  0.00    -0.013 C 
ATOM      9  C4' I4B d   1       0.415   5.557  -5.956  0.00  0.00     0.013 C 
ATOM     10  C3' I4B d   1      -1.151   3.636  -5.991  0.00  0.00     0.013 C 
ENDBRANCH   7   8
ENDBRANCH   1   7
TORSDOF 2
ENDMDL
