MODEL 1
REMARK minimizedAffinity 2.47982883
REMARK minimizedRMSD -1
REMARK  2 active torsions:
REMARK  status: ('A' for Active; 'I' for Inactive)
REMARK    1  A    between atoms: C2'_3  and  C1'_4 
REMARK    2  A    between atoms: C1'_4  and  C1_5 
ROOT
ATOM      1  C1  I4B d   1      -2.471   3.615  -5.955  0.00  0.00    -0.075 A 
ATOM      2  C2  I4B d   1      -2.454   4.987  -5.993  0.00  0.00     0.003 A 
ATOM      3  C3  I4B d   1      -3.668   5.715  -5.986  0.00  0.00     0.002 A 
ATOM      4  C4  I4B d   1      -4.869   5.035  -5.992  0.00  0.00    -0.004 A 
ATOM      5  C5  I4B d   1      -4.884   3.645  -5.930  0.00  0.00     0.002 A 
ATOM      6  C6  I4B d   1      -3.678   2.930  -5.899  0.00  0.00     0.003 A 
ENDROOT
BRANCH   1   7
ATOM      7  C1' I4B d   1      -1.170   2.877  -5.997  0.00  0.00     0.060 C 
BRANCH   7   8
ATOM      8  C2' I4B d   1      -0.298   3.406  -4.877  0.00  0.00    -0.013 C 
ATOM      9  C4' I4B d   1       0.618   2.334  -4.347  0.00  0.00     0.013 C 
ATOM     10  C3' I4B d   1       0.483   4.571  -5.408  0.00  0.00     0.013 C 
ENDBRANCH   7   8
ENDBRANCH   1   7
TORSDOF 2
ENDMDL
