MODEL 1
REMARK minimizedAffinity 2.73488426
REMARK minimizedRMSD -1
REMARK  2 active torsions:
REMARK  status: ('A' for Active; 'I' for Inactive)
REMARK    1  A    between atoms: C2'_3  and  C1'_4 
REMARK    2  A    between atoms: C1'_4  and  C1_5 
ROOT
ATOM      1  C1  I4B d   1      -0.998   3.872  -5.959  0.00  0.00    -0.075 A 
ATOM      2  C2  I4B d   1      -1.888   4.916  -5.976  0.00  0.00     0.003 A 
ATOM      3  C3  I4B d   1      -3.281   4.666  -5.971  0.00  0.00     0.002 A 
ATOM      4  C4  I4B d   1      -3.738   3.364  -5.999  0.00  0.00    -0.004 A 
ATOM      5  C5  I4B d   1      -2.834   2.306  -5.958  0.00  0.00     0.002 A 
ATOM      6  C6  I4B d   1      -1.455   2.561  -5.925  0.00  0.00     0.003 A 
ENDROOT
BRANCH   1   7
ATOM      7  C1' I4B d   1       0.467   4.172  -5.998  0.00  0.00     0.060 C 
BRANCH   7   8
ATOM      8  C2' I4B d   1       1.202   2.992  -5.396  0.00  0.00    -0.013 C 
ATOM      9  C4' I4B d   1       2.593   2.870  -5.960  0.00  0.00     0.013 C 
ATOM     10  C3' I4B d   1       1.236   3.177  -3.908  0.00  0.00     0.013 C 
ENDBRANCH   7   8
ENDBRANCH   1   7
TORSDOF 2
ENDMDL
