MODEL 1
REMARK minimizedAffinity -3.62530208
REMARK minimizedRMSD -1
REMARK  2 active torsions:
REMARK  status: ('A' for Active; 'I' for Inactive)
REMARK    1  A    between atoms: C2'_3  and  C1'_4 
REMARK    2  A    between atoms: C1'_4  and  C1_5 
ROOT
ATOM      1  C1  I4B d   1      -1.622   2.554  -5.719  0.00  0.00    -0.075 A 
ATOM      2  C2  I4B d   1      -1.228   3.858  -5.884  0.00  0.00     0.003 A 
ATOM      3  C3  I4B d   1      -2.196   4.886  -6.000  0.00  0.00     0.002 A 
ATOM      4  C4  I4B d   1      -3.537   4.560  -5.996  0.00  0.00    -0.004 A 
ATOM      5  C5  I4B d   1      -3.934   3.240  -5.806  0.00  0.00     0.002 A 
ATOM      6  C6  I4B d   1      -2.971   2.231  -5.655  0.00  0.00     0.003 A 
ENDROOT
BRANCH   1   7
ATOM      7  C1' I4B d   1      -0.574   1.490  -5.633  0.00  0.00     0.060 C 
BRANCH   7   8
ATOM      8  C2' I4B d   1       0.644   2.088  -4.958  0.00  0.00    -0.013 C 
ATOM      9  C4' I4B d   1       1.124   1.216  -3.828  0.00  0.00     0.013 C 
ATOM     10  C3' I4B d   1       1.711   2.263  -5.997  0.00  0.00     0.013 C 
ENDBRANCH   7   8
ENDBRANCH   1   7
TORSDOF 2
ENDMDL
