MODEL 1
REMARK minimizedAffinity -1.31498277
REMARK minimizedRMSD -1
REMARK  2 active torsions:
REMARK  status: ('A' for Active; 'I' for Inactive)
REMARK    1  A    between atoms: C2'_3  and  C1'_4 
REMARK    2  A    between atoms: C1'_4  and  C1_5 
ROOT
ATOM      1  C1  I4B d   1      -0.121   3.108  -5.610  0.00  0.00    -0.075 A 
ATOM      2  C2  I4B d   1      -1.151   2.201  -5.635  0.00  0.00     0.003 A 
ATOM      3  C3  I4B d   1      -2.479   2.638  -5.858  0.00  0.00     0.002 A 
ATOM      4  C4  I4B d   1      -2.737   3.986  -6.000  0.00  0.00    -0.004 A 
ATOM      5  C5  I4B d   1      -1.688   4.902  -5.997  0.00  0.00     0.002 A 
ATOM      6  C6  I4B d   1      -0.370   4.459  -5.813  0.00  0.00     0.003 A 
ENDROOT
BRANCH   1   7
ATOM      7  C1' I4B d   1       1.266   2.616  -5.339  0.00  0.00     0.060 C 
BRANCH   7   8
ATOM      8  C2' I4B d   1       1.214   1.728  -4.112  0.00  0.00    -0.013 C 
ATOM      9  C4' I4B d   1       1.476   0.288  -4.470  0.00  0.00     0.013 C 
ATOM     10  C3' I4B d   1       2.229   2.235  -3.131  0.00  0.00     0.013 C 
ENDBRANCH   7   8
ENDBRANCH   1   7
TORSDOF 2
ENDMDL
