MODEL 1
REMARK minimizedAffinity 2.51233363
REMARK minimizedRMSD -1
REMARK  1 active torsions:
REMARK  status: ('A' for Active; 'I' for Inactive)
REMARK    1  A    between atoms: C1_2  and  C2_3 
ROOT
ATOM      1  C2  UNL d   1       0.191  -0.413   2.054  0.00  0.00    -0.077 A 
ATOM      2  C3  UNL d   1       1.480  -0.348   1.507  0.00  0.00     0.002 A 
ATOM      3  C4  UNL d   1       1.738  -0.882   0.243  0.00  0.00     0.002 A 
ATOM      4  C5  UNL d   1       0.712  -1.479  -0.486  0.00  0.00    -0.004 A 
ATOM      5  C6  UNL d   1      -0.573  -1.550   0.050  0.00  0.00     0.002 A 
ATOM      6  C7  UNL d   1      -0.833  -1.019   1.314  0.00  0.00     0.002 A 
ENDROOT
BRANCH   1   7
ATOM      7  C1  UNL d   1      -0.101   0.206   3.396  0.00  0.00     0.055 C 
ATOM      8  C   UNL d   1       0.667  -0.495   4.507  0.00  0.00     0.019 C 
ENDBRANCH   1   7
TORSDOF 1
ENDMDL
