MODEL 1
REMARK minimizedAffinity -3.12793088
REMARK minimizedRMSD -1
REMARK  1 active torsions:
REMARK  status: ('A' for Active; 'I' for Inactive)
REMARK    1  A    between atoms: C1_2  and  C2_3 
ROOT
ATOM      1  C2  UNL d   1       1.813  -1.290   0.502  0.00  0.00    -0.077 A 
ATOM      2  C3  UNL d   1       0.515  -0.835   0.775  0.00  0.00     0.002 A 
ATOM      3  C4  UNL d   1      -0.573  -1.706   0.681  0.00  0.00     0.002 A 
ATOM      4  C5  UNL d   1      -0.373  -3.036   0.319  0.00  0.00    -0.004 A 
ATOM      5  C6  UNL d   1       0.913  -3.497   0.043  0.00  0.00     0.002 A 
ATOM      6  C7  UNL d   1       2.002  -2.629   0.136  0.00  0.00     0.002 A 
ENDROOT
BRANCH   1   7
ATOM      7  C1  UNL d   1       2.993  -0.365   0.651  0.00  0.00     0.055 C 
ATOM      8  C   UNL d   1       2.957   0.368   1.984  0.00  0.00     0.019 C 
ENDBRANCH   1   7
TORSDOF 1
ENDMDL
