MODEL 1
REMARK minimizedAffinity 1.98928392
REMARK minimizedRMSD -1
REMARK  1 active torsions:
REMARK  status: ('A' for Active; 'I' for Inactive)
REMARK    1  A    between atoms: C1_2  and  C2_3 
ROOT
ATOM      1  C2  UNL d   1      -0.168  -1.792   0.836  0.00  0.00    -0.077 A 
ATOM      2  C3  UNL d   1       0.058  -3.043   0.244  0.00  0.00     0.002 A 
ATOM      3  C4  UNL d   1       1.333  -3.391  -0.205  0.00  0.00     0.002 A 
ATOM      4  C5  UNL d   1       2.392  -2.497  -0.063  0.00  0.00    -0.004 A 
ATOM      5  C6  UNL d   1       2.177  -1.251   0.523  0.00  0.00     0.002 A 
ATOM      6  C7  UNL d   1       0.903  -0.900   0.971  0.00  0.00     0.002 A 
ENDROOT
BRANCH   1   7
ATOM      7  C1  UNL d   1      -1.532  -1.434   1.365  0.00  0.00     0.055 C 
ATOM      8  C   UNL d   1      -1.769   0.069   1.313  0.00  0.00     0.019 C 
ENDBRANCH   1   7
TORSDOF 1
ENDMDL
