MODEL 1
REMARK minimizedAffinity 1.22401142
REMARK minimizedRMSD -1
REMARK  1 active torsions:
REMARK  status: ('A' for Active; 'I' for Inactive)
REMARK    1  A    between atoms: C1_2  and  C2_3 
ROOT
ATOM      1  C2  UNL d   1       1.297  -0.936   1.753  0.00  0.00    -0.077 A 
ATOM      2  C3  UNL d   1       0.183  -0.130   1.482  0.00  0.00     0.002 A 
ATOM      3  C4  UNL d   1      -0.809  -0.569   0.603  0.00  0.00     0.002 A 
ATOM      4  C5  UNL d   1      -0.698  -1.816  -0.008  0.00  0.00    -0.004 A 
ATOM      5  C6  UNL d   1       0.407  -2.624   0.254  0.00  0.00     0.002 A 
ATOM      6  C7  UNL d   1       1.400  -2.186   1.131  0.00  0.00     0.002 A 
ENDROOT
BRANCH   1   7
ATOM      7  C1  UNL d   1       2.344  -0.485   2.739  0.00  0.00     0.055 C 
ATOM      8  C   UNL d   1       2.515  -1.495   3.865  0.00  0.00     0.019 C 
ENDBRANCH   1   7
TORSDOF 1
ENDMDL
