MODEL 1
REMARK minimizedAffinity 1.58793116
REMARK minimizedRMSD -1
REMARK  1 active torsions:
REMARK  status: ('A' for Active; 'I' for Inactive)
REMARK    1  A    between atoms: C1_2  and  C2_3 
ROOT
ATOM      1  C2  UNL d   1      -0.747  -0.144   1.255  0.00  0.00    -0.077 A 
ATOM      2  C3  UNL d   1       0.519   0.087   1.811  0.00  0.00     0.002 A 
ATOM      3  C4  UNL d   1       1.632  -0.619   1.350  0.00  0.00     0.002 A 
ATOM      4  C5  UNL d   1       1.491  -1.555   0.329  0.00  0.00    -0.004 A 
ATOM      5  C6  UNL d   1       0.236  -1.793  -0.229  0.00  0.00     0.002 A 
ATOM      6  C7  UNL d   1      -0.878  -1.090   0.231  0.00  0.00     0.002 A 
ENDROOT
BRANCH   1   7
ATOM      7  C1  UNL d   1      -1.940   0.651   1.717  0.00  0.00     0.055 C 
ATOM      8  C   UNL d   1      -3.037   0.667   0.663  0.00  0.00     0.019 C 
ENDBRANCH   1   7
TORSDOF 1
ENDMDL
