MODEL 1
REMARK minimizedAffinity 2.37285137
REMARK minimizedRMSD -1
REMARK  1 active torsions:
REMARK  status: ('A' for Active; 'I' for Inactive)
REMARK    1  A    between atoms: C1_2  and  C2_3 
ROOT
ATOM      1  C2  UNL d   1       1.354  -2.634  -0.117  0.00  0.00    -0.077 A 
ATOM      2  C3  UNL d   1       1.994  -1.537   0.477  0.00  0.00     0.002 A 
ATOM      3  C4  UNL d   1       1.310  -0.728   1.386  0.00  0.00     0.002 A 
ATOM      4  C5  UNL d   1      -0.014  -1.010   1.713  0.00  0.00    -0.004 A 
ATOM      5  C6  UNL d   1      -0.660  -2.098   1.126  0.00  0.00     0.002 A 
ATOM      6  C7  UNL d   1       0.021  -2.907   0.216  0.00  0.00     0.002 A 
ENDROOT
BRANCH   1   7
ATOM      7  C1  UNL d   1       2.105  -3.537  -1.061  0.00  0.00     0.055 C 
ATOM      8  C   UNL d   1       3.509  -3.826  -0.550  0.00  0.00     0.019 C 
ENDBRANCH   1   7
TORSDOF 1
ENDMDL
