MODEL 1
REMARK minimizedAffinity 2.52321172
REMARK minimizedRMSD -1
REMARK  1 active torsions:
REMARK  status: ('A' for Active; 'I' for Inactive)
REMARK    1  A    between atoms: C1_2  and  C2_3 
ROOT
ATOM      1  C2  UNL d   1       1.099  -2.539  -0.211  0.00  0.00    -0.077 A 
ATOM      2  C3  UNL d   1       1.679  -1.266  -0.300  0.00  0.00     0.002 A 
ATOM      3  C4  UNL d   1       1.050  -0.161   0.278  0.00  0.00     0.002 A 
ATOM      4  C5  UNL d   1      -0.158  -0.319   0.952  0.00  0.00    -0.004 A 
ATOM      5  C6  UNL d   1      -0.744  -1.581   1.045  0.00  0.00     0.002 A 
ATOM      6  C7  UNL d   1      -0.117  -2.686   0.467  0.00  0.00     0.002 A 
ENDROOT
BRANCH   1   7
ATOM      7  C1  UNL d   1       1.800  -3.740  -0.791  0.00  0.00     0.055 C 
ATOM      8  C   UNL d   1       3.294  -3.701  -0.503  0.00  0.00     0.019 C 
ENDBRANCH   1   7
TORSDOF 1
ENDMDL
