MODEL 1
REMARK minimizedAffinity 1.08450007
REMARK minimizedRMSD -1
REMARK  1 active torsions:
REMARK  status: ('A' for Active; 'I' for Inactive)
REMARK    1  A    between atoms: C1_2  and  C2_3 
ROOT
ATOM      1  C2  UNL d   1      -5.226  -2.836   4.670  0.00  0.00    -0.077 A 
ATOM      2  C3  UNL d   1      -4.761  -2.300   3.461  0.00  0.00     0.002 A 
ATOM      3  C4  UNL d   1      -4.820  -3.053   2.286  0.00  0.00     0.002 A 
ATOM      4  C5  UNL d   1      -5.347  -4.342   2.309  0.00  0.00    -0.004 A 
ATOM      5  C6  UNL d   1      -5.810  -4.885   3.507  0.00  0.00     0.002 A 
ATOM      6  C7  UNL d   1      -5.751  -4.135   4.682  0.00  0.00     0.002 A 
ENDROOT
BRANCH   1   7
ATOM      7  C1  UNL d   1      -5.209  -2.008   5.929  0.00  0.00     0.055 C 
ATOM      8  C   UNL d   1      -4.316  -0.786   5.775  0.00  0.00     0.019 C 
ENDBRANCH   1   7
TORSDOF 1
ENDMDL
