MODEL 1
REMARK minimizedAffinity 2.14372993
REMARK minimizedRMSD -1
REMARK  1 active torsions:
REMARK  status: ('A' for Active; 'I' for Inactive)
REMARK    1  A    between atoms: C1_2  and  C2_3 
ROOT
ATOM      1  C2  UNL d   1       0.195  -1.544   0.732  0.00  0.00    -0.077 A 
ATOM      2  C3  UNL d   1       1.404  -0.849   0.589  0.00  0.00     0.002 A 
ATOM      3  C4  UNL d   1       2.500  -1.457  -0.026  0.00  0.00     0.002 A 
ATOM      4  C5  UNL d   1       2.396  -2.762  -0.505  0.00  0.00    -0.004 A 
ATOM      5  C6  UNL d   1       1.199  -3.462  -0.365  0.00  0.00     0.002 A 
ATOM      6  C7  UNL d   1       0.103  -2.856   0.250  0.00  0.00     0.002 A 
ENDROOT
BRANCH   1   7
ATOM      7  C1  UNL d   1      -1.004  -0.872   1.350  0.00  0.00     0.055 C 
ATOM      8  C   UNL d   1      -0.585   0.197   2.349  0.00  0.00     0.019 C 
ENDBRANCH   1   7
TORSDOF 1
ENDMDL
