MODEL 1
REMARK minimizedAffinity 1.51297092
REMARK minimizedRMSD -1
REMARK  1 active torsions:
REMARK  status: ('A' for Active; 'I' for Inactive)
REMARK    1  A    between atoms: C1_2  and  C2_3 
ROOT
ATOM      1  C2  UNL d   1       0.852  -2.395  -0.045  0.00  0.00    -0.077 A 
ATOM      2  C3  UNL d   1       1.850  -1.523   0.414  0.00  0.00     0.002 A 
ATOM      3  C4  UNL d   1       1.506  -0.317   1.028  0.00  0.00     0.002 A 
ATOM      4  C5  UNL d   1       0.166   0.026   1.192  0.00  0.00    -0.004 A 
ATOM      5  C6  UNL d   1      -0.833  -0.833   0.738  0.00  0.00     0.002 A 
ATOM      6  C7  UNL d   1      -0.492  -2.039   0.123  0.00  0.00     0.002 A 
ENDROOT
BRANCH   1   7
ATOM      7  C1  UNL d   1       1.220  -3.719  -0.662  0.00  0.00     0.055 C 
ATOM      8  C   UNL d   1       2.639  -4.126  -0.294  0.00  0.00     0.019 C 
ENDBRANCH   1   7
TORSDOF 1
ENDMDL
