MODEL 1
REMARK minimizedAffinity 8.74232769
REMARK minimizedRMSD -1
REMARK  0 active torsions:
REMARK  status: ('A' for Active; 'I' for Inactive)
ROOT
ATOM      1  C   UNL d   1      -0.736   1.694   0.671  0.00  0.00    -0.002 A 
ATOM      2  C1  UNL d   1      -1.262   0.454   0.340  0.00  0.00     0.010 A 
ATOM      3  C2  UNL d   1      -0.901  -0.687   1.060  0.00  0.00     0.041 A 
ATOM      4  C3  UNL d   1       0.006  -0.558   2.131  0.00  0.00    -0.075 A 
ATOM      5  S   UNL d   1       0.593  -1.815   3.154  0.00  0.00     0.015 SA
ATOM      6  C4  UNL d   1       1.555  -0.735   4.055  0.00  0.00     0.022 A 
ATOM      7  C5  UNL d   1       1.444   0.557   3.600  0.00  0.00     0.026 A 
ATOM      8  C6  UNL d   1       0.549   0.681   2.484  0.00  0.00    -0.082 A 
ATOM      9  C7  UNL d   1       0.164   1.818   1.734  0.00  0.00     0.045 A 
ENDROOT
TORSDOF 0
ENDMDL
