MODEL 1
REMARK minimizedAffinity 0.650673807
REMARK minimizedRMSD -1
REMARK  0 active torsions:
REMARK  status: ('A' for Active; 'I' for Inactive)
ROOT
ATOM      1  C   UNL d   1       0.293   1.537   1.140  0.00  0.00    -0.002 A 
ATOM      2  C1  UNL d   1       0.135   0.161   1.048  0.00  0.00     0.010 A 
ATOM      3  C2  UNL d   1      -0.957  -0.470   1.649  0.00  0.00     0.041 A 
ATOM      4  C3  UNL d   1      -1.896   0.313   2.349  0.00  0.00    -0.075 A 
ATOM      5  S   UNL d   1      -3.311  -0.242   3.163  0.00  0.00     0.015 SA
ATOM      6  C4  UNL d   1      -3.738   1.334   3.652  0.00  0.00     0.022 A 
ATOM      7  C5  UNL d   1      -2.835   2.273   3.213  0.00  0.00     0.026 A 
ATOM      8  C6  UNL d   1      -1.758   1.700   2.455  0.00  0.00    -0.082 A 
ATOM      9  C7  UNL d   1      -0.640   2.310   1.835  0.00  0.00     0.045 A 
ENDROOT
TORSDOF 0
ENDMDL
