MODEL 1
REMARK minimizedAffinity 2.16474915
REMARK minimizedRMSD -1
REMARK  0 active torsions:
REMARK  status: ('A' for Active; 'I' for Inactive)
ROOT
ATOM      1  C   UNL d   1      -0.051   1.793   1.157  0.00  0.00    -0.002 A 
ATOM      2  C1  UNL d   1      -0.716   2.966   1.485  0.00  0.00     0.010 A 
ATOM      3  C2  UNL d   1      -1.900   2.928   2.224  0.00  0.00     0.041 A 
ATOM      4  C3  UNL d   1      -2.409   1.679   2.633  0.00  0.00    -0.075 A 
ATOM      5  S   UNL d   1      -3.842   1.389   3.546  0.00  0.00     0.015 SA
ATOM      6  C4  UNL d   1      -3.605  -0.298   3.522  0.00  0.00     0.022 A 
ATOM      7  C5  UNL d   1      -2.465  -0.649   2.838  0.00  0.00     0.026 A 
ATOM      8  C6  UNL d   1      -1.757   0.485   2.315  0.00  0.00    -0.082 A 
ATOM      9  C7  UNL d   1      -0.559   0.556   1.564  0.00  0.00     0.045 A 
ENDROOT
TORSDOF 0
ENDMDL
