MODEL 1
REMARK minimizedAffinity 2.68738127
REMARK minimizedRMSD -1
REMARK  0 active torsions:
REMARK  status: ('A' for Active; 'I' for Inactive)
ROOT
ATOM      1  C   UNL d   1       0.572   0.115   1.835  0.00  0.00    -0.002 A 
ATOM      2  C1  UNL d   1       0.999   0.939   0.803  0.00  0.00     0.010 A 
ATOM      3  C2  UNL d   1       0.394   2.179   0.588  0.00  0.00     0.041 A 
ATOM      4  C3  UNL d   1      -0.657   2.581   1.436  0.00  0.00    -0.075 A 
ATOM      5  S   UNL d   1      -1.546   4.056   1.362  0.00  0.00     0.015 SA
ATOM      6  C4  UNL d   1      -2.513   3.627   2.698  0.00  0.00     0.022 A 
ATOM      7  C5  UNL d   1      -2.179   2.392   3.201  0.00  0.00     0.026 A 
ATOM      8  C6  UNL d   1      -1.104   1.769   2.482  0.00  0.00    -0.082 A 
ATOM      9  C7  UNL d   1      -0.470   0.517   2.674  0.00  0.00     0.045 A 
ENDROOT
TORSDOF 0
ENDMDL
