MODEL 1
REMARK minimizedAffinity -3.41517186
REMARK minimizedRMSD -1
REMARK  0 active torsions:
REMARK  status: ('A' for Active; 'I' for Inactive)
ROOT
ATOM      1  C   UNL d   1      -0.724   2.693   1.678  0.00  0.00    -0.002 A 
ATOM      2  C1  UNL d   1       0.354   2.028   1.111  0.00  0.00     0.010 A 
ATOM      3  C2  UNL d   1       0.384   0.633   1.064  0.00  0.00     0.041 A 
ATOM      4  C3  UNL d   1      -0.700  -0.090   1.602  0.00  0.00    -0.075 A 
ATOM      5  S   UNL d   1      -0.881  -1.803   1.655  0.00  0.00     0.015 SA
ATOM      6  C4  UNL d   1      -2.395  -1.693   2.432  0.00  0.00     0.022 A 
ATOM      7  C5  UNL d   1      -2.767  -0.389   2.652  0.00  0.00     0.026 A 
ATOM      8  C6  UNL d   1      -1.797   0.557   2.177  0.00  0.00    -0.082 A 
ATOM      9  C7  UNL d   1      -1.797   1.973   2.210  0.00  0.00     0.045 A 
ENDROOT
TORSDOF 0
ENDMDL
