MODEL 1
REMARK minimizedAffinity 3.5918951
REMARK minimizedRMSD -1
REMARK  0 active torsions:
REMARK  status: ('A' for Active; 'I' for Inactive)
ROOT
ATOM      1  C   UNL d   1       0.205  -0.180   1.924  0.00  0.00    -0.002 A 
ATOM      2  C1  UNL d   1       0.395   1.023   2.590  0.00  0.00     0.010 A 
ATOM      3  C2  UNL d   1      -0.672   1.657   3.229  0.00  0.00     0.041 A 
ATOM      4  C3  UNL d   1      -1.946   1.056   3.187  0.00  0.00    -0.075 A 
ATOM      5  S   UNL d   1      -3.400   1.651   3.898  0.00  0.00     0.015 SA
ATOM      6  C4  UNL d   1      -4.307   0.322   3.335  0.00  0.00     0.022 A 
ATOM      7  C5  UNL d   1      -3.535  -0.563   2.620  0.00  0.00     0.026 A 
ATOM      8  C6  UNL d   1      -2.162  -0.155   2.523  0.00  0.00    -0.082 A 
ATOM      9  C7  UNL d   1      -1.060  -0.773   1.885  0.00  0.00     0.045 A 
ENDROOT
TORSDOF 0
ENDMDL
