MODEL 1
REMARK minimizedAffinity 2.74689531
REMARK minimizedRMSD -1
REMARK  0 active torsions:
REMARK  status: ('A' for Active; 'I' for Inactive)
ROOT
ATOM      1  C   UNL d   1       0.910   0.706   1.263  0.00  0.00    -0.002 A 
ATOM      2  C1  UNL d   1      -0.282   1.380   1.034  0.00  0.00     0.010 A 
ATOM      3  C2  UNL d   1      -1.466   0.956   1.640  0.00  0.00     0.041 A 
ATOM      4  C3  UNL d   1      -1.432  -0.166   2.491  0.00  0.00    -0.075 A 
ATOM      5  S   UNL d   1      -2.757  -0.865   3.343  0.00  0.00     0.015 SA
ATOM      6  C4  UNL d   1      -1.774  -2.075   4.031  0.00  0.00     0.022 A 
ATOM      7  C5  UNL d   1      -0.463  -1.963   3.632  0.00  0.00     0.026 A 
ATOM      8  C6  UNL d   1      -0.244  -0.861   2.738  0.00  0.00    -0.082 A 
ATOM      9  C7  UNL d   1       0.939  -0.407   2.107  0.00  0.00     0.045 A 
ENDROOT
TORSDOF 0
ENDMDL
