MODEL 1
REMARK minimizedAffinity 4.33312702
REMARK minimizedRMSD -1
REMARK  0 active torsions:
REMARK  status: ('A' for Active; 'I' for Inactive)
ROOT
ATOM      1  C   UNL d   1      -0.862   3.138   0.766  0.00  0.00    -0.002 A 
ATOM      2  C1  UNL d   1      -1.723   2.568   1.693  0.00  0.00     0.010 A 
ATOM      3  C2  UNL d   1      -1.373   1.393   2.360  0.00  0.00     0.041 A 
ATOM      4  C3  UNL d   1      -0.129   0.794   2.078  0.00  0.00    -0.075 A 
ATOM      5  S   UNL d   1       0.512  -0.647   2.773  0.00  0.00     0.015 SA
ATOM      6  C4  UNL d   1       1.945  -0.541   1.857  0.00  0.00     0.022 A 
ATOM      7  C5  UNL d   1       1.951   0.562   1.035  0.00  0.00     0.026 A 
ATOM      8  C6  UNL d   1       0.756   1.349   1.149  0.00  0.00    -0.082 A 
ATOM      9  C7  UNL d   1       0.371   2.541   0.489  0.00  0.00     0.045 A 
ENDROOT
TORSDOF 0
ENDMDL
