MODEL 1
REMARK minimizedAffinity -0.637871981
REMARK minimizedRMSD -1
REMARK  0 active torsions:
REMARK  status: ('A' for Active; 'I' for Inactive)
ROOT
ATOM      1  C   UNL d   1       0.718  -0.997   1.051  0.00  0.00    -0.002 A 
ATOM      2  C1  UNL d   1      -0.476  -1.516   1.533  0.00  0.00     0.010 A 
ATOM      3  C2  UNL d   1      -1.480  -0.668   2.003  0.00  0.00     0.041 A 
ATOM      4  C3  UNL d   1      -1.264   0.724   1.978  0.00  0.00    -0.075 A 
ATOM      5  S   UNL d   1      -2.353   1.954   2.501  0.00  0.00     0.015 SA
ATOM      6  C4  UNL d   1      -1.260   3.198   2.096  0.00  0.00     0.022 A 
ATOM      7  C5  UNL d   1      -0.088   2.704   1.573  0.00  0.00     0.026 A 
ATOM      8  C6  UNL d   1      -0.071   1.270   1.496  0.00  0.00    -0.082 A 
ATOM      9  C7  UNL d   1       0.928   0.384   1.028  0.00  0.00     0.045 A 
ENDROOT
TORSDOF 0
ENDMDL
