MODEL 1
REMARK minimizedAffinity -0.682564318
REMARK minimizedRMSD -1
REMARK  0 active torsions:
REMARK  status: ('A' for Active; 'I' for Inactive)
ROOT
ATOM      1  C   UNL d   1      -1.133   2.442   1.870  0.00  0.00    -0.002 A 
ATOM      2  C1  UNL d   1      -2.314   2.420   2.599  0.00  0.00     0.010 A 
ATOM      3  C2  UNL d   1      -2.824   1.217   3.089  0.00  0.00     0.041 A 
ATOM      4  C3  UNL d   1      -2.119   0.024   2.834  0.00  0.00    -0.075 A 
ATOM      5  S   UNL d   1      -2.553  -1.567   3.337  0.00  0.00     0.015 SA
ATOM      6  C4  UNL d   1      -1.181  -2.256   2.597  0.00  0.00     0.022 A 
ATOM      7  C5  UNL d   1      -0.400  -1.310   1.977  0.00  0.00     0.026 A 
ATOM      8  C6  UNL d   1      -0.927   0.020   2.104  0.00  0.00    -0.082 A 
ATOM      9  C7  UNL d   1      -0.437   1.256   1.619  0.00  0.00     0.045 A 
ENDROOT
TORSDOF 0
ENDMDL
