MODEL 1
REMARK minimizedAffinity 8.01395226
REMARK minimizedRMSD -1
REMARK  0 active torsions:
REMARK  status: ('A' for Active; 'I' for Inactive)
ROOT
ATOM      1  C   UNL d   1      -2.280   1.865   2.627  0.00  0.00    -0.002 A 
ATOM      2  C1  UNL d   1      -2.643   0.572   2.974  0.00  0.00     0.010 A 
ATOM      3  C2  UNL d   1      -3.586   0.344   3.979  0.00  0.00     0.041 A 
ATOM      4  C3  UNL d   1      -4.165   1.449   4.633  0.00  0.00    -0.075 A 
ATOM      5  S   UNL d   1      -5.342   1.412   5.892  0.00  0.00     0.015 SA
ATOM      6  C4  UNL d   1      -5.391   3.113   5.998  0.00  0.00     0.022 A 
ATOM      7  C5  UNL d   1      -4.536   3.710   5.102  0.00  0.00     0.026 A 
ATOM      8  C6  UNL d   1      -3.816   2.761   4.300  0.00  0.00    -0.082 A 
ATOM      9  C7  UNL d   1      -2.856   2.959   3.279  0.00  0.00     0.045 A 
ENDROOT
TORSDOF 0
ENDMDL
