MODEL 1
REMARK minimizedAffinity 4.07061291
REMARK minimizedRMSD -1
REMARK  1 active torsions:
REMARK  status: ('A' for Active; 'I' for Inactive)
REMARK    1  A    between atoms: C1_2  and  C2_3 
ROOT
ATOM      1  C2  UNL d   1      -2.385  -2.631  -1.928  0.00  0.00    -0.073 A 
ATOM      2  C3  UNL d   1      -1.408  -2.869  -2.901  0.00  0.00    -0.002 A 
ATOM      3  C4  UNL d   1      -1.598  -3.863  -3.863  0.00  0.00     0.004 A 
ATOM      4  C5  UNL d   1      -2.768  -4.622  -3.866  0.00  0.00    -0.004 A 
ATOM      5  C6  UNL d   1      -3.761  -4.391  -2.908  0.00  0.00    -0.075 A 
ATOM      6  C7  UNL d   1      -5.025  -5.201  -2.896  0.00  0.00     0.076 C 
ATOM      7  C8  UNL d   1      -3.562  -3.394  -1.944  0.00  0.00     0.001 A 
ENDROOT
BRANCH   1   8
ATOM      8  C1  UNL d   1      -2.187  -1.555  -0.892  0.00  0.00     0.053 C 
ATOM      9  C   UNL d   1      -1.368  -2.047   0.291  0.00  0.00     0.018 C 
ENDBRANCH   1   8
TORSDOF 1
ENDMDL
