MODEL 1
REMARK minimizedAffinity 12.9432077
REMARK minimizedRMSD -1
REMARK  1 active torsions:
REMARK  status: ('A' for Active; 'I' for Inactive)
REMARK    1  A    between atoms: C1_2  and  C2_3 
ROOT
ATOM      1  C2  UNL d   1       3.818  -0.155   0.777  0.00  0.00    -0.073 A 
ATOM      2  C3  UNL d   1       3.785   1.076   0.111  0.00  0.00    -0.002 A 
ATOM      3  C4  UNL d   1       2.607   1.822   0.067  0.00  0.00     0.004 A 
ATOM      4  C5  UNL d   1       1.453   1.349   0.692  0.00  0.00    -0.004 A 
ATOM      5  C6  UNL d   1       1.469   0.127   1.372  0.00  0.00    -0.075 A 
ATOM      6  C7  UNL d   1       0.236  -0.396   2.047  0.00  0.00     0.076 C 
ATOM      7  C8  UNL d   1       2.656  -0.617   1.410  0.00  0.00     0.001 A 
ENDROOT
BRANCH   1   8
ATOM      8  C1  UNL d   1       5.090  -0.961   0.833  0.00  0.00     0.053 C 
ATOM      9  C   UNL d   1       5.981  -0.540   1.991  0.00  0.00     0.018 C 
ENDBRANCH   1   8
TORSDOF 1
ENDMDL
