MODEL 1
REMARK minimizedAffinity 6.98467922
REMARK minimizedRMSD -1
REMARK  1 active torsions:
REMARK  status: ('A' for Active; 'I' for Inactive)
REMARK    1  A    between atoms: C1_2  and  C2_3 
ROOT
ATOM      1  C2  UNL d   1       1.651  -0.002   1.787  0.00  0.00    -0.073 A 
ATOM      2  C3  UNL d   1       1.442   0.957   0.788  0.00  0.00    -0.002 A 
ATOM      3  C4  UNL d   1       2.477   1.305  -0.082  0.00  0.00     0.004 A 
ATOM      4  C5  UNL d   1       3.726   0.694   0.033  0.00  0.00    -0.004 A 
ATOM      5  C6  UNL d   1       3.950  -0.274   1.017  0.00  0.00    -0.075 A 
ATOM      6  C7  UNL d   1       5.288  -0.939   1.155  0.00  0.00     0.076 C 
ATOM      7  C8  UNL d   1       2.907  -0.616   1.888  0.00  0.00     0.001 A 
ENDROOT
BRANCH   1   8
ATOM      8  C1  UNL d   1       0.535  -0.385   2.724  0.00  0.00     0.053 C 
ATOM      9  C   UNL d   1       0.776   0.124   4.136  0.00  0.00     0.018 C 
ENDBRANCH   1   8
TORSDOF 1
ENDMDL
