MODEL 1
REMARK minimizedAffinity 0.336893648
REMARK minimizedRMSD -1
REMARK  1 active torsions:
REMARK  status: ('A' for Active; 'I' for Inactive)
REMARK    1  A    between atoms: C1_2  and  C2_3 
ROOT
ATOM      1  C2  UNL d   1       2.303   1.324   0.652  0.00  0.00    -0.073 A 
ATOM      2  C3  UNL d   1       3.143   0.210   0.548  0.00  0.00    -0.002 A 
ATOM      3  C4  UNL d   1       3.210  -0.722   1.585  0.00  0.00     0.004 A 
ATOM      4  C5  UNL d   1       2.434  -0.553   2.732  0.00  0.00    -0.004 A 
ATOM      5  C6  UNL d   1       1.579   0.548   2.849  0.00  0.00    -0.075 A 
ATOM      6  C7  UNL d   1       0.740   0.746   4.077  0.00  0.00     0.076 C 
ATOM      7  C8  UNL d   1       1.520   1.481   1.805  0.00  0.00     0.001 A 
ENDROOT
BRANCH   1   8
ATOM      8  C1  UNL d   1       2.223   2.329  -0.468  0.00  0.00     0.053 C 
ATOM      9  C   UNL d   1       3.139   1.967  -1.626  0.00  0.00     0.018 C 
ENDBRANCH   1   8
TORSDOF 1
ENDMDL
