MODEL 1
REMARK minimizedAffinity 4.3028574
REMARK minimizedRMSD -1
REMARK  1 active torsions:
REMARK  status: ('A' for Active; 'I' for Inactive)
REMARK    1  A    between atoms: C1_2  and  C2_3 
ROOT
ATOM      1  C2  UNL d   1      -1.340  -3.370  -1.686  0.00  0.00    -0.073 A 
ATOM      2  C3  UNL d   1      -0.478  -3.729  -2.728  0.00  0.00    -0.002 A 
ATOM      3  C4  UNL d   1      -0.992  -4.128  -3.962  0.00  0.00     0.004 A 
ATOM      4  C5  UNL d   1      -2.371  -4.166  -4.170  0.00  0.00    -0.004 A 
ATOM      5  C6  UNL d   1      -3.248  -3.800  -3.144  0.00  0.00    -0.075 A 
ATOM      6  C7  UNL d   1      -4.734  -3.837  -3.350  0.00  0.00     0.076 C 
ATOM      7  C8  UNL d   1      -2.725  -3.403  -1.907  0.00  0.00     0.001 A 
ENDROOT
BRANCH   1   8
ATOM      8  C1  UNL d   1      -0.790  -2.932  -0.353  0.00  0.00     0.053 C 
ATOM      9  C   UNL d   1      -1.477  -3.636   0.806  0.00  0.00     0.018 C 
ENDBRANCH   1   8
TORSDOF 1
ENDMDL
