MODEL 1
REMARK minimizedAffinity 19.7561092
REMARK minimizedRMSD -1
REMARK  1 active torsions:
REMARK  status: ('A' for Active; 'I' for Inactive)
REMARK    1  A    between atoms: C1_2  and  C2_3 
ROOT
ATOM      1  C2  UNL d   1      -2.136  -2.649  -1.571  0.00  0.00    -0.073 A 
ATOM      2  C3  UNL d   1      -1.244  -2.689  -2.648  0.00  0.00    -0.002 A 
ATOM      3  C4  UNL d   1      -1.612  -3.303  -3.846  0.00  0.00     0.004 A 
ATOM      4  C5  UNL d   1      -2.878  -3.874  -3.982  0.00  0.00    -0.004 A 
ATOM      5  C6  UNL d   1      -3.788  -3.833  -2.921  0.00  0.00    -0.075 A 
ATOM      6  C7  UNL d   1      -5.152  -4.445  -3.050  0.00  0.00     0.076 C 
ATOM      7  C8  UNL d   1      -3.409  -3.218  -1.720  0.00  0.00     0.001 A 
ENDROOT
BRANCH   1   8
ATOM      8  C1  UNL d   1      -1.745  -1.982  -0.278  0.00  0.00     0.053 C 
ATOM      9  C   UNL d   1      -1.106  -2.959   0.696  0.00  0.00     0.018 C 
ENDBRANCH   1   8
TORSDOF 1
ENDMDL
