MODEL 1
REMARK minimizedAffinity 12.3642292
REMARK minimizedRMSD -1
REMARK  1 active torsions:
REMARK  status: ('A' for Active; 'I' for Inactive)
REMARK    1  A    between atoms: C1_2  and  C2_3 
ROOT
ATOM      1  C2  UNL d   1       3.572   1.927  -1.921  0.00  0.00    -0.073 A 
ATOM      2  C3  UNL d   1       2.406   2.552  -2.378  0.00  0.00    -0.002 A 
ATOM      3  C4  UNL d   1       2.203   2.753  -3.743  0.00  0.00     0.004 A 
ATOM      4  C5  UNL d   1       3.158   2.327  -4.666  0.00  0.00    -0.004 A 
ATOM      5  C6  UNL d   1       4.324   1.689  -4.230  0.00  0.00    -0.075 A 
ATOM      6  C7  UNL d   1       5.363   1.226  -5.209  0.00  0.00     0.076 C 
ATOM      7  C8  UNL d   1       4.523   1.493  -2.857  0.00  0.00     0.001 A 
ENDROOT
BRANCH   1   8
ATOM      8  C1  UNL d   1       3.793   1.701  -0.448  0.00  0.00     0.053 C 
ATOM      9  C   UNL d   1       3.832   0.222  -0.097  0.00  0.00     0.018 C 
ENDBRANCH   1   8
TORSDOF 1
ENDMDL
