MODEL 1
REMARK minimizedAffinity 7.22917986
REMARK minimizedRMSD -1
REMARK  0 active torsions:
REMARK  status: ('A' for Active; 'I' for Inactive)
ROOT
ATOM      1  C   UNL d   1      -3.303   1.709   0.413  0.00  0.00     0.172 C 
ATOM      2  N   UNL d   1      -4.399   2.617   0.658  0.00  0.00    -0.070 N 
ATOM      3  C1  UNL d   1      -5.003   3.410  -0.281  0.00  0.00    -0.004 A 
ATOM      4  C2  UNL d   1      -5.999   4.125   0.349  0.00  0.00    -0.047 A 
ATOM      5  C3  UNL d   1      -5.992   3.749   1.713  0.00  0.00    -0.047 A 
ATOM      6  C4  UNL d   1      -4.992   2.814   1.877  0.00  0.00    -0.004 A 
ENDROOT
TORSDOF 0
ENDMDL
