MODEL 1
REMARK minimizedAffinity -2.63218689
REMARK minimizedRMSD -1
REMARK  0 active torsions:
REMARK  status: ('A' for Active; 'I' for Inactive)
ROOT
ATOM      1  C   UNL d   1       0.967  -5.011   3.172  0.00  0.00     0.172 C 
ATOM      2  N   UNL d   1       1.020  -3.671   2.637  0.00  0.00    -0.070 N 
ATOM      3  C1  UNL d   1       0.099  -2.683   2.864  0.00  0.00    -0.004 A 
ATOM      4  C2  UNL d   1       0.507  -1.559   2.180  0.00  0.00    -0.047 A 
ATOM      5  C3  UNL d   1       1.715  -1.883   1.516  0.00  0.00    -0.047 A 
ATOM      6  C4  UNL d   1       2.009  -3.196   1.816  0.00  0.00    -0.004 A 
ENDROOT
TORSDOF 0
ENDMDL
