MODEL 1
REMARK minimizedAffinity 6.08321381
REMARK minimizedRMSD -1
REMARK  0 active torsions:
REMARK  status: ('A' for Active; 'I' for Inactive)
ROOT
ATOM      1  C   UNL d   1       5.621  -3.752  -5.726  0.00  0.00     0.172 C 
ATOM      2  N   UNL d   1       5.717  -2.400  -5.229  0.00  0.00    -0.070 N 
ATOM      3  C1  UNL d   1       5.547  -2.015  -3.926  0.00  0.00    -0.004 A 
ATOM      4  C2  UNL d   1       5.719  -0.649  -3.863  0.00  0.00    -0.047 A 
ATOM      5  C3  UNL d   1       6.000  -0.197  -5.175  0.00  0.00    -0.047 A 
ATOM      6  C4  UNL d   1       5.992  -1.302  -6.000  0.00  0.00    -0.004 A 
ENDROOT
TORSDOF 0
ENDMDL
