MODEL 1
REMARK minimizedAffinity -2.30195284
REMARK minimizedRMSD -1
REMARK  0 active torsions:
REMARK  status: ('A' for Active; 'I' for Inactive)
ROOT
ATOM      1  C   UNL d   1      -4.132   1.516  -2.717  0.00  0.00     0.172 C 
ATOM      2  N   UNL d   1      -4.510   1.443  -1.325  0.00  0.00    -0.070 N 
ATOM      3  C1  UNL d   1      -5.753   1.119  -0.851  0.00  0.00    -0.004 A 
ATOM      4  C2  UNL d   1      -5.704   1.160   0.526  0.00  0.00    -0.047 A 
ATOM      5  C3  UNL d   1      -4.386   1.523   0.892  0.00  0.00    -0.047 A 
ATOM      6  C4  UNL d   1      -3.668   1.692  -0.273  0.00  0.00    -0.004 A 
ENDROOT
TORSDOF 0
ENDMDL
