MODEL 1
REMARK minimizedAffinity 6.312644
REMARK minimizedRMSD -1
REMARK  0 active torsions:
REMARK  status: ('A' for Active; 'I' for Inactive)
ROOT
ATOM      1  C   UNL d   1       2.603  -5.271   2.525  0.00  0.00     0.172 C 
ATOM      2  N   UNL d   1       3.887  -4.616   2.433  0.00  0.00    -0.070 N 
ATOM      3  C1  UNL d   1       4.221  -3.427   3.024  0.00  0.00    -0.004 A 
ATOM      4  C2  UNL d   1       5.530  -3.147   2.699  0.00  0.00    -0.047 A 
ATOM      5  C3  UNL d   1       5.999  -4.204   1.883  0.00  0.00    -0.047 A 
ATOM      6  C4  UNL d   1       4.962  -5.100   1.735  0.00  0.00    -0.004 A 
ENDROOT
TORSDOF 0
ENDMDL
