MODEL 1
REMARK minimizedAffinity 2.05285835
REMARK minimizedRMSD -1
REMARK  0 active torsions:
REMARK  status: ('A' for Active; 'I' for Inactive)
ROOT
ATOM      1  C   UNL d   1       2.386   5.823  -2.279  0.00  0.00     0.172 C 
ATOM      2  N   UNL d   1       3.760   5.895  -2.717  0.00  0.00    -0.070 N 
ATOM      3  C1  UNL d   1       4.858   5.934  -1.898  0.00  0.00    -0.004 A 
ATOM      4  C2  UNL d   1       5.978   5.999  -2.698  0.00  0.00    -0.047 A 
ATOM      5  C3  UNL d   1       5.539   5.999  -4.043  0.00  0.00    -0.047 A 
ATOM      6  C4  UNL d   1       4.162   5.934  -4.026  0.00  0.00    -0.004 A 
ENDROOT
TORSDOF 0
ENDMDL
