MODEL 1
REMARK minimizedAffinity 7.23400402
REMARK minimizedRMSD -1
REMARK  0 active torsions:
REMARK  status: ('A' for Active; 'I' for Inactive)
ROOT
ATOM      1  C   UNL d   1       3.521   3.372  -4.276  0.00  0.00     0.172 C 
ATOM      2  N   UNL d   1       4.465   4.400  -4.647  0.00  0.00    -0.070 N 
ATOM      3  C1  UNL d   1       5.235   5.127  -3.780  0.00  0.00    -0.004 A 
ATOM      4  C2  UNL d   1       5.999   6.000  -4.524  0.00  0.00    -0.047 A 
ATOM      5  C3  UNL d   1       5.676   5.791  -5.885  0.00  0.00    -0.047 A 
ATOM      6  C4  UNL d   1       4.724   4.795  -5.933  0.00  0.00    -0.004 A 
ENDROOT
TORSDOF 0
ENDMDL
