MODEL 1
REMARK minimizedAffinity 2.97013211
REMARK minimizedRMSD -1
REMARK  2 active torsions:
REMARK  status: ('A' for Active; 'I' for Inactive)
REMARK    1  A    between atoms: C1_2  and  C2_3 
REMARK    2  A    between atoms: C2_3  and  C3_4 
ROOT
ATOM      1  C3  UNL d   1      -0.580   0.791  -1.072  0.00  0.00    -0.075 A 
ATOM      2  C4  UNL d   1      -1.932   0.421  -1.030  0.00  0.00     0.002 A 
ATOM      3  C5  UNL d   1      -2.337  -0.839  -1.473  0.00  0.00     0.002 A 
ATOM      4  C6  UNL d   1      -1.398  -1.740  -1.971  0.00  0.00    -0.004 A 
ATOM      5  C7  UNL d   1      -0.054  -1.377  -2.033  0.00  0.00     0.002 A 
ATOM      6  C8  UNL d   1       0.354  -0.119  -1.586  0.00  0.00     0.002 A 
ENDROOT
BRANCH   1   7
ATOM      7  C2  UNL d   1      -0.132   2.141  -0.567  0.00  0.00     0.056 C 
BRANCH   7   8
ATOM      8  C1  UNL d   1      -0.073   2.248   0.960  0.00  0.00     0.007 C 
ATOM      9  C   UNL d   1       1.133   3.032   1.461  0.00  0.00     0.009 C 
ENDBRANCH   7   8
ENDBRANCH   1   7
TORSDOF 2
ENDMDL
