MODEL 1
REMARK minimizedAffinity 8.36599541
REMARK minimizedRMSD -1
REMARK  2 active torsions:
REMARK  status: ('A' for Active; 'I' for Inactive)
REMARK    1  A    between atoms: C1_2  and  C2_3 
REMARK    2  A    between atoms: C2_3  and  C3_4 
ROOT
ATOM      1  C3  UNL d   1      -1.397   1.210  -0.285  0.00  0.00    -0.075 A 
ATOM      2  C4  UNL d   1      -0.905   2.482  -0.611  0.00  0.00     0.002 A 
ATOM      3  C5  UNL d   1      -0.395   3.320   0.380  0.00  0.00     0.002 A 
ATOM      4  C6  UNL d   1      -0.378   2.902   1.709  0.00  0.00    -0.004 A 
ATOM      5  C7  UNL d   1      -0.880   1.647   2.047  0.00  0.00     0.002 A 
ATOM      6  C8  UNL d   1      -1.387   0.804   1.056  0.00  0.00     0.002 A 
ENDROOT
BRANCH   1   7
ATOM      7  C2  UNL d   1      -1.924   0.287  -1.358  0.00  0.00     0.056 C 
BRANCH   7   8
ATOM      8  C1  UNL d   1      -1.044  -0.943  -1.610  0.00  0.00     0.007 C 
ATOM      9  C   UNL d   1       0.239  -0.618  -2.364  0.00  0.00     0.009 C 
ENDBRANCH   7   8
ENDBRANCH   1   7
TORSDOF 2
ENDMDL
