MODEL 1
REMARK minimizedAffinity 7.23392963
REMARK minimizedRMSD -1
REMARK  2 active torsions:
REMARK  status: ('A' for Active; 'I' for Inactive)
REMARK    1  A    between atoms: C1_2  and  C2_3 
REMARK    2  A    between atoms: C2_3  and  C3_4 
ROOT
ATOM      1  C3  UNL d   1      -1.155   0.875  -1.191  0.00  0.00    -0.075 A 
ATOM      2  C4  UNL d   1      -0.460  -0.264  -1.624  0.00  0.00     0.002 A 
ATOM      3  C5  UNL d   1      -1.125  -1.478  -1.794  0.00  0.00     0.002 A 
ATOM      4  C6  UNL d   1      -2.489  -1.572  -1.526  0.00  0.00    -0.004 A 
ATOM      5  C7  UNL d   1      -3.186  -0.451  -1.080  0.00  0.00     0.002 A 
ATOM      6  C8  UNL d   1      -2.524   0.766  -0.912  0.00  0.00     0.002 A 
ENDROOT
BRANCH   1   7
ATOM      7  C2  UNL d   1      -0.446   2.199  -1.033  0.00  0.00     0.056 C 
BRANCH   7   8
ATOM      8  C1  UNL d   1      -0.077   2.539   0.415  0.00  0.00     0.007 C 
ATOM      9  C   UNL d   1       0.087   4.034   0.657  0.00  0.00     0.009 C 
ENDBRANCH   7   8
ENDBRANCH   1   7
TORSDOF 2
ENDMDL
