MODEL 1
REMARK minimizedAffinity 7.88405466
REMARK minimizedRMSD -1
REMARK  2 active torsions:
REMARK  status: ('A' for Active; 'I' for Inactive)
REMARK    1  A    between atoms: C1_2  and  C2_3 
REMARK    2  A    between atoms: C2_3  and  C3_4 
ROOT
ATOM      1  C3  UNL d   1      -0.982   1.125  -0.501  0.00  0.00    -0.075 A 
ATOM      2  C4  UNL d   1      -2.362   0.910  -0.372  0.00  0.00     0.002 A 
ATOM      3  C5  UNL d   1      -2.959  -0.217  -0.937  0.00  0.00     0.002 A 
ATOM      4  C6  UNL d   1      -2.188  -1.136  -1.646  0.00  0.00    -0.004 A 
ATOM      5  C7  UNL d   1      -0.819  -0.923  -1.795  0.00  0.00     0.002 A 
ATOM      6  C8  UNL d   1      -0.218   0.202  -1.226  0.00  0.00     0.002 A 
ENDROOT
BRANCH   1   7
ATOM      7  C2  UNL d   1      -0.325   2.328   0.134  0.00  0.00     0.056 C 
BRANCH   7   8
ATOM      8  C1  UNL d   1      -0.791   2.609   1.567  0.00  0.00     0.007 C 
ATOM      9  C   UNL d   1       0.128   2.014   2.625  0.00  0.00     0.009 C 
ENDBRANCH   7   8
ENDBRANCH   1   7
TORSDOF 2
ENDMDL
