MODEL 1
REMARK minimizedAffinity 5.85323191
REMARK minimizedRMSD -1
REMARK  2 active torsions:
REMARK  status: ('A' for Active; 'I' for Inactive)
REMARK    1  A    between atoms: C1_2  and  C2_3 
REMARK    2  A    between atoms: C2_3  and  C3_4 
ROOT
ATOM      1  C3  UNL d   1      -1.709   1.593   0.658  0.00  0.00    -0.075 A 
ATOM      2  C4  UNL d   1      -1.186   2.194   1.812  0.00  0.00     0.002 A 
ATOM      3  C5  UNL d   1      -0.344   3.302   1.714  0.00  0.00     0.002 A 
ATOM      4  C6  UNL d   1      -0.007   3.816   0.464  0.00  0.00    -0.004 A 
ATOM      5  C7  UNL d   1      -0.507   3.216  -0.690  0.00  0.00     0.002 A 
ATOM      6  C8  UNL d   1      -1.353   2.110  -0.595  0.00  0.00     0.002 A 
ENDROOT
BRANCH   1   7
ATOM      7  C2  UNL d   1      -2.644   0.411   0.759  0.00  0.00     0.056 C 
BRANCH   7   8
ATOM      8  C1  UNL d   1      -3.395   0.098  -0.539  0.00  0.00     0.007 C 
ATOM      9  C   UNL d   1      -2.950  -1.204  -1.192  0.00  0.00     0.009 C 
ENDBRANCH   7   8
ENDBRANCH   1   7
TORSDOF 2
ENDMDL
