MODEL 1
REMARK minimizedAffinity 0.573124647
REMARK minimizedRMSD -1
REMARK  2 active torsions:
REMARK  status: ('A' for Active; 'I' for Inactive)
REMARK    1  A    between atoms: C1_2  and  C2_3 
REMARK    2  A    between atoms: C2_3  and  C3_4 
ROOT
ATOM      1  C3  UNL d   1      -0.757   1.486  -0.862  0.00  0.00    -0.075 A 
ATOM      2  C4  UNL d   1      -2.155   1.401  -0.940  0.00  0.00     0.002 A 
ATOM      3  C5  UNL d   1      -2.783   0.163  -1.081  0.00  0.00     0.002 A 
ATOM      4  C6  UNL d   1      -2.023  -1.002  -1.157  0.00  0.00    -0.004 A 
ATOM      5  C7  UNL d   1      -0.633  -0.928  -1.097  0.00  0.00     0.002 A 
ATOM      6  C8  UNL d   1      -0.002   0.309  -0.951  0.00  0.00     0.002 A 
ENDROOT
BRANCH   1   7
ATOM      7  C2  UNL d   1      -0.073   2.820  -0.679  0.00  0.00     0.056 C 
BRANCH   7   8
ATOM      8  C1  UNL d   1       0.115   3.229   0.785  0.00  0.00     0.007 C 
ATOM      9  C   UNL d   1       1.568   3.503   1.150  0.00  0.00     0.009 C 
ENDBRANCH   7   8
ENDBRANCH   1   7
TORSDOF 2
ENDMDL
