MODEL 1
REMARK minimizedAffinity -1.53592455
REMARK minimizedRMSD -1
REMARK  1 active torsions:
REMARK  status: ('A' for Active; 'I' for Inactive)
REMARK    1  A    between atoms: C1_2  and  C2_3 
ROOT
ATOM      1  C2  UNL d   1       0.218  -0.100  -0.193  0.00  0.00    -0.076 A 
ATOM      2  C3  UNL d   1       0.460   1.255  -0.480  0.00  0.00     0.004 A 
ATOM      3  C4  UNL d   1       1.108   1.635  -1.654  0.00  0.00    -0.003 A 
ATOM      4  C5  UNL d   1       1.524   0.667  -2.560  0.00  0.00     0.000 A 
ATOM      5  C6  UNL d   1       1.277  -0.681  -2.301  0.00  0.00     0.000 A 
ATOM      6  C7  UNL d   1       0.610  -1.080  -1.129  0.00  0.00    -0.073 A 
ATOM      7  C8  UNL d   1       0.376  -2.547  -0.897  0.00  0.00     0.078 C 
ENDROOT
BRANCH   1   8
ATOM      8  C1  UNL d   1      -0.464  -0.454   1.109  0.00  0.00     0.053 C 
ATOM      9  C   UNL d   1      -1.788   0.273   1.290  0.00  0.00     0.018 C 
ENDBRANCH   1   8
TORSDOF 1
ENDMDL
