MODEL 1
REMARK minimizedAffinity -2.75477338
REMARK minimizedRMSD -1
REMARK  1 active torsions:
REMARK  status: ('A' for Active; 'I' for Inactive)
REMARK    1  A    between atoms: C1_2  and  C2_3 
ROOT
ATOM      1  C2  UNL d   1       2.406   0.324  -1.518  0.00  0.00    -0.076 A 
ATOM      2  C3  UNL d   1       1.657   0.663  -0.378  0.00  0.00     0.004 A 
ATOM      3  C4  UNL d   1       0.299   0.361  -0.295  0.00  0.00    -0.003 A 
ATOM      4  C5  UNL d   1      -0.333  -0.285  -1.352  0.00  0.00     0.000 A 
ATOM      5  C6  UNL d   1       0.398  -0.644  -2.484  0.00  0.00     0.000 A 
ATOM      6  C7  UNL d   1       1.772  -0.362  -2.576  0.00  0.00    -0.073 A 
ATOM      7  C8  UNL d   1       2.510  -0.767  -3.823  0.00  0.00     0.078 C 
ENDROOT
BRANCH   1   8
ATOM      8  C1  UNL d   1       3.869   0.701  -1.562  0.00  0.00     0.053 C 
ATOM      9  C   UNL d   1       4.746  -0.276  -0.795  0.00  0.00     0.018 C 
ENDBRANCH   1   8
TORSDOF 1
ENDMDL
