MODEL 1
REMARK minimizedAffinity -4.80832291
REMARK minimizedRMSD -1
REMARK  1 active torsions:
REMARK  status: ('A' for Active; 'I' for Inactive)
REMARK    1  A    between atoms: C1_2  and  C2_3 
ROOT
ATOM      1  C2  UNL d   1      -1.692   0.942   1.877  0.00  0.00    -0.076 A 
ATOM      2  C3  UNL d   1      -1.221   2.068   2.573  0.00  0.00     0.004 A 
ATOM      3  C4  UNL d   1      -2.102   3.035   3.054  0.00  0.00    -0.003 A 
ATOM      4  C5  UNL d   1      -3.470   2.891   2.846  0.00  0.00     0.000 A 
ATOM      5  C6  UNL d   1      -3.956   1.771   2.173  0.00  0.00     0.000 A 
ATOM      6  C7  UNL d   1      -3.082   0.779   1.696  0.00  0.00    -0.073 A 
ATOM      7  C8  UNL d   1      -3.661  -0.405   0.971  0.00  0.00     0.078 C 
ENDROOT
BRANCH   1   8
ATOM      8  C1  UNL d   1      -0.687  -0.060   1.355  0.00  0.00     0.053 C 
ATOM      9  C   UNL d   1       0.463   0.602   0.611  0.00  0.00     0.018 C 
ENDBRANCH   1   8
TORSDOF 1
ENDMDL
