MODEL 1
REMARK minimizedAffinity -3.53854656
REMARK minimizedRMSD -1
REMARK  1 active torsions:
REMARK  status: ('A' for Active; 'I' for Inactive)
REMARK    1  A    between atoms: C1_2  and  C2_3 
ROOT
ATOM      1  C2  UNL d   1       0.910  -0.193  -1.320  0.00  0.00    -0.076 A 
ATOM      2  C3  UNL d   1       0.954   0.936  -0.484  0.00  0.00     0.004 A 
ATOM      3  C4  UNL d   1       0.587   0.850   0.858  0.00  0.00    -0.003 A 
ATOM      4  C5  UNL d   1       0.171  -0.368   1.386  0.00  0.00     0.000 A 
ATOM      5  C6  UNL d   1       0.139  -1.502   0.575  0.00  0.00     0.000 A 
ATOM      6  C7  UNL d   1       0.521  -1.435  -0.776  0.00  0.00    -0.073 A 
ATOM      7  C8  UNL d   1       0.461  -2.688  -1.606  0.00  0.00     0.078 C 
ENDROOT
BRANCH   1   8
ATOM      8  C1  UNL d   1       1.294  -0.032  -2.774  0.00  0.00     0.053 C 
ATOM      9  C   UNL d   1       2.760  -0.345  -3.028  0.00  0.00     0.018 C 
ENDBRANCH   1   8
TORSDOF 1
ENDMDL
