MODEL 1
REMARK minimizedAffinity -3.93627763
REMARK minimizedRMSD -1
REMARK  1 active torsions:
REMARK  status: ('A' for Active; 'I' for Inactive)
REMARK    1  A    between atoms: C1_2  and  C2_3 
ROOT
ATOM      1  C2  UNL d   1       0.654  -0.174  -0.144  0.00  0.00    -0.076 A 
ATOM      2  C3  UNL d   1       0.477  -1.074  -1.209  0.00  0.00     0.004 A 
ATOM      3  C4  UNL d   1       1.208  -0.942  -2.388  0.00  0.00    -0.003 A 
ATOM      4  C5  UNL d   1       2.128   0.092  -2.522  0.00  0.00     0.000 A 
ATOM      5  C6  UNL d   1       2.329   0.983  -1.469  0.00  0.00     0.000 A 
ATOM      6  C7  UNL d   1       1.613   0.855  -0.267  0.00  0.00    -0.073 A 
ATOM      7  C8  UNL d   1       1.866   1.848   0.834  0.00  0.00     0.078 C 
ENDROOT
BRANCH   1   8
ATOM      8  C1  UNL d   1      -0.186  -0.350   1.101  0.00  0.00     0.053 C 
ATOM      9  C   UNL d   1      -1.664  -0.097   0.847  0.00  0.00     0.018 C 
ENDBRANCH   1   8
TORSDOF 1
ENDMDL
