MODEL 1
REMARK minimizedAffinity -2.87292218
REMARK minimizedRMSD -1
REMARK  1 active torsions:
REMARK  status: ('A' for Active; 'I' for Inactive)
REMARK    1  A    between atoms: C1_2  and  C2_3 
ROOT
ATOM      1  C2  UNL d   1       0.902   0.240  -0.392  0.00  0.00    -0.076 A 
ATOM      2  C3  UNL d   1      -0.418  -0.018  -0.801  0.00  0.00     0.004 A 
ATOM      3  C4  UNL d   1      -0.727  -0.214  -2.146  0.00  0.00    -0.003 A 
ATOM      4  C5  UNL d   1       0.280  -0.156  -3.104  0.00  0.00     0.000 A 
ATOM      5  C6  UNL d   1       1.598   0.081  -2.714  0.00  0.00     0.000 A 
ATOM      6  C7  UNL d   1       1.928   0.265  -1.360  0.00  0.00    -0.073 A 
ATOM      7  C8  UNL d   1       3.365   0.524  -0.997  0.00  0.00     0.078 C 
ENDROOT
BRANCH   1   8
ATOM      8  C1  UNL d   1       1.172   0.472   1.078  0.00  0.00     0.053 C 
ATOM      9  C   UNL d   1       0.451  -0.528   1.968  0.00  0.00     0.018 C 
ENDBRANCH   1   8
TORSDOF 1
ENDMDL
