MODEL 1
REMARK minimizedAffinity -1.81595063
REMARK minimizedRMSD -1
REMARK  1 active torsions:
REMARK  status: ('A' for Active; 'I' for Inactive)
REMARK    1  A    between atoms: C1_2  and  C2_3 
ROOT
ATOM      1  C2  UNL d   1      -0.009  -0.038  -0.254  0.00  0.00    -0.076 A 
ATOM      2  C3  UNL d   1      -0.669  -0.408  -1.438  0.00  0.00     0.004 A 
ATOM      3  C4  UNL d   1      -0.024  -0.335  -2.672  0.00  0.00    -0.003 A 
ATOM      4  C5  UNL d   1       1.292   0.107  -2.740  0.00  0.00     0.000 A 
ATOM      5  C6  UNL d   1       1.968   0.462  -1.573  0.00  0.00     0.000 A 
ATOM      6  C7  UNL d   1       1.338   0.379  -0.320  0.00  0.00    -0.073 A 
ATOM      7  C8  UNL d   1       2.112   0.780   0.906  0.00  0.00     0.078 C 
ENDROOT
BRANCH   1   8
ATOM      8  C1  UNL d   1      -0.768  -0.111   1.052  0.00  0.00     0.053 C 
ATOM      9  C   UNL d   1      -2.137   0.548   0.968  0.00  0.00     0.018 C 
ENDBRANCH   1   8
TORSDOF 1
ENDMDL
