MODEL 1
REMARK minimizedAffinity -3.31008363
REMARK minimizedRMSD -1
REMARK  1 active torsions:
REMARK  status: ('A' for Active; 'I' for Inactive)
REMARK    1  A    between atoms: C1_2  and  C2_3 
ROOT
ATOM      1  C2  UNL d   1       0.318  -0.154   0.161  0.00  0.00    -0.076 A 
ATOM      2  C3  UNL d   1      -0.125  -0.878  -0.959  0.00  0.00     0.004 A 
ATOM      3  C4  UNL d   1       0.411  -0.642  -2.224  0.00  0.00    -0.003 A 
ATOM      4  C5  UNL d   1       1.398   0.323  -2.389  0.00  0.00     0.000 A 
ATOM      5  C6  UNL d   1       1.862   1.039  -1.286  0.00  0.00     0.000 A 
ATOM      6  C7  UNL d   1       1.344   0.802  -0.001  0.00  0.00    -0.073 A 
ATOM      7  C8  UNL d   1       1.877   1.607   1.152  0.00  0.00     0.078 C 
ENDROOT
BRANCH   1   8
ATOM      8  C1  UNL d   1      -0.319  -0.435   1.504  0.00  0.00     0.053 C 
ATOM      9  C   UNL d   1      -1.593   0.366   1.723  0.00  0.00     0.018 C 
ENDBRANCH   1   8
TORSDOF 1
ENDMDL
