MODEL 1
REMARK minimizedAffinity -4.000144
REMARK minimizedRMSD -1
REMARK  1 active torsions:
REMARK  status: ('A' for Active; 'I' for Inactive)
REMARK    1  A    between atoms: C1_2  and  C2_3 
ROOT
ATOM      1  C2  UNL d   1       0.415  -0.098  -0.292  0.00  0.00    -0.076 A 
ATOM      2  C3  UNL d   1       0.191  -1.125  -1.224  0.00  0.00     0.004 A 
ATOM      3  C4  UNL d   1       0.948  -1.212  -2.392  0.00  0.00    -0.003 A 
ATOM      4  C5  UNL d   1       1.941  -0.272  -2.645  0.00  0.00     0.000 A 
ATOM      5  C6  UNL d   1       2.188   0.744  -1.722  0.00  0.00     0.000 A 
ATOM      6  C7  UNL d   1       1.445   0.836  -0.533  0.00  0.00    -0.073 A 
ATOM      7  C8  UNL d   1       1.750   1.956   0.424  0.00  0.00     0.078 C 
ENDROOT
BRANCH   1   8
ATOM      8  C1  UNL d   1      -0.456  -0.039   0.944  0.00  0.00     0.053 C 
ATOM      9  C   UNL d   1      -1.935  -0.183   0.621  0.00  0.00     0.018 C 
ENDBRANCH   1   8
TORSDOF 1
ENDMDL
