MODEL 1
REMARK minimizedAffinity -2.87569976
REMARK minimizedRMSD -1
REMARK  1 active torsions:
REMARK  status: ('A' for Active; 'I' for Inactive)
REMARK    1  A    between atoms: C1_2  and  C2_3 
ROOT
ATOM      1  C2  UNL d   1       0.581  -0.571  -0.181  0.00  0.00    -0.076 A 
ATOM      2  C3  UNL d   1       1.106   0.701  -0.468  0.00  0.00     0.004 A 
ATOM      3  C4  UNL d   1       1.693   0.973  -1.703  0.00  0.00    -0.003 A 
ATOM      4  C5  UNL d   1       1.764  -0.023  -2.670  0.00  0.00     0.000 A 
ATOM      5  C6  UNL d   1       1.233  -1.285  -2.409  0.00  0.00     0.000 A 
ATOM      6  C7  UNL d   1       0.623  -1.571  -1.175  0.00  0.00    -0.073 A 
ATOM      7  C8  UNL d   1       0.072  -2.952  -0.945  0.00  0.00     0.078 C 
ENDROOT
BRANCH   1   8
ATOM      8  C1  UNL d   1      -0.020  -0.815   1.185  0.00  0.00     0.053 C 
ATOM      9  C   UNL d   1      -1.497  -0.458   1.245  0.00  0.00     0.018 C 
ENDBRANCH   1   8
TORSDOF 1
ENDMDL
