MODEL 1
REMARK minimizedAffinity -4.28131533
REMARK minimizedRMSD -1
REMARK  1 active torsions:
REMARK  status: ('A' for Active; 'I' for Inactive)
REMARK    1  A    between atoms: C1_2  and  C2_3 
ROOT
ATOM      1  C2  UNL d   1      -4.710   3.729  -5.490  0.00  0.00    -0.076 A 
ATOM      2  C3  UNL d   1      -3.482   3.091  -5.245  0.00  0.00     0.004 A 
ATOM      3  C4  UNL d   1      -2.284   3.803  -5.278  0.00  0.00    -0.003 A 
ATOM      4  C5  UNL d   1      -2.295   5.165  -5.556  0.00  0.00     0.000 A 
ATOM      5  C6  UNL d   1      -3.506   5.818  -5.784  0.00  0.00     0.000 A 
ATOM      6  C7  UNL d   1      -4.724   5.118  -5.739  0.00  0.00    -0.073 A 
ATOM      7  C8  UNL d   1      -6.000   5.871  -5.999  0.00  0.00     0.078 C 
ENDROOT
BRANCH   1   8
ATOM      8  C1  UNL d   1      -5.975   2.900  -5.468  0.00  0.00     0.053 C 
ATOM      9  C   UNL d   1      -5.754   1.487  -5.986  0.00  0.00     0.018 C 
ENDBRANCH   1   8
TORSDOF 1
ENDMDL
