MODEL 1
REMARK minimizedAffinity -3.1521337
REMARK minimizedRMSD -1
REMARK  1 active torsions:
REMARK  status: ('A' for Active; 'I' for Inactive)
REMARK    1  A    between atoms: C1_2  and  C2_3 
ROOT
ATOM      1  C2  UNL d   1       1.926   0.209  -1.438  0.00  0.00    -0.076 A 
ATOM      2  C3  UNL d   1       2.351  -0.637  -2.477  0.00  0.00     0.004 A 
ATOM      3  C4  UNL d   1       1.637  -1.789  -2.802  0.00  0.00    -0.003 A 
ATOM      4  C5  UNL d   1       0.486  -2.114  -2.092  0.00  0.00     0.000 A 
ATOM      5  C6  UNL d   1       0.040  -1.278  -1.069  0.00  0.00     0.000 A 
ATOM      6  C7  UNL d   1       0.739  -0.104  -0.741  0.00  0.00    -0.073 A 
ATOM      7  C8  UNL d   1       0.217   0.759   0.375  0.00  0.00     0.078 C 
ENDROOT
BRANCH   1   8
ATOM      8  C1  UNL d   1       2.756   1.430  -1.114  0.00  0.00     0.053 C 
ATOM      9  C   UNL d   1       4.120   1.073  -0.543  0.00  0.00     0.018 C 
ENDBRANCH   1   8
TORSDOF 1
ENDMDL
