MODEL 1
REMARK minimizedAffinity -4.0499506
REMARK minimizedRMSD -1
REMARK  1 active torsions:
REMARK  status: ('A' for Active; 'I' for Inactive)
REMARK    1  A    between atoms: C1_2  and  C2_3 
ROOT
ATOM      1  C2  UNL d   1       0.621  -0.944  -1.674  0.00  0.00    -0.076 A 
ATOM      2  C3  UNL d   1       0.011   0.077  -0.925  0.00  0.00     0.004 A 
ATOM      3  C4  UNL d   1      -0.648  -0.207   0.270  0.00  0.00    -0.003 A 
ATOM      4  C5  UNL d   1      -0.707  -1.516   0.736  0.00  0.00     0.000 A 
ATOM      5  C6  UNL d   1      -0.092  -2.538   0.014  0.00  0.00     0.000 A 
ATOM      6  C7  UNL d   1       0.590  -2.267  -1.184  0.00  0.00    -0.073 A 
ATOM      7  C8  UNL d   1       1.231  -3.410  -1.924  0.00  0.00     0.078 C 
ENDROOT
BRANCH   1   8
ATOM      8  C1  UNL d   1       1.298  -0.581  -2.976  0.00  0.00     0.053 C 
ATOM      9  C   UNL d   1       2.717  -0.071  -2.773  0.00  0.00     0.018 C 
ENDBRANCH   1   8
TORSDOF 1
ENDMDL
