MODEL 1
REMARK minimizedAffinity -4.43555498
REMARK minimizedRMSD -1
REMARK  1 active torsions:
REMARK  status: ('A' for Active; 'I' for Inactive)
REMARK    1  A    between atoms: C1_2  and  C2_3 
ROOT
ATOM      1  C2  UNL d   1       0.661  -0.349  -1.019  0.00  0.00    -0.076 A 
ATOM      2  C3  UNL d   1       0.286   0.849  -0.386  0.00  0.00     0.004 A 
ATOM      3  C4  UNL d   1      -0.435   0.835   0.807  0.00  0.00    -0.003 A 
ATOM      4  C5  UNL d   1      -0.790  -0.378   1.388  0.00  0.00     0.000 A 
ATOM      5  C6  UNL d   1      -0.411  -1.576   0.784  0.00  0.00     0.000 A 
ATOM      6  C7  UNL d   1       0.329  -1.579  -0.411  0.00  0.00    -0.073 A 
ATOM      7  C8  UNL d   1       0.706  -2.901  -1.023  0.00  0.00     0.078 C 
ENDROOT
BRANCH   1   8
ATOM      8  C1  UNL d   1       1.418  -0.272  -2.325  0.00  0.00     0.053 C 
ATOM      9  C   UNL d   1       2.857   0.181  -2.139  0.00  0.00     0.018 C 
ENDBRANCH   1   8
TORSDOF 1
ENDMDL
