MODEL 1
REMARK minimizedAffinity 5.14280415
REMARK minimizedRMSD -1
REMARK  1 active torsions:
REMARK  status: ('A' for Active; 'I' for Inactive)
REMARK    1  A    between atoms: N_2  and  C1_3 
ROOT
ATOM      1  C1  UNL d   1      -1.873  -0.114   2.546  0.00  0.00     0.143 A 
ATOM      2  C2  UNL d   1      -1.498  -1.101   1.629  0.00  0.00    -0.057 A 
ATOM      3  C3  UNL d   1      -0.249  -1.729   1.710  0.00  0.00     0.033 A 
ATOM      4  C4  UNL d   1       0.661  -1.358   2.694  0.00  0.00    -0.042 A 
ATOM      5  C5  UNL d   1       0.319  -0.361   3.601  0.00  0.00     0.033 A 
ATOM      6  C6  UNL d   1      -0.932   0.257   3.520  0.00  0.00    -0.057 A 
ENDROOT
BRANCH   1   7
ATOM      7  N   UNL d   1      -3.061   0.617   2.460  0.00  0.00    -0.732 N 
ATOM      8  C   UNL d   1      -3.872   0.847   3.636  0.00  0.00     0.284 C 
ATOM      9  H3  UNL d   1      -2.976   1.426   1.849  0.00  0.00     0.395 HD
ENDBRANCH   1   7
TORSDOF 1
ENDMDL
