MODEL 1
REMARK minimizedAffinity 0.812028289
REMARK minimizedRMSD -1
REMARK  1 active torsions:
REMARK  status: ('A' for Active; 'I' for Inactive)
REMARK    1  A    between atoms: N_2  and  C1_3 
ROOT
ATOM      1  C1  UNL d   1      -3.641  -1.549  -3.215  0.00  0.00     0.143 A 
ATOM      2  C2  UNL d   1      -5.039  -1.502  -3.239  0.00  0.00    -0.057 A 
ATOM      3  C3  UNL d   1      -5.723  -0.715  -4.174  0.00  0.00     0.033 A 
ATOM      4  C4  UNL d   1      -5.018   0.062  -5.086  0.00  0.00    -0.042 A 
ATOM      5  C5  UNL d   1      -3.627   0.050  -5.065  0.00  0.00     0.033 A 
ATOM      6  C6  UNL d   1      -2.950  -0.742  -4.133  0.00  0.00    -0.057 A 
ENDROOT
BRANCH   1   7
ATOM      7  N   UNL d   1      -2.902  -2.234  -2.247  0.00  0.00    -0.732 N 
ATOM      8  C   UNL d   1      -2.286  -1.521  -1.149  0.00  0.00     0.284 C 
ATOM      9  H3  UNL d   1      -3.335  -3.115  -1.980  0.00  0.00     0.395 HD
ENDBRANCH   1   7
TORSDOF 1
ENDMDL
