MODEL 1
REMARK minimizedAffinity 8.2873497
REMARK minimizedRMSD -1
REMARK  1 active torsions:
REMARK  status: ('A' for Active; 'I' for Inactive)
REMARK    1  A    between atoms: N_2  and  C1_3 
ROOT
ATOM      1  C1  UNL d   1      -2.331   0.089   2.205  0.00  0.00     0.143 A 
ATOM      2  C2  UNL d   1      -1.664   0.663   3.292  0.00  0.00    -0.057 A 
ATOM      3  C3  UNL d   1      -0.414   0.191   3.709  0.00  0.00     0.033 A 
ATOM      4  C4  UNL d   1       0.180  -0.887   3.060  0.00  0.00    -0.042 A 
ATOM      5  C5  UNL d   1      -0.476  -1.489   1.993  0.00  0.00     0.033 A 
ATOM      6  C6  UNL d   1      -1.721  -1.008   1.577  0.00  0.00    -0.057 A 
ENDROOT
BRANCH   1   7
ATOM      7  N   UNL d   1      -3.620   0.450   1.804  0.00  0.00    -0.732 N 
ATOM      8  C   UNL d   1      -4.743   0.293   2.705  0.00  0.00     0.284 C 
ATOM      9  H3  UNL d   1      -3.633   1.316   1.271  0.00  0.00     0.395 HD
ENDBRANCH   1   7
TORSDOF 1
ENDMDL
