MODEL 1
REMARK minimizedAffinity 1.22316945
REMARK minimizedRMSD -1
REMARK  1 active torsions:
REMARK  status: ('A' for Active; 'I' for Inactive)
REMARK    1  A    between atoms: N_2  and  C1_3 
ROOT
ATOM      1  C1  UNL d   1       1.958   0.323  -1.819  0.00  0.00     0.143 A 
ATOM      2  C2  UNL d   1       1.498   0.842  -3.034  0.00  0.00    -0.057 A 
ATOM      3  C3  UNL d   1       1.515   2.218  -3.289  0.00  0.00     0.033 A 
ATOM      4  C4  UNL d   1       1.967   3.106  -2.318  0.00  0.00    -0.042 A 
ATOM      5  C5  UNL d   1       2.406   2.614  -1.093  0.00  0.00     0.033 A 
ATOM      6  C6  UNL d   1       2.392   1.238  -0.847  0.00  0.00    -0.057 A 
ENDROOT
BRANCH   1   7
ATOM      7  N   UNL d   1       1.875  -1.027  -1.469  0.00  0.00    -0.732 N 
ATOM      8  C   UNL d   1       1.577  -1.418  -0.108  0.00  0.00     0.284 C 
ATOM      9  H3  UNL d   1       1.398  -1.583  -2.175  0.00  0.00     0.395 HD
ENDBRANCH   1   7
TORSDOF 1
ENDMDL
