MODEL 1
REMARK minimizedAffinity 9.78693771
REMARK minimizedRMSD -1
REMARK  1 active torsions:
REMARK  status: ('A' for Active; 'I' for Inactive)
REMARK    1  A    between atoms: N_2  and  C1_3 
ROOT
ATOM      1  C1  UNL d   1       1.824   1.340  -2.003  0.00  0.00     0.143 A 
ATOM      2  C2  UNL d   1       2.394   2.029  -0.927  0.00  0.00    -0.057 A 
ATOM      3  C3  UNL d   1       3.015   1.346   0.125  0.00  0.00     0.033 A 
ATOM      4  C4  UNL d   1       3.051  -0.044   0.135  0.00  0.00    -0.042 A 
ATOM      5  C5  UNL d   1       2.469  -0.751  -0.912  0.00  0.00     0.033 A 
ATOM      6  C6  UNL d   1       1.856  -0.062  -1.963  0.00  0.00    -0.057 A 
ENDROOT
BRANCH   1   7
ATOM      7  N   UNL d   1       1.106   1.958  -3.030  0.00  0.00    -0.732 N 
ATOM      8  C   UNL d   1      -0.228   2.468  -2.794  0.00  0.00     0.284 C 
ATOM      9  H3  UNL d   1       1.689   2.568  -3.599  0.00  0.00     0.395 HD
ENDBRANCH   1   7
TORSDOF 1
ENDMDL
