MODEL 1
REMARK minimizedAffinity 4.88568687
REMARK minimizedRMSD -1
REMARK  1 active torsions:
REMARK  status: ('A' for Active; 'I' for Inactive)
REMARK    1  A    between atoms: N_2  and  C1_3 
ROOT
ATOM      1  C1  UNL d   1      -4.410   1.171   3.950  0.00  0.00     0.143 A 
ATOM      2  C2  UNL d   1      -5.287   1.501   2.911  0.00  0.00    -0.057 A 
ATOM      3  C3  UNL d   1      -5.103   0.996   1.618  0.00  0.00     0.033 A 
ATOM      4  C4  UNL d   1      -4.019   0.172   1.334  0.00  0.00    -0.042 A 
ATOM      5  C5  UNL d   1      -3.121  -0.149   2.345  0.00  0.00     0.033 A 
ATOM      6  C6  UNL d   1      -3.313   0.354   3.636  0.00  0.00    -0.057 A 
ENDROOT
BRANCH   1   7
ATOM      7  N   UNL d   1      -4.482   1.720   5.232  0.00  0.00    -0.732 N 
ATOM      8  C   UNL d   1      -4.123   3.102   5.464  0.00  0.00     0.284 C 
ATOM      9  H3  UNL d   1      -5.311   1.415   5.739  0.00  0.00     0.395 HD
ENDBRANCH   1   7
TORSDOF 1
ENDMDL
