MODEL 1
REMARK minimizedAffinity -2.81015348
REMARK minimizedRMSD -1
REMARK  1 active torsions:
REMARK  status: ('A' for Active; 'I' for Inactive)
REMARK    1  A    between atoms: C3_4  and  O_7 
ROOT
ATOM      1  C   UNL d   1      -3.947   1.248   1.766  0.00  0.00    -0.033 A 
ATOM      2  C1  UNL d   1      -3.833   0.462   0.618  0.00  0.00     0.039 A 
ATOM      3  C2  UNL d   1      -2.656   0.485  -0.132  0.00  0.00    -0.080 A 
ATOM      4  C3  UNL d   1      -1.601   1.297   0.276  0.00  0.00     0.150 A 
ATOM      5  C4  UNL d   1      -1.706   2.080   1.421  0.00  0.00    -0.007 A 
ATOM      6  C5  UNL d   1      -2.883   2.056   2.168  0.00  0.00     0.039 A 
ENDROOT
BRANCH   4   7
ATOM      7  O   UNL d   1      -0.434   1.356  -0.426  0.00  0.00    -0.526 OA
ATOM      8  H5  UNL d   1      -0.516   0.784  -1.208  0.00  0.00     0.418 HD
ENDBRANCH   4   7
TORSDOF 1
ENDMDL
