MODEL 1
REMARK minimizedAffinity -2.68388534
REMARK minimizedRMSD -1
REMARK  1 active torsions:
REMARK  status: ('A' for Active; 'I' for Inactive)
REMARK    1  A    between atoms: C3_4  and  O_7 
ROOT
ATOM      1  C   UNL d   1      -0.971   1.727  -0.360  0.00  0.00    -0.033 A 
ATOM      2  C1  UNL d   1      -1.171   0.358  -0.170  0.00  0.00     0.039 A 
ATOM      3  C2  UNL d   1      -0.258  -0.385   0.582  0.00  0.00    -0.080 A 
ATOM      4  C3  UNL d   1       0.848   0.252   1.138  0.00  0.00     0.150 A 
ATOM      5  C4  UNL d   1       1.051   1.616   0.956  0.00  0.00    -0.007 A 
ATOM      6  C5  UNL d   1       0.139   2.356   0.204  0.00  0.00     0.039 A 
ENDROOT
BRANCH   4   7
ATOM      7  O   UNL d   1       1.768  -0.432   1.875  0.00  0.00    -0.526 OA
ATOM      8  H5  UNL d   1       1.513  -1.370   1.892  0.00  0.00     0.418 HD
ENDBRANCH   4   7
TORSDOF 1
ENDMDL
