MODEL 1
REMARK minimizedAffinity -4.0254612
REMARK minimizedRMSD -1
REMARK  1 active torsions:
REMARK  status: ('A' for Active; 'I' for Inactive)
REMARK    1  A    between atoms: C3_4  and  O_7 
ROOT
ATOM      1  C   UNL d   1      -2.753   1.980   0.326  0.00  0.00    -0.033 A 
ATOM      2  C1  UNL d   1      -2.642   1.222   1.493  0.00  0.00     0.039 A 
ATOM      3  C2  UNL d   1      -1.598   0.307   1.637  0.00  0.00    -0.080 A 
ATOM      4  C3  UNL d   1      -0.671   0.160   0.608  0.00  0.00     0.150 A 
ATOM      5  C4  UNL d   1      -0.774   0.915  -0.556  0.00  0.00    -0.007 A 
ATOM      6  C5  UNL d   1      -1.818   1.828  -0.698  0.00  0.00     0.039 A 
ENDROOT
BRANCH   4   7
ATOM      7  O   UNL d   1       0.362  -0.724   0.700  0.00  0.00    -0.526 OA
ATOM      8  H5  UNL d   1       0.289  -1.195   1.547  0.00  0.00     0.418 HD
ENDBRANCH   4   7
TORSDOF 1
ENDMDL
