MODEL 1
REMARK minimizedAffinity -3.21923876
REMARK minimizedRMSD -1
REMARK  1 active torsions:
REMARK  status: ('A' for Active; 'I' for Inactive)
REMARK    1  A    between atoms: C3_4  and  O_7 
ROOT
ATOM      1  C   UNL d   1       0.036   1.408  -0.024  0.00  0.00    -0.033 A 
ATOM      2  C1  UNL d   1       1.200   2.022   0.444  0.00  0.00     0.039 A 
ATOM      3  C2  UNL d   1       2.245   1.248   0.950  0.00  0.00    -0.080 A 
ATOM      4  C3  UNL d   1       2.116  -0.138   0.981  0.00  0.00     0.150 A 
ATOM      5  C4  UNL d   1       0.961  -0.757   0.513  0.00  0.00    -0.007 A 
ATOM      6  C5  UNL d   1      -0.082   0.018   0.009  0.00  0.00     0.039 A 
ENDROOT
BRANCH   4   7
ATOM      7  O   UNL d   1       3.107  -0.936   1.470  0.00  0.00    -0.526 OA
ATOM      8  H5  UNL d   1       3.832  -0.369   1.784  0.00  0.00     0.418 HD
ENDBRANCH   4   7
TORSDOF 1
ENDMDL
