MODEL 1
REMARK minimizedAffinity -5.43398237
REMARK minimizedRMSD -1
REMARK  1 active torsions:
REMARK  status: ('A' for Active; 'I' for Inactive)
REMARK    1  A    between atoms: C3_4  and  O_7 
ROOT
ATOM      1  C   UNL d   1       2.224  -1.384   0.733  0.00  0.00    -0.033 A 
ATOM      2  C1  UNL d   1       0.910  -1.215   0.292  0.00  0.00     0.039 A 
ATOM      3  C2  UNL d   1       0.474   0.038  -0.142  0.00  0.00    -0.080 A 
ATOM      4  C3  UNL d   1       1.359   1.112  -0.131  0.00  0.00     0.150 A 
ATOM      5  C4  UNL d   1       2.671   0.950   0.304  0.00  0.00    -0.007 A 
ATOM      6  C5  UNL d   1       3.105  -0.302   0.738  0.00  0.00     0.039 A 
ENDROOT
BRANCH   4   7
ATOM      7  O   UNL d   1       0.977   2.355  -0.541  0.00  0.00    -0.526 OA
ATOM      8  H5  UNL d   1       0.038   2.323  -0.785  0.00  0.00     0.418 HD
ENDBRANCH   4   7
TORSDOF 1
ENDMDL
