MODEL 1
REMARK minimizedAffinity -4.67537689
REMARK minimizedRMSD -1
REMARK  1 active torsions:
REMARK  status: ('A' for Active; 'I' for Inactive)
REMARK    1  A    between atoms: C3_4  and  O_7 
ROOT
ATOM      1  C   UNL d   1       2.617  -1.899   0.400  0.00  0.00    -0.033 A 
ATOM      2  C1  UNL d   1       1.655  -2.385  -0.487  0.00  0.00     0.039 A 
ATOM      3  C2  UNL d   1       0.428  -1.732  -0.616  0.00  0.00    -0.080 A 
ATOM      4  C3  UNL d   1       0.176  -0.594   0.145  0.00  0.00     0.150 A 
ATOM      5  C4  UNL d   1       1.132  -0.101   1.028  0.00  0.00    -0.007 A 
ATOM      6  C5  UNL d   1       2.356  -0.756   1.157  0.00  0.00     0.039 A 
ENDROOT
BRANCH   4   7
ATOM      7  O   UNL d   1      -1.008   0.075   0.057  0.00  0.00    -0.526 OA
ATOM      8  H5  UNL d   1      -1.582  -0.396  -0.570  0.00  0.00     0.418 HD
ENDBRANCH   4   7
TORSDOF 1
ENDMDL
