MODEL 1
REMARK minimizedAffinity -1.33114433
REMARK minimizedRMSD -1
REMARK  1 active torsions:
REMARK  status: ('A' for Active; 'I' for Inactive)
REMARK    1  A    between atoms: C3_4  and  O_7 
ROOT
ATOM      1  C   UNL d   1      -0.952   0.751   0.248  0.00  0.00    -0.033 A 
ATOM      2  C1  UNL d   1      -0.251   1.842   0.767  0.00  0.00     0.039 A 
ATOM      3  C2  UNL d   1       1.068   2.077   0.373  0.00  0.00    -0.080 A 
ATOM      4  C3  UNL d   1       1.673   1.217  -0.539  0.00  0.00     0.150 A 
ATOM      5  C4  UNL d   1       0.979   0.131  -1.063  0.00  0.00    -0.007 A 
ATOM      6  C5  UNL d   1      -0.337  -0.103  -0.668  0.00  0.00     0.039 A 
ENDROOT
BRANCH   4   7
ATOM      7  O   UNL d   1       2.959   1.404  -0.949  0.00  0.00    -0.526 OA
ATOM      8  H5  UNL d   1       3.322   2.175  -0.483  0.00  0.00     0.418 HD
ENDBRANCH   4   7
TORSDOF 1
ENDMDL
