MODEL 1
REMARK minimizedAffinity -4.86744165
REMARK minimizedRMSD -1
REMARK  1 active torsions:
REMARK  status: ('A' for Active; 'I' for Inactive)
REMARK    1  A    between atoms: C3_4  and  O_7 
ROOT
ATOM      1  C   UNL d   1      -0.270  -0.174  -0.426  0.00  0.00    -0.033 A 
ATOM      2  C1  UNL d   1       0.477   0.732   0.329  0.00  0.00     0.039 A 
ATOM      3  C2  UNL d   1       1.658   0.319   0.950  0.00  0.00    -0.080 A 
ATOM      4  C3  UNL d   1       2.080  -1.000   0.807  0.00  0.00     0.150 A 
ATOM      5  C4  UNL d   1       1.343  -1.907   0.052  0.00  0.00    -0.007 A 
ATOM      6  C5  UNL d   1       0.163  -1.493  -0.566  0.00  0.00     0.039 A 
ENDROOT
BRANCH   4   7
ATOM      7  O   UNL d   1       3.223  -1.450   1.398  0.00  0.00    -0.526 OA
ATOM      8  H5  UNL d   1       3.613  -0.722   1.910  0.00  0.00     0.418 HD
ENDBRANCH   4   7
TORSDOF 1
ENDMDL
