MODEL 1
REMARK minimizedAffinity -5.62079382
REMARK minimizedRMSD -1
REMARK  1 active torsions:
REMARK  status: ('A' for Active; 'I' for Inactive)
REMARK    1  A    between atoms: C1_2  and  C2_3 
ROOT
ATOM      1  C2  UNL d   1       0.127   4.948   1.326  0.00  0.00    -0.077 A 
ATOM      2  C3  UNL d   1       0.260   4.227   0.131  0.00  0.00     0.002 A 
ATOM      3  C4  UNL d   1       1.511   4.084  -0.472  0.00  0.00     0.002 A 
ATOM      4  C5  UNL d   1       2.639   4.654   0.116  0.00  0.00    -0.004 A 
ATOM      5  C6  UNL d   1       2.516   5.374   1.303  0.00  0.00     0.002 A 
ATOM      6  C7  UNL d   1       1.266   5.520   1.906  0.00  0.00     0.002 A 
ENDROOT
BRANCH   1   7
ATOM      7  C1  UNL d   1      -1.214   5.062   2.003  0.00  0.00     0.055 C 
ATOM      8  C   UNL d   1      -2.307   5.425   1.008  0.00  0.00     0.019 C 
ENDBRANCH   1   7
TORSDOF 1
ENDMDL
