MODEL 1
REMARK minimizedAffinity -3.61442256
REMARK minimizedRMSD -1
REMARK  1 active torsions:
REMARK  status: ('A' for Active; 'I' for Inactive)
REMARK    1  A    between atoms: C1_2  and  C2_3 
ROOT
ATOM      1  C2  UNL d   1       0.660   1.894  -0.070  0.00  0.00    -0.077 A 
ATOM      2  C3  UNL d   1       0.828   1.023   1.015  0.00  0.00     0.002 A 
ATOM      3  C4  UNL d   1       0.342  -0.285   0.953  0.00  0.00     0.002 A 
ATOM      4  C5  UNL d   1      -0.310  -0.734  -0.194  0.00  0.00    -0.004 A 
ATOM      5  C6  UNL d   1      -0.483   0.126  -1.278  0.00  0.00     0.002 A 
ATOM      6  C7  UNL d   1       0.000   1.434  -1.217  0.00  0.00     0.002 A 
ENDROOT
BRANCH   1   7
ATOM      7  C1  UNL d   1       1.227   3.289  -0.024  0.00  0.00     0.055 C 
ATOM      8  C   UNL d   1       2.305   3.414   1.042  0.00  0.00     0.019 C 
ENDBRANCH   1   7
TORSDOF 1
ENDMDL
