MODEL 1
REMARK minimizedAffinity -4.72347927
REMARK minimizedRMSD -1
REMARK  1 active torsions:
REMARK  status: ('A' for Active; 'I' for Inactive)
REMARK    1  A    between atoms: C1_2  and  C2_3 
ROOT
ATOM      1  C2  UNL d   1      -0.858   3.337   0.446  0.00  0.00    -0.077 A 
ATOM      2  C3  UNL d   1      -1.451   2.079   0.621  0.00  0.00     0.002 A 
ATOM      3  C4  UNL d   1      -0.729   0.915   0.349  0.00  0.00     0.002 A 
ATOM      4  C5  UNL d   1       0.589   0.998  -0.095  0.00  0.00    -0.004 A 
ATOM      5  C6  UNL d   1       1.186   2.245  -0.274  0.00  0.00     0.002 A 
ATOM      6  C7  UNL d   1       0.466   3.409  -0.004  0.00  0.00     0.002 A 
ENDROOT
BRANCH   1   7
ATOM      7  C1  UNL d   1      -1.619   4.593   0.785  0.00  0.00     0.055 C 
ATOM      8  C   UNL d   1      -1.004   5.306   1.981  0.00  0.00     0.019 C 
ENDBRANCH   1   7
TORSDOF 1
ENDMDL
