MODEL 1
REMARK minimizedAffinity -2.5670836
REMARK minimizedRMSD -1
REMARK  1 active torsions:
REMARK  status: ('A' for Active; 'I' for Inactive)
REMARK    1  A    between atoms: C1_2  and  C2_3 
ROOT
ATOM      1  C2  UNL d   1      -0.021   4.282   1.618  0.00  0.00    -0.077 A 
ATOM      2  C3  UNL d   1       1.081   4.968   2.150  0.00  0.00     0.002 A 
ATOM      3  C4  UNL d   1       2.375   4.667   1.719  0.00  0.00     0.002 A 
ATOM      4  C5  UNL d   1       2.579   3.684   0.754  0.00  0.00    -0.004 A 
ATOM      5  C6  UNL d   1       1.490   2.995   0.220  0.00  0.00     0.002 A 
ATOM      6  C7  UNL d   1       0.196   3.293   0.650  0.00  0.00     0.002 A 
ENDROOT
BRANCH   1   7
ATOM      7  C1  UNL d   1      -1.420   4.639   2.045  0.00  0.00     0.055 C 
ATOM      8  C   UNL d   1      -2.096   5.545   1.026  0.00  0.00     0.019 C 
ENDBRANCH   1   7
TORSDOF 1
ENDMDL
