MODEL 1
REMARK minimizedAffinity -3.01655936
REMARK minimizedRMSD -1
REMARK  1 active torsions:
REMARK  status: ('A' for Active; 'I' for Inactive)
REMARK    1  A    between atoms: C1_2  and  C2_3 
ROOT
ATOM      1  C2  UNL d   1      -0.764  -0.652   0.064  0.00  0.00    -0.077 A 
ATOM      2  C3  UNL d   1      -0.989   0.731   0.109  0.00  0.00     0.002 A 
ATOM      3  C4  UNL d   1      -0.679   1.533  -0.991  0.00  0.00     0.002 A 
ATOM      4  C5  UNL d   1      -0.147   0.961  -2.144  0.00  0.00    -0.004 A 
ATOM      5  C6  UNL d   1       0.082  -0.413  -2.198  0.00  0.00     0.002 A 
ATOM      6  C7  UNL d   1      -0.226  -1.216  -1.099  0.00  0.00     0.002 A 
ENDROOT
BRANCH   1   7
ATOM      7  C1  UNL d   1      -1.144  -1.525   1.232  0.00  0.00     0.055 C 
ATOM      8  C   UNL d   1      -1.075  -3.000   0.865  0.00  0.00     0.019 C 
ENDBRANCH   1   7
TORSDOF 1
ENDMDL
