MODEL 1
REMARK minimizedAffinity -4.91458178
REMARK minimizedRMSD -1
REMARK  1 active torsions:
REMARK  status: ('A' for Active; 'I' for Inactive)
REMARK    1  A    between atoms: C1_2  and  C2_3 
ROOT
ATOM      1  C2  UNL d   1      -0.750   2.489   0.359  0.00  0.00    -0.077 A 
ATOM      2  C3  UNL d   1       0.382   2.476  -0.468  0.00  0.00     0.002 A 
ATOM      3  C4  UNL d   1       0.785   1.296  -1.097  0.00  0.00     0.002 A 
ATOM      4  C5  UNL d   1       0.059   0.122  -0.908  0.00  0.00    -0.004 A 
ATOM      5  C6  UNL d   1      -1.067   0.124  -0.086  0.00  0.00     0.002 A 
ATOM      6  C7  UNL d   1      -1.471   1.302   0.543  0.00  0.00     0.002 A 
ENDROOT
BRANCH   1   7
ATOM      7  C1  UNL d   1      -1.214   3.771   0.998  0.00  0.00     0.055 C 
ATOM      8  C   UNL d   1      -0.078   4.466   1.734  0.00  0.00     0.019 C 
ENDBRANCH   1   7
TORSDOF 1
ENDMDL
