MODEL 1
REMARK minimizedAffinity -4.60641575
REMARK minimizedRMSD -1
REMARK  1 active torsions:
REMARK  status: ('A' for Active; 'I' for Inactive)
REMARK    1  A    between atoms: C1_2  and  C2_3 
ROOT
ATOM      1  C2  UNL d   1      -0.213   2.973   0.314  0.00  0.00    -0.077 A 
ATOM      2  C3  UNL d   1       1.152   3.269   0.438  0.00  0.00     0.002 A 
ATOM      3  C4  UNL d   1       1.571   4.362   1.200  0.00  0.00     0.002 A 
ATOM      4  C5  UNL d   1       0.632   5.163   1.846  0.00  0.00    -0.004 A 
ATOM      5  C6  UNL d   1      -0.728   4.878   1.727  0.00  0.00     0.002 A 
ATOM      6  C7  UNL d   1      -1.148   3.787   0.965  0.00  0.00     0.002 A 
ENDROOT
BRANCH   1   7
ATOM      7  C1  UNL d   1      -0.664   1.766  -0.467  0.00  0.00     0.055 C 
ATOM      8  C   UNL d   1      -1.202   0.680   0.454  0.00  0.00     0.019 C 
ENDBRANCH   1   7
TORSDOF 1
ENDMDL
