MODEL 1
REMARK minimizedAffinity -5.14265728
REMARK minimizedRMSD -1
REMARK  1 active torsions:
REMARK  status: ('A' for Active; 'I' for Inactive)
REMARK    1  A    between atoms: C1_2  and  C2_3 
ROOT
ATOM      1  C2  UNL d   1      -0.561  -0.951  -0.286  0.00  0.00    -0.077 A 
ATOM      2  C3  UNL d   1       0.005  -0.413  -1.450  0.00  0.00     0.002 A 
ATOM      3  C4  UNL d   1      -0.080   0.957  -1.707  0.00  0.00     0.002 A 
ATOM      4  C5  UNL d   1      -0.725   1.799  -0.804  0.00  0.00    -0.004 A 
ATOM      5  C6  UNL d   1      -1.293   1.272   0.355  0.00  0.00     0.002 A 
ATOM      6  C7  UNL d   1      -1.210  -0.097   0.614  0.00  0.00     0.002 A 
ENDROOT
BRANCH   1   7
ATOM      7  C1  UNL d   1      -0.427  -2.421   0.018  0.00  0.00     0.055 C 
ATOM      8  C   UNL d   1      -1.780  -3.048   0.323  0.00  0.00     0.019 C 
ENDBRANCH   1   7
TORSDOF 1
ENDMDL
