MODEL 1
REMARK minimizedAffinity -4.16493988
REMARK minimizedRMSD -1
REMARK  1 active torsions:
REMARK  status: ('A' for Active; 'I' for Inactive)
REMARK    1  A    between atoms: C1_2  and  C2_3 
ROOT
ATOM      1  C2  UNL d   1       1.885   1.848  -0.791  0.00  0.00    -0.077 A 
ATOM      2  C3  UNL d   1       2.851   1.530   0.174  0.00  0.00     0.002 A 
ATOM      3  C4  UNL d   1       3.760   2.496   0.608  0.00  0.00     0.002 A 
ATOM      4  C5  UNL d   1       3.710   3.787   0.086  0.00  0.00    -0.004 A 
ATOM      5  C6  UNL d   1       2.754   4.112  -0.876  0.00  0.00     0.002 A 
ATOM      6  C7  UNL d   1       1.845   3.147  -1.311  0.00  0.00     0.002 A 
ENDROOT
BRANCH   1   7
ATOM      7  C1  UNL d   1       0.871   0.820  -1.224  0.00  0.00     0.055 C 
ATOM      8  C   UNL d   1      -0.310   0.770  -0.265  0.00  0.00     0.019 C 
ENDBRANCH   1   7
TORSDOF 1
ENDMDL
