MODEL 1
REMARK minimizedAffinity -4.1129303
REMARK minimizedRMSD -1
REMARK  1 active torsions:
REMARK  status: ('A' for Active; 'I' for Inactive)
REMARK    1  A    between atoms: C1_2  and  C2_3 
ROOT
ATOM      1  C2  UNL d   1      -1.025  -0.531   0.663  0.00  0.00    -0.077 A 
ATOM      2  C3  UNL d   1      -1.888   0.574   0.630  0.00  0.00     0.002 A 
ATOM      3  C4  UNL d   1      -1.374   1.869   0.542  0.00  0.00     0.002 A 
ATOM      4  C5  UNL d   1       0.003   2.071   0.482  0.00  0.00    -0.004 A 
ATOM      5  C6  UNL d   1       0.870   0.979   0.516  0.00  0.00     0.002 A 
ATOM      6  C7  UNL d   1       0.358  -0.316   0.605  0.00  0.00     0.002 A 
ENDROOT
BRANCH   1   7
ATOM      7  C1  UNL d   1      -1.579  -1.931   0.708  0.00  0.00     0.055 C 
ATOM      8  C   UNL d   1      -0.521  -2.958   0.333  0.00  0.00     0.019 C 
ENDBRANCH   1   7
TORSDOF 1
ENDMDL
