MODEL 1
REMARK minimizedAffinity -3.67107773
REMARK minimizedRMSD -1
REMARK  1 active torsions:
REMARK  status: ('A' for Active; 'I' for Inactive)
REMARK    1  A    between atoms: C1_2  and  C2_3 
ROOT
ATOM      1  C2  UNL d   1      -0.090   0.021   0.300  0.00  0.00    -0.077 A 
ATOM      2  C3  UNL d   1      -0.108   1.423   0.322  0.00  0.00     0.002 A 
ATOM      3  C4  UNL d   1      -0.104   2.149  -0.870  0.00  0.00     0.002 A 
ATOM      4  C5  UNL d   1      -0.087   1.482  -2.094  0.00  0.00    -0.004 A 
ATOM      5  C6  UNL d   1      -0.067   0.088  -2.126  0.00  0.00     0.002 A 
ATOM      6  C7  UNL d   1      -0.070  -0.639  -0.935  0.00  0.00     0.002 A 
ENDROOT
BRANCH   1   7
ATOM      7  C1  UNL d   1      -0.144  -0.763   1.585  0.00  0.00     0.055 C 
ATOM      8  C   UNL d   1      -1.307  -1.746   1.585  0.00  0.00     0.019 C 
ENDBRANCH   1   7
TORSDOF 1
ENDMDL
