MODEL 1
REMARK minimizedAffinity -2.86307669
REMARK minimizedRMSD -1
REMARK  0 active torsions:
REMARK  status: ('A' for Active; 'I' for Inactive)
ROOT
ATOM      1  C1  BNZ d   1       0.118   0.897  -0.095  0.00  0.00     0.000 A 
ATOM      2  C2  BNZ d   1       0.163   1.066   1.263  0.00  0.00     0.000 A 
ATOM      3  C3  BNZ d   1      -0.558   0.255   2.094  0.00  0.00     0.000 A 
ATOM      4  C4  BNZ d   1      -1.354  -0.697   1.565  0.00  0.00     0.000 A 
ATOM      5  C5  BNZ d   1      -1.417  -0.874   0.197  0.00  0.00     0.000 A 
ATOM      6  C6  BNZ d   1      -0.660  -0.081  -0.634  0.00  0.00     0.000 A 
ENDROOT
TORSDOF 0
ENDMDL
