MODEL 1
REMARK minimizedAffinity -3.13193369
REMARK minimizedRMSD -1
REMARK  0 active torsions:
REMARK  status: ('A' for Active; 'I' for Inactive)
ROOT
ATOM      1  C1  BNZ d   1       1.491  -0.707   2.626  0.00  0.00     0.000 A 
ATOM      2  C2  BNZ d   1       0.351   0.019   2.846  0.00  0.00     0.000 A 
ATOM      3  C3  BNZ d   1      -0.496   0.321   1.817  0.00  0.00     0.000 A 
ATOM      4  C4  BNZ d   1      -0.182  -0.068   0.564  0.00  0.00     0.000 A 
ATOM      5  C5  BNZ d   1       0.969  -0.792   0.325  0.00  0.00     0.000 A 
ATOM      6  C6  BNZ d   1       1.799  -1.128   1.369  0.00  0.00     0.000 A 
ENDROOT
TORSDOF 0
ENDMDL
