MODEL 1
REMARK minimizedAffinity -2.41657162
REMARK minimizedRMSD -1
REMARK  0 active torsions:
REMARK  status: ('A' for Active; 'I' for Inactive)
ROOT
ATOM      1  C1  BNZ d   1       0.129   0.556  -1.082  0.00  0.00     0.000 A 
ATOM      2  C2  BNZ d   1       0.955   1.546  -1.545  0.00  0.00     0.000 A 
ATOM      3  C3  BNZ d   1       0.447   2.632  -2.202  0.00  0.00     0.000 A 
ATOM      4  C4  BNZ d   1      -0.880   2.707  -2.431  0.00  0.00     0.000 A 
ATOM      5  C5  BNZ d   1      -1.725   1.712  -1.979  0.00  0.00     0.000 A 
ATOM      6  C6  BNZ d   1      -1.214   0.640  -1.284  0.00  0.00     0.000 A 
ENDROOT
TORSDOF 0
ENDMDL
