MODEL 1
REMARK minimizedAffinity -2.58991432
REMARK minimizedRMSD -1
REMARK  0 active torsions:
REMARK  status: ('A' for Active; 'I' for Inactive)
ROOT
ATOM      1  C1  BNZ d   1       0.476  -0.616  -0.220  0.00  0.00     0.000 A 
ATOM      2  C2  BNZ d   1       0.822  -0.941   1.065  0.00  0.00     0.000 A 
ATOM      3  C3  BNZ d   1      -0.000  -0.627   2.111  0.00  0.00     0.000 A 
ATOM      4  C4  BNZ d   1      -1.146   0.045   1.877  0.00  0.00     0.000 A 
ATOM      5  C5  BNZ d   1      -1.504   0.387   0.588  0.00  0.00     0.000 A 
ATOM      6  C6  BNZ d   1      -0.693   0.036  -0.467  0.00  0.00     0.000 A 
ENDROOT
TORSDOF 0
ENDMDL
