MODEL 1
REMARK minimizedAffinity -2.98786068
REMARK minimizedRMSD -1
REMARK  0 active torsions:
REMARK  status: ('A' for Active; 'I' for Inactive)
ROOT
ATOM      1  C1  BNZ d   1       2.333  -2.036   1.884  0.00  0.00     0.000 A 
ATOM      2  C2  BNZ d   1       1.960  -1.330   0.772  0.00  0.00     0.000 A 
ATOM      3  C3  BNZ d   1       0.961  -0.399   0.836  0.00  0.00     0.000 A 
ATOM      4  C4  BNZ d   1       0.310  -0.204   2.001  0.00  0.00     0.000 A 
ATOM      5  C5  BNZ d   1       0.668  -0.915   3.129  0.00  0.00     0.000 A 
ATOM      6  C6  BNZ d   1       1.700  -1.823   3.070  0.00  0.00     0.000 A 
ENDROOT
TORSDOF 0
ENDMDL
