MODEL 1
REMARK minimizedAffinity -3.87947416
REMARK minimizedRMSD -1
REMARK  0 active torsions:
REMARK  status: ('A' for Active; 'I' for Inactive)
ROOT
ATOM      1  C1  BNZ d   1       1.197  -2.088   2.088  0.00  0.00     0.000 A 
ATOM      2  C2  BNZ d   1       2.233  -2.003   2.979  0.00  0.00     0.000 A 
ATOM      3  C3  BNZ d   1       3.080  -0.930   2.968  0.00  0.00     0.000 A 
ATOM      4  C4  BNZ d   1       2.914   0.035   2.041  0.00  0.00     0.000 A 
ATOM      5  C5  BNZ d   1       1.880  -0.041   1.129  0.00  0.00     0.000 A 
ATOM      6  C6  BNZ d   1       1.006  -1.103   1.169  0.00  0.00     0.000 A 
ENDROOT
TORSDOF 0
ENDMDL
