MODEL 1
REMARK minimizedAffinity -1.16490185
REMARK minimizedRMSD -1
REMARK  0 active torsions:
REMARK  status: ('A' for Active; 'I' for Inactive)
ROOT
ATOM      1  C1  BNZ d   1      -1.051   4.102  -1.830  0.00  0.00     0.000 A 
ATOM      2  C2  BNZ d   1      -1.808   2.963  -1.765  0.00  0.00     0.000 A 
ATOM      3  C3  BNZ d   1      -1.502   1.874  -2.532  0.00  0.00     0.000 A 
ATOM      4  C4  BNZ d   1      -0.465   1.939  -3.392  0.00  0.00     0.000 A 
ATOM      5  C5  BNZ d   1       0.302   3.084  -3.476  0.00  0.00     0.000 A 
ATOM      6  C6  BNZ d   1       0.015   4.164  -2.674  0.00  0.00     0.000 A 
ENDROOT
TORSDOF 0
ENDMDL
