MODEL 1
REMARK minimizedAffinity -0.670820951
REMARK minimizedRMSD -1
REMARK  0 active torsions:
REMARK  status: ('A' for Active; 'I' for Inactive)
ROOT
ATOM      1  C4' PXY d   1      -1.002  -1.954  -1.181  0.00  0.00     0.077 C 
ATOM      2  C1' PXY d   1       2.064   1.125   2.632  0.00  0.00     0.077 C 
ATOM      3  C1  PXY d   1       1.249   0.323   1.637  0.00  0.00    -0.082 A 
ATOM      4  C2  PXY d   1       1.759  -0.780   1.111  0.00  0.00     0.003 A 
ATOM      5  C3  PXY d   1       1.048  -1.500   0.186  0.00  0.00     0.003 A 
ATOM      6  C4  PXY d   1      -0.219  -1.118  -0.165  0.00  0.00    -0.082 A 
ATOM      7  C5  PXY d   1      -0.750  -0.000   0.375  0.00  0.00     0.003 A 
ATOM      8  C6  PXY d   1       0.003   0.740   1.281  0.00  0.00     0.003 A 
ENDROOT
TORSDOF 0
ENDMDL
