MODEL 1
REMARK minimizedAffinity -0.446998268
REMARK minimizedRMSD -1
REMARK  0 active torsions:
REMARK  status: ('A' for Active; 'I' for Inactive)
ROOT
ATOM      1  C4' PXY d   1       1.946  -0.723   1.050  0.00  0.00     0.077 C 
ATOM      2  C1' PXY d   1      -3.532   0.972   0.324  0.00  0.00     0.077 C 
ATOM      3  C1  PXY d   1      -2.093   0.538   0.521  0.00  0.00    -0.082 A 
ATOM      4  C2  PXY d   1      -1.525  -0.266  -0.363  0.00  0.00     0.003 A 
ATOM      5  C3  PXY d   1      -0.235  -0.694  -0.183  0.00  0.00     0.003 A 
ATOM      6  C4  PXY d   1       0.499  -0.252   0.886  0.00  0.00    -0.082 A 
ATOM      7  C5  PXY d   1      -0.070   0.577   1.786  0.00  0.00     0.003 A 
ATOM      8  C6  PXY d   1      -1.394   0.967   1.607  0.00  0.00     0.003 A 
ENDROOT
TORSDOF 0
ENDMDL
