MODEL 1
REMARK minimizedAffinity -3.45958328
REMARK minimizedRMSD -1
REMARK  0 active torsions:
REMARK  status: ('A' for Active; 'I' for Inactive)
ROOT
ATOM      1  C4' PXY d   1       0.804   0.845  -3.243  0.00  0.00     0.077 C 
ATOM      2  C1' PXY d   1      -1.657   0.374   1.966  0.00  0.00     0.077 C 
ATOM      3  C1  PXY d   1      -1.001   0.490   0.604  0.00  0.00    -0.082 A 
ATOM      4  C2  PXY d   1      -1.313   1.504  -0.187  0.00  0.00     0.003 A 
ATOM      5  C3  PXY d   1      -0.753   1.607  -1.435  0.00  0.00     0.003 A 
ATOM      6  C4  PXY d   1       0.174   0.692  -1.856  0.00  0.00    -0.082 A 
ATOM      7  C5  PXY d   1       0.505  -0.339  -1.050  0.00  0.00     0.003 A 
ATOM      8  C6  PXY d   1      -0.105  -0.448   0.196  0.00  0.00     0.003 A 
ENDROOT
TORSDOF 0
ENDMDL
