MODEL 1
REMARK minimizedAffinity -3.56570196
REMARK minimizedRMSD -1
REMARK  0 active torsions:
REMARK  status: ('A' for Active; 'I' for Inactive)
ROOT
ATOM      1  C4' PXY d   1      -0.735  -2.071  -1.573  0.00  0.00     0.077 C 
ATOM      2  C1' PXY d   1       0.021   1.965   2.496  0.00  0.00     0.077 C 
ATOM      3  C1  PXY d   1      -0.165   0.909   1.425  0.00  0.00    -0.082 A 
ATOM      4  C2  PXY d   1      -1.385   0.603   1.012  0.00  0.00     0.003 A 
ATOM      5  C3  PXY d   1      -1.573  -0.372   0.067  0.00  0.00     0.003 A 
ATOM      6  C4  PXY d   1      -0.499  -1.004  -0.500  0.00  0.00    -0.082 A 
ATOM      7  C5  PXY d   1       0.749  -0.690  -0.093  0.00  0.00     0.003 A 
ATOM      8  C6  PXY d   1       0.916   0.274   0.898  0.00  0.00     0.003 A 
ENDROOT
TORSDOF 0
ENDMDL
