MODEL 1
REMARK minimizedAffinity -0.492247373
REMARK minimizedRMSD -1
REMARK  0 active torsions:
REMARK  status: ('A' for Active; 'I' for Inactive)
ROOT
ATOM      1  C4' PXY d   1       0.192  -0.393  -0.837  0.00  0.00     0.077 C 
ATOM      2  C1' PXY d   1      -4.645  -3.552  -0.655  0.00  0.00     0.077 C 
ATOM      3  C1  PXY d   1      -3.383  -2.713  -0.700  0.00  0.00    -0.082 A 
ATOM      4  C2  PXY d   1      -2.356  -3.115  -1.429  0.00  0.00     0.003 A 
ATOM      5  C3  PXY d   1      -1.195  -2.385  -1.455  0.00  0.00     0.003 A 
ATOM      6  C4  PXY d   1      -1.105  -1.203  -0.770  0.00  0.00    -0.082 A 
ATOM      7  C5  PXY d   1      -2.153  -0.780  -0.032  0.00  0.00     0.003 A 
ATOM      8  C6  PXY d   1      -3.307  -1.557   0.014  0.00  0.00     0.003 A 
ENDROOT
TORSDOF 0
ENDMDL
