MODEL 1
REMARK minimizedAffinity -2.09280229
REMARK minimizedRMSD -1
REMARK  0 active torsions:
REMARK  status: ('A' for Active; 'I' for Inactive)
ROOT
ATOM      1  C4' PXY d   1       0.247   0.136   2.361  0.00  0.00     0.077 C 
ATOM      2  C1' PXY d   1       0.838  -0.285  -3.374  0.00  0.00     0.077 C 
ATOM      3  C1  PXY d   1       0.687  -0.187  -1.869  0.00  0.00    -0.082 A 
ATOM      4  C2  PXY d   1      -0.133   0.714  -1.351  0.00  0.00     0.003 A 
ATOM      5  C3  PXY d   1      -0.257   0.837   0.009  0.00  0.00     0.003 A 
ATOM      6  C4  PXY d   1       0.424  -0.005   0.847  0.00  0.00    -0.082 A 
ATOM      7  C5  PXY d   1       1.254  -0.934   0.326  0.00  0.00     0.003 A 
ATOM      8  C6  PXY d   1       1.397  -1.015  -1.056  0.00  0.00     0.003 A 
ENDROOT
TORSDOF 0
ENDMDL
