MODEL 1
REMARK minimizedAffinity -0.608147264
REMARK minimizedRMSD -1
REMARK  0 active torsions:
REMARK  status: ('A' for Active; 'I' for Inactive)
ROOT
ATOM      1  C4' PXY d   1      -1.066  -2.306  -1.587  0.00  0.00     0.077 C 
ATOM      2  C1' PXY d   1      -0.035   1.982   2.151  0.00  0.00     0.077 C 
ATOM      3  C1  PXY d   1      -0.294   0.859   1.165  0.00  0.00    -0.082 A 
ATOM      4  C2  PXY d   1      -1.538   0.518   0.875  0.00  0.00     0.003 A 
ATOM      5  C3  PXY d   1      -1.790  -0.516   0.010  0.00  0.00     0.003 A 
ATOM      6  C4  PXY d   1      -0.758  -1.172  -0.605  0.00  0.00    -0.082 A 
ATOM      7  C5  PXY d   1       0.515  -0.823  -0.322  0.00  0.00     0.003 A 
ATOM      8  C6  PXY d   1       0.750   0.202   0.590  0.00  0.00     0.003 A 
ENDROOT
TORSDOF 0
ENDMDL
