MODEL 1
REMARK minimizedAffinity 2.57763362
REMARK minimizedRMSD -1
REMARK  0 active torsions:
REMARK  status: ('A' for Active; 'I' for Inactive)
ROOT
ATOM      1  C4' PXY d   1       2.336  -0.073   2.565  0.00  0.00     0.077 C 
ATOM      2  C1' PXY d   1      -2.985   0.466   0.372  0.00  0.00     0.077 C 
ATOM      3  C1  PXY d   1      -1.586   0.317   0.937  0.00  0.00    -0.082 A 
ATOM      4  C2  PXY d   1      -1.388   0.457   2.237  0.00  0.00     0.003 A 
ATOM      5  C3  PXY d   1      -0.124   0.358   2.761  0.00  0.00     0.003 A 
ATOM      6  C4  PXY d   1       0.939   0.059   1.952  0.00  0.00    -0.082 A 
ATOM      7  C5  PXY d   1       0.743  -0.096   0.625  0.00  0.00     0.003 A 
ATOM      8  C6  PXY d   1      -0.540   0.050   0.108  0.00  0.00     0.003 A 
ENDROOT
TORSDOF 0
ENDMDL
