MODEL 1
REMARK minimizedAffinity -1.57523239
REMARK minimizedRMSD -1
REMARK  0 active torsions:
REMARK  status: ('A' for Active; 'I' for Inactive)
ROOT
ATOM      1  C4' PXY d   1      -1.121  -1.498  -5.986  0.00  0.00     0.077 C 
ATOM      2  C1' PXY d   1       2.626   2.156  -3.530  0.00  0.00     0.077 C 
ATOM      3  C1  PXY d   1       1.647   1.188  -4.166  0.00  0.00    -0.082 A 
ATOM      4  C2  PXY d   1       1.267   1.372  -5.420  0.00  0.00     0.003 A 
ATOM      5  C3  PXY d   1       0.358   0.525  -6.000  0.00  0.00     0.003 A 
ATOM      6  C4  PXY d   1      -0.127  -0.551  -5.306  0.00  0.00    -0.082 A 
ATOM      7  C5  PXY d   1       0.264  -0.751  -4.030  0.00  0.00     0.003 A 
ATOM      8  C6  PXY d   1       1.156   0.143  -3.446  0.00  0.00     0.003 A 
ENDROOT
TORSDOF 0
ENDMDL
