MODEL 1
REMARK minimizedAffinity -3.21294594
REMARK minimizedRMSD -1
REMARK  0 active torsions:
REMARK  status: ('A' for Active; 'I' for Inactive)
ROOT
ATOM      1  C4' PXY d   1       0.783   0.414  -2.565  0.00  0.00     0.077 C 
ATOM      2  C1' PXY d   1      -0.447   0.892   3.063  0.00  0.00     0.077 C 
ATOM      3  C1  PXY d   1      -0.127   0.753   1.588  0.00  0.00    -0.082 A 
ATOM      4  C2  PXY d   1       0.646   1.652   0.999  0.00  0.00     0.003 A 
ATOM      5  C3  PXY d   1       0.920   1.560  -0.341  0.00  0.00     0.003 A 
ATOM      6  C4  PXY d   1       0.441   0.508  -1.075  0.00  0.00    -0.082 A 
ATOM      7  C5  PXY d   1      -0.340  -0.418  -0.480  0.00  0.00     0.003 A 
ATOM      8  C6  PXY d   1      -0.639  -0.284   0.873  0.00  0.00     0.003 A 
ENDROOT
TORSDOF 0
ENDMDL
