MODEL 1
REMARK minimizedAffinity -2.46210575
REMARK minimizedRMSD -1
REMARK  0 active torsions:
REMARK  status: ('A' for Active; 'I' for Inactive)
ROOT
ATOM      1  C4' PXY d   1      -0.009   1.934   2.647  0.00  0.00     0.077 C 
ATOM      2  C1' PXY d   1      -1.687  -2.200  -1.029  0.00  0.00     0.077 C 
ATOM      3  C1  PXY d   1      -1.235  -1.121  -0.064  0.00  0.00    -0.082 A 
ATOM      4  C2  PXY d   1      -2.133  -0.470   0.656  0.00  0.00     0.003 A 
ATOM      5  C3  PXY d   1      -1.745   0.531   1.510  0.00  0.00     0.003 A 
ATOM      6  C4  PXY d   1      -0.418   0.831   1.667  0.00  0.00    -0.082 A 
ATOM      7  C5  PXY d   1       0.505   0.163   0.944  0.00  0.00     0.003 A 
ATOM      8  C6  PXY d   1       0.087  -0.820   0.052  0.00  0.00     0.003 A 
ENDROOT
TORSDOF 0
ENDMDL
