MODEL 1
REMARK minimizedAffinity 1.03698123
REMARK minimizedRMSD -1
REMARK  0 active torsions:
REMARK  status: ('A' for Active; 'I' for Inactive)
ROOT
ATOM      1  C4' PXY d   1      -1.093  -1.814  -1.719  0.00  0.00     0.077 C 
ATOM      2  C1' PXY d   1       1.781   1.106   2.359  0.00  0.00     0.077 C 
ATOM      3  C1  PXY d   1       1.017   0.347   1.292  0.00  0.00    -0.082 A 
ATOM      4  C2  PXY d   1       1.406  -0.870   0.950  0.00  0.00     0.003 A 
ATOM      5  C3  PXY d   1       0.745  -1.558  -0.036  0.00  0.00     0.003 A 
ATOM      6  C4  PXY d   1      -0.357  -1.015  -0.640  0.00  0.00    -0.082 A 
ATOM      7  C5  PXY d   1      -0.767   0.222  -0.289  0.00  0.00     0.003 A 
ATOM      8  C6  PXY d   1      -0.058   0.920   0.685  0.00  0.00     0.003 A 
ENDROOT
TORSDOF 0
ENDMDL
