MODEL 1
REMARK minimizedAffinity 0.516622841
REMARK minimizedRMSD -1
REMARK  0 active torsions:
REMARK  status: ('A' for Active; 'I' for Inactive)
ROOT
ATOM      1  C4' PXY d   1      -0.824   2.216   3.992  0.00  0.00     0.077 C 
ATOM      2  C1' PXY d   1       0.404  -0.813  -0.775  0.00  0.00     0.077 C 
ATOM      3  C1  PXY d   1       0.069  -0.022   0.473  0.00  0.00    -0.082 A 
ATOM      4  C2  PXY d   1       0.881   0.944   0.873  0.00  0.00     0.003 A 
ATOM      5  C3  PXY d   1       0.610   1.649   2.017  0.00  0.00     0.003 A 
ATOM      6  C4  PXY d   1      -0.531   1.397   2.732  0.00  0.00    -0.082 A 
ATOM      7  C5  PXY d   1      -1.369   0.420   2.325  0.00  0.00     0.003 A 
ATOM      8  C6  PXY d   1      -1.055  -0.311   1.183  0.00  0.00     0.003 A 
ENDROOT
TORSDOF 0
ENDMDL
