MODEL 1
REMARK minimizedAffinity -2.73644304
REMARK minimizedRMSD -1
REMARK  0 active torsions:
REMARK  status: ('A' for Active; 'I' for Inactive)
ROOT
ATOM      1  C1  BNZ d   1       1.062   1.018   0.027  0.00  0.00     0.000 A 
ATOM      2  C2  BNZ d   1       2.363   0.849   0.418  0.00  0.00     0.000 A 
ATOM      3  C3  BNZ d   1       2.848  -0.393   0.721  0.00  0.00     0.000 A 
ATOM      4  C4  BNZ d   1       2.021  -1.457   0.670  0.00  0.00     0.000 A 
ATOM      5  C5  BNZ d   1       0.704  -1.302   0.287  0.00  0.00     0.000 A 
ATOM      6  C6  BNZ d   1       0.230  -0.056  -0.054  0.00  0.00     0.000 A 
ENDROOT
TORSDOF 0
ENDMDL
