MODEL 1
REMARK minimizedAffinity -2.57756138
REMARK minimizedRMSD -1
REMARK  0 active torsions:
REMARK  status: ('A' for Active; 'I' for Inactive)
ROOT
ATOM      1  C1  BNZ d   1       1.208  -0.773   1.194  0.00  0.00     0.000 A 
ATOM      2  C2  BNZ d   1       0.066  -0.454   0.509  0.00  0.00     0.000 A 
ATOM      3  C3  BNZ d   1      -0.134   0.812   0.034  0.00  0.00     0.000 A 
ATOM      4  C4  BNZ d   1       0.788   1.766   0.279  0.00  0.00     0.000 A 
ATOM      5  C5  BNZ d   1       1.940   1.461   0.976  0.00  0.00     0.000 A 
ATOM      6  C6  BNZ d   1       2.156   0.177   1.419  0.00  0.00     0.000 A 
ENDROOT
TORSDOF 0
ENDMDL
