MODEL 1
REMARK minimizedAffinity -3.14786458
REMARK minimizedRMSD -1
REMARK  0 active torsions:
REMARK  status: ('A' for Active; 'I' for Inactive)
ROOT
ATOM      1  C1  BNZ d   1      -0.537  -0.508   0.643  0.00  0.00     0.000 A 
ATOM      2  C2  BNZ d   1      -0.113   0.723   0.218  0.00  0.00     0.000 A 
ATOM      3  C3  BNZ d   1       1.063   1.252   0.669  0.00  0.00     0.000 A 
ATOM      4  C4  BNZ d   1       1.793   0.570   1.575  0.00  0.00     0.000 A 
ATOM      5  C5  BNZ d   1       1.375  -0.668   2.020  0.00  0.00     0.000 A 
ATOM      6  C6  BNZ d   1       0.210  -1.215   1.534  0.00  0.00     0.000 A 
ENDROOT
TORSDOF 0
ENDMDL
