MODEL 1
REMARK minimizedAffinity -3.36261535
REMARK minimizedRMSD -1
REMARK  0 active torsions:
REMARK  status: ('A' for Active; 'I' for Inactive)
ROOT
ATOM      1  C1  BNZ d   1       2.520   1.445   0.902  0.00  0.00     0.000 A 
ATOM      2  C2  BNZ d   1       1.446   1.836   0.147  0.00  0.00     0.000 A 
ATOM      3  C3  BNZ d   1       0.433   0.963  -0.135  0.00  0.00     0.000 A 
ATOM      4  C4  BNZ d   1       0.514  -0.310   0.304  0.00  0.00     0.000 A 
ATOM      5  C5  BNZ d   1       1.594  -0.722   1.059  0.00  0.00     0.000 A 
ATOM      6  C6  BNZ d   1       2.593   0.171   1.374  0.00  0.00     0.000 A 
ENDROOT
TORSDOF 0
ENDMDL
