MODEL 1
REMARK minimizedAffinity -0.439828813
REMARK minimizedRMSD -1
REMARK  0 active torsions:
REMARK  status: ('A' for Active; 'I' for Inactive)
ROOT
ATOM      1  C1  BNZ d   1      -1.358  -0.814   0.465  0.00  0.00     0.000 A 
ATOM      2  C2  BNZ d   1      -0.237  -0.674   1.239  0.00  0.00     0.000 A 
ATOM      3  C3  BNZ d   1       0.821   0.077   0.809  0.00  0.00     0.000 A 
ATOM      4  C4  BNZ d   1       0.774   0.652  -0.410  0.00  0.00     0.000 A 
ATOM      5  C5  BNZ d   1      -0.345   0.513  -1.206  0.00  0.00     0.000 A 
ATOM      6  C6  BNZ d   1      -1.425  -0.211  -0.753  0.00  0.00     0.000 A 
ENDROOT
TORSDOF 0
ENDMDL
