MODEL 1
REMARK minimizedAffinity -2.84515643
REMARK minimizedRMSD -1
REMARK  0 active torsions:
REMARK  status: ('A' for Active; 'I' for Inactive)
ROOT
ATOM      1  C1  BNZ d   1      -2.802   2.241  -3.368  0.00  0.00     0.000 A 
ATOM      2  C2  BNZ d   1      -2.864   1.032  -4.008  0.00  0.00     0.000 A 
ATOM      3  C3  BNZ d   1      -2.881  -0.136  -3.298  0.00  0.00     0.000 A 
ATOM      4  C4  BNZ d   1      -2.794  -0.095  -1.953  0.00  0.00     0.000 A 
ATOM      5  C5  BNZ d   1      -2.721   1.115  -1.294  0.00  0.00     0.000 A 
ATOM      6  C6  BNZ d   1      -2.744   2.290  -2.010  0.00  0.00     0.000 A 
ENDROOT
TORSDOF 0
ENDMDL
