MODEL 1
REMARK minimizedAffinity -2.17497778
REMARK minimizedRMSD -1
REMARK  0 active torsions:
REMARK  status: ('A' for Active; 'I' for Inactive)
ROOT
ATOM      1  C1  BNZ d   1       2.057   0.947   1.859  0.00  0.00     0.000 A 
ATOM      2  C2  BNZ d   1       1.182   0.323   1.011  0.00  0.00     0.000 A 
ATOM      3  C3  BNZ d   1       0.160   1.016   0.425  0.00  0.00     0.000 A 
ATOM      4  C4  BNZ d   1      -0.009   2.321   0.719  0.00  0.00     0.000 A 
ATOM      5  C5  BNZ d   1       0.859   2.963   1.579  0.00  0.00     0.000 A 
ATOM      6  C6  BNZ d   1       1.910   2.271   2.136  0.00  0.00     0.000 A 
ENDROOT
TORSDOF 0
ENDMDL
