MODEL 1
REMARK minimizedAffinity 8.76601982
REMARK minimizedRMSD -1
REMARK  1 active torsions:
REMARK  status: ('A' for Active; 'I' for Inactive)
REMARK    1  A    between atoms: C1_2  and  C2_3 
ROOT
ATOM      1  C2  UNL d   1      -3.682   1.920   2.493  0.00  0.00    -0.073 A 
ATOM      2  C3  UNL d   1      -2.341   1.538   2.380  0.00  0.00    -0.002 A 
ATOM      3  C4  UNL d   1      -2.008   0.246   1.971  0.00  0.00     0.004 A 
ATOM      4  C5  UNL d   1      -3.011  -0.674   1.664  0.00  0.00    -0.004 A 
ATOM      5  C6  UNL d   1      -4.357  -0.307   1.760  0.00  0.00    -0.075 A 
ATOM      6  C7  UNL d   1      -5.448  -1.285   1.436  0.00  0.00     0.076 C 
ATOM      7  C8  UNL d   1      -4.683   0.992   2.174  0.00  0.00     0.001 A 
ENDROOT
BRANCH   1   8
ATOM      8  C1  UNL d   1      -4.046   3.316   2.928  0.00  0.00     0.053 C 
ATOM      9  C   UNL d   1      -5.516   3.433   3.298  0.00  0.00     0.018 C 
ENDBRANCH   1   8
TORSDOF 1
ENDMDL
