MODEL 1
REMARK minimizedAffinity 17.2932358
REMARK minimizedRMSD -1
REMARK  1 active torsions:
REMARK  status: ('A' for Active; 'I' for Inactive)
REMARK    1  A    between atoms: C1_2  and  C2_3 
ROOT
ATOM      1  C2  UNL d   1      -0.795  -1.920   2.974  0.00  0.00    -0.073 A 
ATOM      2  C3  UNL d   1      -1.393  -1.143   1.975  0.00  0.00    -0.002 A 
ATOM      3  C4  UNL d   1      -2.556  -0.421   2.246  0.00  0.00     0.004 A 
ATOM      4  C5  UNL d   1      -3.128  -0.462   3.517  0.00  0.00    -0.004 A 
ATOM      5  C6  UNL d   1      -2.539  -1.223   4.532  0.00  0.00    -0.075 A 
ATOM      6  C7  UNL d   1      -3.143  -1.280   5.904  0.00  0.00     0.076 C 
ATOM      7  C8  UNL d   1      -1.373  -1.948   4.252  0.00  0.00     0.001 A 
ENDROOT
BRANCH   1   8
ATOM      8  C1  UNL d   1       0.464  -2.696   2.689  0.00  0.00     0.053 C 
ATOM      9  C   UNL d   1       0.414  -3.386   1.334  0.00  0.00     0.018 C 
ENDBRANCH   1   8
TORSDOF 1
ENDMDL
