MODEL 1
REMARK minimizedAffinity 4.13793373
REMARK minimizedRMSD -1
REMARK  1 active torsions:
REMARK  status: ('A' for Active; 'I' for Inactive)
REMARK    1  A    between atoms: C1_2  and  C2_3 
ROOT
ATOM      1  C2  UNL d   1      -5.653  -2.648  -2.390  0.00  0.00    -0.073 A 
ATOM      2  C3  UNL d   1      -5.341  -1.295  -2.562  0.00  0.00    -0.002 A 
ATOM      3  C4  UNL d   1      -5.027  -0.799  -3.829  0.00  0.00     0.004 A 
ATOM      4  C5  UNL d   1      -5.028  -1.649  -4.935  0.00  0.00    -0.004 A 
ATOM      5  C6  UNL d   1      -5.349  -3.002  -4.785  0.00  0.00    -0.075 A 
ATOM      6  C7  UNL d   1      -5.353  -3.929  -5.965  0.00  0.00     0.076 C 
ATOM      7  C8  UNL d   1      -5.661  -3.492  -3.510  0.00  0.00     0.001 A 
ENDROOT
BRANCH   1   8
ATOM      8  C1  UNL d   1      -5.999  -3.186  -1.026  0.00  0.00     0.053 C 
ATOM      9  C   UNL d   1      -5.983  -2.099   0.037  0.00  0.00     0.018 C 
ENDBRANCH   1   8
TORSDOF 1
ENDMDL
