MODEL 1
REMARK minimizedAffinity 11.025074
REMARK minimizedRMSD -1
REMARK  1 active torsions:
REMARK  status: ('A' for Active; 'I' for Inactive)
REMARK    1  A    between atoms: C1_2  and  C2_3 
ROOT
ATOM      1  C2  UNL d   1      -2.086  -1.379   2.786  0.00  0.00    -0.073 A 
ATOM      2  C3  UNL d   1      -2.886  -2.111   1.901  0.00  0.00    -0.002 A 
ATOM      3  C4  UNL d   1      -3.187  -1.601   0.637  0.00  0.00     0.004 A 
ATOM      4  C5  UNL d   1      -2.687  -0.361   0.243  0.00  0.00    -0.004 A 
ATOM      5  C6  UNL d   1      -1.875   0.380   1.108  0.00  0.00    -0.075 A 
ATOM      6  C7  UNL d   1      -1.331   1.717   0.699  0.00  0.00     0.076 C 
ATOM      7  C8  UNL d   1      -1.580  -0.137   2.377  0.00  0.00     0.001 A 
ENDROOT
BRANCH   1   8
ATOM      8  C1  UNL d   1      -1.753  -1.927   4.149  0.00  0.00     0.053 C 
ATOM      9  C   UNL d   1      -2.995  -2.120   5.005  0.00  0.00     0.018 C 
ENDBRANCH   1   8
TORSDOF 1
ENDMDL
