MODEL 1
REMARK minimizedAffinity 16.8367367
REMARK minimizedRMSD -1
REMARK  1 active torsions:
REMARK  status: ('A' for Active; 'I' for Inactive)
REMARK    1  A    between atoms: C1_2  and  C2_3 
ROOT
ATOM      1  C2  UNL d   1      -2.991  -0.468   1.010  0.00  0.00    -0.073 A 
ATOM      2  C3  UNL d   1      -3.918   0.537   0.709  0.00  0.00    -0.002 A 
ATOM      3  C4  UNL d   1      -3.604   1.877   0.940  0.00  0.00     0.004 A 
ATOM      4  C5  UNL d   1      -2.361   2.227   1.468  0.00  0.00    -0.004 A 
ATOM      5  C6  UNL d   1      -1.418   1.238   1.764  0.00  0.00    -0.075 A 
ATOM      6  C7  UNL d   1      -0.077   1.596   2.334  0.00  0.00     0.076 C 
ATOM      7  C8  UNL d   1      -1.741  -0.106   1.531  0.00  0.00     0.001 A 
ENDROOT
BRANCH   1   8
ATOM      8  C1  UNL d   1      -3.323  -1.915   0.755  0.00  0.00     0.053 C 
ATOM      9  C   UNL d   1      -4.785  -2.109   0.386  0.00  0.00     0.018 C 
ENDBRANCH   1   8
TORSDOF 1
ENDMDL
