MODEL 1
REMARK minimizedAffinity 11.8069305
REMARK minimizedRMSD -1
REMARK  1 active torsions:
REMARK  status: ('A' for Active; 'I' for Inactive)
REMARK    1  A    between atoms: C1_2  and  C2_3 
ROOT
ATOM      1  C2  UNL d   1      -4.037  -4.080  -0.132  0.00  0.00    -0.073 A 
ATOM      2  C3  UNL d   1      -2.728  -3.934   0.339  0.00  0.00    -0.002 A 
ATOM      3  C4  UNL d   1      -2.313  -2.727   0.904  0.00  0.00     0.004 A 
ATOM      4  C5  UNL d   1      -3.203  -1.658   1.010  0.00  0.00    -0.004 A 
ATOM      5  C6  UNL d   1      -4.519  -1.789   0.555  0.00  0.00    -0.075 A 
ATOM      6  C7  UNL d   1      -5.488  -0.648   0.660  0.00  0.00     0.076 C 
ATOM      7  C8  UNL d   1      -4.927  -3.003  -0.013  0.00  0.00     0.001 A 
ENDROOT
BRANCH   1   8
ATOM      8  C1  UNL d   1      -4.492  -5.383  -0.737  0.00  0.00     0.053 C 
ATOM      9  C   UNL d   1      -5.647  -5.998   0.036  0.00  0.00     0.018 C 
ENDBRANCH   1   8
TORSDOF 1
ENDMDL
