MODEL 1
REMARK minimizedAffinity 16.2831631
REMARK minimizedRMSD -1
REMARK  1 active torsions:
REMARK  status: ('A' for Active; 'I' for Inactive)
REMARK    1  A    between atoms: C1_2  and  C2_3 
ROOT
ATOM      1  C2  UNL d   1      -4.903   4.848   2.341  0.00  0.00    -0.073 A 
ATOM      2  C3  UNL d   1      -3.533   5.136   2.346  0.00  0.00    -0.002 A 
ATOM      3  C4  UNL d   1      -2.937   5.708   3.471  0.00  0.00     0.004 A 
ATOM      4  C5  UNL d   1      -3.701   5.991   4.603  0.00  0.00    -0.004 A 
ATOM      5  C6  UNL d   1      -5.068   5.699   4.622  0.00  0.00    -0.075 A 
ATOM      6  C7  UNL d   1      -5.905   6.000   5.831  0.00  0.00     0.076 C 
ATOM      7  C8  UNL d   1      -5.660   5.128   3.488  0.00  0.00     0.001 A 
ENDROOT
BRANCH   1   8
ATOM      8  C1  UNL d   1      -5.550   4.225   1.132  0.00  0.00     0.053 C 
ATOM      9  C   UNL d   1      -5.999   5.271   0.124  0.00  0.00     0.018 C 
ENDBRANCH   1   8
TORSDOF 1
ENDMDL
