MODEL 1
REMARK minimizedAffinity 14.6776199
REMARK minimizedRMSD -1
REMARK  1 active torsions:
REMARK  status: ('A' for Active; 'I' for Inactive)
REMARK    1  A    between atoms: C1_2  and  C2_3 
ROOT
ATOM      1  C2  UNL d   1      -3.392  -1.069   0.872  0.00  0.00    -0.073 A 
ATOM      2  C3  UNL d   1      -4.687  -0.541   0.825  0.00  0.00    -0.002 A 
ATOM      3  C4  UNL d   1      -5.775  -1.369   0.543  0.00  0.00     0.004 A 
ATOM      4  C5  UNL d   1      -5.580  -2.730   0.312  0.00  0.00    -0.004 A 
ATOM      5  C6  UNL d   1      -4.294  -3.278   0.366  0.00  0.00    -0.075 A 
ATOM      6  C7  UNL d   1      -4.068  -4.740   0.118  0.00  0.00     0.076 C 
ATOM      7  C8  UNL d   1      -3.207  -2.440   0.647  0.00  0.00     0.001 A 
ENDROOT
BRANCH   1   8
ATOM      8  C1  UNL d   1      -2.215  -0.180   1.182  0.00  0.00     0.053 C 
ATOM      9  C   UNL d   1      -2.472   1.265   0.788  0.00  0.00     0.018 C 
ENDBRANCH   1   8
TORSDOF 1
ENDMDL
