MODEL 1
REMARK minimizedAffinity -3.09228468
REMARK minimizedRMSD -1
REMARK  0 active torsions:
REMARK  status: ('A' for Active; 'I' for Inactive)
ROOT
ATOM      1  C4' PXY d   1       2.296   0.862   0.759  0.00  0.00     0.077 C 
ATOM      2  C1' PXY d   1      -2.744  -1.043  -1.336  0.00  0.00     0.077 C 
ATOM      3  C1  PXY d   1      -1.426  -0.546  -0.775  0.00  0.00    -0.082 A 
ATOM      4  C2  PXY d   1      -0.702   0.316  -1.470  0.00  0.00     0.003 A 
ATOM      5  C3  PXY d   1       0.507   0.751  -0.992  0.00  0.00     0.003 A 
ATOM      6  C4  PXY d   1       0.955   0.341   0.235  0.00  0.00    -0.082 A 
ATOM      7  C5  PXY d   1       0.217  -0.530   0.956  0.00  0.00     0.003 A 
ATOM      8  C6  PXY d   1      -0.988  -0.992   0.434  0.00  0.00     0.003 A 
ENDROOT
TORSDOF 0
ENDMDL
