MODEL 1
REMARK minimizedAffinity -3.68678546
REMARK minimizedRMSD -1
REMARK  0 active torsions:
REMARK  status: ('A' for Active; 'I' for Inactive)
ROOT
ATOM      1  C4' PXY d   1      -0.447  -2.085   1.506  0.00  0.00     0.077 C 
ATOM      2  C1' PXY d   1      -1.350   1.572  -2.879  0.00  0.00     0.077 C 
ATOM      3  C1  PXY d   1      -1.101   0.613  -1.732  0.00  0.00    -0.082 A 
ATOM      4  C2  PXY d   1      -2.081  -0.167  -1.306  0.00  0.00     0.003 A 
ATOM      5  C3  PXY d   1      -1.882  -1.017  -0.249  0.00  0.00     0.003 A 
ATOM      6  C4  PXY d   1      -0.651  -1.108   0.345  0.00  0.00    -0.082 A 
ATOM      7  C5  PXY d   1       0.357  -0.323  -0.091  0.00  0.00     0.003 A 
ATOM      8  C6  PXY d   1       0.123   0.563  -1.139  0.00  0.00     0.003 A 
ENDROOT
TORSDOF 0
ENDMDL
