MODEL 1
REMARK minimizedAffinity -1.66438866
REMARK minimizedRMSD -1
REMARK  0 active torsions:
REMARK  status: ('A' for Active; 'I' for Inactive)
ROOT
ATOM      1  C4' PXY d   1       2.153   0.637   0.198  0.00  0.00     0.077 C 
ATOM      2  C1' PXY d   1      -3.074  -1.689  -0.629  0.00  0.00     0.077 C 
ATOM      3  C1  PXY d   1      -1.703  -1.083  -0.400  0.00  0.00    -0.082 A 
ATOM      4  C2  PXY d   1      -1.279  -0.108  -1.187  0.00  0.00     0.003 A 
ATOM      5  C3  PXY d   1      -0.030   0.429  -1.014  0.00  0.00     0.003 A 
ATOM      6  C4  PXY d   1       0.773   0.001   0.010  0.00  0.00    -0.082 A 
ATOM      7  C5  PXY d   1       0.343  -0.985   0.824  0.00  0.00     0.003 A 
ATOM      8  C6  PXY d   1      -0.912  -1.546   0.606  0.00  0.00     0.003 A 
ENDROOT
TORSDOF 0
ENDMDL
