MODEL 1
REMARK minimizedAffinity -2.2757051
REMARK minimizedRMSD -1
REMARK  0 active torsions:
REMARK  status: ('A' for Active; 'I' for Inactive)
ROOT
ATOM      1  C4' PXY d   1       2.938   3.714  -0.068  0.00  0.00     0.077 C 
ATOM      2  C1' PXY d   1      -0.575  -0.825   0.617  0.00  0.00     0.077 C 
ATOM      3  C1  PXY d   1       0.356   0.358   0.443  0.00  0.00    -0.082 A 
ATOM      4  C2  PXY d   1      -0.150   1.573   0.307  0.00  0.00     0.003 A 
ATOM      5  C3  PXY d   1       0.677   2.651   0.116  0.00  0.00     0.003 A 
ATOM      6  C4  PXY d   1       2.036   2.490   0.119  0.00  0.00    -0.082 A 
ATOM      7  C5  PXY d   1       2.560   1.255   0.269  0.00  0.00     0.003 A 
ATOM      8  C6  PXY d   1       1.703   0.169   0.419  0.00  0.00     0.003 A 
ENDROOT
TORSDOF 0
ENDMDL
