MODEL 1
REMARK minimizedAffinity -1.79336286
REMARK minimizedRMSD -1
REMARK  0 active torsions:
REMARK  status: ('A' for Active; 'I' for Inactive)
ROOT
ATOM      1  C4' PXY d   1       2.286   1.409  -0.197  0.00  0.00     0.077 C 
ATOM      2  C1' PXY d   1      -2.688  -1.516  -0.547  0.00  0.00     0.077 C 
ATOM      3  C1  PXY d   1      -1.383  -0.748  -0.468  0.00  0.00    -0.082 A 
ATOM      4  C2  PXY d   1      -0.624  -0.857   0.610  0.00  0.00     0.003 A 
ATOM      5  C3  PXY d   1       0.544  -0.146   0.711  0.00  0.00     0.003 A 
ATOM      6  C4  PXY d   1       0.965   0.645  -0.324  0.00  0.00    -0.082 A 
ATOM      7  C5  PXY d   1       0.201   0.754  -1.432  0.00  0.00     0.003 A 
ATOM      8  C6  PXY d   1      -1.001   0.055  -1.498  0.00  0.00     0.003 A 
ENDROOT
TORSDOF 0
ENDMDL
