MODEL 1
REMARK minimizedAffinity -1.47598267
REMARK minimizedRMSD -1
REMARK  0 active torsions:
REMARK  status: ('A' for Active; 'I' for Inactive)
ROOT
ATOM      1  C4' PXY d   1       2.351   1.568   0.425  0.00  0.00     0.077 C 
ATOM      2  C1' PXY d   1      -2.507  -0.946  -1.444  0.00  0.00     0.077 C 
ATOM      3  C1  PXY d   1      -1.237  -0.286  -0.942  0.00  0.00    -0.082 A 
ATOM      4  C2  PXY d   1      -0.479   0.398  -1.782  0.00  0.00     0.003 A 
ATOM      5  C3  PXY d   1       0.688   0.974  -1.352  0.00  0.00     0.003 A 
ATOM      6  C4  PXY d   1       1.057   0.893  -0.036  0.00  0.00    -0.082 A 
ATOM      7  C5  PXY d   1       0.283   0.206   0.831  0.00  0.00     0.003 A 
ATOM      8  C6  PXY d   1      -0.877  -0.407   0.365  0.00  0.00     0.003 A 
ENDROOT
TORSDOF 0
ENDMDL
