MODEL 1
REMARK minimizedAffinity -3.16524053
REMARK minimizedRMSD -1
REMARK  0 active torsions:
REMARK  status: ('A' for Active; 'I' for Inactive)
ROOT
ATOM      1  C4' PXY d   1       3.156   1.089   3.883  0.00  0.00     0.077 C 
ATOM      2  C1' PXY d   1       0.274   0.108  -1.031  0.00  0.00     0.077 C 
ATOM      3  C1  PXY d   1       1.034   0.377   0.253  0.00  0.00    -0.082 A 
ATOM      4  C2  PXY d   1       1.407  -0.637   1.016  0.00  0.00     0.003 A 
ATOM      5  C3  PXY d   1       2.067  -0.411   2.197  0.00  0.00     0.003 A 
ATOM      6  C4  PXY d   1       2.395   0.864   2.573  0.00  0.00    -0.082 A 
ATOM      7  C5  PXY d   1       2.027   1.904   1.795  0.00  0.00     0.003 A 
ATOM      8  C6  PXY d   1       1.322   1.655   0.621  0.00  0.00     0.003 A 
ENDROOT
TORSDOF 0
ENDMDL
