MODEL 1
REMARK minimizedAffinity -2.40386701
REMARK minimizedRMSD -1
REMARK  0 active torsions:
REMARK  status: ('A' for Active; 'I' for Inactive)
ROOT
ATOM      1  C4' PXY d   1       3.009   2.779   1.534  0.00  0.00     0.077 C 
ATOM      2  C1' PXY d   1      -1.144  -0.848  -0.200  0.00  0.00     0.077 C 
ATOM      3  C1  PXY d   1      -0.047   0.093   0.258  0.00  0.00    -0.082 A 
ATOM      4  C2  PXY d   1      -0.356   1.324   0.632  0.00  0.00     0.003 A 
ATOM      5  C3  PXY d   1       0.627   2.198   1.019  0.00  0.00     0.003 A 
ATOM      6  C4  PXY d   1       1.934   1.792   1.073  0.00  0.00    -0.082 A 
ATOM      7  C5  PXY d   1       2.255   0.534   0.703  0.00  0.00     0.003 A 
ATOM      8  C6  PXY d   1       1.248  -0.325   0.275  0.00  0.00     0.003 A 
ENDROOT
TORSDOF 0
ENDMDL
