MODEL 1
REMARK minimizedAffinity 2.62359428
REMARK minimizedRMSD -1
REMARK  0 active torsions:
REMARK  status: ('A' for Active; 'I' for Inactive)
ROOT
ATOM      1  C4' PXY d   1      -1.286  -2.742   2.184  0.00  0.00     0.077 C 
ATOM      2  C1' PXY d   1      -2.241   0.645  -2.402  0.00  0.00     0.077 C 
ATOM      3  C1  PXY d   1      -2.004  -0.243  -1.197  0.00  0.00    -0.082 A 
ATOM      4  C2  PXY d   1      -0.812  -0.261  -0.622  0.00  0.00     0.003 A 
ATOM      5  C3  PXY d   1      -0.571  -1.082   0.450  0.00  0.00     0.003 A 
ATOM      6  C4  PXY d   1      -1.574  -1.854   0.971  0.00  0.00    -0.082 A 
ATOM      7  C5  PXY d   1      -2.796  -1.834   0.396  0.00  0.00     0.003 A 
ATOM      8  C6  PXY d   1      -3.009  -1.024  -0.716  0.00  0.00     0.003 A 
ENDROOT
TORSDOF 0
ENDMDL
