MODEL 1
REMARK minimizedAffinity 9.78009892
REMARK minimizedRMSD -1
REMARK  0 active torsions:
REMARK  status: ('A' for Active; 'I' for Inactive)
ROOT
ATOM      1  C4' PXY d   1      -1.808   1.862  -3.604  0.00  0.00     0.077 C 
ATOM      2  C1' PXY d   1      -1.999  -2.269   0.435  0.00  0.00     0.077 C 
ATOM      3  C1  PXY d   1      -1.962  -1.183  -0.622  0.00  0.00    -0.082 A 
ATOM      4  C2  PXY d   1      -1.015  -1.203  -1.546  0.00  0.00     0.003 A 
ATOM      5  C3  PXY d   1      -0.947  -0.211  -2.491  0.00  0.00     0.003 A 
ATOM      6  C4  PXY d   1      -1.890   0.781  -2.522  0.00  0.00    -0.082 A 
ATOM      7  C5  PXY d   1      -2.866   0.802  -1.589  0.00  0.00     0.003 A 
ATOM      8  C6  PXY d   1      -2.892  -0.191  -0.614  0.00  0.00     0.003 A 
ENDROOT
TORSDOF 0
ENDMDL
