MODEL 1
REMARK minimizedAffinity -1.95810759
REMARK minimizedRMSD -1
REMARK  0 active torsions:
REMARK  status: ('A' for Active; 'I' for Inactive)
ROOT
ATOM      1  C4' PXY d   1       0.397  -2.027   1.818  0.00  0.00     0.077 C 
ATOM      2  C1' PXY d   1      -1.526   1.086  -2.657  0.00  0.00     0.077 C 
ATOM      3  C1  PXY d   1      -1.010   0.275  -1.486  0.00  0.00    -0.082 A 
ATOM      4  C2  PXY d   1      -1.663  -0.811  -1.104  0.00  0.00     0.003 A 
ATOM      5  C3  PXY d   1      -1.228  -1.539  -0.026  0.00  0.00     0.003 A 
ATOM      6  C4  PXY d   1      -0.082  -1.182   0.634  0.00  0.00    -0.082 A 
ATOM      7  C5  PXY d   1       0.596  -0.082   0.243  0.00  0.00     0.003 A 
ATOM      8  C6  PXY d   1       0.115   0.667  -0.827  0.00  0.00     0.003 A 
ENDROOT
TORSDOF 0
ENDMDL
