MODEL 1
REMARK minimizedAffinity -4.55322027
REMARK minimizedRMSD -1
REMARK  0 active torsions:
REMARK  status: ('A' for Active; 'I' for Inactive)
ROOT
ATOM      1  C4' PXY d   1       2.228   1.194   0.765  0.00  0.00     0.077 C 
ATOM      2  C1' PXY d   1      -2.497  -1.323  -1.413  0.00  0.00     0.077 C 
ATOM      3  C1  PXY d   1      -1.259  -0.670  -0.831  0.00  0.00    -0.082 A 
ATOM      4  C2  PXY d   1      -0.893   0.529  -1.253  0.00  0.00     0.003 A 
ATOM      5  C3  PXY d   1       0.242   1.120  -0.760  0.00  0.00     0.003 A 
ATOM      6  C4  PXY d   1       0.980   0.501   0.213  0.00  0.00    -0.082 A 
ATOM      7  C5  PXY d   1       0.606  -0.718   0.656  0.00  0.00     0.003 A 
ATOM      8  C6  PXY d   1      -0.526  -1.320   0.114  0.00  0.00     0.003 A 
ENDROOT
TORSDOF 0
ENDMDL
