MODEL 1
REMARK minimizedAffinity -2.04794431
REMARK minimizedRMSD -1
REMARK  0 active torsions:
REMARK  status: ('A' for Active; 'I' for Inactive)
ROOT
ATOM      1  C4' PXY d   1       2.886   1.307  -0.446  0.00  0.00     0.077 C 
ATOM      2  C1' PXY d   1      -2.162  -1.504  -0.622  0.00  0.00     0.077 C 
ATOM      3  C1  PXY d   1      -0.838  -0.768  -0.563  0.00  0.00    -0.082 A 
ATOM      4  C2  PXY d   1      -0.506   0.060  -1.540  0.00  0.00     0.003 A 
ATOM      5  C3  PXY d   1       0.702   0.709  -1.518  0.00  0.00     0.003 A 
ATOM      6  C4  PXY d   1       1.555   0.550  -0.459  0.00  0.00    -0.082 A 
ATOM      7  C5  PXY d   1       1.218  -0.285   0.547  0.00  0.00     0.003 A 
ATOM      8  C6  PXY d   1       0.006  -0.966   0.486  0.00  0.00     0.003 A 
ENDROOT
TORSDOF 0
ENDMDL
