MODEL 1
REMARK minimizedAffinity -0.116401978
REMARK minimizedRMSD -1
REMARK  0 active torsions:
REMARK  status: ('A' for Active; 'I' for Inactive)
ROOT
ATOM      1  C4' PXY d   1       2.117   0.999   0.044  0.00  0.00     0.077 C 
ATOM      2  C1' PXY d   1      -3.072  -1.472  -0.567  0.00  0.00     0.077 C 
ATOM      3  C1  PXY d   1      -1.712  -0.825  -0.394  0.00  0.00    -0.082 A 
ATOM      4  C2  PXY d   1      -1.227  -0.056  -1.355  0.00  0.00     0.003 A 
ATOM      5  C3  PXY d   1       0.015   0.512  -1.228  0.00  0.00     0.003 A 
ATOM      6  C4  PXY d   1       0.745   0.333  -0.084  0.00  0.00    -0.082 A 
ATOM      7  C5  PXY d   1       0.252  -0.442   0.906  0.00  0.00     0.003 A 
ATOM      8  C6  PXY d   1      -0.993  -1.042   0.740  0.00  0.00     0.003 A 
ENDROOT
TORSDOF 0
ENDMDL
