MODEL 1
REMARK minimizedAffinity -3.75244141
REMARK minimizedRMSD -1
REMARK  0 active torsions:
REMARK  status: ('A' for Active; 'I' for Inactive)
ROOT
ATOM      1  C4' PXY d   1       2.387   1.484  -0.010  0.00  0.00     0.077 C 
ATOM      2  C1' PXY d   1      -2.543  -1.415  -0.843  0.00  0.00     0.077 C 
ATOM      3  C1  PXY d   1      -1.252  -0.655  -0.612  0.00  0.00    -0.082 A 
ATOM      4  C2  PXY d   1      -0.767   0.117  -1.570  0.00  0.00     0.003 A 
ATOM      5  C3  PXY d   1       0.416   0.786  -1.390  0.00  0.00     0.003 A 
ATOM      6  C4  PXY d   1       1.082   0.706  -0.196  0.00  0.00    -0.082 A 
ATOM      7  C5  PXY d   1       0.588  -0.071   0.791  0.00  0.00     0.003 A 
ATOM      8  C6  PXY d   1      -0.593  -0.775   0.573  0.00  0.00     0.003 A 
ENDROOT
TORSDOF 0
ENDMDL
