MODEL 1
REMARK minimizedAffinity -4.03477383
REMARK minimizedRMSD -1
REMARK  0 active torsions:
REMARK  status: ('A' for Active; 'I' for Inactive)
ROOT
ATOM      1  C4' PXY d   1      -1.824  -0.692  -1.351  0.00  0.00     0.077 C 
ATOM      2  C1' PXY d   1       2.264   2.300   1.433  0.00  0.00     0.077 C 
ATOM      3  C1  PXY d   1       1.201   1.510   0.695  0.00  0.00    -0.082 A 
ATOM      4  C2  PXY d   1      -0.054   1.930   0.709  0.00  0.00     0.003 A 
ATOM      5  C3  PXY d   1      -1.033   1.210   0.074  0.00  0.00     0.003 A 
ATOM      6  C4  PXY d   1      -0.716   0.078  -0.628  0.00  0.00    -0.082 A 
ATOM      7  C5  PXY d   1       0.564  -0.350  -0.656  0.00  0.00     0.003 A 
ATOM      8  C6  PXY d   1       1.536   0.372   0.029  0.00  0.00     0.003 A 
ENDROOT
TORSDOF 0
ENDMDL
