MODEL 1
REMARK minimizedAffinity -0.911034942
REMARK minimizedRMSD -1
REMARK  0 active torsions:
REMARK  status: ('A' for Active; 'I' for Inactive)
ROOT
ATOM      1  C4' PXY d   1       2.304   1.681   0.591  0.00  0.00     0.077 C 
ATOM      2  C1' PXY d   1      -2.399  -1.127  -1.257  0.00  0.00     0.077 C 
ATOM      3  C1  PXY d   1      -1.166  -0.397  -0.761  0.00  0.00    -0.082 A 
ATOM      4  C2  PXY d   1      -0.814   0.748  -1.323  0.00  0.00     0.003 A 
ATOM      5  C3  PXY d   1       0.315   1.406  -0.908  0.00  0.00     0.003 A 
ATOM      6  C4  PXY d   1       1.062   0.914   0.128  0.00  0.00    -0.082 A 
ATOM      7  C5  PXY d   1       0.703  -0.248   0.714  0.00  0.00     0.003 A 
ATOM      8  C6  PXY d   1      -0.423  -0.922   0.251  0.00  0.00     0.003 A 
ENDROOT
TORSDOF 0
ENDMDL
