MODEL 1
REMARK minimizedAffinity -5.47237587
REMARK minimizedRMSD -1
REMARK  1 active torsions:
REMARK  status: ('A' for Active; 'I' for Inactive)
REMARK    1  A    between atoms: C1_2  and  C2_3 
ROOT
ATOM      1  C2  UNL d   1       0.227  -0.313   0.172  0.00  0.00    -0.073 A 
ATOM      2  C3  UNL d   1      -1.109  -0.013  -0.115  0.00  0.00    -0.002 A 
ATOM      3  C4  UNL d   1      -1.921   0.584   0.851  0.00  0.00     0.004 A 
ATOM      4  C5  UNL d   1      -1.404   0.894   2.108  0.00  0.00    -0.004 A 
ATOM      5  C6  UNL d   1      -0.067   0.613   2.410  0.00  0.00    -0.075 A 
ATOM      6  C7  UNL d   1       0.504   0.937   3.759  0.00  0.00     0.076 C 
ATOM      7  C8  UNL d   1       0.740   0.010   1.437  0.00  0.00     0.001 A 
ENDROOT
BRANCH   1   8
ATOM      8  C1  UNL d   1       1.109  -0.952  -0.869  0.00  0.00     0.053 C 
ATOM      9  C   UNL d   1       0.715  -0.543  -2.279  0.00  0.00     0.018 C 
ENDBRANCH   1   8
TORSDOF 1
ENDMDL
