MODEL 1
REMARK minimizedAffinity -6.07879782
REMARK minimizedRMSD -1
REMARK  1 active torsions:
REMARK  status: ('A' for Active; 'I' for Inactive)
REMARK    1  A    between atoms: C1_2  and  C2_3 
ROOT
ATOM      1  C2  UNL d   1       0.578   0.110   2.441  0.00  0.00    -0.073 A 
ATOM      2  C3  UNL d   1      -0.726   0.581   2.631  0.00  0.00    -0.002 A 
ATOM      3  C4  UNL d   1      -1.580   0.751   1.540  0.00  0.00     0.004 A 
ATOM      4  C5  UNL d   1      -1.141   0.446   0.251  0.00  0.00    -0.004 A 
ATOM      5  C6  UNL d   1       0.154  -0.037   0.043  0.00  0.00    -0.075 A 
ATOM      6  C7  UNL d   1       0.642  -0.368  -1.337  0.00  0.00     0.076 C 
ATOM      7  C8  UNL d   1       1.006  -0.203   1.143  0.00  0.00     0.001 A 
ENDROOT
BRANCH   1   8
ATOM      8  C1  UNL d   1       1.501  -0.081   3.617  0.00  0.00     0.053 C 
ATOM      9  C   UNL d   1       1.184  -1.352   4.389  0.00  0.00     0.018 C 
ENDBRANCH   1   8
TORSDOF 1
ENDMDL
