MODEL 1
REMARK minimizedAffinity 7.31193352
REMARK minimizedRMSD -1
REMARK  0 active torsions:
REMARK  status: ('A' for Active; 'I' for Inactive)
ROOT
ATOM      1  C   UNL d   1       1.875  -6.000  -1.511  0.00  0.00     0.077 C 
ATOM      2  C1  UNL d   1       2.288  -4.720  -0.848  0.00  0.00    -0.074 A 
ATOM      3  C2  UNL d   1       1.344  -3.737  -0.531  0.00  0.00    -0.005 A 
ATOM      4  C3  UNL d   1       1.742  -2.556   0.094  0.00  0.00     0.006 A 
ATOM      5  C4  UNL d   1       3.085  -2.344   0.408  0.00  0.00    -0.005 A 
ATOM      6  C5  UNL d   1       4.043  -3.316   0.100  0.00  0.00    -0.074 A 
ATOM      7  C6  UNL d   1       5.489  -3.109   0.439  0.00  0.00     0.077 C 
ATOM      8  C7  UNL d   1       3.634  -4.503  -0.522  0.00  0.00    -0.001 A 
ENDROOT
TORSDOF 0
ENDMDL
