MODEL 1
REMARK minimizedAffinity 9.67042828
REMARK minimizedRMSD -1
REMARK  0 active torsions:
REMARK  status: ('A' for Active; 'I' for Inactive)
ROOT
ATOM      1  C   UNL d   1      -0.479   3.624  -0.786  0.00  0.00     0.077 C 
ATOM      2  C1  UNL d   1      -0.919   2.871   0.435  0.00  0.00    -0.074 A 
ATOM      3  C2  UNL d   1      -2.263   2.856   0.824  0.00  0.00    -0.005 A 
ATOM      4  C3  UNL d   1      -2.659   2.144   1.956  0.00  0.00     0.006 A 
ATOM      5  C4  UNL d   1      -1.717   1.441   2.709  0.00  0.00    -0.005 A 
ATOM      6  C5  UNL d   1      -0.370   1.444   2.335  0.00  0.00    -0.074 A 
ATOM      7  C6  UNL d   1       0.653   0.686   3.127  0.00  0.00     0.077 C 
ATOM      8  C7  UNL d   1       0.019   2.156   1.192  0.00  0.00    -0.001 A 
ENDROOT
TORSDOF 0
ENDMDL
