MODEL 1
REMARK minimizedAffinity 11.2610331
REMARK minimizedRMSD -1
REMARK  0 active torsions:
REMARK  status: ('A' for Active; 'I' for Inactive)
ROOT
ATOM      1  C   UNL d   1       0.107   0.137  -2.071  0.00  0.00     0.077 C 
ATOM      2  C1  UNL d   1       0.035   0.827  -0.741  0.00  0.00    -0.074 A 
ATOM      3  C2  UNL d   1      -0.951   1.785  -0.481  0.00  0.00    -0.005 A 
ATOM      4  C3  UNL d   1      -1.011   2.412   0.764  0.00  0.00     0.006 A 
ATOM      5  C4  UNL d   1      -0.088   2.088   1.759  0.00  0.00    -0.005 A 
ATOM      6  C5  UNL d   1       0.904   1.133   1.517  0.00  0.00    -0.074 A 
ATOM      7  C6  UNL d   1       1.898   0.766   2.579  0.00  0.00     0.077 C 
ATOM      8  C7  UNL d   1       0.954   0.502   0.266  0.00  0.00    -0.001 A 
ENDROOT
TORSDOF 0
ENDMDL
