MODEL 1
REMARK minimizedAffinity 4.65241432
REMARK minimizedRMSD -1
REMARK  0 active torsions:
REMARK  status: ('A' for Active; 'I' for Inactive)
ROOT
ATOM      1  C   UNL d   1       5.851  -2.241   1.167  0.00  0.00     0.077 C 
ATOM      2  C1  UNL d   1       4.487  -2.206   0.544  0.00  0.00    -0.074 A 
ATOM      3  C2  UNL d   1       3.921  -1.000   0.119  0.00  0.00    -0.005 A 
ATOM      4  C3  UNL d   1       2.655  -0.985  -0.467  0.00  0.00     0.006 A 
ATOM      5  C4  UNL d   1       1.944  -2.174  -0.633  0.00  0.00    -0.005 A 
ATOM      6  C5  UNL d   1       2.494  -3.390  -0.215  0.00  0.00    -0.074 A 
ATOM      7  C6  UNL d   1       1.747  -4.678  -0.395  0.00  0.00     0.077 C 
ATOM      8  C7  UNL d   1       3.770  -3.398   0.366  0.00  0.00    -0.001 A 
ENDROOT
TORSDOF 0
ENDMDL
