MODEL 1
REMARK minimizedAffinity 3.60029149
REMARK minimizedRMSD -1
REMARK  0 active torsions:
REMARK  status: ('A' for Active; 'I' for Inactive)
ROOT
ATOM      1  C   UNL d   1       0.388   2.902   3.606  0.00  0.00     0.077 C 
ATOM      2  C1  UNL d   1      -0.324   2.910   2.286  0.00  0.00    -0.074 A 
ATOM      3  C2  UNL d   1      -1.662   2.516   2.189  0.00  0.00    -0.005 A 
ATOM      4  C3  UNL d   1      -2.314   2.539   0.956  0.00  0.00     0.006 A 
ATOM      5  C4  UNL d   1      -1.636   2.955  -0.190  0.00  0.00    -0.005 A 
ATOM      6  C5  UNL d   1      -0.298   3.353  -0.112  0.00  0.00    -0.074 A 
ATOM      7  C6  UNL d   1       0.444   3.812  -1.333  0.00  0.00     0.077 C 
ATOM      8  C7  UNL d   1       0.349   3.334   1.131  0.00  0.00    -0.001 A 
ENDROOT
TORSDOF 0
ENDMDL
