MODEL 1
REMARK minimizedAffinity 7.69621658
REMARK minimizedRMSD -1
REMARK  0 active torsions:
REMARK  status: ('A' for Active; 'I' for Inactive)
ROOT
ATOM      1  C   UNL d   1      -0.668   4.059   0.029  0.00  0.00     0.077 C 
ATOM      2  C1  UNL d   1      -0.552   2.766   0.780  0.00  0.00    -0.074 A 
ATOM      3  C2  UNL d   1      -1.583   2.326   1.616  0.00  0.00    -0.005 A 
ATOM      4  C3  UNL d   1      -1.464   1.116   2.301  0.00  0.00     0.006 A 
ATOM      5  C4  UNL d   1      -0.317   0.336   2.156  0.00  0.00    -0.005 A 
ATOM      6  C5  UNL d   1       0.724   0.759   1.323  0.00  0.00    -0.074 A 
ATOM      7  C6  UNL d   1       1.960  -0.072   1.148  0.00  0.00     0.077 C 
ATOM      8  C7  UNL d   1       0.595   1.973   0.633  0.00  0.00    -0.001 A 
ENDROOT
TORSDOF 0
ENDMDL
