MODEL 1
REMARK minimizedAffinity 1.49448967
REMARK minimizedRMSD -1
REMARK  0 active torsions:
REMARK  status: ('A' for Active; 'I' for Inactive)
ROOT
ATOM      1  C   UNL d   1       0.195   3.201  -0.939  0.00  0.00     0.077 C 
ATOM      2  C1  UNL d   1      -0.914   2.828  -0.000  0.00  0.00    -0.074 A 
ATOM      3  C2  UNL d   1      -2.199   3.354  -0.162  0.00  0.00    -0.005 A 
ATOM      4  C3  UNL d   1      -3.223   2.990   0.714  0.00  0.00     0.006 A 
ATOM      5  C4  UNL d   1      -2.971   2.098   1.757  0.00  0.00    -0.005 A 
ATOM      6  C5  UNL d   1      -1.692   1.562   1.933  0.00  0.00    -0.074 A 
ATOM      7  C6  UNL d   1      -1.407   0.594   3.044  0.00  0.00     0.077 C 
ATOM      8  C7  UNL d   1      -0.671   1.927   1.046  0.00  0.00    -0.001 A 
ENDROOT
TORSDOF 0
ENDMDL
