MODEL 1
REMARK minimizedAffinity 3.84298825
REMARK minimizedRMSD -1
REMARK  0 active torsions:
REMARK  status: ('A' for Active; 'I' for Inactive)
ROOT
ATOM      1  C   UNL d   1      -1.330   2.429   2.203  0.00  0.00     0.077 C 
ATOM      2  C1  UNL d   1      -0.677   2.694   0.879  0.00  0.00    -0.074 A 
ATOM      3  C2  UNL d   1      -0.375   3.998   0.476  0.00  0.00    -0.005 A 
ATOM      4  C3  UNL d   1       0.241   4.229  -0.754  0.00  0.00     0.006 A 
ATOM      5  C4  UNL d   1       0.561   3.159  -1.592  0.00  0.00    -0.005 A 
ATOM      6  C5  UNL d   1       0.266   1.848  -1.204  0.00  0.00    -0.074 A 
ATOM      7  C6  UNL d   1       0.612   0.686  -2.088  0.00  0.00     0.077 C 
ATOM      8  C7  UNL d   1      -0.346   1.624   0.036  0.00  0.00    -0.001 A 
ENDROOT
TORSDOF 0
ENDMDL
