MODEL 1
REMARK minimizedAffinity 1.87796116
REMARK minimizedRMSD -1
REMARK  0 active torsions:
REMARK  status: ('A' for Active; 'I' for Inactive)
ROOT
ATOM      1  C   UNL d   1      -2.869   0.388   2.520  0.00  0.00     0.077 C 
ATOM      2  C1  UNL d   1      -2.675   1.697   1.813  0.00  0.00    -0.074 A 
ATOM      3  C2  UNL d   1      -3.513   2.786   2.073  0.00  0.00    -0.005 A 
ATOM      4  C3  UNL d   1      -3.314   3.999   1.415  0.00  0.00     0.006 A 
ATOM      5  C4  UNL d   1      -2.277   4.136   0.492  0.00  0.00    -0.005 A 
ATOM      6  C5  UNL d   1      -1.428   3.059   0.219  0.00  0.00    -0.074 A 
ATOM      7  C6  UNL d   1      -0.303   3.192  -0.763  0.00  0.00     0.077 C 
ATOM      8  C7  UNL d   1      -1.630   1.845   0.890  0.00  0.00    -0.001 A 
ENDROOT
TORSDOF 0
ENDMDL
