MODEL 1
REMARK minimizedAffinity 10.8354034
REMARK minimizedRMSD -1
REMARK  0 active torsions:
REMARK  status: ('A' for Active; 'I' for Inactive)
ROOT
ATOM      1  C   UNL d   1      -0.159   3.151  -1.185  0.00  0.00     0.077 C 
ATOM      2  C1  UNL d   1      -0.485   1.788  -1.719  0.00  0.00    -0.074 A 
ATOM      3  C2  UNL d   1       0.481   1.026  -2.383  0.00  0.00    -0.005 A 
ATOM      4  C3  UNL d   1       0.165  -0.244  -2.865  0.00  0.00     0.006 A 
ATOM      5  C4  UNL d   1      -1.118  -0.764  -2.689  0.00  0.00    -0.005 A 
ATOM      6  C5  UNL d   1      -2.097  -0.017  -2.027  0.00  0.00    -0.074 A 
ATOM      7  C6  UNL d   1      -3.478  -0.565  -1.820  0.00  0.00     0.077 C 
ATOM      8  C7  UNL d   1      -1.770   1.256  -1.539  0.00  0.00    -0.001 A 
ENDROOT
TORSDOF 0
ENDMDL
