MODEL 1
REMARK minimizedAffinity 4.99338341
REMARK minimizedRMSD -1
REMARK  0 active torsions:
REMARK  status: ('A' for Active; 'I' for Inactive)
ROOT
ATOM      1  C   UNL d   1      -1.016   2.188   2.336  0.00  0.00     0.077 C 
ATOM      2  C1  UNL d   1      -0.630   2.303   0.891  0.00  0.00    -0.074 A 
ATOM      3  C2  UNL d   1      -0.420   3.553   0.301  0.00  0.00    -0.005 A 
ATOM      4  C3  UNL d   1      -0.052   3.644  -1.042  0.00  0.00     0.006 A 
ATOM      5  C4  UNL d   1       0.109   2.488  -1.806  0.00  0.00    -0.005 A 
ATOM      6  C5  UNL d   1      -0.096   1.229  -1.233  0.00  0.00    -0.074 A 
ATOM      7  C6  UNL d   1       0.083  -0.024  -2.037  0.00  0.00     0.077 C 
ATOM      8  C7  UNL d   1      -0.458   1.145   0.119  0.00  0.00    -0.001 A 
ENDROOT
TORSDOF 0
ENDMDL
