MODEL 1
REMARK minimizedAffinity 6.35339737
REMARK minimizedRMSD -1
REMARK  0 active torsions:
REMARK  status: ('A' for Active; 'I' for Inactive)
ROOT
ATOM      1  C   UNL d   1       0.566  -0.437  -1.887  0.00  0.00     0.077 C 
ATOM      2  C1  UNL d   1       0.303   0.979  -1.470  0.00  0.00    -0.074 A 
ATOM      3  C2  UNL d   1       0.645   2.050  -2.303  0.00  0.00    -0.005 A 
ATOM      4  C3  UNL d   1       0.386   3.361  -1.905  0.00  0.00     0.006 A 
ATOM      5  C4  UNL d   1      -0.216   3.615  -0.672  0.00  0.00    -0.005 A 
ATOM      6  C5  UNL d   1      -0.566   2.558   0.174  0.00  0.00    -0.074 A 
ATOM      7  C6  UNL d   1      -1.222   2.813   1.498  0.00  0.00     0.077 C 
ATOM      8  C7  UNL d   1      -0.309   1.242  -0.236  0.00  0.00    -0.001 A 
ENDROOT
TORSDOF 0
ENDMDL
