MODEL 1
REMARK minimizedAffinity 7.1881752
REMARK minimizedRMSD -1
REMARK  0 active torsions:
REMARK  status: ('A' for Active; 'I' for Inactive)
ROOT
ATOM      1  C   UNL d   1       0.013   3.335  -1.869  0.00  0.00     0.077 C 
ATOM      2  C1  UNL d   1      -0.426   1.901  -1.923  0.00  0.00    -0.074 A 
ATOM      3  C2  UNL d   1       0.512   0.863  -1.944  0.00  0.00    -0.005 A 
ATOM      4  C3  UNL d   1       0.089  -0.465  -1.984  0.00  0.00     0.006 A 
ATOM      5  C4  UNL d   1      -1.273  -0.769  -2.004  0.00  0.00    -0.005 A 
ATOM      6  C5  UNL d   1      -2.224   0.255  -1.983  0.00  0.00    -0.074 A 
ATOM      7  C6  UNL d   1      -3.692  -0.054  -1.994  0.00  0.00     0.077 C 
ATOM      8  C7  UNL d   1      -1.792   1.588  -1.935  0.00  0.00    -0.001 A 
ENDROOT
TORSDOF 0
ENDMDL
