MODEL 1
REMARK minimizedAffinity 9.78399563
REMARK minimizedRMSD -1
REMARK  0 active torsions:
REMARK  status: ('A' for Active; 'I' for Inactive)
ROOT
ATOM      1  C   UNL d   1      -3.036  -0.374  -1.853  0.00  0.00     0.077 C 
ATOM      2  C1  UNL d   1      -1.663   0.210  -2.004  0.00  0.00    -0.074 A 
ATOM      3  C2  UNL d   1      -0.573  -0.596  -2.349  0.00  0.00    -0.005 A 
ATOM      4  C3  UNL d   1       0.696  -0.037  -2.496  0.00  0.00     0.006 A 
ATOM      5  C4  UNL d   1       0.889   1.331  -2.300  0.00  0.00    -0.005 A 
ATOM      6  C5  UNL d   1      -0.189   2.153  -1.955  0.00  0.00    -0.074 A 
ATOM      7  C6  UNL d   1      -0.002   3.627  -1.751  0.00  0.00     0.077 C 
ATOM      8  C7  UNL d   1      -1.463   1.585  -1.817  0.00  0.00    -0.001 A 
ENDROOT
TORSDOF 0
ENDMDL
