MODEL 1
REMARK minimizedAffinity 10.3688297
REMARK minimizedRMSD -1
REMARK  0 active torsions:
REMARK  status: ('A' for Active; 'I' for Inactive)
ROOT
ATOM      1  C   UNL d   1       4.125  -5.870   1.341  0.00  0.00     0.077 C 
ATOM      2  C1  UNL d   1       4.369  -4.403   1.147  0.00  0.00    -0.074 A 
ATOM      3  C2  UNL d   1       5.644  -3.921   0.836  0.00  0.00    -0.005 A 
ATOM      4  C3  UNL d   1       5.853  -2.554   0.650  0.00  0.00     0.006 A 
ATOM      5  C4  UNL d   1       4.791  -1.658   0.772  0.00  0.00    -0.005 A 
ATOM      6  C5  UNL d   1       3.509  -2.121   1.081  0.00  0.00    -0.074 A 
ATOM      7  C6  UNL d   1       2.354  -1.172   1.206  0.00  0.00     0.077 C 
ATOM      8  C7  UNL d   1       3.305  -3.496   1.261  0.00  0.00    -0.001 A 
ENDROOT
TORSDOF 0
ENDMDL
