MODEL 1
REMARK minimizedAffinity -4.75798368
REMARK minimizedRMSD -1
REMARK  0 active torsions:
REMARK  status: ('A' for Active; 'I' for Inactive)
ROOT
ATOM      1  C   UNL d   1      -1.967   1.121   2.650  0.00  0.00     0.077 C 
ATOM      2  C1  UNL d   1      -0.728   0.499   2.079  0.00  0.00    -0.074 A 
ATOM      3  C2  UNL d   1       0.411   0.311   2.868  0.00  0.00    -0.005 A 
ATOM      4  C3  UNL d   1       1.553  -0.278   2.326  0.00  0.00     0.006 A 
ATOM      5  C4  UNL d   1       1.568  -0.685   0.991  0.00  0.00    -0.005 A 
ATOM      6  C5  UNL d   1       0.438  -0.505   0.187  0.00  0.00    -0.074 A 
ATOM      7  C6  UNL d   1       0.434  -0.945  -1.247  0.00  0.00     0.077 C 
ATOM      8  C7  UNL d   1      -0.708   0.081   0.741  0.00  0.00    -0.001 A 
ENDROOT
TORSDOF 0
ENDMDL
