MODEL 1
REMARK minimizedAffinity -5.51807165
REMARK minimizedRMSD -1
REMARK  0 active torsions:
REMARK  status: ('A' for Active; 'I' for Inactive)
ROOT
ATOM      1  C   UNL d   1      -1.105   1.449   3.017  0.00  0.00     0.077 C 
ATOM      2  C1  UNL d   1      -0.007   0.722   2.299  0.00  0.00    -0.074 A 
ATOM      3  C2  UNL d   1       1.098   0.222   2.995  0.00  0.00    -0.005 A 
ATOM      4  C3  UNL d   1       2.107  -0.460   2.315  0.00  0.00     0.006 A 
ATOM      5  C4  UNL d   1       2.021  -0.649   0.935  0.00  0.00    -0.005 A 
ATOM      6  C5  UNL d   1       0.923  -0.156   0.223  0.00  0.00    -0.074 A 
ATOM      7  C6  UNL d   1       0.810  -0.359  -1.259  0.00  0.00     0.077 C 
ATOM      8  C7  UNL d   1      -0.090   0.522   0.914  0.00  0.00    -0.001 A 
ENDROOT
TORSDOF 0
ENDMDL
