MODEL 1
REMARK minimizedAffinity -6.18678236
REMARK minimizedRMSD -1
REMARK  0 active torsions:
REMARK  status: ('A' for Active; 'I' for Inactive)
ROOT
ATOM      1  C   UNL d   1       2.395  -0.322   2.314  0.00  0.00     0.077 C 
ATOM      2  C1  UNL d   1       0.994   0.183   2.141  0.00  0.00    -0.074 A 
ATOM      3  C2  UNL d   1       0.369   0.930   3.145  0.00  0.00    -0.005 A 
ATOM      4  C3  UNL d   1      -0.931   1.401   2.965  0.00  0.00     0.006 A 
ATOM      5  C4  UNL d   1      -1.619   1.132   1.782  0.00  0.00    -0.005 A 
ATOM      6  C5  UNL d   1      -1.011   0.388   0.766  0.00  0.00    -0.074 A 
ATOM      7  C6  UNL d   1      -1.732   0.098  -0.517  0.00  0.00     0.077 C 
ATOM      8  C7  UNL d   1       0.299  -0.077   0.951  0.00  0.00    -0.001 A 
ENDROOT
TORSDOF 0
ENDMDL
