MODEL 1
REMARK minimizedAffinity -3.42303634
REMARK minimizedRMSD -1
REMARK  0 active torsions:
REMARK  status: ('A' for Active; 'I' for Inactive)
ROOT
ATOM      1  C   UNL d   1      -2.670  -0.742   3.406  0.00  0.00     0.077 C 
ATOM      2  C1  UNL d   1      -1.553  -0.016   2.717  0.00  0.00    -0.074 A 
ATOM      3  C2  UNL d   1      -0.780   0.929   3.399  0.00  0.00    -0.005 A 
ATOM      4  C3  UNL d   1       0.261   1.589   2.747  0.00  0.00     0.006 A 
ATOM      5  C4  UNL d   1       0.540   1.312   1.409  0.00  0.00    -0.005 A 
ATOM      6  C5  UNL d   1      -0.221   0.369   0.710  0.00  0.00    -0.074 A 
ATOM      7  C6  UNL d   1       0.072   0.052  -0.726  0.00  0.00     0.077 C 
ATOM      8  C7  UNL d   1      -1.261  -0.295   1.374  0.00  0.00    -0.001 A 
ENDROOT
TORSDOF 0
ENDMDL
