MODEL 1
REMARK minimizedAffinity -4.63183451
REMARK minimizedRMSD -1
REMARK  0 active torsions:
REMARK  status: ('A' for Active; 'I' for Inactive)
ROOT
ATOM      1  C   UNL d   1      -0.916   1.846   3.596  0.00  0.00     0.077 C 
ATOM      2  C1  UNL d   1       0.041   1.026   2.782  0.00  0.00    -0.074 A 
ATOM      3  C2  UNL d   1       1.256   0.592   3.321  0.00  0.00    -0.005 A 
ATOM      4  C3  UNL d   1       2.131  -0.177   2.555  0.00  0.00     0.006 A 
ATOM      5  C4  UNL d   1       1.801  -0.519   1.243  0.00  0.00    -0.005 A 
ATOM      6  C5  UNL d   1       0.590  -0.095   0.687  0.00  0.00    -0.074 A 
ATOM      7  C6  UNL d   1       0.216  -0.462  -0.719  0.00  0.00     0.077 C 
ATOM      8  C7  UNL d   1      -0.287   0.672   1.466  0.00  0.00    -0.001 A 
ENDROOT
TORSDOF 0
ENDMDL
