MODEL 1
REMARK minimizedAffinity -5.2863121
REMARK minimizedRMSD -1
REMARK  0 active torsions:
REMARK  status: ('A' for Active; 'I' for Inactive)
ROOT
ATOM      1  C   UNL d   1       1.851  -0.032   3.304  0.00  0.00     0.077 C 
ATOM      2  C1  UNL d   1       0.728   0.264   2.355  0.00  0.00    -0.074 A 
ATOM      3  C2  UNL d   1      -0.449   0.873   2.803  0.00  0.00    -0.005 A 
ATOM      4  C3  UNL d   1      -1.482   1.151   1.907  0.00  0.00     0.006 A 
ATOM      5  C4  UNL d   1      -1.348   0.823   0.557  0.00  0.00    -0.005 A 
ATOM      6  C5  UNL d   1      -0.178   0.215   0.091  0.00  0.00    -0.074 A 
ATOM      7  C6  UNL d   1      -0.014  -0.134  -1.358  0.00  0.00     0.077 C 
ATOM      8  C7  UNL d   1       0.858  -0.055   0.996  0.00  0.00    -0.001 A 
ENDROOT
TORSDOF 0
ENDMDL
