MODEL 1
REMARK minimizedAffinity -1.15357554
REMARK minimizedRMSD -1
REMARK  0 active torsions:
REMARK  status: ('A' for Active; 'I' for Inactive)
ROOT
ATOM      1  C   UNL d   1       2.452  -0.851   1.120  0.00  0.00     0.077 C 
ATOM      2  C1  UNL d   1       1.081  -0.701   0.530  0.00  0.00    -0.074 A 
ATOM      3  C2  UNL d   1       0.797  -1.171  -0.756  0.00  0.00    -0.005 A 
ATOM      4  C3  UNL d   1      -0.486  -1.032  -1.287  0.00  0.00     0.006 A 
ATOM      5  C4  UNL d   1      -1.494  -0.423  -0.540  0.00  0.00    -0.005 A 
ATOM      6  C5  UNL d   1      -1.228   0.052   0.748  0.00  0.00    -0.074 A 
ATOM      7  C6  UNL d   1      -2.303   0.700   1.569  0.00  0.00     0.077 C 
ATOM      8  C7  UNL d   1       0.061  -0.097   1.278  0.00  0.00    -0.001 A 
ENDROOT
TORSDOF 0
ENDMDL
