MODEL 1
REMARK minimizedAffinity -5.40871382
REMARK minimizedRMSD -1
REMARK  0 active torsions:
REMARK  status: ('A' for Active; 'I' for Inactive)
ROOT
ATOM      1  C   UNL d   1      -0.070  -0.232  -1.558  0.00  0.00     0.077 C 
ATOM      2  C1  UNL d   1      -0.397  -0.007  -0.112  0.00  0.00    -0.074 A 
ATOM      3  C2  UNL d   1      -1.718   0.189   0.305  0.00  0.00    -0.005 A 
ATOM      4  C3  UNL d   1      -2.008   0.386   1.654  0.00  0.00     0.006 A 
ATOM      5  C4  UNL d   1      -0.982   0.390   2.600  0.00  0.00    -0.005 A 
ATOM      6  C5  UNL d   1       0.344   0.195   2.203  0.00  0.00    -0.074 A 
ATOM      7  C6  UNL d   1       1.458   0.187   3.208  0.00  0.00     0.077 C 
ATOM      8  C7  UNL d   1       0.627  -0.010   0.846  0.00  0.00    -0.001 A 
ENDROOT
TORSDOF 0
ENDMDL
