MODEL 1
REMARK minimizedAffinity -2.96783638
REMARK minimizedRMSD -1
REMARK  2 active torsions:
REMARK  status: ('A' for Active; 'I' for Inactive)
REMARK    1  A    between atoms: C2'_3  and  C1'_4 
REMARK    2  A    between atoms: C1'_4  and  C1_5 
ROOT
ATOM      1  C1  I4B d   1      -1.388  -5.924  -2.860  0.00  0.00    -0.075 A 
ATOM      2  C2  I4B d   1      -1.523  -5.768  -1.503  0.00  0.00     0.003 A 
ATOM      3  C3  I4B d   1      -2.810  -5.662  -0.922  0.00  0.00     0.002 A 
ATOM      4  C4  I4B d   1      -3.925  -5.667  -1.735  0.00  0.00    -0.004 A 
ATOM      5  C5  I4B d   1      -3.787  -5.849  -3.108  0.00  0.00     0.002 A 
ATOM      6  C6  I4B d   1      -2.512  -5.991  -3.673  0.00  0.00     0.003 A 
ENDROOT
BRANCH   1   7
ATOM      7  C1' I4B d   1      -0.013  -5.999  -3.444  0.00  0.00     0.060 C 
BRANCH   7   8
ATOM      8  C2' I4B d   1      -0.034  -5.286  -4.781  0.00  0.00    -0.013 C 
ATOM      9  C4' I4B d   1       1.339  -5.247  -5.399  0.00  0.00     0.013 C 
ATOM     10  C3' I4B d   1      -1.009  -5.997  -5.670  0.00  0.00     0.013 C 
ENDBRANCH   7   8
ENDBRANCH   1   7
TORSDOF 2
ENDMDL
