MODEL 1
REMARK minimizedAffinity -4.48549271
REMARK minimizedRMSD -1
REMARK  2 active torsions:
REMARK  status: ('A' for Active; 'I' for Inactive)
REMARK    1  A    between atoms: C2'_3  and  C1'_4 
REMARK    2  A    between atoms: C1'_4  and  C1_5 
ROOT
ATOM      1  C1  I4B d   1      -2.347  -5.707  -2.456  0.00  0.00    -0.075 A 
ATOM      2  C2  I4B d   1      -2.738  -5.993  -3.740  0.00  0.00     0.003 A 
ATOM      3  C3  I4B d   1      -1.835  -5.816  -4.816  0.00  0.00     0.002 A 
ATOM      4  C4  I4B d   1      -0.577  -5.305  -4.571  0.00  0.00    -0.004 A 
ATOM      5  C5  I4B d   1      -0.175  -5.037  -3.266  0.00  0.00     0.002 A 
ATOM      6  C6  I4B d   1      -1.061  -5.250  -2.200  0.00  0.00     0.003 A 
ENDROOT
BRANCH   1   7
ATOM      7  C1' I4B d   1      -3.337  -5.874  -1.347  0.00  0.00     0.060 C 
BRANCH   7   8
ATOM      8  C2' I4B d   1      -2.704  -5.352  -0.073  0.00  0.00    -0.013 C 
ATOM      9  C4' I4B d   1      -2.794  -3.851   0.005  0.00  0.00     0.013 C 
ATOM     10  C3' I4B d   1      -3.399  -5.998   1.088  0.00  0.00     0.013 C 
ENDBRANCH   7   8
ENDBRANCH   1   7
TORSDOF 2
ENDMDL
