MODEL 1
REMARK minimizedAffinity -2.34378338
REMARK minimizedRMSD -1
REMARK  2 active torsions:
REMARK  status: ('A' for Active; 'I' for Inactive)
REMARK    1  A    between atoms: C2'_3  and  C1'_4 
REMARK    2  A    between atoms: C1'_4  and  C1_5 
ROOT
ATOM      1  C1  I4B d   1       1.576  -2.573   3.060  0.00  0.00    -0.075 A 
ATOM      2  C2  I4B d   1       2.156  -3.758   2.680  0.00  0.00     0.003 A 
ATOM      3  C3  I4B d   1       2.001  -4.916   3.480  0.00  0.00     0.002 A 
ATOM      4  C4  I4B d   1       1.306  -4.833   4.669  0.00  0.00    -0.004 A 
ATOM      5  C5  I4B d   1       0.699  -3.637   5.041  0.00  0.00     0.002 A 
ATOM      6  C6  I4B d   1       0.824  -2.502   4.226  0.00  0.00     0.003 A 
ENDROOT
BRANCH   1   7
ATOM      7  C1' I4B d   1       1.787  -1.361   2.208  0.00  0.00     0.060 C 
BRANCH   7   8
ATOM      8  C2' I4B d   1       0.543  -1.160   1.366  0.00  0.00    -0.013 C 
ATOM      9  C4' I4B d   1       0.630   0.109   0.561  0.00  0.00     0.013 C 
ATOM     10  C3' I4B d   1       0.389  -2.357   0.476  0.00  0.00     0.013 C 
ENDBRANCH   7   8
ENDBRANCH   1   7
TORSDOF 2
ENDMDL
