MODEL 1
REMARK minimizedAffinity -3.67625427
REMARK minimizedRMSD -1
REMARK  2 active torsions:
REMARK  status: ('A' for Active; 'I' for Inactive)
REMARK    1  A    between atoms: C2'_3  and  C1'_4 
REMARK    2  A    between atoms: C1'_4  and  C1_5 
ROOT
ATOM      1  C1  I4B d   1      -2.955  -5.902  -1.741  0.00  0.00    -0.075 A 
ATOM      2  C2  I4B d   1      -1.596  -5.736  -1.639  0.00  0.00     0.003 A 
ATOM      3  C3  I4B d   1      -0.796  -5.674  -2.805  0.00  0.00     0.002 A 
ATOM      4  C4  I4B d   1      -1.385  -5.832  -4.043  0.00  0.00    -0.004 A 
ATOM      5  C5  I4B d   1      -2.765  -5.977  -4.146  0.00  0.00     0.002 A 
ATOM      6  C6  I4B d   1      -3.557  -6.000  -2.989  0.00  0.00     0.003 A 
ENDROOT
BRANCH   1   7
ATOM      7  C1' I4B d   1      -3.766  -5.996  -0.488  0.00  0.00     0.060 C 
BRANCH   7   8
ATOM      8  C2' I4B d   1      -2.994  -5.310   0.621  0.00  0.00    -0.013 C 
ATOM      9  C4' I4B d   1      -3.321  -3.842   0.685  0.00  0.00     0.013 C 
ATOM     10  C3' I4B d   1      -3.329  -5.997   1.911  0.00  0.00     0.013 C 
ENDBRANCH   7   8
ENDBRANCH   1   7
TORSDOF 2
ENDMDL
