MODEL 1
REMARK minimizedAffinity -4.27075291
REMARK minimizedRMSD -1
REMARK  2 active torsions:
REMARK  status: ('A' for Active; 'I' for Inactive)
REMARK    1  A    between atoms: C2'_3  and  C1'_4 
REMARK    2  A    between atoms: C1'_4  and  C1_5 
ROOT
ATOM      1  C1  I4B d   1       1.811  -3.005   4.270  0.00  0.00    -0.075 A 
ATOM      2  C2  I4B d   1       2.597  -1.973   3.822  0.00  0.00     0.003 A 
ATOM      3  C3  I4B d   1       2.262  -1.289   2.628  0.00  0.00     0.002 A 
ATOM      4  C4  I4B d   1       1.169  -1.700   1.892  0.00  0.00    -0.004 A 
ATOM      5  C5  I4B d   1       0.361  -2.732   2.360  0.00  0.00     0.002 A 
ATOM      6  C6  I4B d   1       0.676  -3.381   3.563  0.00  0.00     0.003 A 
ENDROOT
BRANCH   1   7
ATOM      7  C1' I4B d   1       2.212  -3.727   5.517  0.00  0.00     0.060 C 
BRANCH   7   8
ATOM      8  C2' I4B d   1       2.588  -5.144   5.135  0.00  0.00    -0.013 C 
ATOM      9  C4' I4B d   1       3.708  -5.662   6.000  0.00  0.00     0.013 C 
ATOM     10  C3' I4B d   1       1.364  -6.000   5.265  0.00  0.00     0.013 C 
ENDBRANCH   7   8
ENDBRANCH   1   7
TORSDOF 2
ENDMDL
