MODEL 1
REMARK minimizedAffinity -0.72150737
REMARK minimizedRMSD -1
REMARK  2 active torsions:
REMARK  status: ('A' for Active; 'I' for Inactive)
REMARK    1  A    between atoms: C2'_3  and  C1'_4 
REMARK    2  A    between atoms: C1'_4  and  C1_5 
ROOT
ATOM      1  C1  I4B d   1       1.528  -3.706   4.829  0.00  0.00    -0.075 A 
ATOM      2  C2  I4B d   1       0.749  -4.827   4.974  0.00  0.00     0.003 A 
ATOM      3  C3  I4B d   1       1.276  -5.987   5.591  0.00  0.00     0.002 A 
ATOM      4  C4  I4B d   1       2.594  -6.000   6.000  0.00  0.00    -0.004 A 
ATOM      5  C5  I4B d   1       3.376  -4.855   5.873  0.00  0.00     0.002 A 
ATOM      6  C6  I4B d   1       2.836  -3.697   5.295  0.00  0.00     0.003 A 
ENDROOT
BRANCH   1   7
ATOM      7  C1' I4B d   1       0.949  -2.510   4.143  0.00  0.00     0.060 C 
BRANCH   7   8
ATOM      8  C2' I4B d   1       1.751  -2.261   2.882  0.00  0.00    -0.013 C 
ATOM      9  C4' I4B d   1       0.946  -1.494   1.866  0.00  0.00     0.013 C 
ATOM     10  C3' I4B d   1       2.994  -1.514   3.263  0.00  0.00     0.013 C 
ENDBRANCH   7   8
ENDBRANCH   1   7
TORSDOF 2
ENDMDL
