MODEL 1
REMARK minimizedAffinity 3.91196871
REMARK minimizedRMSD -1
REMARK  2 active torsions:
REMARK  status: ('A' for Active; 'I' for Inactive)
REMARK    1  A    between atoms: C2'_3  and  C1'_4 
REMARK    2  A    between atoms: C1'_4  and  C1_5 
ROOT
ATOM      1  C1  I4B d   1      -4.042  -5.187   0.205  0.00  0.00    -0.075 A 
ATOM      2  C2  I4B d   1      -5.147  -5.497   0.958  0.00  0.00     0.003 A 
ATOM      3  C3  I4B d   1      -5.202  -5.135   2.326  0.00  0.00     0.002 A 
ATOM      4  C4  I4B d   1      -4.116  -4.513   2.909  0.00  0.00    -0.004 A 
ATOM      5  C5  I4B d   1      -3.006  -4.180   2.138  0.00  0.00     0.002 A 
ATOM      6  C6  I4B d   1      -2.973  -4.507   0.775  0.00  0.00     0.003 A 
ENDROOT
BRANCH   1   7
ATOM      7  C1' I4B d   1      -4.003  -5.613  -1.228  0.00  0.00     0.060 C 
BRANCH   7   8
ATOM      8  C2' I4B d   1      -5.151  -4.934  -1.948  0.00  0.00    -0.013 C 
ATOM      9  C4' I4B d   1      -4.647  -3.955  -2.975  0.00  0.00     0.013 C 
ATOM     10  C3' I4B d   1      -5.994  -5.999  -2.583  0.00  0.00     0.013 C 
ENDBRANCH   7   8
ENDBRANCH   1   7
TORSDOF 2
ENDMDL
