MODEL 1
REMARK minimizedAffinity -6.04212189
REMARK minimizedRMSD -1
REMARK  2 active torsions:
REMARK  status: ('A' for Active; 'I' for Inactive)
REMARK    1  A    between atoms: C2'_3  and  C1'_4 
REMARK    2  A    between atoms: C1'_4  and  C1_5 
ROOT
ATOM      1  C1  I4B d   1       0.977  -4.165   3.642  0.00  0.00    -0.075 A 
ATOM      2  C2  I4B d   1       1.243  -3.502   4.815  0.00  0.00     0.003 A 
ATOM      3  C3  I4B d   1       2.097  -4.082   5.784  0.00  0.00     0.002 A 
ATOM      4  C4  I4B d   1       2.621  -5.340   5.563  0.00  0.00    -0.004 A 
ATOM      5  C5  I4B d   1       2.369  -6.000   4.364  0.00  0.00     0.002 A 
ATOM      6  C6  I4B d   1       1.552  -5.404   3.392  0.00  0.00     0.003 A 
ENDROOT
BRANCH   1   7
ATOM      7  C1' I4B d   1       0.044  -3.538   2.655  0.00  0.00     0.060 C 
BRANCH   7   8
ATOM      8  C2' I4B d   1       0.870  -3.028   1.492  0.00  0.00    -0.013 C 
ATOM      9  C4' I4B d   1       0.097  -3.102   0.201  0.00  0.00     0.013 C 
ATOM     10  C3' I4B d   1       1.279  -1.618   1.797  0.00  0.00     0.013 C 
ENDBRANCH   7   8
ENDBRANCH   1   7
TORSDOF 2
ENDMDL
