MODEL 1
REMARK minimizedAffinity 6.35442543
REMARK minimizedRMSD -1
REMARK  2 active torsions:
REMARK  status: ('A' for Active; 'I' for Inactive)
REMARK    1  A    between atoms: C2'_3  and  C1'_4 
REMARK    2  A    between atoms: C1'_4  and  C1_5 
ROOT
ATOM      1  C1  I4B d   1       2.731  -1.255   2.242  0.00  0.00    -0.075 A 
ATOM      2  C2  I4B d   1       3.551  -0.937   1.189  0.00  0.00     0.003 A 
ATOM      3  C3  I4B d   1       4.936  -0.732   1.401  0.00  0.00     0.002 A 
ATOM      4  C4  I4B d   1       5.446  -0.804   2.681  0.00  0.00    -0.004 A 
ATOM      5  C5  I4B d   1       4.616  -1.148   3.745  0.00  0.00     0.002 A 
ATOM      6  C6  I4B d   1       3.252  -1.387   3.522  0.00  0.00     0.003 A 
ENDROOT
BRANCH   1   7
ATOM      7  C1' I4B d   1       1.267  -1.432   1.988  0.00  0.00     0.060 C 
BRANCH   7   8
ATOM      8  C2' I4B d   1       1.036  -1.315   0.495  0.00  0.00    -0.013 C 
ATOM      9  C4' I4B d   1       0.065  -2.359   0.010  0.00  0.00     0.013 C 
ATOM     10  C3' I4B d   1       0.529   0.068   0.213  0.00  0.00     0.013 C 
ENDBRANCH   7   8
ENDBRANCH   1   7
TORSDOF 2
ENDMDL
