MODEL 1
REMARK minimizedAffinity 10.6562576
REMARK minimizedRMSD -1
REMARK  2 active torsions:
REMARK  status: ('A' for Active; 'I' for Inactive)
REMARK    1  A    between atoms: C2'_3  and  C1'_4 
REMARK    2  A    between atoms: C1'_4  and  C1_5 
ROOT
ATOM      1  C1  I4B d   1       0.664   0.060  -1.571  0.00  0.00    -0.075 A 
ATOM      2  C2  I4B d   1       1.364   0.663  -0.556  0.00  0.00     0.003 A 
ATOM      3  C3  I4B d   1       1.515   0.012   0.692  0.00  0.00     0.002 A 
ATOM      4  C4  I4B d   1       0.910  -1.211   0.897  0.00  0.00    -0.004 A 
ATOM      5  C5  I4B d   1       0.220  -1.832  -0.140  0.00  0.00     0.002 A 
ATOM      6  C6  I4B d   1       0.106  -1.199  -1.386  0.00  0.00     0.003 A 
ENDROOT
BRANCH   1   7
ATOM      7  C1' I4B d   1       0.496   0.790  -2.865  0.00  0.00     0.060 C 
BRANCH   7   8
ATOM      8  C2' I4B d   1      -0.288   2.057  -2.588  0.00  0.00    -0.013 C 
ATOM      9  C4' I4B d   1       0.129   3.170  -3.513  0.00  0.00     0.013 C 
ATOM     10  C3' I4B d   1      -1.746   1.741  -2.743  0.00  0.00     0.013 C 
ENDBRANCH   7   8
ENDBRANCH   1   7
TORSDOF 2
ENDMDL
