MODEL 1
REMARK minimizedAffinity 0.475245476
REMARK minimizedRMSD -1
REMARK  2 active torsions:
REMARK  status: ('A' for Active; 'I' for Inactive)
REMARK    1  A    between atoms: C2'_3  and  C1'_4 
REMARK    2  A    between atoms: C1'_4  and  C1_5 
ROOT
ATOM      1  C1  I4B d   1      -3.569   0.828  -2.645  0.00  0.00    -0.075 A 
ATOM      2  C2  I4B d   1      -3.821  -0.462  -3.041  0.00  0.00     0.003 A 
ATOM      3  C3  I4B d   1      -4.447  -1.370  -2.153  0.00  0.00     0.002 A 
ATOM      4  C4  I4B d   1      -4.756  -0.964  -0.871  0.00  0.00    -0.004 A 
ATOM      5  C5  I4B d   1      -4.520   0.351  -0.479  0.00  0.00     0.002 A 
ATOM      6  C6  I4B d   1      -3.934   1.256  -1.376  0.00  0.00     0.003 A 
ENDROOT
BRANCH   1   7
ATOM      7  C1' I4B d   1      -2.876   1.751  -3.597  0.00  0.00     0.060 C 
BRANCH   7   8
ATOM      8  C2' I4B d   1      -1.579   2.197  -2.954  0.00  0.00    -0.013 C 
ATOM      9  C4' I4B d   1      -0.628   1.042  -2.787  0.00  0.00     0.013 C 
ATOM     10  C3' I4B d   1      -0.982   3.271  -3.814  0.00  0.00     0.013 C 
ENDBRANCH   7   8
ENDBRANCH   1   7
TORSDOF 2
ENDMDL
