MODEL 1
REMARK minimizedAffinity -1.88668752
REMARK minimizedRMSD -1
REMARK  1 active torsions:
REMARK  status: ('A' for Active; 'I' for Inactive)
REMARK    1  A    between atoms: C1_2  and  C2_3 
ROOT
ATOM      1  C2  UNL d   1      -0.305   1.083  -0.111  0.00  0.00    -0.081 A 
ATOM      2  C3  UNL d   1      -1.149   0.760   0.959  0.00  0.00     0.006 A 
ATOM      3  C4  UNL d   1      -1.273  -0.563   1.389  0.00  0.00     0.002 A 
ATOM      4  C5  UNL d   1      -0.549  -1.584   0.763  0.00  0.00    -0.080 A 
ATOM      5  C6  UNL d   1      -0.650  -3.004   1.234  0.00  0.00     0.076 C 
ATOM      6  C7  UNL d   1       0.281  -1.264  -0.317  0.00  0.00     0.002 A 
ATOM      7  C8  UNL d   1       0.404   0.059  -0.748  0.00  0.00     0.006 A 
ENDROOT
BRANCH   1   8
ATOM      8  C1  UNL d   1      -0.120   2.517  -0.535  0.00  0.00     0.054 C 
ATOM      9  C   UNL d   1       0.379   3.375   0.618  0.00  0.00     0.018 C 
ENDBRANCH   1   8
TORSDOF 1
ENDMDL
