MODEL 1
REMARK minimizedAffinity -4.64265251
REMARK minimizedRMSD -1
REMARK  1 active torsions:
REMARK  status: ('A' for Active; 'I' for Inactive)
REMARK    1  A    between atoms: C1_2  and  C2_3 
ROOT
ATOM      1  C2  UNL d   1       0.553  -2.295  -1.278  0.00  0.00    -0.081 A 
ATOM      2  C3  UNL d   1       0.080  -3.159  -0.283  0.00  0.00     0.006 A 
ATOM      3  C4  UNL d   1      -0.503  -2.649   0.879  0.00  0.00     0.002 A 
ATOM      4  C5  UNL d   1      -0.631  -1.268   1.062  0.00  0.00    -0.080 A 
ATOM      5  C6  UNL d   1      -1.283  -0.707   2.291  0.00  0.00     0.076 C 
ATOM      6  C7  UNL d   1      -0.143  -0.404   0.076  0.00  0.00     0.002 A 
ATOM      7  C8  UNL d   1       0.442  -0.913  -1.086  0.00  0.00     0.006 A 
ENDROOT
BRANCH   1   8
ATOM      8  C1  UNL d   1       1.124  -2.843  -2.561  0.00  0.00     0.054 C 
ATOM      9  C   UNL d   1       0.677  -2.021  -3.761  0.00  0.00     0.018 C 
ENDBRANCH   1   8
TORSDOF 1
ENDMDL
