MODEL 1
REMARK minimizedAffinity -3.23711634
REMARK minimizedRMSD -1
REMARK  1 active torsions:
REMARK  status: ('A' for Active; 'I' for Inactive)
REMARK    1  A    between atoms: C1_2  and  C2_3 
ROOT
ATOM      1  C2  UNL d   1      -0.171   0.780  -0.710  0.00  0.00    -0.081 A 
ATOM      2  C3  UNL d   1      -0.850   0.444   0.468  0.00  0.00     0.006 A 
ATOM      3  C4  UNL d   1      -0.943  -0.888   0.877  0.00  0.00     0.002 A 
ATOM      4  C5  UNL d   1      -0.351  -1.906   0.121  0.00  0.00    -0.080 A 
ATOM      5  C6  UNL d   1      -0.417  -3.336   0.566  0.00  0.00     0.076 C 
ATOM      6  C7  UNL d   1       0.313  -1.573  -1.064  0.00  0.00     0.002 A 
ATOM      7  C8  UNL d   1       0.405  -0.241  -1.475  0.00  0.00     0.006 A 
ENDROOT
BRANCH   1   8
ATOM      8  C1  UNL d   1      -0.014   2.221  -1.120  0.00  0.00     0.054 C 
ATOM      9  C   UNL d   1       1.002   2.939  -0.244  0.00  0.00     0.018 C 
ENDBRANCH   1   8
TORSDOF 1
ENDMDL
