MODEL 1
REMARK minimizedAffinity -5.57893944
REMARK minimizedRMSD -1
REMARK  1 active torsions:
REMARK  status: ('A' for Active; 'I' for Inactive)
REMARK    1  A    between atoms: C1_2  and  C2_3 
ROOT
ATOM      1  C2  UNL d   1      -0.405  -2.065  -0.006  0.00  0.00    -0.081 A 
ATOM      2  C3  UNL d   1      -1.386  -2.599   0.839  0.00  0.00     0.006 A 
ATOM      3  C4  UNL d   1      -2.131  -1.764   1.675  0.00  0.00     0.002 A 
ATOM      4  C5  UNL d   1      -1.914  -0.382   1.675  0.00  0.00    -0.080 A 
ATOM      5  C6  UNL d   1      -2.727   0.529   2.545  0.00  0.00     0.076 C 
ATOM      6  C7  UNL d   1      -0.922   0.150   0.843  0.00  0.00     0.002 A 
ATOM      7  C8  UNL d   1      -0.176  -0.685   0.007  0.00  0.00     0.006 A 
ENDROOT
BRANCH   1   8
ATOM      8  C1  UNL d   1       0.355  -2.955  -0.956  0.00  0.00     0.054 C 
ATOM      9  C   UNL d   1       0.372  -2.376  -2.363  0.00  0.00     0.018 C 
ENDBRANCH   1   8
TORSDOF 1
ENDMDL
