MODEL 1
REMARK minimizedAffinity -4.2082324
REMARK minimizedRMSD -1
REMARK  1 active torsions:
REMARK  status: ('A' for Active; 'I' for Inactive)
REMARK    1  A    between atoms: C1_2  and  C2_3 
ROOT
ATOM      1  C2  UNL d   1       0.168  -2.438  -1.405  0.00  0.00    -0.081 A 
ATOM      2  C3  UNL d   1      -0.545  -3.103  -0.400  0.00  0.00     0.006 A 
ATOM      3  C4  UNL d   1      -0.802  -2.475   0.820  0.00  0.00     0.002 A 
ATOM      4  C5  UNL d   1      -0.359  -1.169   1.054  0.00  0.00    -0.080 A 
ATOM      5  C6  UNL d   1      -0.655  -0.472   2.349  0.00  0.00     0.076 C 
ATOM      6  C7  UNL d   1       0.368  -0.510   0.057  0.00  0.00     0.002 A 
ATOM      7  C8  UNL d   1       0.627  -1.138  -1.163  0.00  0.00     0.006 A 
ENDROOT
BRANCH   1   8
ATOM      8  C1  UNL d   1       0.392  -3.088  -2.746  0.00  0.00     0.054 C 
ATOM      9  C   UNL d   1      -0.888  -3.114  -3.569  0.00  0.00     0.018 C 
ENDBRANCH   1   8
TORSDOF 1
ENDMDL
