MODEL 1
REMARK minimizedAffinity -4.10704756
REMARK minimizedRMSD -1
REMARK  1 active torsions:
REMARK  status: ('A' for Active; 'I' for Inactive)
REMARK    1  A    between atoms: N_2  and  C1_3 
ROOT
ATOM      1  C1  UNL d   1      -0.949  -0.391   0.965  0.00  0.00     0.143 A 
ATOM      2  C2  UNL d   1      -0.502  -0.506   2.286  0.00  0.00    -0.057 A 
ATOM      3  C3  UNL d   1      -1.198   0.094   3.342  0.00  0.00     0.033 A 
ATOM      4  C4  UNL d   1      -2.341   0.846   3.092  0.00  0.00    -0.042 A 
ATOM      5  C5  UNL d   1      -2.790   0.994   1.785  0.00  0.00     0.033 A 
ATOM      6  C6  UNL d   1      -2.094   0.387   0.734  0.00  0.00    -0.057 A 
ENDROOT
BRANCH   1   7
ATOM      7  N   UNL d   1      -0.247  -0.881  -0.139  0.00  0.00    -0.732 N 
ATOM      8  C   UNL d   1      -0.698  -2.069  -0.831  0.00  0.00     0.284 C 
ATOM      9  H3  UNL d   1       0.075  -0.138  -0.755  0.00  0.00     0.395 HD
ENDBRANCH   1   7
TORSDOF 1
ENDMDL
