MODEL 1
REMARK minimizedAffinity 0.691822112
REMARK minimizedRMSD -1
REMARK  1 active torsions:
REMARK  status: ('A' for Active; 'I' for Inactive)
REMARK    1  A    between atoms: N_2  and  C1_3 
ROOT
ATOM      1  C1  UNL d   1      -2.154  -0.765   2.095  0.00  0.00     0.143 A 
ATOM      2  C2  UNL d   1      -2.964  -1.368   1.126  0.00  0.00    -0.057 A 
ATOM      3  C3  UNL d   1      -2.492  -1.599  -0.172  0.00  0.00     0.033 A 
ATOM      4  C4  UNL d   1      -1.208  -1.204  -0.533  0.00  0.00    -0.042 A 
ATOM      5  C5  UNL d   1      -0.395  -0.580   0.407  0.00  0.00     0.033 A 
ATOM      6  C6  UNL d   1      -0.869  -0.358   1.704  0.00  0.00    -0.057 A 
ENDROOT
BRANCH   1   7
ATOM      7  N   UNL d   1      -2.599  -0.419   3.374  0.00  0.00    -0.732 N 
ATOM      8  C   UNL d   1      -3.020  -1.440   4.309  0.00  0.00     0.284 C 
ATOM      9  H3  UNL d   1      -2.041   0.322   3.791  0.00  0.00     0.395 HD
ENDBRANCH   1   7
TORSDOF 1
ENDMDL
