MODEL 1
REMARK minimizedAffinity -4.96936512
REMARK minimizedRMSD -1
REMARK  1 active torsions:
REMARK  status: ('A' for Active; 'I' for Inactive)
REMARK    1  A    between atoms: N_2  and  C1_3 
ROOT
ATOM      1  C1  UNL d   1      -1.356  -0.567   1.694  0.00  0.00     0.143 A 
ATOM      2  C2  UNL d   1      -0.893  -0.927   0.424  0.00  0.00    -0.057 A 
ATOM      3  C3  UNL d   1       0.409  -1.405   0.234  0.00  0.00     0.033 A 
ATOM      4  C4  UNL d   1       1.284  -1.504   1.311  0.00  0.00    -0.042 A 
ATOM      5  C5  UNL d   1       0.854  -1.128   2.579  0.00  0.00     0.033 A 
ATOM      6  C6  UNL d   1      -0.450  -0.658   2.763  0.00  0.00    -0.057 A 
ENDROOT
BRANCH   1   7
ATOM      7  N   UNL d   1      -2.607   0.007   1.932  0.00  0.00    -0.732 N 
ATOM      8  C   UNL d   1      -3.492   0.329   0.833  0.00  0.00     0.284 C 
ATOM      9  H3  UNL d   1      -3.076  -0.402   2.737  0.00  0.00     0.395 HD
ENDBRANCH   1   7
TORSDOF 1
ENDMDL
