MODEL 1
REMARK minimizedAffinity -5.12384081
REMARK minimizedRMSD -1
REMARK  1 active torsions:
REMARK  status: ('A' for Active; 'I' for Inactive)
REMARK    1  A    between atoms: N_2  and  C1_3 
ROOT
ATOM      1  C1  UNL d   1      -0.778  -0.677  -0.101  0.00  0.00     0.143 A 
ATOM      2  C2  UNL d   1      -0.179  -0.414   1.135  0.00  0.00    -0.057 A 
ATOM      3  C3  UNL d   1      -0.933   0.030   2.228  0.00  0.00     0.033 A 
ATOM      4  C4  UNL d   1      -2.301   0.247   2.095  0.00  0.00    -0.042 A 
ATOM      5  C5  UNL d   1      -2.913   0.016   0.868  0.00  0.00     0.033 A 
ATOM      6  C6  UNL d   1      -2.156  -0.434  -0.218  0.00  0.00    -0.057 A 
ENDROOT
BRANCH   1   7
ATOM      7  N   UNL d   1      -0.067  -1.026  -1.252  0.00  0.00    -0.732 N 
ATOM      8  C   UNL d   1      -0.745  -1.610  -2.389  0.00  0.00     0.284 C 
ATOM      9  H3  UNL d   1       0.637  -0.334  -1.498  0.00  0.00     0.395 HD
ENDBRANCH   1   7
TORSDOF 1
ENDMDL
