MODEL 1
REMARK minimizedAffinity -3.18963122
REMARK minimizedRMSD -1
REMARK  1 active torsions:
REMARK  status: ('A' for Active; 'I' for Inactive)
REMARK    1  A    between atoms: N_2  and  C1_3 
ROOT
ATOM      1  C1  UNL d   1      -1.639  -0.478   1.628  0.00  0.00     0.143 A 
ATOM      2  C2  UNL d   1      -1.270  -1.121   0.442  0.00  0.00    -0.057 A 
ATOM      3  C3  UNL d   1       0.016  -1.647   0.270  0.00  0.00     0.033 A 
ATOM      4  C4  UNL d   1       0.968  -1.514   1.275  0.00  0.00    -0.042 A 
ATOM      5  C5  UNL d   1       0.632  -0.857   2.453  0.00  0.00     0.033 A 
ATOM      6  C6  UNL d   1      -0.656  -0.339   2.621  0.00  0.00    -0.057 A 
ENDROOT
BRANCH   1   7
ATOM      7  N   UNL d   1      -2.870   0.153   1.821  0.00  0.00    -0.732 N 
ATOM      8  C   UNL d   1      -3.838   0.224   0.748  0.00  0.00     0.284 C 
ATOM      9  H3  UNL d   1      -3.274  -0.054   2.732  0.00  0.00     0.395 HD
ENDBRANCH   1   7
TORSDOF 1
ENDMDL
