MODEL 1
REMARK minimizedAffinity 0.705587804
REMARK minimizedRMSD -1
REMARK  1 active torsions:
REMARK  status: ('A' for Active; 'I' for Inactive)
REMARK    1  A    between atoms: N_2  and  C1_3 
ROOT
ATOM      1  C1  UNL d   1       5.920   0.715   3.804  0.00  0.00     0.143 A 
ATOM      2  C2  UNL d   1       5.955  -0.559   3.227  0.00  0.00    -0.057 A 
ATOM      3  C3  UNL d   1       5.980  -1.714   4.017  0.00  0.00     0.033 A 
ATOM      4  C4  UNL d   1       6.000  -1.615   5.404  0.00  0.00    -0.042 A 
ATOM      5  C5  UNL d   1       5.991  -0.358   6.000  0.00  0.00     0.033 A 
ATOM      6  C6  UNL d   1       5.959   0.791   5.205  0.00  0.00    -0.057 A 
ENDROOT
BRANCH   1   7
ATOM      7  N   UNL d   1       5.994   1.903   3.072  0.00  0.00    -0.732 N 
ATOM      8  C   UNL d   1       4.791   2.615   2.700  0.00  0.00     0.284 C 
ATOM      9  H3  UNL d   1       6.754   2.504   3.384  0.00  0.00     0.395 HD
ENDBRANCH   1   7
TORSDOF 1
ENDMDL
