MODEL 1
REMARK minimizedAffinity -2.59799266
REMARK minimizedRMSD -1
REMARK  1 active torsions:
REMARK  status: ('A' for Active; 'I' for Inactive)
REMARK    1  A    between atoms: N_2  and  C1_3 
ROOT
ATOM      1  C1  UNL d   1       5.998   1.987   4.346  0.00  0.00     0.143 A 
ATOM      2  C2  UNL d   1       5.954   1.506   5.659  0.00  0.00    -0.057 A 
ATOM      3  C3  UNL d   1       5.960   0.132   5.930  0.00  0.00     0.033 A 
ATOM      4  C4  UNL d   1       5.980  -0.788   4.887  0.00  0.00    -0.042 A 
ATOM      5  C5  UNL d   1       5.998  -0.333   3.574  0.00  0.00     0.033 A 
ATOM      6  C6  UNL d   1       6.000   1.040   3.310  0.00  0.00    -0.057 A 
ENDROOT
BRANCH   1   7
ATOM      7  N   UNL d   1       5.896   3.339   4.010  0.00  0.00    -0.732 N 
ATOM      8  C   UNL d   1       5.979   3.763   2.628  0.00  0.00     0.284 C 
ATOM      9  H3  UNL d   1       5.181   3.821   4.550  0.00  0.00     0.395 HD
ENDBRANCH   1   7
TORSDOF 1
ENDMDL
