MODEL 1
REMARK minimizedAffinity -3.37953639
REMARK minimizedRMSD -1
REMARK  1 active torsions:
REMARK  status: ('A' for Active; 'I' for Inactive)
REMARK    1  A    between atoms: N_2  and  C1_3 
ROOT
ATOM      1  C1  UNL d   1       5.673   0.981   5.328  0.00  0.00     0.143 A 
ATOM      2  C2  UNL d   1       5.852   2.212   5.970  0.00  0.00    -0.057 A 
ATOM      3  C3  UNL d   1       5.999   3.397   5.239  0.00  0.00     0.033 A 
ATOM      4  C4  UNL d   1       6.000   3.368   3.848  0.00  0.00    -0.042 A 
ATOM      5  C5  UNL d   1       5.849   2.153   3.189  0.00  0.00     0.033 A 
ATOM      6  C6  UNL d   1       5.695   0.974   3.925  0.00  0.00    -0.057 A 
ENDROOT
BRANCH   1   7
ATOM      7  N   UNL d   1       5.620  -0.244   5.997  0.00  0.00    -0.732 N 
ATOM      8  C   UNL d   1       5.631  -1.488   5.258  0.00  0.00     0.284 C 
ATOM      9  H3  UNL d   1       6.195  -0.254   6.836  0.00  0.00     0.395 HD
ENDBRANCH   1   7
TORSDOF 1
ENDMDL
