MODEL 1
REMARK minimizedAffinity 8.85684776
REMARK minimizedRMSD -1
REMARK  1 active torsions:
REMARK  status: ('A' for Active; 'I' for Inactive)
REMARK    1  A    between atoms: N_2  and  C1_3 
ROOT
ATOM      1  C1  UNL d   1       5.601   3.335   3.758  0.00  0.00     0.143 A 
ATOM      2  C2  UNL d   1       6.000   3.104   2.437  0.00  0.00    -0.057 A 
ATOM      3  C3  UNL d   1       5.651   1.923   1.770  0.00  0.00     0.033 A 
ATOM      4  C4  UNL d   1       4.920   0.937   2.424  0.00  0.00    -0.042 A 
ATOM      5  C5  UNL d   1       4.535   1.135   3.745  0.00  0.00     0.033 A 
ATOM      6  C6  UNL d   1       4.880   2.319   4.404  0.00  0.00    -0.057 A 
ENDROOT
BRANCH   1   7
ATOM      7  N   UNL d   1       6.000   4.445   4.507  0.00  0.00    -0.732 N 
ATOM      8  C   UNL d   1       6.000   5.768   3.921  0.00  0.00     0.284 C 
ATOM      9  H3  UNL d   1       5.652   4.413   5.463  0.00  0.00     0.395 HD
ENDBRANCH   1   7
TORSDOF 1
ENDMDL
