MODEL 1
REMARK minimizedAffinity -2.65427566
REMARK minimizedRMSD -1
REMARK  1 active torsions:
REMARK  status: ('A' for Active; 'I' for Inactive)
REMARK    1  A    between atoms: N_2  and  C1_3 
ROOT
ATOM      1  C1  UNL d   1       5.132   2.793   4.119  0.00  0.00     0.143 A 
ATOM      2  C2  UNL d   1       5.688   2.416   2.891  0.00  0.00    -0.057 A 
ATOM      3  C3  UNL d   1       5.996   1.079   2.614  0.00  0.00     0.033 A 
ATOM      4  C4  UNL d   1       5.781   0.095   3.573  0.00  0.00    -0.042 A 
ATOM      5  C5  UNL d   1       5.253   0.450   4.809  0.00  0.00     0.033 A 
ATOM      6  C6  UNL d   1       4.940   1.786   5.078  0.00  0.00    -0.057 A 
ENDROOT
BRANCH   1   7
ATOM      7  N   UNL d   1       4.895   4.118   4.491  0.00  0.00    -0.732 N 
ATOM      8  C   UNL d   1       5.971   5.087   4.494  0.00  0.00     0.284 C 
ATOM      9  H3  UNL d   1       4.016   4.474   4.123  0.00  0.00     0.395 HD
ENDBRANCH   1   7
TORSDOF 1
ENDMDL
