MODEL 1
REMARK minimizedAffinity -3.79090524
REMARK minimizedRMSD -1
REMARK  1 active torsions:
REMARK  status: ('A' for Active; 'I' for Inactive)
REMARK    1  A    between atoms: N_2  and  C1_3 
ROOT
ATOM      1  C1  UNL d   1       5.658   1.704   3.329  0.00  0.00     0.143 A 
ATOM      2  C2  UNL d   1       5.730   0.509   2.606  0.00  0.00    -0.057 A 
ATOM      3  C3  UNL d   1       5.541  -0.730   3.230  0.00  0.00     0.033 A 
ATOM      4  C4  UNL d   1       5.304  -0.797   4.599  0.00  0.00    -0.042 A 
ATOM      5  C5  UNL d   1       5.254   0.377   5.342  0.00  0.00     0.033 A 
ATOM      6  C6  UNL d   1       5.437   1.612   4.712  0.00  0.00    -0.057 A 
ENDROOT
BRANCH   1   7
ATOM      7  N   UNL d   1       5.935   2.961   2.784  0.00  0.00    -0.732 N 
ATOM      8  C   UNL d   1       5.979   4.136   3.627  0.00  0.00     0.284 C 
ATOM      9  H3  UNL d   1       6.669   2.926   2.081  0.00  0.00     0.395 HD
ENDBRANCH   1   7
TORSDOF 1
ENDMDL
