MODEL 1
REMARK minimizedAffinity -1.84847915
REMARK minimizedRMSD -1
REMARK  1 active torsions:
REMARK  status: ('A' for Active; 'I' for Inactive)
REMARK    1  A    between atoms: N_2  and  C1_3 
ROOT
ATOM      1  C1  UNL d   1       5.923   1.191   3.619  0.00  0.00     0.143 A 
ATOM      2  C2  UNL d   1       5.958  -0.176   3.327  0.00  0.00    -0.057 A 
ATOM      3  C3  UNL d   1       5.981  -1.136   4.347  0.00  0.00     0.033 A 
ATOM      4  C4  UNL d   1       6.000  -0.741   5.681  0.00  0.00    -0.042 A 
ATOM      5  C5  UNL d   1       5.991   0.613   5.994  0.00  0.00     0.033 A 
ATOM      6  C6  UNL d   1       5.960   1.566   4.971  0.00  0.00    -0.057 A 
ENDROOT
BRANCH   1   7
ATOM      7  N   UNL d   1       5.998   2.195   2.650  0.00  0.00    -0.732 N 
ATOM      8  C   UNL d   1       5.979   3.591   3.032  0.00  0.00     0.284 C 
ATOM      9  H3  UNL d   1       6.664   1.975   1.913  0.00  0.00     0.395 HD
ENDBRANCH   1   7
TORSDOF 1
ENDMDL
