MODEL 1
REMARK minimizedAffinity 0.0188969187
REMARK minimizedRMSD -1
REMARK  1 active torsions:
REMARK  status: ('A' for Active; 'I' for Inactive)
REMARK    1  A    between atoms: N_2  and  C1_3 
ROOT
ATOM      1  C1  UNL d   1       5.996   1.113   3.692  0.00  0.00     0.143 A 
ATOM      2  C2  UNL d   1       5.969   0.976   5.084  0.00  0.00    -0.057 A 
ATOM      3  C3  UNL d   1       5.984  -0.285   5.691  0.00  0.00     0.033 A 
ATOM      4  C4  UNL d   1       5.997  -1.438   4.912  0.00  0.00    -0.042 A 
ATOM      5  C5  UNL d   1       5.999  -1.327   3.526  0.00  0.00     0.033 A 
ATOM      6  C6  UNL d   1       5.990  -0.064   2.926  0.00  0.00    -0.057 A 
ENDROOT
BRANCH   1   7
ATOM      7  N   UNL d   1       5.883   2.336   3.028  0.00  0.00    -0.732 N 
ATOM      8  C   UNL d   1       5.929   3.582   3.764  0.00  0.00     0.284 C 
ATOM      9  H3  UNL d   1       6.400   2.352   2.151  0.00  0.00     0.395 HD
ENDBRANCH   1   7
TORSDOF 1
ENDMDL
