MODEL 1
REMARK minimizedAffinity -1.41014445
REMARK minimizedRMSD -1
REMARK  1 active torsions:
REMARK  status: ('A' for Active; 'I' for Inactive)
REMARK    1  A    between atoms: N_2  and  C1_3 
ROOT
ATOM      1  C1  UNL d   1       5.906   0.111   3.573  0.00  0.00     0.143 A 
ATOM      2  C2  UNL d   1       5.927  -1.282   3.446  0.00  0.00    -0.057 A 
ATOM      3  C3  UNL d   1       5.956  -2.114   4.572  0.00  0.00     0.033 A 
ATOM      4  C4  UNL d   1       5.995  -1.564   5.849  0.00  0.00    -0.042 A 
ATOM      5  C5  UNL d   1       6.000  -0.182   5.999  0.00  0.00     0.033 A 
ATOM      6  C6  UNL d   1       5.964   0.643   4.871  0.00  0.00    -0.057 A 
ENDROOT
BRANCH   1   7
ATOM      7  N   UNL d   1       5.977   0.992   2.491  0.00  0.00    -0.732 N 
ATOM      8  C   UNL d   1       5.957   2.423   2.703  0.00  0.00     0.284 C 
ATOM      9  H3  UNL d   1       6.640   0.685   1.783  0.00  0.00     0.395 HD
ENDBRANCH   1   7
TORSDOF 1
ENDMDL
