MODEL 1
REMARK minimizedAffinity -0.392232507
REMARK minimizedRMSD -1
REMARK  1 active torsions:
REMARK  status: ('A' for Active; 'I' for Inactive)
REMARK    1  A    between atoms: N_2  and  C1_3 
ROOT
ATOM      1  C1  UNL d   1       5.990   3.559   2.844  0.00  0.00     0.143 A 
ATOM      2  C2  UNL d   1       5.892   3.555   1.448  0.00  0.00    -0.057 A 
ATOM      3  C3  UNL d   1       5.788   4.749   0.725  0.00  0.00     0.033 A 
ATOM      4  C4  UNL d   1       5.751   5.971   1.388  0.00  0.00    -0.042 A 
ATOM      5  C5  UNL d   1       5.821   5.998   2.777  0.00  0.00     0.033 A 
ATOM      6  C6  UNL d   1       5.932   4.802   3.493  0.00  0.00    -0.057 A 
ENDROOT
BRANCH   1   7
ATOM      7  N   UNL d   1       5.997   2.402   3.626  0.00  0.00    -0.732 N 
ATOM      8  C   UNL d   1       5.989   1.094   3.008  0.00  0.00     0.284 C 
ATOM      9  H3  UNL d   1       6.618   2.479   4.429  0.00  0.00     0.395 HD
ENDBRANCH   1   7
TORSDOF 1
ENDMDL
