MODEL 1
REMARK minimizedAffinity 5.47155857
REMARK minimizedRMSD -1
REMARK  1 active torsions:
REMARK  status: ('A' for Active; 'I' for Inactive)
REMARK    1  A    between atoms: N_2  and  C1_3 
ROOT
ATOM      1  C1  UNL d   1      -1.431   2.350   3.096  0.00  0.00     0.143 A 
ATOM      2  C2  UNL d   1      -2.461   2.997   3.786  0.00  0.00    -0.057 A 
ATOM      3  C3  UNL d   1      -2.324   4.319   4.225  0.00  0.00     0.033 A 
ATOM      4  C4  UNL d   1      -1.137   5.011   4.006  0.00  0.00    -0.042 A 
ATOM      5  C5  UNL d   1      -0.090   4.380   3.344  0.00  0.00     0.033 A 
ATOM      6  C6  UNL d   1      -0.236   3.061   2.902  0.00  0.00    -0.057 A 
ENDROOT
BRANCH   1   7
ATOM      7  N   UNL d   1      -1.470   1.005   2.721  0.00  0.00    -0.732 N 
ATOM      8  C   UNL d   1      -2.696   0.245   2.831  0.00  0.00     0.284 C 
ATOM      9  H3  UNL d   1      -0.943   0.824   1.870  0.00  0.00     0.395 HD
ENDBRANCH   1   7
TORSDOF 1
ENDMDL
