MODEL 1
REMARK minimizedAffinity -1.98540282
REMARK minimizedRMSD -1
REMARK  1 active torsions:
REMARK  status: ('A' for Active; 'I' for Inactive)
REMARK    1  A    between atoms: N_2  and  C1_3 
ROOT
ATOM      1  C1  UNL d   1       5.920   3.537   4.262  0.00  0.00     0.143 A 
ATOM      2  C2  UNL d   1       5.939   4.899   4.580  0.00  0.00    -0.057 A 
ATOM      3  C3  UNL d   1       5.958   5.878   3.579  0.00  0.00     0.033 A 
ATOM      4  C4  UNL d   1       5.989   5.510   2.238  0.00  0.00    -0.042 A 
ATOM      5  C5  UNL d   1       5.995   4.161   1.899  0.00  0.00     0.033 A 
ATOM      6  C6  UNL d   1       5.969   3.188   2.903  0.00  0.00    -0.057 A 
ENDROOT
BRANCH   1   7
ATOM      7  N   UNL d   1       5.999   2.515   5.212  0.00  0.00    -0.732 N 
ATOM      8  C   UNL d   1       5.964   1.127   4.806  0.00  0.00     0.284 C 
ATOM      9  H3  UNL d   1       6.677   2.717   5.944  0.00  0.00     0.395 HD
ENDBRANCH   1   7
TORSDOF 1
ENDMDL
