MODEL 1
REMARK minimizedAffinity -3.14351916
REMARK minimizedRMSD -1
REMARK  0 active torsions:
REMARK  status: ('A' for Active; 'I' for Inactive)
ROOT
ATOM      1  O1  BZF d   1      -1.898   0.799   2.251  0.00  0.00    -0.204 OA
ATOM      2  C2  BZF d   1      -1.079   1.362   3.210  0.00  0.00     0.174 A 
ATOM      3  C3  BZF d   1       0.212   1.316   2.824  0.00  0.00    -0.012 A 
ATOM      4  C3A BZF d   1       0.190   0.769   1.502  0.00  0.00    -0.107 A 
ATOM      5  C4  BZF d   1       1.163   0.492   0.584  0.00  0.00     0.055 A 
ATOM      6  C5  BZF d   1       0.816  -0.107  -0.585  0.00  0.00    -0.016 A 
ATOM      7  C6  BZF d   1      -0.491  -0.447  -0.867  0.00  0.00     0.022 A 
ATOM      8  C7  BZF d   1      -1.491  -0.188   0.010  0.00  0.00     0.029 A 
ATOM      9  C7A BZF d   1      -1.148   0.447   1.179  0.00  0.00     0.058 A 
ENDROOT
TORSDOF 0
ENDMDL
