MODEL 1
REMARK minimizedAffinity -4.36933661
REMARK minimizedRMSD -1
REMARK  0 active torsions:
REMARK  status: ('A' for Active; 'I' for Inactive)
ROOT
ATOM      1  O1  BZF d   1      -0.047   1.415  -3.956  0.00  0.00    -0.204 OA
ATOM      2  C2  BZF d   1       1.255   1.666  -4.341  0.00  0.00     0.174 A 
ATOM      3  C3  BZF d   1       2.084   1.626  -3.278  0.00  0.00    -0.012 A 
ATOM      4  C3A BZF d   1       1.261   1.241  -2.173  0.00  0.00    -0.107 A 
ATOM      5  C4  BZF d   1       1.511   1.016  -0.850  0.00  0.00     0.055 A 
ATOM      6  C5  BZF d   1       0.474   0.724  -0.022  0.00  0.00    -0.016 A 
ATOM      7  C6  BZF d   1      -0.825   0.654  -0.482  0.00  0.00     0.022 A 
ATOM      8  C7  BZF d   1      -1.122   0.864  -1.788  0.00  0.00     0.029 A 
ATOM      9  C7A BZF d   1      -0.071   1.127  -2.633  0.00  0.00     0.058 A 
ENDROOT
TORSDOF 0
ENDMDL
