MODEL 1
REMARK minimizedAffinity -0.847719967
REMARK minimizedRMSD -1
REMARK  0 active torsions:
REMARK  status: ('A' for Active; 'I' for Inactive)
ROOT
ATOM      1  O1  BZF d   1       1.018  -1.078  -1.083  0.00  0.00    -0.204 OA
ATOM      2  C2  BZF d   1      -0.098  -0.755  -1.832  0.00  0.00     0.174 A 
ATOM      3  C3  BZF d   1      -0.917   0.063  -1.140  0.00  0.00    -0.012 A 
ATOM      4  C3A BZF d   1      -0.229   0.338   0.084  0.00  0.00    -0.107 A 
ATOM      5  C4  BZF d   1      -0.526   1.102   1.177  0.00  0.00     0.055 A 
ATOM      6  C5  BZF d   1       0.326   1.099   2.235  0.00  0.00    -0.016 A 
ATOM      7  C6  BZF d   1       1.479   0.341   2.238  0.00  0.00     0.022 A 
ATOM      8  C7  BZF d   1       1.818  -0.428   1.175  0.00  0.00     0.029 A 
ATOM      9  C7A BZF d   1       0.976  -0.402   0.090  0.00  0.00     0.058 A 
ENDROOT
TORSDOF 0
ENDMDL
