MODEL 1
REMARK minimizedAffinity -4.68669224
REMARK minimizedRMSD -1
REMARK  0 active torsions:
REMARK  status: ('A' for Active; 'I' for Inactive)
ROOT
ATOM      1  O1  BZF d   1       0.982  -0.051  -0.328  0.00  0.00    -0.204 OA
ATOM      2  C2  BZF d   1       0.498  -0.758  -1.411  0.00  0.00     0.174 A 
ATOM      3  C3  BZF d   1      -0.742  -1.226  -1.162  0.00  0.00    -0.012 A 
ATOM      4  C3A BZF d   1      -1.089  -0.706   0.125  0.00  0.00    -0.107 A 
ATOM      5  C4  BZF d   1      -2.202  -0.807   0.910  0.00  0.00     0.055 A 
ATOM      6  C5  BZF d   1      -2.193  -0.240   2.145  0.00  0.00    -0.016 A 
ATOM      7  C6  BZF d   1      -1.088   0.430   2.628  0.00  0.00     0.022 A 
ATOM      8  C7  BZF d   1       0.037   0.561   1.884  0.00  0.00     0.029 A 
ATOM      9  C7A BZF d   1       0.020   0.018   0.623  0.00  0.00     0.058 A 
ENDROOT
TORSDOF 0
ENDMDL
