MODEL 1
REMARK minimizedAffinity -3.45706248
REMARK minimizedRMSD -1
REMARK  0 active torsions:
REMARK  status: ('A' for Active; 'I' for Inactive)
ROOT
ATOM      1  O1  BZF d   1      -2.151   0.520   2.388  0.00  0.00    -0.204 OA
ATOM      2  C2  BZF d   1      -1.111   1.143   3.051  0.00  0.00     0.174 A 
ATOM      3  C3  BZF d   1       0.013   1.120   2.306  0.00  0.00    -0.012 A 
ATOM      4  C3A BZF d   1      -0.371   0.522   1.064  0.00  0.00    -0.107 A 
ATOM      5  C4  BZF d   1       0.302   0.238  -0.089  0.00  0.00     0.055 A 
ATOM      6  C5  BZF d   1      -0.346  -0.416  -1.089  0.00  0.00    -0.016 A 
ATOM      7  C6  BZF d   1      -1.664  -0.804  -0.968  0.00  0.00     0.022 A 
ATOM      8  C7  BZF d   1      -2.375  -0.541   0.156  0.00  0.00     0.029 A 
ATOM      9  C7A BZF d   1      -1.732   0.149   1.155  0.00  0.00     0.058 A 
ENDROOT
TORSDOF 0
ENDMDL
