MODEL 1
REMARK minimizedAffinity 1.79026413
REMARK minimizedRMSD -1
REMARK  0 active torsions:
REMARK  status: ('A' for Active; 'I' for Inactive)
ROOT
ATOM      1  O1  BZF d   1      -0.334  -0.564   2.744  0.00  0.00    -0.204 OA
ATOM      2  C2  BZF d   1      -1.594  -0.050   2.983  0.00  0.00     0.174 A 
ATOM      3  C3  BZF d   1      -2.166   0.368   1.836  0.00  0.00    -0.012 A 
ATOM      4  C3A BZF d   1      -1.242   0.015   0.803  0.00  0.00    -0.107 A 
ATOM      5  C4  BZF d   1      -1.252   0.155  -0.555  0.00  0.00     0.055 A 
ATOM      6  C5  BZF d   1      -0.161  -0.229  -1.267  0.00  0.00    -0.016 A 
ATOM      7  C6  BZF d   1       0.959  -0.752  -0.655  0.00  0.00     0.022 A 
ATOM      8  C7  BZF d   1       1.015  -0.915   0.690  0.00  0.00     0.029 A 
ATOM      9  C7A BZF d   1      -0.100  -0.558   1.409  0.00  0.00     0.058 A 
ENDROOT
TORSDOF 0
ENDMDL
