MODEL 1
REMARK minimizedAffinity -2.64567447
REMARK minimizedRMSD -1
REMARK  0 active torsions:
REMARK  status: ('A' for Active; 'I' for Inactive)
ROOT
ATOM      1  O1  BZF d   1      -1.045  -0.031  -4.830  0.00  0.00    -0.204 OA
ATOM      2  C2  BZF d   1      -0.903   1.048  -5.682  0.00  0.00     0.174 A 
ATOM      3  C3  BZF d   1       0.096   1.855  -5.268  0.00  0.00    -0.012 A 
ATOM      4  C3A BZF d   1       0.670   1.193  -4.137  0.00  0.00    -0.107 A 
ATOM      5  C4  BZF d   1       1.709   1.492  -3.302  0.00  0.00     0.055 A 
ATOM      6  C5  BZF d   1       1.966   0.673  -2.248  0.00  0.00    -0.016 A 
ATOM      7  C6  BZF d   1       1.202  -0.448  -1.997  0.00  0.00     0.022 A 
ATOM      8  C7  BZF d   1       0.165  -0.788  -2.800  0.00  0.00     0.029 A 
ATOM      9  C7A BZF d   1      -0.077   0.020  -3.884  0.00  0.00     0.058 A 
ENDROOT
TORSDOF 0
ENDMDL
