MODEL 1
REMARK minimizedAffinity -3.15502214
REMARK minimizedRMSD -1
REMARK  0 active torsions:
REMARK  status: ('A' for Active; 'I' for Inactive)
ROOT
ATOM      1  O1  BZF d   1       0.603   0.419  -1.425  0.00  0.00    -0.204 OA
ATOM      2  C2  BZF d   1       0.852   0.287  -0.072  0.00  0.00     0.174 A 
ATOM      3  C3  BZF d   1      -0.093   0.919   0.653  0.00  0.00    -0.012 A 
ATOM      4  C3A BZF d   1      -1.040   1.403  -0.304  0.00  0.00    -0.107 A 
ATOM      5  C4  BZF d   1      -2.211   2.098  -0.198  0.00  0.00     0.055 A 
ATOM      6  C5  BZF d   1      -2.858   2.479  -1.330  0.00  0.00    -0.016 A 
ATOM      7  C6  BZF d   1      -2.361   2.187  -2.584  0.00  0.00     0.022 A 
ATOM      8  C7  BZF d   1      -1.206   1.496  -2.740  0.00  0.00     0.029 A 
ATOM      9  C7A BZF d   1      -0.567   1.080  -1.597  0.00  0.00     0.058 A 
ENDROOT
TORSDOF 0
ENDMDL
