MODEL 1
REMARK minimizedAffinity 7.02675295
REMARK minimizedRMSD -1
REMARK  0 active torsions:
REMARK  status: ('A' for Active; 'I' for Inactive)
ROOT
ATOM      1  O1  BZF d   1       0.577   0.566  -1.681  0.00  0.00    -0.204 OA
ATOM      2  C2  BZF d   1       1.553  -0.299  -2.136  0.00  0.00     0.174 A 
ATOM      3  C3  BZF d   1       2.054  -1.032  -1.121  0.00  0.00    -0.012 A 
ATOM      4  C3A BZF d   1       1.282  -0.664   0.026  0.00  0.00    -0.107 A 
ATOM      5  C4  BZF d   1       1.293  -1.061   1.332  0.00  0.00     0.055 A 
ATOM      6  C5  BZF d   1       0.458  -0.453   2.215  0.00  0.00    -0.016 A 
ATOM      7  C6  BZF d   1      -0.397   0.558   1.827  0.00  0.00     0.022 A 
ATOM      8  C7  BZF d   1      -0.448   0.983   0.541  0.00  0.00     0.029 A 
ATOM      9  C7A BZF d   1       0.372   0.348  -0.360  0.00  0.00     0.058 A 
ENDROOT
TORSDOF 0
ENDMDL
