MODEL 1
REMARK minimizedAffinity 5.95876598
REMARK minimizedRMSD -1
REMARK  0 active torsions:
REMARK  status: ('A' for Active; 'I' for Inactive)
ROOT
ATOM      1  O1  BZF d   1      -0.150   0.803  -1.197  0.00  0.00    -0.204 OA
ATOM      2  C2  BZF d   1       0.742   0.214  -2.072  0.00  0.00     0.174 A 
ATOM      3  C3  BZF d   1       1.648  -0.528  -1.404  0.00  0.00    -0.012 A 
ATOM      4  C3A BZF d   1       1.245  -0.469  -0.032  0.00  0.00    -0.107 A 
ATOM      5  C4  BZF d   1       1.739  -1.018   1.116  0.00  0.00     0.055 A 
ATOM      6  C5  BZF d   1       1.156  -0.705   2.303  0.00  0.00    -0.016 A 
ATOM      7  C6  BZF d   1       0.082   0.157   2.379  0.00  0.00     0.022 A 
ATOM      8  C7  BZF d   1      -0.447   0.723   1.266  0.00  0.00     0.029 A 
ATOM      9  C7A BZF d   1       0.120   0.383   0.062  0.00  0.00     0.058 A 
ENDROOT
TORSDOF 0
ENDMDL
