MODEL 1
REMARK minimizedAffinity 8.41738701
REMARK minimizedRMSD -1
REMARK  0 active torsions:
REMARK  status: ('A' for Active; 'I' for Inactive)
ROOT
ATOM      1  O1  BZF d   1      -5.910   3.804  -5.225  0.00  0.00    -0.204 OA
ATOM      2  C2  BZF d   1      -5.999   4.944  -6.000  0.00  0.00     0.174 A 
ATOM      3  C3  BZF d   1      -5.409   5.988  -5.383  0.00  0.00    -0.012 A 
ATOM      4  C3A BZF d   1      -4.840   5.447  -4.188  0.00  0.00    -0.107 A 
ATOM      5  C4  BZF d   1      -4.112   5.987  -3.166  0.00  0.00     0.055 A 
ATOM      6  C5  BZF d   1      -3.772   5.201  -2.111  0.00  0.00    -0.016 A 
ATOM      7  C6  BZF d   1      -4.147   3.876  -2.041  0.00  0.00     0.022 A 
ATOM      8  C7  BZF d   1      -4.865   3.294  -3.032  0.00  0.00     0.029 A 
ATOM      9  C7A BZF d   1      -5.182   4.077  -4.116  0.00  0.00     0.058 A 
ENDROOT
TORSDOF 0
ENDMDL
