MODEL 1
REMARK minimizedAffinity 7.82219791
REMARK minimizedRMSD -1
REMARK  0 active torsions:
REMARK  status: ('A' for Active; 'I' for Inactive)
ROOT
ATOM      1  O1  BZF d   1       0.237   1.005   0.929  0.00  0.00    -0.204 OA
ATOM      2  C2  BZF d   1       0.287   1.678   2.135  0.00  0.00     0.174 A 
ATOM      3  C3  BZF d   1       0.070   2.997   1.957  0.00  0.00    -0.012 A 
ATOM      4  C3A BZF d   1      -0.219   3.146   0.563  0.00  0.00    -0.107 A 
ATOM      5  C4  BZF d   1      -0.534   4.218  -0.221  0.00  0.00     0.055 A 
ATOM      6  C5  BZF d   1      -0.685   4.037  -1.559  0.00  0.00    -0.016 A 
ATOM      7  C6  BZF d   1      -0.524   2.799  -2.146  0.00  0.00     0.022 A 
ATOM      8  C7  BZF d   1      -0.217   1.704  -1.409  0.00  0.00     0.029 A 
ATOM      9  C7A BZF d   1      -0.096   1.878  -0.052  0.00  0.00     0.058 A 
ENDROOT
TORSDOF 0
ENDMDL
