MODEL 1
REMARK minimizedAffinity 14.5839739
REMARK minimizedRMSD -1
REMARK  0 active torsions:
REMARK  status: ('A' for Active; 'I' for Inactive)
ROOT
ATOM      1  O1  BZF d   1       0.650   2.311   2.260  0.00  0.00    -0.204 OA
ATOM      2  C2  BZF d   1       1.861   1.733   1.931  0.00  0.00     0.174 A 
ATOM      3  C3  BZF d   1       1.822   1.214   0.687  0.00  0.00    -0.012 A 
ATOM      4  C3A BZF d   1       0.533   1.566   0.173  0.00  0.00    -0.107 A 
ATOM      5  C4  BZF d   1      -0.093   1.348  -1.020  0.00  0.00     0.055 A 
ATOM      6  C5  BZF d   1      -1.379   1.759  -1.176  0.00  0.00    -0.016 A 
ATOM      7  C6  BZF d   1      -2.069   2.386  -0.160  0.00  0.00     0.022 A 
ATOM      8  C7  BZF d   1      -1.488   2.629   1.040  0.00  0.00     0.029 A 
ATOM      9  C7A BZF d   1      -0.178   2.244   1.190  0.00  0.00     0.058 A 
ENDROOT
TORSDOF 0
ENDMDL
