MODEL 1
REMARK minimizedAffinity 4.21297216
REMARK minimizedRMSD -1
REMARK  0 active torsions:
REMARK  status: ('A' for Active; 'I' for Inactive)
ROOT
ATOM      1  O1  BZF d   1       1.528   0.389  -1.024  0.00  0.00    -0.204 OA
ATOM      2  C2  BZF d   1       0.769   1.133  -1.907  0.00  0.00     0.174 A 
ATOM      3  C3  BZF d   1      -0.113   1.908  -1.243  0.00  0.00    -0.012 A 
ATOM      4  C3A BZF d   1       0.172   1.700   0.144  0.00  0.00    -0.107 A 
ATOM      5  C4  BZF d   1      -0.357   2.205   1.297  0.00  0.00     0.055 A 
ATOM      6  C5  BZF d   1       0.097   1.741   2.491  0.00  0.00    -0.016 A 
ATOM      7  C6  BZF d   1       1.075   0.770   2.568  0.00  0.00     0.022 A 
ATOM      8  C7  BZF d   1       1.633   0.243   1.451  0.00  0.00     0.029 A 
ATOM      9  C7A BZF d   1       1.200   0.734   0.244  0.00  0.00     0.058 A 
ENDROOT
TORSDOF 0
ENDMDL
