MODEL 1
REMARK minimizedAffinity 9.45547485
REMARK minimizedRMSD -1
REMARK  0 active torsions:
REMARK  status: ('A' for Active; 'I' for Inactive)
ROOT
ATOM      1  O1  BZF d   1      -0.707  -1.958  -1.621  0.00  0.00    -0.204 OA
ATOM      2  C2  BZF d   1      -1.019  -0.717  -2.143  0.00  0.00     0.174 A 
ATOM      3  C3  BZF d   1       0.084   0.054  -2.235  0.00  0.00    -0.012 A 
ATOM      4  C3A BZF d   1       1.167  -0.787  -1.825  0.00  0.00    -0.107 A 
ATOM      5  C4  BZF d   1       2.515  -0.596  -1.718  0.00  0.00     0.055 A 
ATOM      6  C5  BZF d   1       3.285  -1.597  -1.216  0.00  0.00    -0.016 A 
ATOM      7  C6  BZF d   1       2.741  -2.797  -0.808  0.00  0.00     0.022 A 
ATOM      8  C7  BZF d   1       1.410  -3.035  -0.900  0.00  0.00     0.029 A 
ATOM      9  C7A BZF d   1       0.633  -2.038  -1.437  0.00  0.00     0.058 A 
ENDROOT
TORSDOF 0
ENDMDL
