MODEL 1
REMARK minimizedAffinity 3.14594698
REMARK minimizedRMSD -1
REMARK  0 active torsions:
REMARK  status: ('A' for Active; 'I' for Inactive)
ROOT
ATOM      1  O1  BZF d   1      -1.026  -0.858  -2.058  0.00  0.00    -0.204 OA
ATOM      2  C2  BZF d   1      -0.937   0.512  -2.214  0.00  0.00     0.174 A 
ATOM      3  C3  BZF d   1       0.318   0.941  -1.972  0.00  0.00    -0.012 A 
ATOM      4  C3A BZF d   1       1.082  -0.246  -1.736  0.00  0.00    -0.107 A 
ATOM      5  C4  BZF d   1       2.399  -0.474  -1.455  0.00  0.00     0.055 A 
ATOM      6  C5  BZF d   1       2.810  -1.745  -1.207  0.00  0.00    -0.016 A 
ATOM      7  C6  BZF d   1       1.933  -2.809  -1.225  0.00  0.00     0.022 A 
ATOM      8  C7  BZF d   1       0.618  -2.633  -1.503  0.00  0.00     0.029 A 
ATOM      9  C7A BZF d   1       0.205  -1.354  -1.787  0.00  0.00     0.058 A 
ENDROOT
TORSDOF 0
ENDMDL
