MODEL 1
REMARK minimizedAffinity -1.71187615
REMARK minimizedRMSD -1
REMARK  0 active torsions:
REMARK  status: ('A' for Active; 'I' for Inactive)
ROOT
ATOM      1  O1  BZF d   1       0.380   0.520   0.693  0.00  0.00    -0.204 OA
ATOM      2  C2  BZF d   1       0.367   0.043  -0.604  0.00  0.00     0.174 A 
ATOM      3  C3  BZF d   1       0.332   1.060  -1.488  0.00  0.00    -0.012 A 
ATOM      4  C3A BZF d   1       0.418   2.249  -0.697  0.00  0.00    -0.107 A 
ATOM      5  C4  BZF d   1       0.446   3.580  -1.002  0.00  0.00     0.055 A 
ATOM      6  C5  BZF d   1       0.460   4.489   0.008  0.00  0.00    -0.016 A 
ATOM      7  C6  BZF d   1       0.440   4.103   1.333  0.00  0.00     0.022 A 
ATOM      8  C7  BZF d   1       0.416   2.795   1.685  0.00  0.00     0.029 A 
ATOM      9  C7A BZF d   1       0.436   1.873   0.666  0.00  0.00     0.058 A 
ENDROOT
TORSDOF 0
ENDMDL
