MODEL 1
REMARK minimizedAffinity -2.21777558
REMARK minimizedRMSD -1
REMARK  1 active torsions:
REMARK  status: ('A' for Active; 'I' for Inactive)
REMARK    1  A    between atoms: N_2  and  C1_3 
ROOT
ATOM      1  C1  UNL d   1       0.948  -0.004   0.967  0.00  0.00     0.143 A 
ATOM      2  C2  UNL d   1       2.230   0.501   0.723  0.00  0.00    -0.057 A 
ATOM      3  C3  UNL d   1       2.416   1.717   0.053  0.00  0.00     0.033 A 
ATOM      4  C4  UNL d   1       1.320   2.437  -0.411  0.00  0.00    -0.042 A 
ATOM      5  C5  UNL d   1       0.038   1.941  -0.201  0.00  0.00     0.033 A 
ATOM      6  C6  UNL d   1      -0.142   0.730   0.474  0.00  0.00    -0.057 A 
ENDROOT
BRANCH   1   7
ATOM      7  N   UNL d   1       0.701  -1.254   1.540  0.00  0.00    -0.732 N 
ATOM      8  C   UNL d   1       1.398  -1.666   2.740  0.00  0.00     0.284 C 
ATOM      9  H3  UNL d   1      -0.286  -1.498   1.528  0.00  0.00     0.395 HD
ENDBRANCH   1   7
TORSDOF 1
ENDMDL
