MODEL 1
REMARK minimizedAffinity 3.39621449
REMARK minimizedRMSD -1
REMARK  1 active torsions:
REMARK  status: ('A' for Active; 'I' for Inactive)
REMARK    1  A    between atoms: N_2  and  C1_3 
ROOT
ATOM      1  C1  UNL d   1      -5.326  -0.738  -4.786  0.00  0.00     0.143 A 
ATOM      2  C2  UNL d   1      -5.648  -1.388  -5.982  0.00  0.00    -0.057 A 
ATOM      3  C3  UNL d   1      -5.996  -2.745  -6.000  0.00  0.00     0.033 A 
ATOM      4  C4  UNL d   1      -5.999  -3.484  -4.822  0.00  0.00    -0.042 A 
ATOM      5  C5  UNL d   1      -5.659  -2.864  -3.625  0.00  0.00     0.033 A 
ATOM      6  C6  UNL d   1      -5.319  -1.508  -3.612  0.00  0.00    -0.057 A 
ENDROOT
BRANCH   1   7
ATOM      7  N   UNL d   1      -4.877   0.583  -4.716  0.00  0.00    -0.732 N 
ATOM      8  C   UNL d   1      -4.497   1.166  -3.447  0.00  0.00     0.284 C 
ATOM      9  H3  UNL d   1      -4.258   0.824  -5.486  0.00  0.00     0.395 HD
ENDBRANCH   1   7
TORSDOF 1
ENDMDL
