MODEL 1
REMARK minimizedAffinity 1.14709175
REMARK minimizedRMSD -1
REMARK  1 active torsions:
REMARK  status: ('A' for Active; 'I' for Inactive)
REMARK    1  A    between atoms: N_2  and  C1_3 
ROOT
ATOM      1  C1  UNL d   1      -5.258   2.498  -0.185  0.00  0.00     0.143 A 
ATOM      2  C2  UNL d   1      -5.673   3.710   0.377  0.00  0.00    -0.057 A 
ATOM      3  C3  UNL d   1      -4.936   4.328   1.394  0.00  0.00     0.033 A 
ATOM      4  C4  UNL d   1      -3.783   3.728   1.889  0.00  0.00    -0.042 A 
ATOM      5  C5  UNL d   1      -3.366   2.511   1.363  0.00  0.00     0.033 A 
ATOM      6  C6  UNL d   1      -4.102   1.902   0.343  0.00  0.00    -0.057 A 
ENDROOT
BRANCH   1   7
ATOM      7  N   UNL d   1      -6.000   1.784  -1.130  0.00  0.00    -0.732 N 
ATOM      8  C   UNL d   1      -6.000   0.337  -1.128  0.00  0.00     0.284 C 
ATOM      9  H3  UNL d   1      -6.913   2.200  -1.302  0.00  0.00     0.395 HD
ENDBRANCH   1   7
TORSDOF 1
ENDMDL
