MODEL 1
REMARK minimizedAffinity 4.01283264
REMARK minimizedRMSD -1
REMARK  1 active torsions:
REMARK  status: ('A' for Active; 'I' for Inactive)
REMARK    1  A    between atoms: N_2  and  C1_3 
ROOT
ATOM      1  C1  UNL d   1      -5.647   1.566  -0.477  0.00  0.00     0.143 A 
ATOM      2  C2  UNL d   1      -5.253   1.152   0.800  0.00  0.00    -0.057 A 
ATOM      3  C3  UNL d   1      -5.257   2.037   1.884  0.00  0.00     0.033 A 
ATOM      4  C4  UNL d   1      -5.628   3.365   1.704  0.00  0.00    -0.042 A 
ATOM      5  C5  UNL d   1      -6.000   3.806   0.439  0.00  0.00     0.033 A 
ATOM      6  C6  UNL d   1      -6.000   2.915  -0.639  0.00  0.00    -0.057 A 
ENDROOT
BRANCH   1   7
ATOM      7  N   UNL d   1      -5.570   0.760  -1.615  0.00  0.00    -0.732 N 
ATOM      8  C   UNL d   1      -4.686   1.107  -2.707  0.00  0.00     0.284 C 
ATOM      9  H3  UNL d   1      -5.582  -0.232  -1.389  0.00  0.00     0.395 HD
ENDBRANCH   1   7
TORSDOF 1
ENDMDL
