MODEL 1
REMARK minimizedAffinity -0.0875971392
REMARK minimizedRMSD -1
REMARK  1 active torsions:
REMARK  status: ('A' for Active; 'I' for Inactive)
REMARK    1  A    between atoms: N_2  and  C1_3 
ROOT
ATOM      1  C1  UNL d   1      -5.120   2.359  -1.047  0.00  0.00     0.143 A 
ATOM      2  C2  UNL d   1      -4.231   2.078  -0.004  0.00  0.00    -0.057 A 
ATOM      3  C3  UNL d   1      -4.241   2.825   1.180  0.00  0.00     0.033 A 
ATOM      4  C4  UNL d   1      -5.124   3.889   1.330  0.00  0.00    -0.042 A 
ATOM      5  C5  UNL d   1      -6.000   4.203   0.297  0.00  0.00     0.033 A 
ATOM      6  C6  UNL d   1      -5.989   3.448  -0.880  0.00  0.00    -0.057 A 
ENDROOT
BRANCH   1   7
ATOM      7  N   UNL d   1      -5.093   1.716  -2.287  0.00  0.00    -0.732 N 
ATOM      8  C   UNL d   1      -3.967   1.883  -3.180  0.00  0.00     0.284 C 
ATOM      9  H3  UNL d   1      -5.447   0.763  -2.238  0.00  0.00     0.395 HD
ENDBRANCH   1   7
TORSDOF 1
ENDMDL
