MODEL 1
REMARK minimizedAffinity 12.1746731
REMARK minimizedRMSD -1
REMARK  1 active torsions:
REMARK  status: ('A' for Active; 'I' for Inactive)
REMARK    1  A    between atoms: N_2  and  C1_3 
ROOT
ATOM      1  C1  UNL d   1       1.198  -1.749   1.274  0.00  0.00     0.143 A 
ATOM      2  C2  UNL d   1       1.106  -0.915   0.154  0.00  0.00    -0.057 A 
ATOM      3  C3  UNL d   1       1.032  -1.443  -1.140  0.00  0.00     0.033 A 
ATOM      4  C4  UNL d   1       1.077  -2.819  -1.340  0.00  0.00    -0.042 A 
ATOM      5  C5  UNL d   1       1.192  -3.666  -0.244  0.00  0.00     0.033 A 
ATOM      6  C6  UNL d   1       1.260  -3.133   1.047  0.00  0.00    -0.057 A 
ENDROOT
BRANCH   1   7
ATOM      7  N   UNL d   1       1.374  -1.283   2.579  0.00  0.00    -0.732 N 
ATOM      8  C   UNL d   1       1.522  -2.211   3.680  0.00  0.00     0.284 C 
ATOM      9  H3  UNL d   1       2.000  -0.481   2.624  0.00  0.00     0.395 HD
ENDBRANCH   1   7
TORSDOF 1
ENDMDL
