MODEL 1
REMARK minimizedAffinity -1.30919361
REMARK minimizedRMSD -1
REMARK  1 active torsions:
REMARK  status: ('A' for Active; 'I' for Inactive)
REMARK    1  A    between atoms: N_2  and  C1_3 
ROOT
ATOM      1  C1  UNL d   1      -4.778   2.726  -1.170  0.00  0.00     0.143 A 
ATOM      2  C2  UNL d   1      -5.897   3.382  -0.646  0.00  0.00    -0.057 A 
ATOM      3  C3  UNL d   1      -5.998   3.664   0.722  0.00  0.00     0.033 A 
ATOM      4  C4  UNL d   1      -4.992   3.267   1.597  0.00  0.00    -0.042 A 
ATOM      5  C5  UNL d   1      -3.883   2.591   1.102  0.00  0.00     0.033 A 
ATOM      6  C6  UNL d   1      -3.784   2.318  -0.266  0.00  0.00    -0.057 A 
ENDROOT
BRANCH   1   7
ATOM      7  N   UNL d   1      -4.663   2.329  -2.504  0.00  0.00    -0.732 N 
ATOM      8  C   UNL d   1      -3.369   2.017  -3.072  0.00  0.00     0.284 C 
ATOM      9  H3  UNL d   1      -5.405   1.693  -2.786  0.00  0.00     0.395 HD
ENDBRANCH   1   7
TORSDOF 1
ENDMDL
