MODEL 1
REMARK minimizedAffinity -2.01258016
REMARK minimizedRMSD -1
REMARK  0 active torsions:
REMARK  status: ('A' for Active; 'I' for Inactive)
ROOT
ATOM      1  C1  DEN d   1       5.882  -4.598   5.984  0.00  0.00     0.130 A 
ATOM      2  C2  DEN d   1       5.785  -5.986   5.542  0.00  0.00    -0.031 A 
ATOM      3  C3  DEN d   1       5.774  -5.996   4.065  0.00  0.00     0.027 A 
ATOM      4  C4  DEN d   1       5.900  -4.007   2.429  0.00  0.00     0.027 A 
ATOM      5  C5  DEN d   1       5.981  -2.635   2.333  0.00  0.00    -0.003 A 
ATOM      6  C6  DEN d   1       6.000  -1.826   3.438  0.00  0.00     0.001 A 
ATOM      7  C7  DEN d   1       5.983  -2.385   4.689  0.00  0.00     0.017 A 
ATOM      8  C8  DEN d   1       5.894  -3.767   4.793  0.00  0.00    -0.094 A 
ATOM      9  C9  DEN d   1       5.888  -4.568   3.664  0.00  0.00    -0.072 A 
ENDROOT
TORSDOF 0
ENDMDL
