MODEL 1
REMARK minimizedAffinity -3.54974413
REMARK minimizedRMSD -1
REMARK  0 active torsions:
REMARK  status: ('A' for Active; 'I' for Inactive)
ROOT
ATOM      1  C1  DEN d   1       5.707  -4.998   2.335  0.00  0.00     0.130 A 
ATOM      2  C2  DEN d   1       5.996  -3.865   1.461  0.00  0.00    -0.031 A 
ATOM      3  C3  DEN d   1       5.989  -2.639   2.284  0.00  0.00     0.027 A 
ATOM      4  C4  DEN d   1       5.567  -2.388   4.816  0.00  0.00     0.027 A 
ATOM      5  C5  DEN d   1       5.268  -3.066   5.977  0.00  0.00    -0.003 A 
ATOM      6  C6  DEN d   1       5.062  -4.420   5.999  0.00  0.00     0.001 A 
ATOM      7  C7  DEN d   1       5.198  -5.146   4.846  0.00  0.00     0.017 A 
ATOM      8  C8  DEN d   1       5.492  -4.469   3.670  0.00  0.00    -0.094 A 
ATOM      9  C9  DEN d   1       5.708  -3.101   3.670  0.00  0.00    -0.072 A 
ENDROOT
TORSDOF 0
ENDMDL
