MODEL 1
REMARK minimizedAffinity -3.06760764
REMARK minimizedRMSD -1
REMARK  0 active torsions:
REMARK  status: ('A' for Active; 'I' for Inactive)
ROOT
ATOM      1  C1  DEN d   1       5.986  -4.767   2.187  0.00  0.00     0.130 A 
ATOM      2  C2  DEN d   1       5.971  -3.554   1.375  0.00  0.00    -0.031 A 
ATOM      3  C3  DEN d   1       5.966  -2.393   2.288  0.00  0.00     0.027 A 
ATOM      4  C4  DEN d   1       5.984  -2.357   4.866  0.00  0.00     0.027 A 
ATOM      5  C5  DEN d   1       5.987  -3.140   6.000  0.00  0.00    -0.003 A 
ATOM      6  C6  DEN d   1       5.954  -4.508   5.943  0.00  0.00     0.001 A 
ATOM      7  C7  DEN d   1       5.965  -5.137   4.726  0.00  0.00     0.017 A 
ATOM      8  C8  DEN d   1       5.955  -4.355   3.579  0.00  0.00    -0.094 A 
ATOM      9  C9  DEN d   1       6.000  -2.973   3.657  0.00  0.00    -0.072 A 
ENDROOT
TORSDOF 0
ENDMDL
