MODEL 1
REMARK minimizedAffinity -3.37855363
REMARK minimizedRMSD -1
REMARK  0 active torsions:
REMARK  status: ('A' for Active; 'I' for Inactive)
ROOT
ATOM      1  C1  DEN d   1       5.281  -3.743   2.088  0.00  0.00     0.130 A 
ATOM      2  C2  DEN d   1       4.889  -2.355   2.319  0.00  0.00    -0.031 A 
ATOM      3  C3  DEN d   1       4.877  -2.120   3.777  0.00  0.00     0.027 A 
ATOM      4  C4  DEN d   1       5.430  -3.761   5.689  0.00  0.00     0.027 A 
ATOM      5  C5  DEN d   1       5.804  -5.053   5.987  0.00  0.00    -0.003 A 
ATOM      6  C6  DEN d   1       5.994  -6.000   5.016  0.00  0.00     0.001 A 
ATOM      7  C7  DEN d   1       5.856  -5.657   3.697  0.00  0.00     0.017 A 
ATOM      8  C8  DEN d   1       5.472  -4.358   3.389  0.00  0.00    -0.094 A 
ATOM      9  C9  DEN d   1       5.297  -3.412   4.384  0.00  0.00    -0.072 A 
ENDROOT
TORSDOF 0
ENDMDL
