MODEL 1
REMARK minimizedAffinity 1.0891304
REMARK minimizedRMSD -1
REMARK  0 active torsions:
REMARK  status: ('A' for Active; 'I' for Inactive)
ROOT
ATOM      1  C1  DEN d   1       3.553  -3.102   4.921  0.00  0.00     0.130 A 
ATOM      2  C2  DEN d   1       3.358  -4.530   5.157  0.00  0.00    -0.031 A 
ATOM      3  C3  DEN d   1       4.106  -5.271   4.122  0.00  0.00     0.027 A 
ATOM      4  C4  DEN d   1       5.544  -4.351   2.189  0.00  0.00     0.027 A 
ATOM      5  C5  DEN d   1       5.999  -3.205   1.575  0.00  0.00    -0.003 A 
ATOM      6  C6  DEN d   1       5.646  -1.955   2.008  0.00  0.00     0.001 A 
ATOM      7  C7  DEN d   1       4.850  -1.820   3.115  0.00  0.00     0.017 A 
ATOM      8  C8  DEN d   1       4.382  -2.971   3.735  0.00  0.00    -0.094 A 
ATOM      9  C9  DEN d   1       4.760  -4.226   3.289  0.00  0.00    -0.072 A 
ENDROOT
TORSDOF 0
ENDMDL
