MODEL 1
REMARK minimizedAffinity -3.11834168
REMARK minimizedRMSD -1
REMARK  0 active torsions:
REMARK  status: ('A' for Active; 'I' for Inactive)
ROOT
ATOM      1  C1  DEN d   1       5.785  -3.208   2.271  0.00  0.00     0.130 A 
ATOM      2  C2  DEN d   1       6.000  -4.500   1.626  0.00  0.00    -0.031 A 
ATOM      3  C3  DEN d   1       5.640  -5.558   2.592  0.00  0.00     0.027 A 
ATOM      4  C4  DEN d   1       4.773  -5.320   5.009  0.00  0.00     0.027 A 
ATOM      5  C5  DEN d   1       4.441  -4.422   6.000  0.00  0.00    -0.003 A 
ATOM      6  C6  DEN d   1       4.566  -3.069   5.830  0.00  0.00     0.001 A 
ATOM      7  C7  DEN d   1       4.991  -2.572   4.626  0.00  0.00     0.017 A 
ATOM      8  C8  DEN d   1       5.334  -3.471   3.625  0.00  0.00    -0.094 A 
ATOM      9  C9  DEN d   1       5.190  -4.836   3.812  0.00  0.00    -0.072 A 
ENDROOT
TORSDOF 0
ENDMDL
