MODEL 1
REMARK minimizedAffinity -4.05776405
REMARK minimizedRMSD -1
REMARK  0 active torsions:
REMARK  status: ('A' for Active; 'I' for Inactive)
ROOT
ATOM      1  C1  DEN d   1       5.991  -5.261   2.487  0.00  0.00     0.130 A 
ATOM      2  C2  DEN d   1       6.000  -4.214   1.470  0.00  0.00    -0.031 A 
ATOM      3  C3  DEN d   1       5.559  -2.956   2.106  0.00  0.00     0.027 A 
ATOM      4  C4  DEN d   1       4.873  -2.531   4.556  0.00  0.00     0.027 A 
ATOM      5  C5  DEN d   1       4.696  -3.117   5.790  0.00  0.00    -0.003 A 
ATOM      6  C6  DEN d   1       4.904  -4.454   6.000  0.00  0.00     0.001 A 
ATOM      7  C7  DEN d   1       5.345  -5.242   4.970  0.00  0.00     0.017 A 
ATOM      8  C8  DEN d   1       5.519  -4.660   3.721  0.00  0.00    -0.094 A 
ATOM      9  C9  DEN d   1       5.315  -3.304   3.532  0.00  0.00    -0.072 A 
ENDROOT
TORSDOF 0
ENDMDL
