MODEL 1
REMARK minimizedAffinity -0.433627486
REMARK minimizedRMSD -1
REMARK  0 active torsions:
REMARK  status: ('A' for Active; 'I' for Inactive)
ROOT
ATOM      1  C1  DEN d   1       5.962  -2.355   2.316  0.00  0.00     0.130 A 
ATOM      2  C2  DEN d   1       5.984  -3.437   1.335  0.00  0.00    -0.031 A 
ATOM      3  C3  DEN d   1       5.999  -4.718   2.070  0.00  0.00     0.027 A 
ATOM      4  C4  DEN d   1       5.984  -5.129   4.616  0.00  0.00     0.027 A 
ATOM      5  C5  DEN d   1       5.978  -4.520   5.851  0.00  0.00    -0.003 A 
ATOM      6  C6  DEN d   1       6.000  -3.158   5.994  0.00  0.00     0.001 A 
ATOM      7  C7  DEN d   1       5.983  -2.359   4.882  0.00  0.00     0.017 A 
ATOM      8  C8  DEN d   1       5.997  -2.966   3.633  0.00  0.00    -0.094 A 
ATOM      9  C9  DEN d   1       5.962  -4.344   3.509  0.00  0.00    -0.072 A 
ENDROOT
TORSDOF 0
ENDMDL
