MODEL 1
REMARK minimizedAffinity -4.02782202
REMARK minimizedRMSD -1
REMARK  0 active torsions:
REMARK  status: ('A' for Active; 'I' for Inactive)
ROOT
ATOM      1  C1  DEN d   1       4.497  -4.400   5.873  0.00  0.00     0.130 A 
ATOM      2  C2  DEN d   1       4.483  -2.945   5.996  0.00  0.00    -0.031 A 
ATOM      3  C3  DEN d   1       4.992  -2.375   4.733  0.00  0.00     0.027 A 
ATOM      4  C4  DEN d   1       5.792  -3.597   2.607  0.00  0.00     0.027 A 
ATOM      5  C5  DEN d   1       6.000  -4.831   2.033  0.00  0.00    -0.003 A 
ATOM      6  C6  DEN d   1       5.756  -6.000   2.705  0.00  0.00     0.001 A 
ATOM      7  C7  DEN d   1       5.246  -5.958   3.976  0.00  0.00     0.017 A 
ATOM      8  C8  DEN d   1       5.041  -4.716   4.564  0.00  0.00    -0.094 A 
ATOM      9  C9  DEN d   1       5.282  -3.547   3.864  0.00  0.00    -0.072 A 
ENDROOT
TORSDOF 0
ENDMDL
