MODEL 1
REMARK minimizedAffinity -1.55070603
REMARK minimizedRMSD -1
REMARK  0 active torsions:
REMARK  status: ('A' for Active; 'I' for Inactive)
ROOT
ATOM      1  C1  DEN d   1       3.457  -4.014   5.996  0.00  0.00     0.130 A 
ATOM      2  C2  DEN d   1       2.597  -5.069   5.469  0.00  0.00    -0.031 A 
ATOM      3  C3  DEN d   1       2.960  -5.290   4.055  0.00  0.00     0.027 A 
ATOM      4  C4  DEN d   1       4.765  -4.109   2.640  0.00  0.00     0.027 A 
ATOM      5  C5  DEN d   1       5.740  -3.137   2.649  0.00  0.00    -0.003 A 
ATOM      6  C6  DEN d   1       5.998  -2.371   3.756  0.00  0.00     0.001 A 
ATOM      7  C7  DEN d   1       5.301  -2.596   4.914  0.00  0.00     0.017 A 
ATOM      8  C8  DEN d   1       4.311  -3.570   4.910  0.00  0.00    -0.094 A 
ATOM      9  C9  DEN d   1       4.075  -4.342   3.785  0.00  0.00    -0.072 A 
ENDROOT
TORSDOF 0
ENDMDL
