MODEL 1
REMARK minimizedAffinity -3.68052459
REMARK minimizedRMSD -1
REMARK  0 active torsions:
REMARK  status: ('A' for Active; 'I' for Inactive)
ROOT
ATOM      1  C1  DEN d   1       5.967  -4.649   2.610  0.00  0.00     0.130 A 
ATOM      2  C2  DEN d   1       6.000  -5.939   3.295  0.00  0.00    -0.031 A 
ATOM      3  C3  DEN d   1       5.929  -5.686   4.748  0.00  0.00     0.027 A 
ATOM      4  C4  DEN d   1       5.769  -3.435   5.998  0.00  0.00     0.027 A 
ATOM      5  C5  DEN d   1       5.722  -2.067   5.844  0.00  0.00    -0.003 A 
ATOM      6  C6  DEN d   1       5.788  -1.467   4.615  0.00  0.00     0.001 A 
ATOM      7  C7  DEN d   1       5.858  -2.240   3.486  0.00  0.00     0.017 A 
ATOM      8  C8  DEN d   1       5.913  -3.620   3.632  0.00  0.00    -0.094 A 
ATOM      9  C9  DEN d   1       5.833  -4.208   4.883  0.00  0.00    -0.072 A 
ENDROOT
TORSDOF 0
ENDMDL
