MODEL 1
REMARK minimizedAffinity -3.52824759
REMARK minimizedRMSD -1
REMARK  0 active torsions:
REMARK  status: ('A' for Active; 'I' for Inactive)
ROOT
ATOM      1  C1  DEN d   1       5.679  -2.250   2.529  0.00  0.00     0.130 A 
ATOM      2  C2  DEN d   1       5.999  -3.171   1.442  0.00  0.00    -0.031 A 
ATOM      3  C3  DEN d   1       5.999  -4.542   1.991  0.00  0.00     0.027 A 
ATOM      4  C4  DEN d   1       5.531  -5.324   4.404  0.00  0.00     0.027 A 
ATOM      5  C5  DEN d   1       5.225  -4.906   5.680  0.00  0.00    -0.003 A 
ATOM      6  C6  DEN d   1       5.082  -3.582   6.000  0.00  0.00     0.001 A 
ATOM      7  C7  DEN d   1       5.203  -2.631   5.021  0.00  0.00     0.017 A 
ATOM      8  C8  DEN d   1       5.519  -3.044   3.734  0.00  0.00    -0.094 A 
ATOM      9  C9  DEN d   1       5.647  -4.388   3.428  0.00  0.00    -0.072 A 
ENDROOT
TORSDOF 0
ENDMDL
