MODEL 1
REMARK minimizedAffinity -4.1515007
REMARK minimizedRMSD -1
REMARK  0 active torsions:
REMARK  status: ('A' for Active; 'I' for Inactive)
ROOT
ATOM      1  C1  DEN d   1       5.822  -4.515   2.134  0.00  0.00     0.130 A 
ATOM      2  C2  DEN d   1       5.999  -3.262   1.404  0.00  0.00    -0.031 A 
ATOM      3  C3  DEN d   1       5.926  -2.153   2.377  0.00  0.00     0.027 A 
ATOM      4  C4  DEN d   1       5.564  -2.254   4.928  0.00  0.00     0.027 A 
ATOM      5  C5  DEN d   1       5.352  -3.093   6.000  0.00  0.00    -0.003 A 
ATOM      6  C6  DEN d   1       5.249  -4.451   5.855  0.00  0.00     0.001 A 
ATOM      7  C7  DEN d   1       5.403  -5.015   4.615  0.00  0.00     0.017 A 
ATOM      8  C8  DEN d   1       5.609  -4.174   3.529  0.00  0.00    -0.094 A 
ATOM      9  C9  DEN d   1       5.723  -2.805   3.699  0.00  0.00    -0.072 A 
ENDROOT
TORSDOF 0
ENDMDL
