MODEL 1
REMARK minimizedAffinity -3.7408762
REMARK minimizedRMSD -1
REMARK  0 active torsions:
REMARK  status: ('A' for Active; 'I' for Inactive)
ROOT
ATOM      1  C1  DEN d   1       6.000  -2.450   3.977  0.00  0.00     0.130 A 
ATOM      2  C2  DEN d   1       5.791  -2.962   5.329  0.00  0.00    -0.031 A 
ATOM      3  C3  DEN d   1       5.545  -4.415   5.234  0.00  0.00     0.027 A 
ATOM      4  C4  DEN d   1       5.472  -5.915   3.137  0.00  0.00     0.027 A 
ATOM      5  C5  DEN d   1       5.579  -5.930   1.764  0.00  0.00    -0.003 A 
ATOM      6  C6  DEN d   1       5.798  -4.791   1.035  0.00  0.00     0.001 A 
ATOM      7  C7  DEN d   1       5.962  -3.594   1.681  0.00  0.00     0.017 A 
ATOM      8  C8  DEN d   1       5.848  -3.569   3.065  0.00  0.00    -0.094 A 
ATOM      9  C9  DEN d   1       5.639  -4.733   3.784  0.00  0.00    -0.072 A 
ENDROOT
TORSDOF 0
ENDMDL
