MODEL 1
REMARK minimizedAffinity 6.84259653
REMARK minimizedRMSD -1
REMARK  0 active torsions:
REMARK  status: ('A' for Active; 'I' for Inactive)
ROOT
ATOM      1  C1  DEN d   1       4.427  -3.753   5.761  0.00  0.00     0.130 A 
ATOM      2  C2  DEN d   1       4.992  -2.424   5.978  0.00  0.00    -0.031 A 
ATOM      3  C3  DEN d   1       5.707  -2.027   4.749  0.00  0.00     0.027 A 
ATOM      4  C4  DEN d   1       5.988  -3.330   2.541  0.00  0.00     0.027 A 
ATOM      5  C5  DEN d   1       5.695  -4.506   1.887  0.00  0.00    -0.003 A 
ATOM      6  C6  DEN d   1       4.993  -5.519   2.485  0.00  0.00     0.001 A 
ATOM      7  C7  DEN d   1       4.522  -5.357   3.761  0.00  0.00     0.017 A 
ATOM      8  C8  DEN d   1       4.820  -4.177   4.430  0.00  0.00    -0.094 A 
ATOM      9  C9  DEN d   1       5.520  -3.160   3.803  0.00  0.00    -0.072 A 
ENDROOT
TORSDOF 0
ENDMDL
