MODEL 1
REMARK minimizedAffinity -4.13247633
REMARK minimizedRMSD -1
REMARK  0 active torsions:
REMARK  status: ('A' for Active; 'I' for Inactive)
ROOT
ATOM      1  C1  DEN d   1       5.958  -3.293   1.911  0.00  0.00     0.130 A 
ATOM      2  C2  DEN d   1       6.000  -1.897   2.338  0.00  0.00    -0.031 A 
ATOM      3  C3  DEN d   1       5.737  -1.856   3.791  0.00  0.00     0.027 A 
ATOM      4  C4  DEN d   1       5.276  -3.809   5.412  0.00  0.00     0.027 A 
ATOM      5  C5  DEN d   1       5.128  -5.175   5.510  0.00  0.00    -0.003 A 
ATOM      6  C6  DEN d   1       5.212  -5.999   4.420  0.00  0.00     0.001 A 
ATOM      7  C7  DEN d   1       5.496  -5.469   3.189  0.00  0.00     0.017 A 
ATOM      8  C8  DEN d   1       5.638  -4.092   3.080  0.00  0.00    -0.094 A 
ATOM      9  C9  DEN d   1       5.562  -3.277   4.196  0.00  0.00    -0.072 A 
ENDROOT
TORSDOF 0
ENDMDL
