MODEL 1
REMARK minimizedAffinity 7.6369319
REMARK minimizedRMSD -1
REMARK  0 active torsions:
REMARK  status: ('A' for Active; 'I' for Inactive)
ROOT
ATOM      1  C1  BNZ d   1      -5.998   0.259  -3.945  0.00  0.00     0.000 A 
ATOM      2  C2  BNZ d   1      -5.989  -1.111  -3.961  0.00  0.00     0.000 A 
ATOM      3  C3  BNZ d   1      -5.385  -1.795  -4.978  0.00  0.00     0.000 A 
ATOM      4  C4  BNZ d   1      -4.825  -1.111  -5.996  0.00  0.00     0.000 A 
ATOM      5  C5  BNZ d   1      -4.833   0.269  -6.000  0.00  0.00     0.000 A 
ATOM      6  C6  BNZ d   1      -5.409   0.955  -4.955  0.00  0.00     0.000 A 
ENDROOT
TORSDOF 0
ENDMDL
