MODEL 1
REMARK minimizedAffinity 3.9739604
REMARK minimizedRMSD -1
REMARK  0 active torsions:
REMARK  status: ('A' for Active; 'I' for Inactive)
ROOT
ATOM      1  C1  BNZ d   1      -2.731   4.913   5.073  0.00  0.00     0.000 A 
ATOM      2  C2  BNZ d   1      -2.282   4.020   4.138  0.00  0.00     0.000 A 
ATOM      3  C3  BNZ d   1      -2.756   2.738   4.109  0.00  0.00     0.000 A 
ATOM      4  C4  BNZ d   1      -3.647   2.340   5.039  0.00  0.00     0.000 A 
ATOM      5  C5  BNZ d   1      -4.103   3.226   5.995  0.00  0.00     0.000 A 
ATOM      6  C6  BNZ d   1      -3.653   4.526   5.997  0.00  0.00     0.000 A 
ENDROOT
TORSDOF 0
ENDMDL
