MODEL 1
REMARK minimizedAffinity 9.7769165
REMARK minimizedRMSD -1
REMARK  0 active torsions:
REMARK  status: ('A' for Active; 'I' for Inactive)
ROOT
ATOM      1  C1  BNZ d   1       5.838   0.428   0.215  0.00  0.00     0.000 A 
ATOM      2  C2  BNZ d   1       5.997  -0.081  -1.046  0.00  0.00     0.000 A 
ATOM      3  C3  BNZ d   1       5.999   0.742  -2.138  0.00  0.00     0.000 A 
ATOM      4  C4  BNZ d   1       5.802   2.066  -1.970  0.00  0.00     0.000 A 
ATOM      5  C5  BNZ d   1       5.631   2.593  -0.706  0.00  0.00     0.000 A 
ATOM      6  C6  BNZ d   1       5.668   1.766   0.394  0.00  0.00     0.000 A 
ENDROOT
TORSDOF 0
ENDMDL
