MODEL 1
REMARK minimizedAffinity 4.4018569
REMARK minimizedRMSD -1
REMARK  0 active torsions:
REMARK  status: ('A' for Active; 'I' for Inactive)
ROOT
ATOM      1  C1  BNZ d   1      -2.972   2.568  -4.507  0.00  0.00     0.000 A 
ATOM      2  C2  BNZ d   1      -3.776   2.675  -5.611  0.00  0.00     0.000 A 
ATOM      3  C3  BNZ d   1      -4.274   3.887  -6.000  0.00  0.00     0.000 A 
ATOM      4  C4  BNZ d   1      -4.000   4.983  -5.263  0.00  0.00     0.000 A 
ATOM      5  C5  BNZ d   1      -3.199   4.891  -4.143  0.00  0.00     0.000 A 
ATOM      6  C6  BNZ d   1      -2.668   3.675  -3.777  0.00  0.00     0.000 A 
ENDROOT
TORSDOF 0
ENDMDL
