MODEL 1
REMARK minimizedAffinity 0.300987393
REMARK minimizedRMSD -1
REMARK  0 active torsions:
REMARK  status: ('A' for Active; 'I' for Inactive)
ROOT
ATOM      1  C1  BNZ d   1      -1.304   5.840   4.807  0.00  0.00     0.000 A 
ATOM      2  C2  BNZ d   1      -0.604   5.627   3.649  0.00  0.00     0.000 A 
ATOM      3  C3  BNZ d   1       0.761   5.560   3.659  0.00  0.00     0.000 A 
ATOM      4  C4  BNZ d   1       1.426   5.745   4.818  0.00  0.00     0.000 A 
ATOM      5  C5  BNZ d   1       0.735   5.970   5.992  0.00  0.00     0.000 A 
ATOM      6  C6  BNZ d   1      -0.641   5.998   5.984  0.00  0.00     0.000 A 
ENDROOT
TORSDOF 0
ENDMDL
