MODEL 1
REMARK minimizedAffinity 6.11906672
REMARK minimizedRMSD -1
REMARK  0 active torsions:
REMARK  status: ('A' for Active; 'I' for Inactive)
ROOT
ATOM      1  C1  BNZ d   1       2.706  -3.935  -0.247  0.00  0.00     0.000 A 
ATOM      2  C2  BNZ d   1       1.480  -3.715   0.323  0.00  0.00     0.000 A 
ATOM      3  C3  BNZ d   1       1.262  -2.621   1.113  0.00  0.00     0.000 A 
ATOM      4  C4  BNZ d   1       2.279  -1.772   1.365  0.00  0.00     0.000 A 
ATOM      5  C5  BNZ d   1       3.523  -1.985   0.805  0.00  0.00     0.000 A 
ATOM      6  C6  BNZ d   1       3.728  -3.066  -0.021  0.00  0.00     0.000 A 
ENDROOT
TORSDOF 0
ENDMDL
