MODEL 1
REMARK minimizedAffinity 4.67098665
REMARK minimizedRMSD -1
REMARK  0 active torsions:
REMARK  status: ('A' for Active; 'I' for Inactive)
ROOT
ATOM      1  C1  BNZ d   1       4.516  -5.076   4.858  0.00  0.00     0.000 A 
ATOM      2  C2  BNZ d   1       4.223  -4.380   3.716  0.00  0.00     0.000 A 
ATOM      3  C3  BNZ d   1       4.266  -3.014   3.697  0.00  0.00     0.000 A 
ATOM      4  C4  BNZ d   1       4.561  -2.345   4.830  0.00  0.00     0.000 A 
ATOM      5  C5  BNZ d   1       4.850  -3.031   5.993  0.00  0.00     0.000 A 
ATOM      6  C6  BNZ d   1       4.844  -4.407   5.998  0.00  0.00     0.000 A 
ENDROOT
TORSDOF 0
ENDMDL
