MODEL 1
REMARK minimizedAffinity 6.22357178
REMARK minimizedRMSD -1
REMARK  0 active torsions:
REMARK  status: ('A' for Active; 'I' for Inactive)
ROOT
ATOM      1  C1  BNZ d   1      -0.935   0.973  -2.672  0.00  0.00     0.000 A 
ATOM      2  C2  BNZ d   1      -1.542  -0.008  -1.933  0.00  0.00     0.000 A 
ATOM      3  C3  BNZ d   1      -2.861   0.093  -1.587  0.00  0.00     0.000 A 
ATOM      4  C4  BNZ d   1      -3.558   1.191  -1.943  0.00  0.00     0.000 A 
ATOM      5  C5  BNZ d   1      -2.957   2.192  -2.680  0.00  0.00     0.000 A 
ATOM      6  C6  BNZ d   1      -1.641   2.069  -3.061  0.00  0.00     0.000 A 
ENDROOT
TORSDOF 0
ENDMDL
