MODEL 1
REMARK minimizedAffinity 6.89105177
REMARK minimizedRMSD -1
REMARK  0 active torsions:
REMARK  status: ('A' for Active; 'I' for Inactive)
ROOT
ATOM      1  C1  BNZ d   1      -5.622   0.419  -5.960  0.00  0.00     0.000 A 
ATOM      2  C2  BNZ d   1      -5.458  -0.940  -6.000  0.00  0.00     0.000 A 
ATOM      3  C3  BNZ d   1      -5.569  -1.691  -4.863  0.00  0.00     0.000 A 
ATOM      4  C4  BNZ d   1      -5.803  -1.080  -3.684  0.00  0.00     0.000 A 
ATOM      5  C5  BNZ d   1      -5.962   0.291  -3.627  0.00  0.00     0.000 A 
ATOM      6  C6  BNZ d   1      -5.888   1.040  -4.779  0.00  0.00     0.000 A 
ENDROOT
TORSDOF 0
ENDMDL
