MODEL 1
REMARK minimizedAffinity 3.73415875
REMARK minimizedRMSD -1
REMARK  0 active torsions:
REMARK  status: ('A' for Active; 'I' for Inactive)
ROOT
ATOM      1  C1  BNZ d   1       4.462   4.222  -5.655  0.00  0.00     0.000 A 
ATOM      2  C2  BNZ d   1       4.200   5.546  -5.884  0.00  0.00     0.000 A 
ATOM      3  C3  BNZ d   1       2.914   5.998  -5.984  0.00  0.00     0.000 A 
ATOM      4  C4  BNZ d   1       1.894   5.120  -5.896  0.00  0.00     0.000 A 
ATOM      5  C5  BNZ d   1       2.142   3.780  -5.675  0.00  0.00     0.000 A 
ATOM      6  C6  BNZ d   1       3.437   3.335  -5.535  0.00  0.00     0.000 A 
ENDROOT
TORSDOF 0
ENDMDL
