MODEL 1
REMARK minimizedAffinity 5.14290428
REMARK minimizedRMSD -1
REMARK  0 active torsions:
REMARK  status: ('A' for Active; 'I' for Inactive)
ROOT
ATOM      1  C1  BNZ d   1       1.973  -0.968   1.587  0.00  0.00     0.000 A 
ATOM      2  C2  BNZ d   1       2.959  -1.654   0.928  0.00  0.00     0.000 A 
ATOM      3  C3  BNZ d   1       2.693  -2.848   0.318  0.00  0.00     0.000 A 
ATOM      4  C4  BNZ d   1       1.454  -3.374   0.403  0.00  0.00     0.000 A 
ATOM      5  C5  BNZ d   1       0.452  -2.699   1.072  0.00  0.00     0.000 A 
ATOM      6  C6  BNZ d   1       0.714  -1.479   1.651  0.00  0.00     0.000 A 
ENDROOT
TORSDOF 0
ENDMDL
