MODEL 1
REMARK minimizedAffinity 0.263977885
REMARK minimizedRMSD -1
REMARK  0 active torsions:
REMARK  status: ('A' for Active; 'I' for Inactive)
ROOT
ATOM      1  C1  BNZ d   1      -5.355   4.885  -5.157  0.00  0.00     0.000 A 
ATOM      2  C2  BNZ d   1      -4.768   3.769  -5.689  0.00  0.00     0.000 A 
ATOM      3  C3  BNZ d   1      -3.432   3.751  -5.980  0.00  0.00     0.000 A 
ATOM      4  C4  BNZ d   1      -2.695   4.862  -5.776  0.00  0.00     0.000 A 
ATOM      5  C5  BNZ d   1      -3.275   5.999  -5.249  0.00  0.00     0.000 A 
ATOM      6  C6  BNZ d   1      -4.611   6.000  -4.921  0.00  0.00     0.000 A 
ENDROOT
TORSDOF 0
ENDMDL
