MODEL 1
REMARK minimizedAffinity -4.69605064
REMARK minimizedRMSD -1
REMARK  0 active torsions:
REMARK  status: ('A' for Active; 'I' for Inactive)
ROOT
ATOM      1  C   UNL d   1      -0.664   0.670   2.097  0.00  0.00     0.023 A 
ATOM      2  C1  UNL d   1       0.547   0.469   1.435  0.00  0.00     0.003 A 
ATOM      3  C2  UNL d   1       0.554   0.042   0.105  0.00  0.00     0.048 A 
ATOM      4  C3  UNL d   1      -0.653  -0.182  -0.556  0.00  0.00     0.023 A 
ATOM      5  C4  UNL d   1      -1.867   0.018   0.103  0.00  0.00     0.048 A 
ATOM      6  C5  UNL d   1      -1.869   0.445   1.432  0.00  0.00     0.003 A 
ATOM      7  I   UNL d   1      -0.644  -0.817  -2.535  0.00  0.00    -0.146 I 
ENDROOT
TORSDOF 0
ENDMDL
