MODEL 1
REMARK minimizedAffinity -3.15459681
REMARK minimizedRMSD -1
REMARK  0 active torsions:
REMARK  status: ('A' for Active; 'I' for Inactive)
ROOT
ATOM      1  C   UNL d   1      -1.336   0.773   2.213  0.00  0.00     0.023 A 
ATOM      2  C1  UNL d   1      -2.199   0.567   1.136  0.00  0.00     0.003 A 
ATOM      3  C2  UNL d   1      -1.683   0.367  -0.146  0.00  0.00     0.048 A 
ATOM      4  C3  UNL d   1      -0.303   0.373  -0.344  0.00  0.00     0.023 A 
ATOM      5  C4  UNL d   1       0.565   0.577   0.730  0.00  0.00     0.048 A 
ATOM      6  C5  UNL d   1       0.044   0.778   2.010  0.00  0.00     0.003 A 
ATOM      7  I   UNL d   1       0.468   0.075  -2.251  0.00  0.00    -0.146 I 
ENDROOT
TORSDOF 0
ENDMDL
