MODEL 1
REMARK minimizedAffinity -3.64669251
REMARK minimizedRMSD -1
REMARK  0 active torsions:
REMARK  status: ('A' for Active; 'I' for Inactive)
ROOT
ATOM      1  C   UNL d   1      -0.982   0.723   2.610  0.00  0.00     0.023 A 
ATOM      2  C1  UNL d   1      -1.904   0.490   1.590  0.00  0.00     0.003 A 
ATOM      3  C2  UNL d   1      -1.466   0.331   0.273  0.00  0.00     0.048 A 
ATOM      4  C3  UNL d   1      -0.104   0.405  -0.016  0.00  0.00     0.023 A 
ATOM      5  C4  UNL d   1       0.823   0.636   1.002  0.00  0.00     0.048 A 
ATOM      6  C5  UNL d   1       0.380   0.796   2.316  0.00  0.00     0.003 A 
ATOM      7  I   UNL d   1       0.550   0.168  -1.974  0.00  0.00    -0.146 I 
ENDROOT
TORSDOF 0
ENDMDL
