MODEL 1
REMARK minimizedAffinity -4.60738611
REMARK minimizedRMSD -1
REMARK  0 active torsions:
REMARK  status: ('A' for Active; 'I' for Inactive)
ROOT
ATOM      1  C   UNL d   1      -0.100   0.534   0.911  0.00  0.00     0.023 A 
ATOM      2  C1  UNL d   1       0.346   1.690   0.270  0.00  0.00     0.003 A 
ATOM      3  C2  UNL d   1       0.818   1.624  -1.043  0.00  0.00     0.048 A 
ATOM      4  C3  UNL d   1       0.839   0.399  -1.709  0.00  0.00     0.023 A 
ATOM      5  C4  UNL d   1       0.393  -0.760  -1.072  0.00  0.00     0.048 A 
ATOM      6  C5  UNL d   1      -0.077  -0.689   0.240  0.00  0.00     0.003 A 
ATOM      7  I   UNL d   1       1.540   0.299  -3.663  0.00  0.00    -0.146 I 
ENDROOT
TORSDOF 0
ENDMDL
