MODEL 1
REMARK minimizedAffinity -3.4361043
REMARK minimizedRMSD -1
REMARK  0 active torsions:
REMARK  status: ('A' for Active; 'I' for Inactive)
ROOT
ATOM      1  C   UNL d   1      -0.986   0.035   2.893  0.00  0.00     0.023 A 
ATOM      2  C1  UNL d   1       0.264  -0.541   2.669  0.00  0.00     0.003 A 
ATOM      3  C2  UNL d   1       0.755  -0.663   1.368  0.00  0.00     0.048 A 
ATOM      4  C3  UNL d   1      -0.009  -0.207   0.295  0.00  0.00     0.023 A 
ATOM      5  C4  UNL d   1      -1.261   0.371   0.514  0.00  0.00     0.048 A 
ATOM      6  C5  UNL d   1      -1.748   0.491   1.816  0.00  0.00     0.003 A 
ATOM      7  I   UNL d   1       0.720  -0.388  -1.643  0.00  0.00    -0.146 I 
ENDROOT
TORSDOF 0
ENDMDL
