MODEL 1
REMARK minimizedAffinity -4.14952803
REMARK minimizedRMSD -1
REMARK  0 active torsions:
REMARK  status: ('A' for Active; 'I' for Inactive)
ROOT
ATOM      1  C   UNL d   1      -1.024   0.976   2.307  0.00  0.00     0.023 A 
ATOM      2  C1  UNL d   1       0.344   0.943   2.036  0.00  0.00     0.003 A 
ATOM      3  C2  UNL d   1       0.805   0.420   0.826  0.00  0.00     0.048 A 
ATOM      4  C3  UNL d   1      -0.108  -0.067  -0.109  0.00  0.00     0.023 A 
ATOM      5  C4  UNL d   1      -1.478  -0.034   0.157  0.00  0.00     0.048 A 
ATOM      6  C5  UNL d   1      -1.934   0.488   1.369  0.00  0.00     0.003 A 
ATOM      7  I   UNL d   1       0.576  -0.845  -1.911  0.00  0.00    -0.146 I 
ENDROOT
TORSDOF 0
ENDMDL
