MODEL 1
REMARK minimizedAffinity -4.84261322
REMARK minimizedRMSD -1
REMARK  0 active torsions:
REMARK  status: ('A' for Active; 'I' for Inactive)
ROOT
ATOM      1  C   UNL d   1      -0.861   1.217   2.857  0.00  0.00     0.023 A 
ATOM      2  C1  UNL d   1       0.415   1.539   2.393  0.00  0.00     0.003 A 
ATOM      3  C2  UNL d   1       0.844   1.078   1.148  0.00  0.00     0.048 A 
ATOM      4  C3  UNL d   1      -0.008   0.295   0.370  0.00  0.00     0.023 A 
ATOM      5  C4  UNL d   1      -1.286  -0.030   0.829  0.00  0.00     0.048 A 
ATOM      6  C5  UNL d   1      -1.710   0.433   2.075  0.00  0.00     0.003 A 
ATOM      7  I   UNL d   1       0.628  -0.394  -1.486  0.00  0.00    -0.146 I 
ENDROOT
TORSDOF 0
ENDMDL
