MODEL 1
REMARK minimizedAffinity -4.59668255
REMARK minimizedRMSD -1
REMARK  3 active torsions:
REMARK  status: ('A' for Active; 'I' for Inactive)
REMARK    1  A    between atoms: C3'_2  and  C2'_3 
REMARK    2  A    between atoms: C2'_3  and  C1'_4 
REMARK    3  A    between atoms: C1'_4  and  C1_5 
ROOT
ATOM      1  C1  N4B d   1      -0.037  -0.305   0.407  0.00  0.00    -0.075 A 
ATOM      2  C2  N4B d   1      -1.122   0.593   0.515  0.00  0.00     0.002 A 
ATOM      3  C3  N4B d   1      -1.532   1.028   1.751  0.00  0.00     0.002 A 
ATOM      4  C4  N4B d   1      -0.888   0.567   2.889  0.00  0.00    -0.004 A 
ATOM      5  C5  N4B d   1       0.176  -0.280   2.775  0.00  0.00     0.002 A 
ATOM      6  C6  N4B d   1       0.601  -0.723   1.538  0.00  0.00     0.002 A 
ENDROOT
BRANCH   1   7
ATOM      7  C1' N4B d   1       0.393  -0.875  -0.917  0.00  0.00     0.057 C 
BRANCH   7   8
ATOM      8  C2' N4B d   1       0.783   0.266  -1.852  0.00  0.00     0.009 C 
BRANCH   8   9
ATOM      9  C3' N4B d   1       0.603  -0.109  -3.313  0.00  0.00     0.004 C 
ATOM     10  C4' N4B d   1      -0.215  -1.353  -3.497  0.00  0.00     0.003 C 
ENDBRANCH   8   9
ENDBRANCH   7   8
ENDBRANCH   1   7
TORSDOF 3
ENDMDL
