MODEL 1
REMARK minimizedAffinity -2.39355683
REMARK minimizedRMSD -1
REMARK  3 active torsions:
REMARK  status: ('A' for Active; 'I' for Inactive)
REMARK    1  A    between atoms: C3'_2  and  C2'_3 
REMARK    2  A    between atoms: C2'_3  and  C1'_4 
REMARK    3  A    between atoms: C1'_4  and  C1_5 
ROOT
ATOM      1  C1  N4B d   1       0.539  -0.282  -2.015  0.00  0.00    -0.075 A 
ATOM      2  C2  N4B d   1       1.288   0.913  -2.092  0.00  0.00     0.002 A 
ATOM      3  C3  N4B d   1       1.489   1.520  -3.308  0.00  0.00     0.002 A 
ATOM      4  C4  N4B d   1       0.970   0.942  -4.457  0.00  0.00    -0.004 A 
ATOM      5  C5  N4B d   1       0.227  -0.198  -4.371  0.00  0.00     0.002 A 
ATOM      6  C6  N4B d   1       0.013  -0.816  -3.156  0.00  0.00     0.002 A 
ENDROOT
BRANCH   1   7
ATOM      7  C1' N4B d   1       0.364  -1.027  -0.721  0.00  0.00     0.057 C 
BRANCH   7   8
ATOM      8  C2' N4B d   1       0.007  -0.037   0.383  0.00  0.00     0.009 C 
BRANCH   8   9
ATOM      9  C3' N4B d   1      -1.495   0.155   0.511  0.00  0.00     0.004 C 
ATOM     10  C4' N4B d   1      -1.943   0.300   1.934  0.00  0.00     0.003 C 
ENDBRANCH   8   9
ENDBRANCH   7   8
ENDBRANCH   1   7
TORSDOF 3
ENDMDL
