MODEL 1
REMARK minimizedAffinity -2.63950348
REMARK minimizedRMSD -1
REMARK  3 active torsions:
REMARK  status: ('A' for Active; 'I' for Inactive)
REMARK    1  A    between atoms: C3'_2  and  C2'_3 
REMARK    2  A    between atoms: C2'_3  and  C1'_4 
REMARK    3  A    between atoms: C1'_4  and  C1_5 
ROOT
ATOM      1  C1  N4B d   1       0.111  -0.315  -0.689  0.00  0.00    -0.075 A 
ATOM      2  C2  N4B d   1       1.048  -0.508   0.350  0.00  0.00     0.002 A 
ATOM      3  C3  N4B d   1       0.681  -0.288   1.655  0.00  0.00     0.002 A 
ATOM      4  C4  N4B d   1      -0.605   0.142   1.943  0.00  0.00    -0.004 A 
ATOM      5  C5  N4B d   1      -1.512   0.301   0.936  0.00  0.00     0.002 A 
ATOM      6  C6  N4B d   1      -1.158   0.080  -0.380  0.00  0.00     0.002 A 
ENDROOT
BRANCH   1   7
ATOM      7  C1' N4B d   1       0.490  -0.461  -2.137  0.00  0.00     0.057 C 
BRANCH   7   8
ATOM      8  C2' N4B d   1       1.751   0.354  -2.409  0.00  0.00     0.009 C 
BRANCH   8   9
ATOM      9  C3' N4B d   1       1.876   0.736  -3.874  0.00  0.00     0.004 C 
ATOM     10  C4' N4B d   1       0.558   1.091  -4.495  0.00  0.00     0.003 C 
ENDBRANCH   8   9
ENDBRANCH   7   8
ENDBRANCH   1   7
TORSDOF 3
ENDMDL
