MODEL 1
REMARK minimizedAffinity -3.98937058
REMARK minimizedRMSD -1
REMARK  3 active torsions:
REMARK  status: ('A' for Active; 'I' for Inactive)
REMARK    1  A    between atoms: C3'_2  and  C2'_3 
REMARK    2  A    between atoms: C2'_3  and  C1'_4 
REMARK    3  A    between atoms: C1'_4  and  C1_5 
ROOT
ATOM      1  C1  N4B d   1      -0.207   0.686   0.089  0.00  0.00    -0.075 A 
ATOM      2  C2  N4B d   1       0.876   0.922   0.964  0.00  0.00     0.002 A 
ATOM      3  C3  N4B d   1       0.648   1.094   2.307  0.00  0.00     0.002 A 
ATOM      4  C4  N4B d   1      -0.650   1.053   2.793  0.00  0.00    -0.004 A 
ATOM      5  C5  N4B d   1      -1.688   0.800   1.945  0.00  0.00     0.002 A 
ATOM      6  C6  N4B d   1      -1.473   0.621   0.593  0.00  0.00     0.002 A 
ENDROOT
BRANCH   1   7
ATOM      7  C1' N4B d   1      -0.016   0.578  -1.400  0.00  0.00     0.057 C 
BRANCH   7   8
ATOM      8  C2' N4B d   1       1.043   1.584  -1.843  0.00  0.00     0.009 C 
BRANCH   8   9
ATOM      9  C3' N4B d   1       1.279   1.536  -3.343  0.00  0.00     0.004 C 
ATOM     10  C4' N4B d   1       2.644   1.029  -3.700  0.00  0.00     0.003 C 
ENDBRANCH   8   9
ENDBRANCH   7   8
ENDBRANCH   1   7
TORSDOF 3
ENDMDL
