MODEL 1
REMARK minimizedAffinity -4.04716492
REMARK minimizedRMSD -1
REMARK  1 active torsions:
REMARK  status: ('A' for Active; 'I' for Inactive)
REMARK    1  A    between atoms: C1_2  and  C2_3 
ROOT
ATOM      1  C2  UNL d   1      -0.355   0.439  -0.180  0.00  0.00    -0.073 A 
ATOM      2  C3  UNL d   1       0.853   0.718  -0.829  0.00  0.00    -0.002 A 
ATOM      3  C4  UNL d   1       1.966  -0.099  -0.628  0.00  0.00     0.004 A 
ATOM      4  C5  UNL d   1       1.881  -1.206   0.217  0.00  0.00    -0.004 A 
ATOM      5  C6  UNL d   1       0.679  -1.508   0.865  0.00  0.00    -0.075 A 
ATOM      6  C7  UNL d   1       0.572  -2.693   1.779  0.00  0.00     0.076 C 
ATOM      7  C8  UNL d   1      -0.433  -0.681   0.660  0.00  0.00     0.001 A 
ENDROOT
BRANCH   1   8
ATOM      8  C1  UNL d   1      -1.561   1.315  -0.400  0.00  0.00     0.053 C 
ATOM      9  C   UNL d   1      -1.611   1.874  -1.813  0.00  0.00     0.018 C 
ENDBRANCH   1   8
TORSDOF 1
ENDMDL
