MODEL 1
REMARK minimizedAffinity -5.14456844
REMARK minimizedRMSD -1
REMARK  1 active torsions:
REMARK  status: ('A' for Active; 'I' for Inactive)
REMARK    1  A    between atoms: C1_2  and  C2_3 
ROOT
ATOM      1  C2  UNL d   1      -0.958   2.882  -3.959  0.00  0.00    -0.073 A 
ATOM      2  C3  UNL d   1      -2.085   2.208  -4.443  0.00  0.00    -0.002 A 
ATOM      3  C4  UNL d   1      -2.745   1.274  -3.643  0.00  0.00     0.004 A 
ATOM      4  C5  UNL d   1      -2.289   1.010  -2.351  0.00  0.00    -0.004 A 
ATOM      5  C6  UNL d   1      -1.172   1.682  -1.846  0.00  0.00    -0.075 A 
ATOM      6  C7  UNL d   1      -0.668   1.408  -0.459  0.00  0.00     0.076 C 
ATOM      7  C8  UNL d   1      -0.514   2.617  -2.656  0.00  0.00     0.001 A 
ENDROOT
BRANCH   1   8
ATOM      8  C1  UNL d   1      -0.247   3.897  -4.817  0.00  0.00     0.053 C 
ATOM      9  C   UNL d   1       0.722   4.747  -4.009  0.00  0.00     0.018 C 
ENDBRANCH   1   8
TORSDOF 1
ENDMDL
