MODEL 1
REMARK minimizedAffinity -5.15752602
REMARK minimizedRMSD -1
REMARK  1 active torsions:
REMARK  status: ('A' for Active; 'I' for Inactive)
REMARK    1  A    between atoms: C1_2  and  C2_3 
ROOT
ATOM      1  C2  UNL d   1      -0.909   2.178  -2.144  0.00  0.00    -0.073 A 
ATOM      2  C3  UNL d   1      -1.357   1.482  -3.272  0.00  0.00    -0.002 A 
ATOM      3  C4  UNL d   1      -1.217   2.038  -4.545  0.00  0.00     0.004 A 
ATOM      4  C5  UNL d   1      -0.624   3.291  -4.702  0.00  0.00    -0.004 A 
ATOM      5  C6  UNL d   1      -0.160   3.996  -3.587  0.00  0.00    -0.075 A 
ATOM      6  C7  UNL d   1       0.479   5.346  -3.739  0.00  0.00     0.076 C 
ATOM      7  C8  UNL d   1      -0.306   3.432  -2.313  0.00  0.00     0.001 A 
ENDROOT
BRANCH   1   8
ATOM      8  C1  UNL d   1      -1.052   1.578  -0.769  0.00  0.00     0.053 C 
ATOM      9  C   UNL d   1       0.136   0.702  -0.403  0.00  0.00     0.018 C 
ENDBRANCH   1   8
TORSDOF 1
ENDMDL
