MODEL 1
REMARK minimizedAffinity -4.82426405
REMARK minimizedRMSD -1
REMARK  1 active torsions:
REMARK  status: ('A' for Active; 'I' for Inactive)
REMARK    1  A    between atoms: C1_2  and  C2_3 
ROOT
ATOM      1  C2  UNL d   1       0.645  -0.418   0.161  0.00  0.00    -0.073 A 
ATOM      2  C3  UNL d   1       1.671  -1.369   0.194  0.00  0.00    -0.002 A 
ATOM      3  C4  UNL d   1       1.619  -2.431   1.097  0.00  0.00     0.004 A 
ATOM      4  C5  UNL d   1       0.540  -2.557   1.971  0.00  0.00    -0.004 A 
ATOM      5  C6  UNL d   1      -0.501  -1.624   1.946  0.00  0.00    -0.075 A 
ATOM      6  C7  UNL d   1      -1.668  -1.744   2.881  0.00  0.00     0.076 C 
ATOM      7  C8  UNL d   1      -0.441  -0.558   1.038  0.00  0.00     0.001 A 
ENDROOT
BRANCH   1   8
ATOM      8  C1  UNL d   1       0.693   0.727  -0.817  0.00  0.00     0.053 C 
ATOM      9  C   UNL d   1      -0.637   1.460  -0.903  0.00  0.00     0.018 C 
ENDBRANCH   1   8
TORSDOF 1
ENDMDL
