MODEL 1
REMARK minimizedAffinity -4.13470459
REMARK minimizedRMSD -1
REMARK  1 active torsions:
REMARK  status: ('A' for Active; 'I' for Inactive)
REMARK    1  A    between atoms: C1_2  and  C2_3 
ROOT
ATOM      1  C2  UNL d   1      -0.963   1.798  -1.499  0.00  0.00    -0.073 A 
ATOM      2  C3  UNL d   1      -1.979   1.128  -2.191  0.00  0.00    -0.002 A 
ATOM      3  C4  UNL d   1      -2.352   1.542  -3.470  0.00  0.00     0.004 A 
ATOM      4  C5  UNL d   1      -1.709   2.623  -4.074  0.00  0.00    -0.004 A 
ATOM      5  C6  UNL d   1      -0.683   3.297  -3.404  0.00  0.00    -0.075 A 
ATOM      6  C7  UNL d   1       0.017   4.463  -4.038  0.00  0.00     0.076 C 
ATOM      7  C8  UNL d   1      -0.316   2.877  -2.118  0.00  0.00     0.001 A 
ENDROOT
BRANCH   1   8
ATOM      8  C1  UNL d   1      -0.553   1.351  -0.120  0.00  0.00     0.053 C 
ATOM      9  C   UNL d   1       0.479   0.235  -0.166  0.00  0.00     0.018 C 
ENDBRANCH   1   8
TORSDOF 1
ENDMDL
