MODEL 1
REMARK minimizedAffinity -5.25752401
REMARK minimizedRMSD -1
REMARK  1 active torsions:
REMARK  status: ('A' for Active; 'I' for Inactive)
REMARK    1  A    between atoms: C1_2  and  C2_3 
ROOT
ATOM      1  C2  UNL d   1      -1.241   1.465  -1.641  0.00  0.00    -0.073 A 
ATOM      2  C3  UNL d   1      -2.457   1.008  -2.161  0.00  0.00    -0.002 A 
ATOM      3  C4  UNL d   1      -2.809   1.287  -3.482  0.00  0.00     0.004 A 
ATOM      4  C5  UNL d   1      -1.947   2.020  -4.297  0.00  0.00    -0.004 A 
ATOM      5  C6  UNL d   1      -0.722   2.476  -3.800  0.00  0.00    -0.075 A 
ATOM      6  C7  UNL d   1       0.215   3.268  -4.664  0.00  0.00     0.076 C 
ATOM      7  C8  UNL d   1      -0.377   2.194  -2.471  0.00  0.00     0.001 A 
ENDROOT
BRANCH   1   8
ATOM      8  C1  UNL d   1      -0.854   1.160  -0.217  0.00  0.00     0.053 C 
ATOM      9  C   UNL d   1       0.223   0.090  -0.136  0.00  0.00     0.018 C 
ENDBRANCH   1   8
TORSDOF 1
ENDMDL
