MODEL 1
REMARK minimizedAffinity -6.07034779
REMARK minimizedRMSD -1
REMARK  1 active torsions:
REMARK  status: ('A' for Active; 'I' for Inactive)
REMARK    1  A    between atoms: C1_2  and  C2_3 
ROOT
ATOM      1  C2  UNL d   1      -0.685   2.582  -3.642  0.00  0.00    -0.073 A 
ATOM      2  C3  UNL d   1      -1.905   1.975  -3.961  0.00  0.00    -0.002 A 
ATOM      3  C4  UNL d   1      -2.562   1.177  -3.024  0.00  0.00     0.004 A 
ATOM      4  C5  UNL d   1      -2.010   0.983  -1.758  0.00  0.00    -0.004 A 
ATOM      5  C6  UNL d   1      -0.798   1.590  -1.416  0.00  0.00    -0.075 A 
ATOM      6  C7  UNL d   1      -0.190   1.389  -0.059  0.00  0.00     0.076 C 
ATOM      7  C8  UNL d   1      -0.143   2.388  -2.363  0.00  0.00     0.001 A 
ENDROOT
BRANCH   1   8
ATOM      8  C1  UNL d   1       0.025   3.450  -4.649  0.00  0.00     0.053 C 
ATOM      9  C   UNL d   1       0.982   4.427  -3.984  0.00  0.00     0.018 C 
ENDBRANCH   1   8
TORSDOF 1
ENDMDL
