MODEL 1
REMARK minimizedAffinity -6.183074
REMARK minimizedRMSD -1
REMARK  1 active torsions:
REMARK  status: ('A' for Active; 'I' for Inactive)
REMARK    1  A    between atoms: C1_2  and  C2_3 
ROOT
ATOM      1  C2  UNL d   1      -0.714   2.953  -3.842  0.00  0.00    -0.073 A 
ATOM      2  C3  UNL d   1      -2.011   2.579  -4.212  0.00  0.00    -0.002 A 
ATOM      3  C4  UNL d   1      -2.819   1.865  -3.325  0.00  0.00     0.004 A 
ATOM      4  C5  UNL d   1      -2.342   1.524  -2.060  0.00  0.00    -0.004 A 
ATOM      5  C6  UNL d   1      -1.052   1.899  -1.668  0.00  0.00    -0.075 A 
ATOM      6  C7  UNL d   1      -0.523   1.538  -0.311  0.00  0.00     0.076 C 
ATOM      7  C8  UNL d   1      -0.246   2.613  -2.565  0.00  0.00     0.001 A 
ENDROOT
BRANCH   1   8
ATOM      8  C1  UNL d   1       0.159   3.729  -4.794  0.00  0.00     0.053 C 
ATOM      9  C   UNL d   1       0.411   5.147  -4.308  0.00  0.00     0.018 C 
ENDBRANCH   1   8
TORSDOF 1
ENDMDL
