MODEL 1
REMARK minimizedAffinity -3.77820611
REMARK minimizedRMSD -1
REMARK  1 active torsions:
REMARK  status: ('A' for Active; 'I' for Inactive)
REMARK    1  A    between atoms: C1_2  and  C2_3 
ROOT
ATOM      1  C2  UNL d   1       0.711  -1.443  -0.223  0.00  0.00    -0.081 A 
ATOM      2  C3  UNL d   1       0.697  -0.054  -0.049  0.00  0.00     0.006 A 
ATOM      3  C4  UNL d   1       1.893   0.655   0.090  0.00  0.00     0.002 A 
ATOM      4  C5  UNL d   1       3.122  -0.012   0.049  0.00  0.00    -0.080 A 
ATOM      5  C6  UNL d   1       4.414   0.740   0.166  0.00  0.00     0.076 C 
ATOM      6  C7  UNL d   1       3.135  -1.403  -0.108  0.00  0.00     0.002 A 
ATOM      7  C8  UNL d   1       1.940  -2.111  -0.246  0.00  0.00     0.006 A 
ENDROOT
BRANCH   1   8
ATOM      8  C1  UNL d   1      -0.574  -2.201  -0.437  0.00  0.00     0.054 C 
ATOM      9  C   UNL d   1      -0.740  -2.608  -1.894  0.00  0.00     0.018 C 
ENDBRANCH   1   8
TORSDOF 1
ENDMDL
