MODEL 1
REMARK minimizedAffinity 2.07966137
REMARK minimizedRMSD -1
REMARK  1 active torsions:
REMARK  status: ('A' for Active; 'I' for Inactive)
REMARK    1  A    between atoms: C1_2  and  C2_3 
ROOT
ATOM      1  C2  UNL d   1       0.904  -0.980  -0.304  0.00  0.00    -0.081 A 
ATOM      2  C3  UNL d   1       1.104   0.369   0.015  0.00  0.00     0.006 A 
ATOM      3  C4  UNL d   1       2.386   0.924  -0.029  0.00  0.00     0.002 A 
ATOM      4  C5  UNL d   1       3.485   0.143  -0.400  0.00  0.00    -0.080 A 
ATOM      5  C6  UNL d   1       4.861   0.734  -0.481  0.00  0.00     0.076 C 
ATOM      6  C7  UNL d   1       3.288  -1.209  -0.702  0.00  0.00     0.002 A 
ATOM      7  C8  UNL d   1       2.007  -1.765  -0.658  0.00  0.00     0.006 A 
ENDROOT
BRANCH   1   8
ATOM      8  C1  UNL d   1      -0.485  -1.565  -0.320  0.00  0.00     0.054 C 
ATOM      9  C   UNL d   1      -0.829  -2.135  -1.689  0.00  0.00     0.018 C 
ENDBRANCH   1   8
TORSDOF 1
ENDMDL
