MODEL 1
REMARK minimizedAffinity 10.2507277
REMARK minimizedRMSD -1
REMARK  1 active torsions:
REMARK  status: ('A' for Active; 'I' for Inactive)
REMARK    1  A    between atoms: C1_2  and  C2_3 
ROOT
ATOM      1  C2  UNL d   1      -4.365  -0.137  -0.453  0.00  0.00    -0.081 A 
ATOM      2  C3  UNL d   1      -4.104   0.608   0.704  0.00  0.00     0.006 A 
ATOM      3  C4  UNL d   1      -2.823   1.106   0.952  0.00  0.00     0.002 A 
ATOM      4  C5  UNL d   1      -1.784   0.875   0.044  0.00  0.00    -0.080 A 
ATOM      5  C6  UNL d   1      -0.411   1.430   0.283  0.00  0.00     0.076 C 
ATOM      6  C7  UNL d   1      -2.040   0.116  -1.103  0.00  0.00     0.002 A 
ATOM      7  C8  UNL d   1      -3.321  -0.383  -1.351  0.00  0.00     0.006 A 
ENDROOT
BRANCH   1   8
ATOM      8  C1  UNL d   1      -5.761  -0.620  -0.755  0.00  0.00     0.054 C 
ATOM      9  C   UNL d   1      -6.000  -0.719  -2.254  0.00  0.00     0.018 C 
ENDBRANCH   1   8
TORSDOF 1
ENDMDL
