MODEL 1
REMARK minimizedAffinity -1.3568356
REMARK minimizedRMSD -1
REMARK  0 active torsions:
REMARK  status: ('A' for Active; 'I' for Inactive)
ROOT
ATOM      1  C4' PXY d   1      -0.899   0.982   2.349  0.00  0.00     0.077 C 
ATOM      2  C1' PXY d   1       1.490  -1.894  -2.059  0.00  0.00     0.077 C 
ATOM      3  C1  PXY d   1       0.864  -1.129  -0.910  0.00  0.00    -0.082 A 
ATOM      4  C2  PXY d   1       0.975  -1.594   0.323  0.00  0.00     0.003 A 
ATOM      5  C3  PXY d   1       0.388  -0.932   1.370  0.00  0.00     0.003 A 
ATOM      6  C4  PXY d   1      -0.275   0.248   1.160  0.00  0.00    -0.082 A 
ATOM      7  C5  PXY d   1      -0.384   0.735  -0.095  0.00  0.00     0.003 A 
ATOM      8  C6  PXY d   1       0.184   0.026  -1.149  0.00  0.00     0.003 A 
ENDROOT
TORSDOF 0
ENDMDL
