MODEL 1
REMARK minimizedAffinity -1.01794934
REMARK minimizedRMSD -1
REMARK  0 active torsions:
REMARK  status: ('A' for Active; 'I' for Inactive)
ROOT
ATOM      1  C4' PXY d   1      -2.090   0.350   2.181  0.00  0.00     0.077 C 
ATOM      2  C1' PXY d   1       1.545  -1.546  -1.894  0.00  0.00     0.077 C 
ATOM      3  C1  PXY d   1       0.594  -1.036  -0.829  0.00  0.00    -0.082 A 
ATOM      4  C2  PXY d   1       0.303  -1.804   0.209  0.00  0.00     0.003 A 
ATOM      5  C3  PXY d   1      -0.580  -1.371   1.165  0.00  0.00     0.003 A 
ATOM      6  C4  PXY d   1      -1.128  -0.119   1.086  0.00  0.00    -0.082 A 
ATOM      7  C5  PXY d   1      -0.827   0.674   0.036  0.00  0.00     0.003 A 
ATOM      8  C6  PXY d   1       0.039   0.200  -0.945  0.00  0.00     0.003 A 
ENDROOT
TORSDOF 0
ENDMDL
