MODEL 1
REMARK minimizedAffinity -1.14861369
REMARK minimizedRMSD -1
REMARK  0 active torsions:
REMARK  status: ('A' for Active; 'I' for Inactive)
ROOT
ATOM      1  C4' PXY d   1      -1.476   0.705   2.824  0.00  0.00     0.077 C 
ATOM      2  C1' PXY d   1       1.458  -1.353  -1.711  0.00  0.00     0.077 C 
ATOM      3  C1  PXY d   1       0.687  -0.802  -0.528  0.00  0.00    -0.082 A 
ATOM      4  C2  PXY d   1       0.866  -1.330   0.672  0.00  0.00     0.003 A 
ATOM      5  C3  PXY d   1       0.153  -0.864   1.747  0.00  0.00     0.003 A 
ATOM      6  C4  PXY d   1      -0.712   0.187   1.602  0.00  0.00    -0.082 A 
ATOM      7  C5  PXY d   1      -0.892   0.738   0.383  0.00  0.00     0.003 A 
ATOM      8  C6  PXY d   1      -0.190   0.224  -0.703  0.00  0.00     0.003 A 
ENDROOT
TORSDOF 0
ENDMDL
