MODEL 1
REMARK minimizedAffinity -3.0229547
REMARK minimizedRMSD -1
REMARK  0 active torsions:
REMARK  status: ('A' for Active; 'I' for Inactive)
ROOT
ATOM      1  C4' PXY d   1       1.000   1.837  -2.622  0.00  0.00     0.077 C 
ATOM      2  C1' PXY d   1       0.077  -2.768   0.748  0.00  0.00     0.077 C 
ATOM      3  C1  PXY d   1       0.307  -1.556  -0.133  0.00  0.00    -0.082 A 
ATOM      4  C2  PXY d   1       1.244  -1.594  -1.066  0.00  0.00     0.003 A 
ATOM      5  C3  PXY d   1       1.487  -0.496  -1.851  0.00  0.00     0.003 A 
ATOM      6  C4  PXY d   1       0.726   0.634  -1.715  0.00  0.00    -0.082 A 
ATOM      7  C5  PXY d   1      -0.239   0.677  -0.772  0.00  0.00     0.003 A 
ATOM      8  C6  PXY d   1      -0.442  -0.433   0.042  0.00  0.00     0.003 A 
ENDROOT
TORSDOF 0
ENDMDL
