MODEL 1
REMARK minimizedAffinity -4.03895426
REMARK minimizedRMSD -1
REMARK  0 active torsions:
REMARK  status: ('A' for Active; 'I' for Inactive)
ROOT
ATOM      1  C4' PXY d   1       3.772   0.621  -2.590  0.00  0.00     0.077 C 
ATOM      2  C1' PXY d   1      -0.872  -0.952   0.472  0.00  0.00     0.077 C 
ATOM      3  C1  PXY d   1       0.340  -0.528  -0.333  0.00  0.00    -0.082 A 
ATOM      4  C2  PXY d   1       1.080  -1.445  -0.935  0.00  0.00     0.003 A 
ATOM      5  C3  PXY d   1       2.198  -1.082  -1.640  0.00  0.00     0.003 A 
ATOM      6  C4  PXY d   1       2.533   0.239  -1.775  0.00  0.00    -0.082 A 
ATOM      7  C5  PXY d   1       1.778   1.182  -1.173  0.00  0.00     0.003 A 
ATOM      8  C6  PXY d   1       0.670   0.789  -0.427  0.00  0.00     0.003 A 
ENDROOT
TORSDOF 0
ENDMDL
