MODEL 1
REMARK minimizedAffinity -3.43621635
REMARK minimizedRMSD -1
REMARK  0 active torsions:
REMARK  status: ('A' for Active; 'I' for Inactive)
ROOT
ATOM      1  C4' PXY d   1      -2.144   0.355   1.055  0.00  0.00     0.077 C 
ATOM      2  C1' PXY d   1       2.966  -1.474  -0.935  0.00  0.00     0.077 C 
ATOM      3  C1  PXY d   1       1.629  -0.982  -0.417  0.00  0.00    -0.082 A 
ATOM      4  C2  PXY d   1       1.019  -1.645   0.552  0.00  0.00     0.003 A 
ATOM      5  C3  PXY d   1      -0.206  -1.233   1.010  0.00  0.00     0.003 A 
ATOM      6  C4  PXY d   1      -0.788  -0.100   0.508  0.00  0.00    -0.082 A 
ATOM      7  C5  PXY d   1      -0.167   0.588  -0.474  0.00  0.00     0.003 A 
ATOM      8  C6  PXY d   1       1.056   0.130  -0.954  0.00  0.00     0.003 A 
ENDROOT
TORSDOF 0
ENDMDL
