MODEL 1
REMARK minimizedAffinity -3.64145947
REMARK minimizedRMSD -1
REMARK  0 active torsions:
REMARK  status: ('A' for Active; 'I' for Inactive)
ROOT
ATOM      1  C4' PXY d   1      -1.592   0.752   1.121  0.00  0.00     0.077 C 
ATOM      2  C1' PXY d   1       2.676  -1.299  -2.195  0.00  0.00     0.077 C 
ATOM      3  C1  PXY d   1       1.560  -0.749  -1.329  0.00  0.00    -0.082 A 
ATOM      4  C2  PXY d   1       1.055  -1.496  -0.360  0.00  0.00     0.003 A 
ATOM      5  C3  PXY d   1       0.025  -1.027   0.413  0.00  0.00     0.003 A 
ATOM      6  C4  PXY d   1      -0.458   0.241   0.227  0.00  0.00    -0.082 A 
ATOM      7  C5  PXY d   1       0.059   1.013  -0.752  0.00  0.00     0.003 A 
ATOM      8  C6  PXY d   1       1.076   0.503  -1.552  0.00  0.00     0.003 A 
ENDROOT
TORSDOF 0
ENDMDL
