MODEL 1
REMARK minimizedAffinity -4.35140228
REMARK minimizedRMSD -1
REMARK  0 active torsions:
REMARK  status: ('A' for Active; 'I' for Inactive)
ROOT
ATOM      1  C4' PXY d   1       2.785  -0.325  -2.526  0.00  0.00     0.077 C 
ATOM      2  C1' PXY d   1      -1.691   0.735   0.974  0.00  0.00     0.077 C 
ATOM      3  C1  PXY d   1      -0.523   0.464   0.047  0.00  0.00    -0.082 A 
ATOM      4  C2  PXY d   1       0.215  -0.620   0.223  0.00  0.00     0.003 A 
ATOM      5  C3  PXY d   1       1.294  -0.864  -0.586  0.00  0.00     0.003 A 
ATOM      6  C4  PXY d   1       1.590  -0.016  -1.620  0.00  0.00    -0.082 A 
ATOM      7  C5  PXY d   1       0.836   1.086  -1.813  0.00  0.00     0.003 A 
ATOM      8  C6  PXY d   1      -0.231   1.337  -0.955  0.00  0.00     0.003 A 
ENDROOT
TORSDOF 0
ENDMDL
