MODEL 1
REMARK minimizedAffinity 6.93684149
REMARK minimizedRMSD -1
REMARK  0 active torsions:
REMARK  status: ('A' for Active; 'I' for Inactive)
ROOT
ATOM      1  C4' PXY d   1      -5.289  -3.233   3.343  0.00  0.00     0.077 C 
ATOM      2  C1' PXY d   1      -1.386   0.996   3.894  0.00  0.00     0.077 C 
ATOM      3  C1  PXY d   1      -2.405  -0.118   3.760  0.00  0.00    -0.082 A 
ATOM      4  C2  PXY d   1      -2.912  -0.402   2.571  0.00  0.00     0.003 A 
ATOM      5  C3  PXY d   1      -3.858  -1.386   2.438  0.00  0.00     0.003 A 
ATOM      6  C4  PXY d   1      -4.250  -2.122   3.523  0.00  0.00    -0.082 A 
ATOM      7  C5  PXY d   1      -3.730  -1.845   4.738  0.00  0.00     0.003 A 
ATOM      8  C6  PXY d   1      -2.802  -0.815   4.859  0.00  0.00     0.003 A 
ENDROOT
TORSDOF 0
ENDMDL
