MODEL 1
REMARK minimizedAffinity -3.20730281
REMARK minimizedRMSD -1
REMARK  0 active torsions:
REMARK  status: ('A' for Active; 'I' for Inactive)
ROOT
ATOM      1  C4' PXY d   1      -2.192   0.103   1.500  0.00  0.00     0.077 C 
ATOM      2  C1' PXY d   1       2.480  -1.534  -1.485  0.00  0.00     0.077 C 
ATOM      3  C1  PXY d   1       1.260  -1.092  -0.701  0.00  0.00    -0.082 A 
ATOM      4  C2  PXY d   1       0.544  -1.991  -0.044  0.00  0.00     0.003 A 
ATOM      5  C3  PXY d   1      -0.581  -1.614   0.644  0.00  0.00     0.003 A 
ATOM      6  C4  PXY d   1      -0.947  -0.296   0.703  0.00  0.00    -0.082 A 
ATOM      7  C5  PXY d   1      -0.215   0.628   0.045  0.00  0.00     0.003 A 
ATOM      8  C6  PXY d   1       0.899   0.219  -0.681  0.00  0.00     0.003 A 
ENDROOT
TORSDOF 0
ENDMDL
