MODEL 1
REMARK minimizedAffinity -3.69941115
REMARK minimizedRMSD -1
REMARK  0 active torsions:
REMARK  status: ('A' for Active; 'I' for Inactive)
ROOT
ATOM      1  C4' PXY d   1      -0.369   2.405  -1.739  0.00  0.00     0.077 C 
ATOM      2  C1' PXY d   1       1.053  -2.960  -0.124  0.00  0.00     0.077 C 
ATOM      3  C1  PXY d   1       0.669  -1.554  -0.541  0.00  0.00    -0.082 A 
ATOM      4  C2  PXY d   1       1.219  -1.018  -1.618  0.00  0.00     0.003 A 
ATOM      5  C3  PXY d   1       0.907   0.264  -1.992  0.00  0.00     0.003 A 
ATOM      6  C4  PXY d   1      -0.018   0.985  -1.286  0.00  0.00    -0.082 A 
ATOM      7  C5  PXY d   1      -0.592   0.442  -0.191  0.00  0.00     0.003 A 
ATOM      8  C6  PXY d   1      -0.231  -0.846   0.195  0.00  0.00     0.003 A 
ENDROOT
TORSDOF 0
ENDMDL
