MODEL 1
REMARK minimizedAffinity -3.88055682
REMARK minimizedRMSD -1
REMARK  0 active torsions:
REMARK  status: ('A' for Active; 'I' for Inactive)
ROOT
ATOM      1  C4' PXY d   1      -1.909   0.222   1.193  0.00  0.00     0.077 C 
ATOM      2  C1' PXY d   1       2.415   0.079  -2.640  0.00  0.00     0.077 C 
ATOM      3  C1  PXY d   1       1.281   0.129  -1.636  0.00  0.00    -0.082 A 
ATOM      4  C2  PXY d   1       1.152  -0.840  -0.745  0.00  0.00     0.003 A 
ATOM      5  C3  PXY d   1       0.113  -0.826   0.150  0.00  0.00     0.003 A 
ATOM      6  C4  PXY d   1      -0.773   0.217   0.167  0.00  0.00    -0.082 A 
ATOM      7  C5  PXY d   1      -0.642   1.215  -0.733  0.00  0.00     0.003 A 
ATOM      8  C6  PXY d   1       0.395   1.162  -1.659  0.00  0.00     0.003 A 
ENDROOT
TORSDOF 0
ENDMDL
