MODEL 1
REMARK minimizedAffinity -1.48490775
REMARK minimizedRMSD -1
REMARK  0 active torsions:
REMARK  status: ('A' for Active; 'I' for Inactive)
ROOT
ATOM      1  C4' PXY d   1       1.119  -2.528  -0.740  0.00  0.00     0.077 C 
ATOM      2  C1' PXY d   1      -0.292   2.938  -1.985  0.00  0.00     0.077 C 
ATOM      3  C1  PXY d   1       0.081   1.502  -1.671  0.00  0.00    -0.082 A 
ATOM      4  C2  PXY d   1      -0.463   0.898  -0.627  0.00  0.00     0.003 A 
ATOM      5  C3  PXY d   1      -0.113  -0.389  -0.310  0.00  0.00     0.003 A 
ATOM      6  C4  PXY d   1       0.764  -1.083  -1.101  0.00  0.00    -0.082 A 
ATOM      7  C5  PXY d   1       1.316  -0.477  -2.173  0.00  0.00     0.003 A 
ATOM      8  C6  PXY d   1       0.978   0.844  -2.454  0.00  0.00     0.003 A 
ENDROOT
TORSDOF 0
ENDMDL
