MODEL 1
REMARK minimizedAffinity -5.40847826
REMARK minimizedRMSD -1
REMARK  0 active torsions:
REMARK  status: ('A' for Active; 'I' for Inactive)
ROOT
ATOM      1  C4' PXY d   1       2.120  -0.546  -2.282  0.00  0.00     0.077 C 
ATOM      2  C1' PXY d   1      -2.046   0.885   1.460  0.00  0.00     0.077 C 
ATOM      3  C1  PXY d   1      -0.952   0.498   0.485  0.00  0.00    -0.082 A 
ATOM      4  C2  PXY d   1      -0.315   1.441  -0.190  0.00  0.00     0.003 A 
ATOM      5  C3  PXY d   1       0.655   1.107  -1.100  0.00  0.00     0.003 A 
ATOM      6  C4  PXY d   1       1.015  -0.202  -1.280  0.00  0.00    -0.082 A 
ATOM      7  C5  PXY d   1       0.377  -1.168  -0.587  0.00  0.00     0.003 A 
ATOM      8  C6  PXY d   1      -0.633  -0.812   0.301  0.00  0.00     0.003 A 
ENDROOT
TORSDOF 0
ENDMDL
