MODEL 1
REMARK minimizedAffinity -2.94815373
REMARK minimizedRMSD -1
REMARK  0 active torsions:
REMARK  status: ('A' for Active; 'I' for Inactive)
ROOT
ATOM      1  C4' PXY d   1      -2.281   1.013   1.453  0.00  0.00     0.077 C 
ATOM      2  C1' PXY d   1       1.937  -1.820  -1.304  0.00  0.00     0.077 C 
ATOM      3  C1  PXY d   1       0.838  -1.067  -0.580  0.00  0.00    -0.082 A 
ATOM      4  C2  PXY d   1      -0.111  -1.740   0.049  0.00  0.00     0.003 A 
ATOM      5  C3  PXY d   1      -1.130  -1.075   0.682  0.00  0.00     0.003 A 
ATOM      6  C4  PXY d   1      -1.147   0.294   0.716  0.00  0.00    -0.082 A 
ATOM      7  C5  PXY d   1      -0.176   0.988   0.086  0.00  0.00     0.003 A 
ATOM      8  C6  PXY d   1       0.826   0.294  -0.586  0.00  0.00     0.003 A 
ENDROOT
TORSDOF 0
ENDMDL
