MODEL 1
REMARK minimizedAffinity -4.71298409
REMARK minimizedRMSD -1
REMARK  0 active torsions:
REMARK  status: ('A' for Active; 'I' for Inactive)
ROOT
ATOM      1  C4' PXY d   1      -1.146   0.119   0.437  0.00  0.00     0.077 C 
ATOM      2  C1' PXY d   1       3.821   0.859  -2.428  0.00  0.00     0.077 C 
ATOM      3  C1  PXY d   1       2.516   0.678  -1.676  0.00  0.00    -0.082 A 
ATOM      4  C2  PXY d   1       2.324  -0.414  -0.954  0.00  0.00     0.003 A 
ATOM      5  C3  PXY d   1       1.137  -0.609  -0.295  0.00  0.00     0.003 A 
ATOM      6  C4  PXY d   1       0.159   0.349  -0.331  0.00  0.00    -0.082 A 
ATOM      7  C5  PXY d   1       0.353   1.470  -1.056  0.00  0.00     0.003 A 
ATOM      8  C6  PXY d   1       1.547   1.630  -1.752  0.00  0.00     0.003 A 
ENDROOT
TORSDOF 0
ENDMDL
