MODEL 1
REMARK minimizedAffinity -3.93684816
REMARK minimizedRMSD -1
REMARK  0 active torsions:
REMARK  status: ('A' for Active; 'I' for Inactive)
ROOT
ATOM      1  C4' PXY d   1       0.679  -0.849  -0.685  0.00  0.00     0.077 C 
ATOM      2  C1' PXY d   1      -2.316   1.867   3.447  0.00  0.00     0.077 C 
ATOM      3  C1  PXY d   1      -1.541   1.153   2.356  0.00  0.00    -0.082 A 
ATOM      4  C2  PXY d   1      -0.415   0.527   2.656  0.00  0.00     0.003 A 
ATOM      5  C3  PXY d   1       0.314  -0.096   1.677  0.00  0.00     0.003 A 
ATOM      6  C4  PXY d   1      -0.141  -0.124   0.386  0.00  0.00    -0.082 A 
ATOM      7  C5  PXY d   1      -1.295   0.504   0.073  0.00  0.00     0.003 A 
ATOM      8  C6  PXY d   1      -1.999   1.166   1.075  0.00  0.00     0.003 A 
ENDROOT
TORSDOF 0
ENDMDL
