MODEL 1
REMARK minimizedAffinity -3.84148335
REMARK minimizedRMSD -1
REMARK  0 active torsions:
REMARK  status: ('A' for Active; 'I' for Inactive)
ROOT
ATOM      1  C4' PXY d   1       1.693  -0.372  -3.007  0.00  0.00     0.077 C 
ATOM      2  C1' PXY d   1      -1.788   0.502   1.524  0.00  0.00     0.077 C 
ATOM      3  C1  PXY d   1      -0.882   0.281   0.329  0.00  0.00    -0.082 A 
ATOM      4  C2  PXY d   1      -0.158  -0.824   0.253  0.00  0.00     0.003 A 
ATOM      5  C3  PXY d   1       0.690  -1.025  -0.806  0.00  0.00     0.003 A 
ATOM      6  C4  PXY d   1       0.758  -0.111  -1.823  0.00  0.00    -0.082 A 
ATOM      7  C5  PXY d   1       0.014   1.013  -1.758  0.00  0.00     0.003 A 
ATOM      8  C6  PXY d   1      -0.810   1.218  -0.655  0.00  0.00     0.003 A 
ENDROOT
TORSDOF 0
ENDMDL
