MODEL 1
REMARK minimizedAffinity -2.50217056
REMARK minimizedRMSD -1
REMARK  0 active torsions:
REMARK  status: ('A' for Active; 'I' for Inactive)
ROOT
ATOM      1  C4' PXY d   1      -0.109   2.843  -1.544  0.00  0.00     0.077 C 
ATOM      2  C1' PXY d   1      -0.262  -2.660   0.219  0.00  0.00     0.077 C 
ATOM      3  C1  PXY d   1      -0.235  -1.216  -0.244  0.00  0.00    -0.082 A 
ATOM      4  C2  PXY d   1       0.834  -0.750  -0.869  0.00  0.00     0.003 A 
ATOM      5  C3  PXY d   1       0.888   0.561  -1.266  0.00  0.00     0.003 A 
ATOM      6  C4  PXY d   1      -0.184   1.390  -1.068  0.00  0.00    -0.082 A 
ATOM      7  C5  PXY d   1      -1.282   0.919  -0.440  0.00  0.00     0.003 A 
ATOM      8  C6  PXY d   1      -1.301  -0.404  -0.009  0.00  0.00     0.003 A 
ENDROOT
TORSDOF 0
ENDMDL
