MODEL 1
REMARK minimizedAffinity -4.10345221
REMARK minimizedRMSD -1
REMARK  0 active torsions:
REMARK  status: ('A' for Active; 'I' for Inactive)
ROOT
ATOM      1  C4' PXY d   1       0.795   0.567  -0.699  0.00  0.00     0.077 C 
ATOM      2  C1' PXY d   1       4.674   0.435  -4.983  0.00  0.00     0.077 C 
ATOM      3  C1  PXY d   1       3.657   0.457  -3.859  0.00  0.00    -0.082 A 
ATOM      4  C2  PXY d   1       2.849   1.497  -3.728  0.00  0.00     0.003 A 
ATOM      5  C3  PXY d   1       1.945   1.547  -2.698  0.00  0.00     0.003 A 
ATOM      6  C4  PXY d   1       1.831   0.498  -1.825  0.00  0.00    -0.082 A 
ATOM      7  C5  PXY d   1       2.644  -0.571  -1.959  0.00  0.00     0.003 A 
ATOM      8  C6  PXY d   1       3.582  -0.584  -2.987  0.00  0.00     0.003 A 
ENDROOT
TORSDOF 0
ENDMDL
