MODEL 1
REMARK minimizedAffinity -4.62913561
REMARK minimizedRMSD -1
REMARK  1 active torsions:
REMARK  status: ('A' for Active; 'I' for Inactive)
REMARK    1  A    between atoms: C1_2  and  C2_3 
ROOT
ATOM      1  C2  UNL d   1      -0.068   0.457   0.658  0.00  0.00    -0.073 A 
ATOM      2  C3  UNL d   1      -0.073   1.224   1.828  0.00  0.00    -0.002 A 
ATOM      3  C4  UNL d   1      -0.171   2.615   1.759  0.00  0.00     0.004 A 
ATOM      4  C5  UNL d   1      -0.272   3.250   0.522  0.00  0.00    -0.004 A 
ATOM      5  C6  UNL d   1      -0.280   2.500  -0.658  0.00  0.00    -0.075 A 
ATOM      6  C7  UNL d   1      -0.386   3.169  -1.997  0.00  0.00     0.076 C 
ATOM      7  C8  UNL d   1      -0.179   1.105  -0.581  0.00  0.00     0.001 A 
ENDROOT
BRANCH   1   8
ATOM      8  C1  UNL d   1       0.031  -1.045   0.728  0.00  0.00     0.053 C 
ATOM      9  C   UNL d   1       0.477  -1.649  -0.594  0.00  0.00     0.018 C 
ENDBRANCH   1   8
TORSDOF 1
ENDMDL
