MODEL 1
REMARK minimizedAffinity -4.19756413
REMARK minimizedRMSD -1
REMARK  1 active torsions:
REMARK  status: ('A' for Active; 'I' for Inactive)
REMARK    1  A    between atoms: C1_2  and  C2_3 
ROOT
ATOM      1  C2  UNL d   1       2.181  -4.287  -0.866  0.00  0.00    -0.073 A 
ATOM      2  C3  UNL d   1       2.646  -5.253   0.033  0.00  0.00    -0.002 A 
ATOM      3  C4  UNL d   1       3.915  -5.811  -0.126  0.00  0.00     0.004 A 
ATOM      4  C5  UNL d   1       4.733  -5.405  -1.179  0.00  0.00    -0.004 A 
ATOM      5  C6  UNL d   1       4.291  -4.432  -2.082  0.00  0.00    -0.075 A 
ATOM      6  C7  UNL d   1       5.159  -3.985  -3.221  0.00  0.00     0.076 C 
ATOM      7  C8  UNL d   1       3.014  -3.878  -1.917  0.00  0.00     0.001 A 
ENDROOT
BRANCH   1   8
ATOM      8  C1  UNL d   1       0.813  -3.677  -0.695  0.00  0.00     0.053 C 
ATOM      9  C   UNL d   1      -0.282  -4.731  -0.670  0.00  0.00     0.018 C 
ENDBRANCH   1   8
TORSDOF 1
ENDMDL
