MODEL 1
REMARK minimizedAffinity -1.96441138
REMARK minimizedRMSD -1
REMARK  0 active torsions:
REMARK  status: ('A' for Active; 'I' for Inactive)
ROOT
ATOM      1  C2' OXE d   1      -0.778  -1.220  -2.828  0.00  0.00     0.078 C 
ATOM      2  C1' OXE d   1       0.293   1.236  -1.992  0.00  0.00     0.078 C 
ATOM      3  C1  OXE d   1       1.216   0.266  -2.687  0.00  0.00    -0.078 A 
ATOM      4  C2  OXE d   1       0.695  -0.952  -3.051  0.00  0.00    -0.078 A 
ATOM      5  C3  OXE d   1       1.488  -1.862  -3.744  0.00  0.00     0.003 A 
ATOM      6  C4  OXE d   1       2.852  -1.610  -3.937  0.00  0.00    -0.002 A 
ATOM      7  C5  OXE d   1       3.412  -0.392  -3.538  0.00  0.00    -0.002 A 
ATOM      8  C6  OXE d   1       2.600   0.572  -2.951  0.00  0.00     0.003 A 
ENDROOT
TORSDOF 0
ENDMDL
