MODEL 1
REMARK minimizedAffinity -5.61641788
REMARK minimizedRMSD -1
REMARK  0 active torsions:
REMARK  status: ('A' for Active; 'I' for Inactive)
ROOT
ATOM      1  C2' OXE d   1      -0.110  -0.970   1.962  0.00  0.00     0.078 C 
ATOM      2  C1' OXE d   1      -2.711  -0.200   2.685  0.00  0.00     0.078 C 
ATOM      3  C1  OXE d   1      -1.571   0.699   3.095  0.00  0.00    -0.078 A 
ATOM      4  C2  OXE d   1      -0.298   0.291   2.778  0.00  0.00    -0.078 A 
ATOM      5  C3  OXE d   1       0.785   1.109   3.085  0.00  0.00     0.003 A 
ATOM      6  C4  OXE d   1       0.603   2.269   3.849  0.00  0.00    -0.002 A 
ATOM      7  C5  OXE d   1      -0.681   2.682   4.217  0.00  0.00    -0.002 A 
ATOM      8  C6  OXE d   1      -1.781   1.933   3.812  0.00  0.00     0.003 A 
ENDROOT
TORSDOF 0
ENDMDL
