MODEL 1
REMARK minimizedAffinity -5.48739672
REMARK minimizedRMSD -1
REMARK  0 active torsions:
REMARK  status: ('A' for Active; 'I' for Inactive)
ROOT
ATOM      1  C2' OXE d   1      -3.170   0.130   1.788  0.00  0.00     0.078 C 
ATOM      2  C1' OXE d   1      -0.688  -0.434   2.974  0.00  0.00     0.078 C 
ATOM      3  C1  OXE d   1      -0.715  -0.171   1.489  0.00  0.00    -0.078 A 
ATOM      4  C2  OXE d   1      -1.940   0.058   0.909  0.00  0.00    -0.078 A 
ATOM      5  C3  OXE d   1      -2.015   0.360  -0.448  0.00  0.00     0.003 A 
ATOM      6  C4  OXE d   1      -0.874   0.281  -1.255  0.00  0.00    -0.002 A 
ATOM      7  C5  OXE d   1       0.378   0.010  -0.692  0.00  0.00    -0.002 A 
ATOM      8  C6  OXE d   1       0.481  -0.176   0.682  0.00  0.00     0.003 A 
ENDROOT
TORSDOF 0
ENDMDL
