MODEL 1
REMARK minimizedAffinity -3.72297096
REMARK minimizedRMSD -1
REMARK  0 active torsions:
REMARK  status: ('A' for Active; 'I' for Inactive)
ROOT
ATOM      1  C2' OXE d   1       1.100  -0.203  -2.813  0.00  0.00     0.078 C 
ATOM      2  C1' OXE d   1       2.486  -2.451  -3.764  0.00  0.00     0.078 C 
ATOM      3  C1  OXE d   1       3.217  -1.131  -3.742  0.00  0.00    -0.078 A 
ATOM      4  C2  OXE d   1       2.516  -0.028  -3.319  0.00  0.00    -0.078 A 
ATOM      5  C3  OXE d   1       3.158   1.204  -3.228  0.00  0.00     0.003 A 
ATOM      6  C4  OXE d   1       4.464   1.359  -3.708  0.00  0.00    -0.002 A 
ATOM      7  C5  OXE d   1       5.183   0.255  -4.180  0.00  0.00    -0.002 A 
ATOM      8  C6  OXE d   1       4.590  -1.002  -4.164  0.00  0.00     0.003 A 
ENDROOT
TORSDOF 0
ENDMDL
