MODEL 1
REMARK minimizedAffinity -0.951590061
REMARK minimizedRMSD -1
REMARK  0 active torsions:
REMARK  status: ('A' for Active; 'I' for Inactive)
ROOT
ATOM      1  C2' OXE d   1      -1.173  -0.390   3.082  0.00  0.00     0.078 C 
ATOM      2  C1' OXE d   1       1.304   0.476   2.084  0.00  0.00     0.078 C 
ATOM      3  C1  OXE d   1       0.212   0.169   1.089  0.00  0.00    -0.078 A 
ATOM      4  C2  OXE d   1      -0.981  -0.299   1.583  0.00  0.00    -0.078 A 
ATOM      5  C3  OXE d   1      -2.039  -0.544   0.713  0.00  0.00     0.003 A 
ATOM      6  C4  OXE d   1      -1.850  -0.466  -0.672  0.00  0.00    -0.002 A 
ATOM      7  C5  OXE d   1      -0.630  -0.030  -1.199  0.00  0.00    -0.002 A 
ATOM      8  C6  OXE d   1       0.396   0.332  -0.333  0.00  0.00     0.003 A 
ENDROOT
TORSDOF 0
ENDMDL
