MODEL 1
REMARK minimizedAffinity -5.07049179
REMARK minimizedRMSD -1
REMARK  0 active torsions:
REMARK  status: ('A' for Active; 'I' for Inactive)
ROOT
ATOM      1  C2' OXE d   1      -1.055  -0.793   3.156  0.00  0.00     0.078 C 
ATOM      2  C1' OXE d   1       1.400   0.245   2.276  0.00  0.00     0.078 C 
ATOM      3  C1  OXE d   1       0.282   0.134   1.270  0.00  0.00    -0.078 A 
ATOM      4  C2  OXE d   1      -0.901  -0.419   1.698  0.00  0.00    -0.078 A 
ATOM      5  C3  OXE d   1      -1.982  -0.494   0.825  0.00  0.00     0.003 A 
ATOM      6  C4  OXE d   1      -1.828  -0.155  -0.525  0.00  0.00    -0.002 A 
ATOM      7  C5  OXE d   1      -0.619   0.373  -0.991  0.00  0.00    -0.002 A 
ATOM      8  C6  OXE d   1       0.430   0.563  -0.099  0.00  0.00     0.003 A 
ENDROOT
TORSDOF 0
ENDMDL
