MODEL 1
REMARK minimizedAffinity 0.903085649
REMARK minimizedRMSD -1
REMARK  0 active torsions:
REMARK  status: ('A' for Active; 'I' for Inactive)
ROOT
ATOM      1  C2' OXE d   1      -2.581   0.436  -1.546  0.00  0.00     0.078 C 
ATOM      2  C1' OXE d   1       0.083  -0.293  -2.042  0.00  0.00     0.078 C 
ATOM      3  C1  OXE d   1      -0.402  -0.330  -0.615  0.00  0.00    -0.078 A 
ATOM      4  C2  OXE d   1      -1.694   0.073  -0.375  0.00  0.00    -0.078 A 
ATOM      5  C3  OXE d   1      -2.209   0.007   0.916  0.00  0.00     0.003 A 
ATOM      6  C4  OXE d   1      -1.378  -0.321   1.994  0.00  0.00    -0.002 A 
ATOM      7  C5  OXE d   1      -0.048  -0.696   1.778  0.00  0.00    -0.002 A 
ATOM      8  C6  OXE d   1       0.442  -0.747   0.477  0.00  0.00     0.003 A 
ENDROOT
TORSDOF 0
ENDMDL
