MODEL 1
REMARK minimizedAffinity -1.99708009
REMARK minimizedRMSD -1
REMARK  0 active torsions:
REMARK  status: ('A' for Active; 'I' for Inactive)
ROOT
ATOM      1  C2' OXE d   1      -0.880  -1.095   2.968  0.00  0.00     0.078 C 
ATOM      2  C1' OXE d   1       1.697  -0.094   2.481  0.00  0.00     0.078 C 
ATOM      3  C1  OXE d   1       0.674   0.033   1.381  0.00  0.00    -0.078 A 
ATOM      4  C2  OXE d   1      -0.571  -0.501   1.610  0.00  0.00    -0.078 A 
ATOM      5  C3  OXE d   1      -1.569  -0.363   0.649  0.00  0.00     0.003 A 
ATOM      6  C4  OXE d   1      -1.272   0.179  -0.607  0.00  0.00    -0.002 A 
ATOM      7  C5  OXE d   1       0.001   0.693  -0.876  0.00  0.00    -0.002 A 
ATOM      8  C6  OXE d   1       0.971   0.667   0.120  0.00  0.00     0.003 A 
ENDROOT
TORSDOF 0
ENDMDL
