MODEL 1
REMARK minimizedAffinity 4.98953199
REMARK minimizedRMSD -1
REMARK  0 active torsions:
REMARK  status: ('A' for Active; 'I' for Inactive)
ROOT
ATOM      1  C2' OXE d   1       1.986   1.851  -0.076  0.00  0.00     0.078 C 
ATOM      2  C1' OXE d   1      -0.337   1.102  -1.463  0.00  0.00     0.078 C 
ATOM      3  C1  OXE d   1      -0.217   0.688  -0.018  0.00  0.00    -0.078 A 
ATOM      4  C2  OXE d   1       0.944   1.019   0.640  0.00  0.00    -0.078 A 
ATOM      5  C3  OXE d   1       1.084   0.709   1.990  0.00  0.00     0.003 A 
ATOM      6  C4  OXE d   1       0.120  -0.070   2.642  0.00  0.00    -0.002 A 
ATOM      7  C5  OXE d   1      -1.052  -0.451   1.979  0.00  0.00    -0.002 A 
ATOM      8  C6  OXE d   1      -1.254  -0.045   0.665  0.00  0.00     0.003 A 
ENDROOT
TORSDOF 0
ENDMDL
