MODEL 1
REMARK minimizedAffinity 4.58107138
REMARK minimizedRMSD -1
REMARK  0 active torsions:
REMARK  status: ('A' for Active; 'I' for Inactive)
ROOT
ATOM      1  C2' OXE d   1       0.053   2.015   2.100  0.00  0.00     0.078 C 
ATOM      2  C1' OXE d   1      -1.818  -0.022   1.622  0.00  0.00     0.078 C 
ATOM      3  C1  OXE d   1      -0.434  -0.428   2.062  0.00  0.00    -0.078 A 
ATOM      4  C2  OXE d   1       0.489   0.573   2.248  0.00  0.00    -0.078 A 
ATOM      5  C3  OXE d   1       1.765   0.258   2.707  0.00  0.00     0.003 A 
ATOM      6  C4  OXE d   1       2.163  -1.079   2.831  0.00  0.00    -0.002 A 
ATOM      7  C5  OXE d   1       1.251  -2.115   2.608  0.00  0.00    -0.002 A 
ATOM      8  C6  OXE d   1      -0.061  -1.806   2.264  0.00  0.00     0.003 A 
ENDROOT
TORSDOF 0
ENDMDL
