MODEL 1
REMARK minimizedAffinity 0.237855986
REMARK minimizedRMSD -1
REMARK  0 active torsions:
REMARK  status: ('A' for Active; 'I' for Inactive)
ROOT
ATOM      1  C2' OXE d   1      -2.330   0.578   0.542  0.00  0.00     0.078 C 
ATOM      2  C1' OXE d   1      -0.589  -0.825  -1.156  0.00  0.00     0.078 C 
ATOM      3  C1  OXE d   1      -0.062  -0.390   0.189  0.00  0.00    -0.078 A 
ATOM      4  C2  OXE d   1      -0.905   0.336   0.994  0.00  0.00    -0.078 A 
ATOM      5  C3  OXE d   1      -0.488   0.715   2.266  0.00  0.00     0.003 A 
ATOM      6  C4  OXE d   1       0.834   0.497   2.673  0.00  0.00    -0.002 A 
ATOM      7  C5  OXE d   1       1.722  -0.207   1.852  0.00  0.00    -0.002 A 
ATOM      8  C6  OXE d   1       1.278  -0.693   0.627  0.00  0.00     0.003 A 
ENDROOT
TORSDOF 0
ENDMDL
