MODEL 1
REMARK minimizedAffinity 0.109641381
REMARK minimizedRMSD -1
REMARK  0 active torsions:
REMARK  status: ('A' for Active; 'I' for Inactive)
ROOT
ATOM      1  C2' OXE d   1       1.057   1.533   1.116  0.00  0.00     0.078 C 
ATOM      2  C1' OXE d   1       2.089  -0.597   2.625  0.00  0.00     0.078 C 
ATOM      3  C1  OXE d   1       0.590  -0.480   2.507  0.00  0.00    -0.078 A 
ATOM      4  C2  OXE d   1       0.093   0.592   1.805  0.00  0.00    -0.078 A 
ATOM      5  C3  OXE d   1      -1.281   0.717   1.619  0.00  0.00     0.003 A 
ATOM      6  C4  OXE d   1      -2.166  -0.151   2.269  0.00  0.00    -0.002 A 
ATOM      7  C5  OXE d   1      -1.682  -1.227   3.022  0.00  0.00    -0.002 A 
ATOM      8  C6  OXE d   1      -0.309  -1.429   3.115  0.00  0.00     0.003 A 
ENDROOT
TORSDOF 0
ENDMDL
