MODEL 1
REMARK minimizedAffinity 2.36627245
REMARK minimizedRMSD -1
REMARK  0 active torsions:
REMARK  status: ('A' for Active; 'I' for Inactive)
ROOT
ATOM      1  C2' OXE d   1       0.741  -0.409   2.372  0.00  0.00     0.078 C 
ATOM      2  C1' OXE d   1      -0.838  -1.934   0.622  0.00  0.00     0.078 C 
ATOM      3  C1  OXE d   1      -1.475  -0.737   1.282  0.00  0.00    -0.078 A 
ATOM      4  C2  OXE d   1      -0.710  -0.024   2.173  0.00  0.00    -0.078 A 
ATOM      5  C3  OXE d   1      -1.231   1.121   2.768  0.00  0.00     0.003 A 
ATOM      6  C4  OXE d   1      -2.576   1.465   2.586  0.00  0.00    -0.002 A 
ATOM      7  C5  OXE d   1      -3.385   0.728   1.714  0.00  0.00    -0.002 A 
ATOM      8  C6  OXE d   1      -2.840  -0.348   1.023  0.00  0.00     0.003 A 
ENDROOT
TORSDOF 0
ENDMDL
