MODEL 1
REMARK minimizedAffinity 2.05101061
REMARK minimizedRMSD -1
REMARK  0 active torsions:
REMARK  status: ('A' for Active; 'I' for Inactive)
ROOT
ATOM      1  C2' OXE d   1       3.189  -0.730   2.366  0.00  0.00     0.078 C 
ATOM      2  C1' OXE d   1       2.139   1.456   0.953  0.00  0.00     0.078 C 
ATOM      3  C1  OXE d   1       1.178   0.602   1.741  0.00  0.00    -0.078 A 
ATOM      4  C2  OXE d   1       1.694  -0.493   2.392  0.00  0.00    -0.078 A 
ATOM      5  C3  OXE d   1       0.860  -1.284   3.178  0.00  0.00     0.003 A 
ATOM      6  C4  OXE d   1      -0.522  -1.064   3.188  0.00  0.00    -0.002 A 
ATOM      7  C5  OXE d   1      -1.074   0.022   2.500  0.00  0.00    -0.002 A 
ATOM      8  C6  OXE d   1      -0.234   0.887   1.807  0.00  0.00     0.003 A 
ENDROOT
TORSDOF 0
ENDMDL
