MODEL 1
REMARK minimizedAffinity 3.9404881
REMARK minimizedRMSD -1
REMARK  0 active torsions:
REMARK  status: ('A' for Active; 'I' for Inactive)
ROOT
ATOM      1  C2' OXE d   1      -2.223   0.713   1.868  0.00  0.00     0.078 C 
ATOM      2  C1' OXE d   1       0.039   1.780   3.142  0.00  0.00     0.078 C 
ATOM      3  C1  OXE d   1       0.162   0.412   2.518  0.00  0.00    -0.078 A 
ATOM      4  C2  OXE d   1      -0.963  -0.122   1.938  0.00  0.00    -0.078 A 
ATOM      5  C3  OXE d   1      -0.890  -1.357   1.300  0.00  0.00     0.003 A 
ATOM      6  C4  OXE d   1       0.277  -2.127   1.378  0.00  0.00    -0.002 A 
ATOM      7  C5  OXE d   1       1.423  -1.619   1.999  0.00  0.00    -0.002 A 
ATOM      8  C6  OXE d   1       1.395  -0.336   2.536  0.00  0.00     0.003 A 
ENDROOT
TORSDOF 0
ENDMDL
