MODEL 1
REMARK minimizedAffinity 6.39734602
REMARK minimizedRMSD -1
REMARK  0 active torsions:
REMARK  status: ('A' for Active; 'I' for Inactive)
ROOT
ATOM      1  O1  BZF d   1      -1.782   4.102  -4.367  0.00  0.00    -0.204 OA
ATOM      2  C2  BZF d   1      -1.214   3.212  -5.258  0.00  0.00     0.174 A 
ATOM      3  C3  BZF d   1      -2.163   2.606  -5.999  0.00  0.00    -0.012 A 
ATOM      4  C3A BZF d   1      -3.396   3.218  -5.607  0.00  0.00    -0.107 A 
ATOM      5  C4  BZF d   1      -4.693   3.052  -5.999  0.00  0.00     0.055 A 
ATOM      6  C5  BZF d   1      -5.669   3.754  -5.366  0.00  0.00    -0.016 A 
ATOM      7  C6  BZF d   1      -5.385   4.626  -4.335  0.00  0.00     0.022 A 
ATOM      8  C7  BZF d   1      -4.112   4.827  -3.914  0.00  0.00     0.029 A 
ATOM      9  C7A BZF d   1      -3.120   4.144  -4.574  0.00  0.00     0.058 A 
ENDROOT
TORSDOF 0
ENDMDL
