MODEL 1
REMARK minimizedAffinity 9.61403275
REMARK minimizedRMSD -1
REMARK  0 active torsions:
REMARK  status: ('A' for Active; 'I' for Inactive)
ROOT
ATOM      1  O1  BZF d   1       2.404  -0.792   1.263  0.00  0.00    -0.204 OA
ATOM      2  C2  BZF d   1       2.019  -2.031   1.737  0.00  0.00     0.174 A 
ATOM      3  C3  BZF d   1       0.869  -2.429   1.156  0.00  0.00    -0.012 A 
ATOM      4  C3A BZF d   1       0.561  -1.414   0.195  0.00  0.00    -0.107 A 
ATOM      5  C4  BZF d   1      -0.451  -1.251  -0.706  0.00  0.00     0.055 A 
ATOM      6  C5  BZF d   1      -0.499  -0.111  -1.446  0.00  0.00    -0.016 A 
ATOM      7  C6  BZF d   1       0.444   0.886  -1.306  0.00  0.00     0.022 A 
ATOM      8  C7  BZF d   1       1.470   0.766  -0.428  0.00  0.00     0.029 A 
ATOM      9  C7A BZF d   1       1.540  -0.398   0.297  0.00  0.00     0.058 A 
ENDROOT
TORSDOF 0
ENDMDL
