MODEL 1
REMARK minimizedAffinity 9.12300205
REMARK minimizedRMSD -1
REMARK  0 active torsions:
REMARK  status: ('A' for Active; 'I' for Inactive)
ROOT
ATOM      1  O1  BZF d   1       0.812  -4.212   1.907  0.00  0.00    -0.204 OA
ATOM      2  C2  BZF d   1       2.101  -3.872   1.543  0.00  0.00     0.174 A 
ATOM      3  C3  BZF d   1       2.388  -2.610   1.920  0.00  0.00    -0.012 A 
ATOM      4  C3A BZF d   1       1.237  -2.162   2.643  0.00  0.00    -0.107 A 
ATOM      5  C4  BZF d   1       0.924  -0.996   3.280  0.00  0.00     0.055 A 
ATOM      6  C5  BZF d   1      -0.313  -0.852   3.825  0.00  0.00    -0.016 A 
ATOM      7  C6  BZF d   1      -1.261  -1.851   3.747  0.00  0.00     0.022 A 
ATOM      8  C7  BZF d   1      -0.995  -3.027   3.129  0.00  0.00     0.029 A 
ATOM      9  C7A BZF d   1       0.265  -3.188   2.606  0.00  0.00     0.058 A 
ENDROOT
TORSDOF 0
ENDMDL
