MODEL 1
REMARK minimizedAffinity 10.9085999
REMARK minimizedRMSD -1
REMARK  0 active torsions:
REMARK  status: ('A' for Active; 'I' for Inactive)
ROOT
ATOM      1  O1  BZF d   1      -3.358   0.661  -4.709  0.00  0.00    -0.204 OA
ATOM      2  C2  BZF d   1      -3.564   0.210  -5.999  0.00  0.00     0.174 A 
ATOM      3  C3  BZF d   1      -3.943  -1.084  -5.998  0.00  0.00    -0.012 A 
ATOM      4  C3A BZF d   1      -4.065  -1.440  -4.617  0.00  0.00    -0.107 A 
ATOM      5  C4  BZF d   1      -4.425  -2.588  -3.971  0.00  0.00     0.055 A 
ATOM      6  C5  BZF d   1      -4.372  -2.627  -2.614  0.00  0.00    -0.016 A 
ATOM      7  C6  BZF d   1      -3.959  -1.539  -1.872  0.00  0.00     0.022 A 
ATOM      8  C7  BZF d   1      -3.597  -0.377  -2.468  0.00  0.00     0.029 A 
ATOM      9  C7A BZF d   1      -3.681  -0.324  -3.837  0.00  0.00     0.058 A 
ENDROOT
TORSDOF 0
ENDMDL
