MODEL 1
REMARK minimizedAffinity 12.445466
REMARK minimizedRMSD -1
REMARK  0 active torsions:
REMARK  status: ('A' for Active; 'I' for Inactive)
ROOT
ATOM      1  O1  BZF d   1       3.884  -5.726   5.636  0.00  0.00    -0.204 OA
ATOM      2  C2  BZF d   1       5.217  -5.992   5.886  0.00  0.00     0.174 A 
ATOM      3  C3  BZF d   1       5.928  -4.849   5.958  0.00  0.00    -0.012 A 
ATOM      4  C3A BZF d   1       4.964  -3.798   5.832  0.00  0.00    -0.107 A 
ATOM      5  C4  BZF d   1       5.054  -2.436   5.842  0.00  0.00     0.055 A 
ATOM      6  C5  BZF d   1       3.935  -1.698   5.620  0.00  0.00    -0.016 A 
ATOM      7  C6  BZF d   1       2.712  -2.289   5.379  0.00  0.00     0.022 A 
ATOM      8  C7  BZF d   1       2.572  -3.637   5.364  0.00  0.00     0.029 A 
ATOM      9  C7A BZF d   1       3.695  -4.385   5.621  0.00  0.00     0.058 A 
ENDROOT
TORSDOF 0
ENDMDL
