MODEL 1
REMARK minimizedAffinity 12.4517431
REMARK minimizedRMSD -1
REMARK  0 active torsions:
REMARK  status: ('A' for Active; 'I' for Inactive)
ROOT
ATOM      1  O1  BZF d   1       0.359  -2.685   0.888  0.00  0.00    -0.204 OA
ATOM      2  C2  BZF d   1       1.308  -2.827   1.882  0.00  0.00     0.174 A 
ATOM      3  C3  BZF d   1       2.274  -1.895   1.757  0.00  0.00    -0.012 A 
ATOM      4  C3A BZF d   1       1.858  -1.065   0.668  0.00  0.00    -0.107 A 
ATOM      5  C4  BZF d   1       2.393   0.042   0.074  0.00  0.00     0.055 A 
ATOM      6  C5  BZF d   1       1.775   0.572  -1.014  0.00  0.00    -0.016 A 
ATOM      7  C6  BZF d   1       0.625   0.017  -1.537  0.00  0.00     0.022 A 
ATOM      8  C7  BZF d   1       0.054  -1.078  -0.979  0.00  0.00     0.029 A 
ATOM      9  C7A BZF d   1       0.658  -1.595   0.141  0.00  0.00     0.058 A 
ENDROOT
TORSDOF 0
ENDMDL
