MODEL 1
REMARK minimizedAffinity 11.5045099
REMARK minimizedRMSD -1
REMARK  0 active torsions:
REMARK  status: ('A' for Active; 'I' for Inactive)
ROOT
ATOM      1  O1  BZF d   1       2.357  -1.039   2.094  0.00  0.00    -0.204 OA
ATOM      2  C2  BZF d   1       1.747  -2.248   2.369  0.00  0.00     0.174 A 
ATOM      3  C3  BZF d   1       0.748  -2.490   1.495  0.00  0.00    -0.012 A 
ATOM      4  C3A BZF d   1       0.794  -1.405   0.563  0.00  0.00    -0.107 A 
ATOM      5  C4  BZF d   1       0.063  -1.090  -0.548  0.00  0.00     0.055 A 
ATOM      6  C5  BZF d   1       0.314   0.079  -1.193  0.00  0.00    -0.016 A 
ATOM      7  C6  BZF d   1       1.282   0.958  -0.754  0.00  0.00     0.022 A 
ATOM      8  C7  BZF d   1       2.036   0.687   0.339  0.00  0.00     0.029 A 
ATOM      9  C7A BZF d   1       1.807  -0.509   0.975  0.00  0.00     0.058 A 
ENDROOT
TORSDOF 0
ENDMDL
