MODEL 1
REMARK minimizedAffinity 16.5035172
REMARK minimizedRMSD -1
REMARK  0 active torsions:
REMARK  status: ('A' for Active; 'I' for Inactive)
ROOT
ATOM      1  O1  BZF d   1       0.456  -2.200   0.535  0.00  0.00    -0.204 OA
ATOM      2  C2  BZF d   1       1.230  -2.317   1.674  0.00  0.00     0.174 A 
ATOM      3  C3  BZF d   1       2.123  -1.310   1.751  0.00  0.00    -0.012 A 
ATOM      4  C3A BZF d   1       1.832  -0.462   0.635  0.00  0.00    -0.107 A 
ATOM      5  C4  BZF d   1       2.367   0.709   0.181  0.00  0.00     0.055 A 
ATOM      6  C5  BZF d   1       1.902   1.241  -0.980  0.00  0.00    -0.016 A 
ATOM      7  C6  BZF d   1       0.908   0.627  -1.713  0.00  0.00     0.022 A 
ATOM      8  C7  BZF d   1       0.343  -0.533  -1.300  0.00  0.00     0.029 A 
ATOM      9  C7A BZF d   1       0.788  -1.057  -0.111  0.00  0.00     0.058 A 
ENDROOT
TORSDOF 0
ENDMDL
