MODEL 1
REMARK minimizedAffinity 11.5997477
REMARK minimizedRMSD -1
REMARK  0 active torsions:
REMARK  status: ('A' for Active; 'I' for Inactive)
ROOT
ATOM      1  O1  BZF d   1      -0.004  -2.028   0.813  0.00  0.00    -0.204 OA
ATOM      2  C2  BZF d   1       0.632  -2.056   2.039  0.00  0.00     0.174 A 
ATOM      3  C3  BZF d   1       1.620  -1.138   2.087  0.00  0.00    -0.012 A 
ATOM      4  C3A BZF d   1       1.539  -0.433   0.844  0.00  0.00    -0.107 A 
ATOM      5  C4  BZF d   1       2.244   0.605   0.306  0.00  0.00     0.055 A 
ATOM      6  C5  BZF d   1       1.962   1.009  -0.960  0.00  0.00    -0.016 A 
ATOM      7  C6  BZF d   1       0.986   0.396  -1.718  0.00  0.00     0.022 A 
ATOM      8  C7  BZF d   1       0.256  -0.635  -1.225  0.00  0.00     0.029 A 
ATOM      9  C7A BZF d   1       0.517  -1.024   0.066  0.00  0.00     0.058 A 
ENDROOT
TORSDOF 0
ENDMDL
