MODEL 1
REMARK minimizedAffinity 13.3380661
REMARK minimizedRMSD -1
REMARK  0 active torsions:
REMARK  status: ('A' for Active; 'I' for Inactive)
ROOT
ATOM      1  O1  BZF d   1       4.085  -0.261   0.793  0.00  0.00    -0.204 OA
ATOM      2  C2  BZF d   1       3.364   0.815   0.313  0.00  0.00     0.174 A 
ATOM      3  C3  BZF d   1       2.053   0.510   0.222  0.00  0.00    -0.012 A 
ATOM      4  C3A BZF d   1       1.936  -0.811   0.759  0.00  0.00    -0.107 A 
ATOM      5  C4  BZF d   1       0.880  -1.655   0.954  0.00  0.00     0.055 A 
ATOM      6  C5  BZF d   1       1.114  -2.905   1.433  0.00  0.00    -0.016 A 
ATOM      7  C6  BZF d   1       2.389  -3.345   1.723  0.00  0.00     0.022 A 
ATOM      8  C7  BZF d   1       3.467  -2.542   1.551  0.00  0.00     0.029 A 
ATOM      9  C7A BZF d   1       3.231  -1.267   1.098  0.00  0.00     0.058 A 
ENDROOT
TORSDOF 0
ENDMDL
