MODEL 1
REMARK minimizedAffinity -3.39816761
REMARK minimizedRMSD -1
REMARK  0 active torsions:
REMARK  status: ('A' for Active; 'I' for Inactive)
ROOT
ATOM      1  C1  BNZ d   1      -1.079  -0.360   1.713  0.00  0.00     0.000 A 
ATOM      2  C2  BNZ d   1      -2.208   0.116   2.325  0.00  0.00     0.000 A 
ATOM      3  C3  BNZ d   1      -2.929   1.136   1.769  0.00  0.00     0.000 A 
ATOM      4  C4  BNZ d   1      -2.498   1.705   0.625  0.00  0.00     0.000 A 
ATOM      5  C5  BNZ d   1      -1.356   1.243   0.001  0.00  0.00     0.000 A 
ATOM      6  C6  BNZ d   1      -0.655   0.191   0.543  0.00  0.00     0.000 A 
ENDROOT
TORSDOF 0
ENDMDL
