MODEL 1
REMARK minimizedAffinity -3.38193321
REMARK minimizedRMSD -1
REMARK  0 active torsions:
REMARK  status: ('A' for Active; 'I' for Inactive)
ROOT
ATOM      1  C1  BNZ d   1      -1.051  -2.299   1.166  0.00  0.00     0.000 A 
ATOM      2  C2  BNZ d   1      -0.393  -3.333   0.555  0.00  0.00     0.000 A 
ATOM      3  C3  BNZ d   1       0.639  -3.093  -0.309  0.00  0.00     0.000 A 
ATOM      4  C4  BNZ d   1       0.985  -1.820  -0.590  0.00  0.00     0.000 A 
ATOM      5  C5  BNZ d   1       0.325  -0.767   0.010  0.00  0.00     0.000 A 
ATOM      6  C6  BNZ d   1      -0.688  -1.013   0.909  0.00  0.00     0.000 A 
ENDROOT
TORSDOF 0
ENDMDL
