MODEL 1
REMARK minimizedAffinity -3.66328931
REMARK minimizedRMSD -1
REMARK  0 active torsions:
REMARK  status: ('A' for Active; 'I' for Inactive)
ROOT
ATOM      1  C1  BNZ d   1      -1.086   0.273   0.858  0.00  0.00     0.000 A 
ATOM      2  C2  BNZ d   1      -1.543  -0.635   1.775  0.00  0.00     0.000 A 
ATOM      3  C3  BNZ d   1      -1.188  -1.953   1.693  0.00  0.00     0.000 A 
ATOM      4  C4  BNZ d   1      -0.410  -2.367   0.672  0.00  0.00     0.000 A 
ATOM      5  C5  BNZ d   1       0.051  -1.466  -0.266  0.00  0.00     0.000 A 
ATOM      6  C6  BNZ d   1      -0.276  -0.134  -0.158  0.00  0.00     0.000 A 
ENDROOT
TORSDOF 0
ENDMDL
