MODEL 1
REMARK minimizedAffinity -2.94042301
REMARK minimizedRMSD -1
REMARK  0 active torsions:
REMARK  status: ('A' for Active; 'I' for Inactive)
ROOT
ATOM      1  C1  BNZ d   1      -0.566  -1.810   0.003  0.00  0.00     0.000 A 
ATOM      2  C2  BNZ d   1      -0.231  -0.871  -0.935  0.00  0.00     0.000 A 
ATOM      3  C3  BNZ d   1      -0.760   0.388  -0.885  0.00  0.00     0.000 A 
ATOM      4  C4  BNZ d   1      -1.653   0.694   0.079  0.00  0.00     0.000 A 
ATOM      5  C5  BNZ d   1      -2.008  -0.245   1.027  0.00  0.00     0.000 A 
ATOM      6  C6  BNZ d   1      -1.443  -1.499   0.996  0.00  0.00     0.000 A 
ENDROOT
TORSDOF 0
ENDMDL
