MODEL 1
REMARK minimizedAffinity -1.50492418
REMARK minimizedRMSD -1
REMARK  0 active torsions:
REMARK  status: ('A' for Active; 'I' for Inactive)
ROOT
ATOM      1  C1  BNZ d   1       2.875   2.939   0.707  0.00  0.00     0.000 A 
ATOM      2  C2  BNZ d   1       2.206   4.098   0.996  0.00  0.00     0.000 A 
ATOM      3  C3  BNZ d   1       0.841   4.148   0.948  0.00  0.00     0.000 A 
ATOM      4  C4  BNZ d   1       0.150   3.053   0.572  0.00  0.00     0.000 A 
ATOM      5  C5  BNZ d   1       0.811   1.879   0.269  0.00  0.00     0.000 A 
ATOM      6  C6  BNZ d   1       2.183   1.821   0.356  0.00  0.00     0.000 A 
ENDROOT
TORSDOF 0
ENDMDL
