MODEL 1
REMARK minimizedAffinity -4.42649364
REMARK minimizedRMSD -1
REMARK  0 active torsions:
REMARK  status: ('A' for Active; 'I' for Inactive)
ROOT
ATOM      1  C1  BNZ d   1       0.679  -1.149  -1.482  0.00  0.00     0.000 A 
ATOM      2  C2  BNZ d   1       0.025   0.032  -1.250  0.00  0.00     0.000 A 
ATOM      3  C3  BNZ d   1      -0.583   0.272  -0.050  0.00  0.00     0.000 A 
ATOM      4  C4  BNZ d   1      -0.570  -0.683   0.903  0.00  0.00     0.000 A 
ATOM      5  C5  BNZ d   1       0.078  -1.882   0.681  0.00  0.00     0.000 A 
ATOM      6  C6  BNZ d   1       0.722  -2.105  -0.514  0.00  0.00     0.000 A 
ENDROOT
TORSDOF 0
ENDMDL
