MODEL 1
REMARK minimizedAffinity -4.77815485
REMARK minimizedRMSD -1
REMARK  0 active torsions:
REMARK  status: ('A' for Active; 'I' for Inactive)
ROOT
ATOM      1  C1  BNZ d   1      -0.759  -1.076   0.919  0.00  0.00     0.000 A 
ATOM      2  C2  BNZ d   1      -0.282  -0.274  -0.085  0.00  0.00     0.000 A 
ATOM      3  C3  BNZ d   1       0.390  -0.809  -1.148  0.00  0.00     0.000 A 
ATOM      4  C4  BNZ d   1       0.621  -2.137  -1.186  0.00  0.00     0.000 A 
ATOM      5  C5  BNZ d   1       0.155  -2.957  -0.178  0.00  0.00     0.000 A 
ATOM      6  C6  BNZ d   1      -0.555  -2.420   0.871  0.00  0.00     0.000 A 
ENDROOT
TORSDOF 0
ENDMDL
