MODEL 1
REMARK minimizedAffinity 1.34657812
REMARK minimizedRMSD -1
REMARK  0 active torsions:
REMARK  status: ('A' for Active; 'I' for Inactive)
ROOT
ATOM      1  C1  BNZ d   1       0.111   3.974   3.145  0.00  0.00     0.000 A 
ATOM      2  C2  BNZ d   1       1.050   3.076   2.712  0.00  0.00     0.000 A 
ATOM      3  C3  BNZ d   1       0.764   2.196   1.705  0.00  0.00     0.000 A 
ATOM      4  C4  BNZ d   1      -0.470   2.188   1.161  0.00  0.00     0.000 A 
ATOM      5  C5  BNZ d   1      -1.430   3.080   1.594  0.00  0.00     0.000 A 
ATOM      6  C6  BNZ d   1      -1.127   3.991   2.580  0.00  0.00     0.000 A 
ENDROOT
TORSDOF 0
ENDMDL
