MODEL 1
REMARK minimizedAffinity -4.1107235
REMARK minimizedRMSD -1
REMARK  0 active torsions:
REMARK  status: ('A' for Active; 'I' for Inactive)
ROOT
ATOM      1  C1  BNZ d   1       1.151  -0.749  -1.412  0.00  0.00     0.000 A 
ATOM      2  C2  BNZ d   1      -0.217  -0.770  -1.471  0.00  0.00     0.000 A 
ATOM      3  C3  BNZ d   1      -0.888  -1.928  -1.748  0.00  0.00     0.000 A 
ATOM      4  C4  BNZ d   1      -0.191  -3.054  -2.005  0.00  0.00     0.000 A 
ATOM      5  C5  BNZ d   1       1.189  -3.047  -1.958  0.00  0.00     0.000 A 
ATOM      6  C6  BNZ d   1       1.860  -1.888  -1.641  0.00  0.00     0.000 A 
ENDROOT
TORSDOF 0
ENDMDL
