MODEL 1
REMARK minimizedAffinity 2.27026772
REMARK minimizedRMSD -1
REMARK  0 active torsions:
REMARK  status: ('A' for Active; 'I' for Inactive)
ROOT
ATOM      1  C1  BNZ d   1       4.033   4.592   0.540  0.00  0.00     0.000 A 
ATOM      2  C2  BNZ d   1       2.913   4.675   1.323  0.00  0.00     0.000 A 
ATOM      3  C3  BNZ d   1       1.974   3.682   1.310  0.00  0.00     0.000 A 
ATOM      4  C4  BNZ d   1       2.136   2.627   0.485  0.00  0.00     0.000 A 
ATOM      5  C5  BNZ d   1       3.255   2.534  -0.318  0.00  0.00     0.000 A 
ATOM      6  C6  BNZ d   1       4.217   3.516  -0.274  0.00  0.00     0.000 A 
ENDROOT
TORSDOF 0
ENDMDL
