MODEL 1
REMARK minimizedAffinity 3.14388037
REMARK minimizedRMSD -1
REMARK  0 active torsions:
REMARK  status: ('A' for Active; 'I' for Inactive)
ROOT
ATOM      1  C1  BNZ d   1      -0.926   0.764   1.785  0.00  0.00     0.000 A 
ATOM      2  C2  BNZ d   1      -1.526   1.151   0.616  0.00  0.00     0.000 A 
ATOM      3  C3  BNZ d   1      -1.189   2.331   0.014  0.00  0.00     0.000 A 
ATOM      4  C4  BNZ d   1      -0.284   3.141   0.601  0.00  0.00     0.000 A 
ATOM      5  C5  BNZ d   1       0.322   2.769   1.784  0.00  0.00     0.000 A 
ATOM      6  C6  BNZ d   1       0.010   1.563   2.367  0.00  0.00     0.000 A 
ENDROOT
TORSDOF 0
ENDMDL
