MODEL 1
REMARK minimizedAffinity 2.40639687
REMARK minimizedRMSD -1
REMARK  0 active torsions:
REMARK  status: ('A' for Active; 'I' for Inactive)
ROOT
ATOM      1  C1  BNZ d   1      -3.352  -3.767  -1.865  0.00  0.00     0.000 A 
ATOM      2  C2  BNZ d   1      -2.247  -2.959  -1.840  0.00  0.00     0.000 A 
ATOM      3  C3  BNZ d   1      -1.169  -3.222  -2.639  0.00  0.00     0.000 A 
ATOM      4  C4  BNZ d   1      -1.181  -4.313  -3.431  0.00  0.00     0.000 A 
ATOM      5  C5  BNZ d   1      -2.284  -5.143  -3.461  0.00  0.00     0.000 A 
ATOM      6  C6  BNZ d   1      -3.383  -4.853  -2.684  0.00  0.00     0.000 A 
ENDROOT
TORSDOF 0
ENDMDL
