MODEL 1
REMARK minimizedAffinity 2.10811615
REMARK minimizedRMSD -1
REMARK  0 active torsions:
REMARK  status: ('A' for Active; 'I' for Inactive)
ROOT
ATOM      1  C1  BNZ d   1      -1.124  -4.596  -2.695  0.00  0.00     0.000 A 
ATOM      2  C2  BNZ d   1      -2.332  -5.075  -2.261  0.00  0.00     0.000 A 
ATOM      3  C3  BNZ d   1      -3.161  -4.298  -1.502  0.00  0.00     0.000 A 
ATOM      4  C4  BNZ d   1      -2.766  -3.060  -1.144  0.00  0.00     0.000 A 
ATOM      5  C5  BNZ d   1      -1.548  -2.566  -1.565  0.00  0.00     0.000 A 
ATOM      6  C6  BNZ d   1      -0.732  -3.336  -2.362  0.00  0.00     0.000 A 
ENDROOT
TORSDOF 0
ENDMDL
