MODEL 1
REMARK minimizedAffinity -2.76195407
REMARK minimizedRMSD -1
REMARK  0 active torsions:
REMARK  status: ('A' for Active; 'I' for Inactive)
ROOT
ATOM      1  C1  BNZ d   1       3.612  -4.236   5.629  0.00  0.00     0.000 A 
ATOM      2  C2  BNZ d   1       3.681  -2.921   5.253  0.00  0.00     0.000 A 
ATOM      3  C3  BNZ d   1       4.879  -2.264   5.224  0.00  0.00     0.000 A 
ATOM      4  C4  BNZ d   1       5.999  -2.909   5.609  0.00  0.00     0.000 A 
ATOM      5  C5  BNZ d   1       5.945  -4.232   6.000  0.00  0.00     0.000 A 
ATOM      6  C6  BNZ d   1       4.743  -4.902   5.990  0.00  0.00     0.000 A 
ENDROOT
TORSDOF 0
ENDMDL
