MODEL 1
REMARK minimizedAffinity -3.67486119
REMARK minimizedRMSD -1
REMARK  0 active torsions:
REMARK  status: ('A' for Active; 'I' for Inactive)
ROOT
ATOM      1  C1  BNZ d   1       0.934  -2.069  -0.966  0.00  0.00     0.000 A 
ATOM      2  C2  BNZ d   1       0.705  -2.664   0.246  0.00  0.00     0.000 A 
ATOM      3  C3  BNZ d   1       0.066  -1.989   1.248  0.00  0.00     0.000 A 
ATOM      4  C4  BNZ d   1      -0.306  -0.708   1.050  0.00  0.00     0.000 A 
ATOM      5  C5  BNZ d   1      -0.075  -0.091  -0.163  0.00  0.00     0.000 A 
ATOM      6  C6  BNZ d   1       0.534  -0.787  -1.182  0.00  0.00     0.000 A 
ENDROOT
TORSDOF 0
ENDMDL
