MODEL 1
REMARK minimizedAffinity -0.421286792
REMARK minimizedRMSD -1
REMARK  0 active torsions:
REMARK  status: ('A' for Active; 'I' for Inactive)
ROOT
ATOM      1  C   UNL d   1       2.385   1.168  -0.454  0.00  0.00     0.172 C 
ATOM      2  N   UNL d   1       1.410   0.104  -0.504  0.00  0.00    -0.070 N 
ATOM      3  C1  UNL d   1       1.682  -1.233  -0.396  0.00  0.00    -0.004 A 
ATOM      4  C2  UNL d   1       0.488  -1.916  -0.492  0.00  0.00    -0.047 A 
ATOM      5  C3  UNL d   1      -0.536  -0.955  -0.665  0.00  0.00    -0.047 A 
ATOM      6  C4  UNL d   1       0.062   0.287  -0.668  0.00  0.00    -0.004 A 
ENDROOT
TORSDOF 0
ENDMDL
