MODEL 1
REMARK minimizedAffinity -3.89992905
REMARK minimizedRMSD -1
REMARK  0 active torsions:
REMARK  status: ('A' for Active; 'I' for Inactive)
ROOT
ATOM      1  C   UNL d   1      -0.857   0.638  -0.087  0.00  0.00     0.172 C 
ATOM      2  N   UNL d   1       0.274  -0.239   0.108  0.00  0.00    -0.070 N 
ATOM      3  C1  UNL d   1       0.528  -1.383  -0.599  0.00  0.00    -0.004 A 
ATOM      4  C2  UNL d   1       1.696  -1.929  -0.114  0.00  0.00    -0.047 A 
ATOM      5  C3  UNL d   1       2.160  -1.083   0.922  0.00  0.00    -0.047 A 
ATOM      6  C4  UNL d   1       1.261  -0.045   1.038  0.00  0.00    -0.004 A 
ENDROOT
TORSDOF 0
ENDMDL
