MODEL 1
REMARK minimizedAffinity -3.81904674
REMARK minimizedRMSD -1
REMARK  0 active torsions:
REMARK  status: ('A' for Active; 'I' for Inactive)
ROOT
ATOM      1  C   UNL d   1      -1.141   0.585  -0.159  0.00  0.00     0.172 C 
ATOM      2  N   UNL d   1       0.092  -0.160  -0.069  0.00  0.00    -0.070 N 
ATOM      3  C1  UNL d   1       0.374  -1.320  -0.741  0.00  0.00    -0.004 A 
ATOM      4  C2  UNL d   1       1.647  -1.714  -0.386  0.00  0.00    -0.047 A 
ATOM      5  C3  UNL d   1       2.146  -0.759   0.531  0.00  0.00    -0.047 A 
ATOM      6  C4  UNL d   1       1.163   0.192   0.709  0.00  0.00    -0.004 A 
ENDROOT
TORSDOF 0
ENDMDL
