MODEL 1
REMARK minimizedAffinity -2.22081161
REMARK minimizedRMSD -1
REMARK  0 active torsions:
REMARK  status: ('A' for Active; 'I' for Inactive)
ROOT
ATOM      1  C   UNL d   1       2.008  -0.792   1.014  0.00  0.00     0.172 C 
ATOM      2  N   UNL d   1       1.015  -0.015   0.309  0.00  0.00    -0.070 N 
ATOM      3  C1  UNL d   1      -0.055  -0.522  -0.379  0.00  0.00    -0.004 A 
ATOM      4  C2  UNL d   1      -0.759   0.539  -0.906  0.00  0.00    -0.047 A 
ATOM      5  C3  UNL d   1      -0.088   1.725  -0.523  0.00  0.00    -0.047 A 
ATOM      6  C4  UNL d   1       1.007   1.353   0.229  0.00  0.00    -0.004 A 
ENDROOT
TORSDOF 0
ENDMDL
