MODEL 1
REMARK minimizedAffinity -3.62294912
REMARK minimizedRMSD -1
REMARK  0 active torsions:
REMARK  status: ('A' for Active; 'I' for Inactive)
ROOT
ATOM      1  C   UNL d   1       0.124   0.632  -0.107  0.00  0.00     0.172 C 
ATOM      2  N   UNL d   1       1.188  -0.324   0.091  0.00  0.00    -0.070 N 
ATOM      3  C1  UNL d   1       2.496  -0.019   0.357  0.00  0.00    -0.004 A 
ATOM      4  C2  UNL d   1       3.190  -1.203   0.478  0.00  0.00    -0.047 A 
ATOM      5  C3  UNL d   1       2.267  -2.257   0.276  0.00  0.00    -0.047 A 
ATOM      6  C4  UNL d   1       1.035  -1.684   0.038  0.00  0.00    -0.004 A 
ENDROOT
TORSDOF 0
ENDMDL
