MODEL 1
REMARK minimizedAffinity -2.91156626
REMARK minimizedRMSD -1
REMARK  0 active torsions:
REMARK  status: ('A' for Active; 'I' for Inactive)
ROOT
ATOM      1  C   UNL d   1       3.322   2.004   0.611  0.00  0.00     0.172 C 
ATOM      2  N   UNL d   1       2.668   0.732   0.416  0.00  0.00    -0.070 N 
ATOM      3  C1  UNL d   1       1.316   0.517   0.435  0.00  0.00    -0.004 A 
ATOM      4  C2  UNL d   1       1.098  -0.824   0.209  0.00  0.00    -0.047 A 
ATOM      5  C3  UNL d   1       2.363  -1.438   0.049  0.00  0.00    -0.047 A 
ATOM      6  C4  UNL d   1       3.317  -0.452   0.182  0.00  0.00    -0.004 A 
ENDROOT
TORSDOF 0
ENDMDL
