MODEL 1
REMARK minimizedAffinity -4.07796431
REMARK minimizedRMSD -1
REMARK  0 active torsions:
REMARK  status: ('A' for Active; 'I' for Inactive)
ROOT
ATOM      1  C   UNL d   1      -0.577   0.716   0.023  0.00  0.00     0.172 C 
ATOM      2  N   UNL d   1       0.572  -0.131   0.237  0.00  0.00    -0.070 N 
ATOM      3  C1  UNL d   1       0.779  -1.357  -0.337  0.00  0.00    -0.004 A 
ATOM      4  C2  UNL d   1       1.986  -1.839   0.120  0.00  0.00    -0.047 A 
ATOM      5  C3  UNL d   1       2.523  -0.870   1.001  0.00  0.00    -0.047 A 
ATOM      6  C4  UNL d   1       1.628   0.177   1.055  0.00  0.00    -0.004 A 
ENDROOT
TORSDOF 0
ENDMDL
