MODEL 1
REMARK minimizedAffinity -3.6989615
REMARK minimizedRMSD -1
REMARK  0 active torsions:
REMARK  status: ('A' for Active; 'I' for Inactive)
ROOT
ATOM      1  C   UNL d   1      -0.848   0.517   0.040  0.00  0.00     0.172 C 
ATOM      2  N   UNL d   1      -0.249  -0.702   0.530  0.00  0.00    -0.070 N 
ATOM      3  C1  UNL d   1      -0.748  -1.490   1.532  0.00  0.00    -0.004 A 
ATOM      4  C2  UNL d   1       0.111  -2.554   1.700  0.00  0.00    -0.047 A 
ATOM      5  C3  UNL d   1       1.163  -2.400   0.767  0.00  0.00    -0.047 A 
ATOM      6  C4  UNL d   1       0.916  -1.245   0.056  0.00  0.00    -0.004 A 
ENDROOT
TORSDOF 0
ENDMDL
