MODEL 1
REMARK minimizedAffinity -3.90606403
REMARK minimizedRMSD -1
REMARK  0 active torsions:
REMARK  status: ('A' for Active; 'I' for Inactive)
ROOT
ATOM      1  C   UNL d   1      -0.525   0.440   0.303  0.00  0.00     0.172 C 
ATOM      2  N   UNL d   1       0.204  -0.741   0.705  0.00  0.00    -0.070 N 
ATOM      3  C1  UNL d   1      -0.311  -1.795   1.411  0.00  0.00    -0.004 A 
ATOM      4  C2  UNL d   1       0.699  -2.715   1.591  0.00  0.00    -0.047 A 
ATOM      5  C3  UNL d   1       1.861  -2.196   0.972  0.00  0.00    -0.047 A 
ATOM      6  C4  UNL d   1       1.526  -0.972   0.431  0.00  0.00    -0.004 A 
ENDROOT
TORSDOF 0
ENDMDL
