MODEL 1
REMARK minimizedAffinity -4.3961997
REMARK minimizedRMSD -1
REMARK  0 active torsions:
REMARK  status: ('A' for Active; 'I' for Inactive)
ROOT
ATOM      1  C   UNL d   1       0.280  -0.453  -0.035  0.00  0.00     0.172 C 
ATOM      2  N   UNL d   1       0.210  -1.243   1.171  0.00  0.00    -0.070 N 
ATOM      3  C1  UNL d   1      -0.772  -1.162   2.123  0.00  0.00    -0.004 A 
ATOM      4  C2  UNL d   1      -0.479  -2.077   3.111  0.00  0.00    -0.047 A 
ATOM      5  C3  UNL d   1       0.721  -2.730   2.741  0.00  0.00    -0.047 A 
ATOM      6  C4  UNL d   1       1.126  -2.195   1.536  0.00  0.00    -0.004 A 
ENDROOT
TORSDOF 0
ENDMDL
