MODEL 1
REMARK minimizedAffinity -3.99691844
REMARK minimizedRMSD -1
REMARK  0 active torsions:
REMARK  status: ('A' for Active; 'I' for Inactive)
ROOT
ATOM      1  C   UNL d   1       0.370  -0.973   0.385  0.00  0.00     0.172 C 
ATOM      2  N   UNL d   1       0.267  -1.858   1.520  0.00  0.00    -0.070 N 
ATOM      3  C1  UNL d   1       1.151  -2.854   1.840  0.00  0.00    -0.004 A 
ATOM      4  C2  UNL d   1       0.700  -3.466   2.989  0.00  0.00    -0.047 A 
ATOM      5  C3  UNL d   1      -0.497  -2.817   3.373  0.00  0.00    -0.047 A 
ATOM      6  C4  UNL d   1      -0.742  -1.826   2.446  0.00  0.00    -0.004 A 
ENDROOT
TORSDOF 0
ENDMDL
