MODEL 1
REMARK minimizedAffinity -3.19088221
REMARK minimizedRMSD -1
REMARK  0 active torsions:
REMARK  status: ('A' for Active; 'I' for Inactive)
ROOT
ATOM      1  C   UNL d   1      -0.811   0.755   0.050  0.00  0.00     0.172 C 
ATOM      2  N   UNL d   1       0.190  -0.263   0.273  0.00  0.00    -0.070 N 
ATOM      3  C1  UNL d   1       1.514  -0.167  -0.064  0.00  0.00    -0.004 A 
ATOM      4  C2  UNL d   1       2.130  -1.340   0.313  0.00  0.00    -0.047 A 
ATOM      5  C3  UNL d   1       1.143  -2.170   0.895  0.00  0.00    -0.047 A 
ATOM      6  C4  UNL d   1      -0.049  -1.478   0.857  0.00  0.00    -0.004 A 
ENDROOT
TORSDOF 0
ENDMDL
