MODEL 1
REMARK minimizedAffinity -4.07596302
REMARK minimizedRMSD -1
REMARK  0 active torsions:
REMARK  status: ('A' for Active; 'I' for Inactive)
ROOT
ATOM      1  C   UNL d   1      -0.086   0.475  -0.101  0.00  0.00     0.172 C 
ATOM      2  N   UNL d   1       0.181  -0.786   0.551  0.00  0.00    -0.070 N 
ATOM      3  C1  UNL d   1       1.120  -1.703   0.161  0.00  0.00    -0.004 A 
ATOM      4  C2  UNL d   1       1.062  -2.765   1.038  0.00  0.00    -0.047 A 
ATOM      5  C3  UNL d   1       0.053  -2.476   1.987  0.00  0.00    -0.047 A 
ATOM      6  C4  UNL d   1      -0.476  -1.245   1.662  0.00  0.00    -0.004 A 
ENDROOT
TORSDOF 0
ENDMDL
