MODEL 1
REMARK minimizedAffinity -2.25637317
REMARK minimizedRMSD -1
REMARK  0 active torsions:
REMARK  status: ('A' for Active; 'I' for Inactive)
ROOT
ATOM      1  C   UNL d   1      -1.032   1.929  -0.262  0.00  0.00     0.172 C 
ATOM      2  N   UNL d   1      -1.517   2.186  -1.598  0.00  0.00    -0.070 N 
ATOM      3  C1  UNL d   1      -0.898   2.969  -2.536  0.00  0.00    -0.004 A 
ATOM      4  C2  UNL d   1      -1.675   2.959  -3.674  0.00  0.00    -0.047 A 
ATOM      5  C3  UNL d   1      -2.801   2.143  -3.411  0.00  0.00    -0.047 A 
ATOM      6  C4  UNL d   1      -2.678   1.678  -2.118  0.00  0.00    -0.004 A 
ENDROOT
TORSDOF 0
ENDMDL
