MODEL 1
REMARK minimizedAffinity -2.10446715
REMARK minimizedRMSD -1
REMARK  0 active torsions:
REMARK  status: ('A' for Active; 'I' for Inactive)
ROOT
ATOM      1  C   UNL d   1      -0.225   0.318  -0.620  0.00  0.00     0.172 C 
ATOM      2  N   UNL d   1      -1.189   0.740  -1.608  0.00  0.00    -0.070 N 
ATOM      3  C1  UNL d   1      -1.722   1.997  -1.718  0.00  0.00    -0.004 A 
ATOM      4  C2  UNL d   1      -2.598   1.992  -2.781  0.00  0.00    -0.047 A 
ATOM      5  C3  UNL d   1      -2.593   0.687  -3.329  0.00  0.00    -0.047 A 
ATOM      6  C4  UNL d   1      -1.712  -0.067  -2.583  0.00  0.00    -0.004 A 
ENDROOT
TORSDOF 0
ENDMDL
