MODEL 1
REMARK minimizedAffinity -2.20854831
REMARK minimizedRMSD -1
REMARK  0 active torsions:
REMARK  status: ('A' for Active; 'I' for Inactive)
ROOT
ATOM      1  C   UNL d   1      -1.183  -0.076   1.857  0.00  0.00     0.172 C 
ATOM      2  N   UNL d   1       0.058  -0.345   1.169  0.00  0.00    -0.070 N 
ATOM      3  C1  UNL d   1       0.438   0.195  -0.031  0.00  0.00    -0.004 A 
ATOM      4  C2  UNL d   1       1.682  -0.309  -0.345  0.00  0.00    -0.047 A 
ATOM      5  C3  UNL d   1       2.062  -1.182   0.702  0.00  0.00    -0.047 A 
ATOM      6  C4  UNL d   1       1.039  -1.185   1.626  0.00  0.00    -0.004 A 
ENDROOT
TORSDOF 0
ENDMDL
