MODEL 1
REMARK minimizedAffinity -2.69685864
REMARK minimizedRMSD -1
REMARK  0 active torsions:
REMARK  status: ('A' for Active; 'I' for Inactive)
ROOT
ATOM      1  C   UNL d   1      -0.755   0.931  -0.081  0.00  0.00     0.172 C 
ATOM      2  N   UNL d   1      -0.001  -0.183   0.444  0.00  0.00    -0.070 N 
ATOM      3  C1  UNL d   1       1.143  -0.701  -0.102  0.00  0.00    -0.004 A 
ATOM      4  C2  UNL d   1       1.552  -1.749   0.693  0.00  0.00    -0.047 A 
ATOM      5  C3  UNL d   1       0.622  -1.866   1.753  0.00  0.00    -0.047 A 
ATOM      6  C4  UNL d   1      -0.329  -0.884   1.575  0.00  0.00    -0.004 A 
ENDROOT
TORSDOF 0
ENDMDL
