MODEL 1
REMARK minimizedAffinity -2.9549396
REMARK minimizedRMSD -1
REMARK  0 active torsions:
REMARK  status: ('A' for Active; 'I' for Inactive)
ROOT
ATOM      1  C   UNL d   1       1.967  -1.346   0.365  0.00  0.00     0.172 C 
ATOM      2  N   UNL d   1       1.153  -0.231  -0.060  0.00  0.00    -0.070 N 
ATOM      3  C1  UNL d   1       1.611   1.026  -0.354  0.00  0.00    -0.004 A 
ATOM      4  C2  UNL d   1       0.528   1.796  -0.718  0.00  0.00    -0.047 A 
ATOM      5  C3  UNL d   1      -0.621   0.974  -0.639  0.00  0.00    -0.047 A 
ATOM      6  C4  UNL d   1      -0.206  -0.275  -0.229  0.00  0.00    -0.004 A 
ENDROOT
TORSDOF 0
ENDMDL
