MODEL 1
REMARK minimizedAffinity -0.990621805
REMARK minimizedRMSD -1
REMARK  0 active torsions:
REMARK  status: ('A' for Active; 'I' for Inactive)
ROOT
ATOM      1  C   UNL d   1      -0.815   1.050  -0.443  0.00  0.00     0.172 C 
ATOM      2  N   UNL d   1      -1.429   1.172  -1.745  0.00  0.00    -0.070 N 
ATOM      3  C1  UNL d   1      -1.119   2.115  -2.688  0.00  0.00    -0.004 A 
ATOM      4  C2  UNL d   1      -1.923   1.893  -3.786  0.00  0.00    -0.047 A 
ATOM      5  C3  UNL d   1      -2.745   0.780  -3.491  0.00  0.00    -0.047 A 
ATOM      6  C4  UNL d   1      -2.418   0.353  -2.221  0.00  0.00    -0.004 A 
ENDROOT
TORSDOF 0
ENDMDL
