MODEL 1
REMARK minimizedAffinity -3.88768268
REMARK minimizedRMSD -1
REMARK  0 active torsions:
REMARK  status: ('A' for Active; 'I' for Inactive)
ROOT
ATOM      1  C   UNL d   1      -0.446   0.090  -0.152  0.00  0.00     0.172 C 
ATOM      2  N   UNL d   1       0.041  -1.046   0.594  0.00  0.00    -0.070 N 
ATOM      3  C1  UNL d   1      -0.509  -1.541   1.746  0.00  0.00    -0.004 A 
ATOM      4  C2  UNL d   1       0.244  -2.624   2.143  0.00  0.00    -0.047 A 
ATOM      5  C3  UNL d   1       1.284  -2.787   1.197  0.00  0.00    -0.047 A 
ATOM      6  C4  UNL d   1       1.135  -1.796   0.249  0.00  0.00    -0.004 A 
ENDROOT
TORSDOF 0
ENDMDL
