MODEL 1
REMARK minimizedAffinity -4.198915
REMARK minimizedRMSD -1
REMARK  0 active torsions:
REMARK  status: ('A' for Active; 'I' for Inactive)
ROOT
ATOM      1  C   UNL d   1      -1.627   1.683   1.810  0.00  0.00     0.023 A 
ATOM      2  C1  UNL d   1      -1.381   0.393   2.281  0.00  0.00     0.003 A 
ATOM      3  C2  UNL d   1      -0.819  -0.565   1.435  0.00  0.00     0.048 A 
ATOM      4  C3  UNL d   1      -0.504  -0.226   0.119  0.00  0.00     0.023 A 
ATOM      5  C4  UNL d   1      -0.747   1.064  -0.356  0.00  0.00     0.048 A 
ATOM      6  C5  UNL d   1      -1.310   2.018   0.494  0.00  0.00     0.003 A 
ATOM      7  I   UNL d   1       0.333  -1.650  -1.142  0.00  0.00    -0.146 I 
ENDROOT
TORSDOF 0
ENDMDL
