MODEL 1
REMARK minimizedAffinity -4.33733606
REMARK minimizedRMSD -1
REMARK  0 active torsions:
REMARK  status: ('A' for Active; 'I' for Inactive)
ROOT
ATOM      1  C   UNL d   1      -1.386   2.677   1.315  0.00  0.00     0.023 A 
ATOM      2  C1  UNL d   1      -1.529   1.410   1.882  0.00  0.00     0.003 A 
ATOM      3  C2  UNL d   1      -1.061   0.283   1.203  0.00  0.00     0.048 A 
ATOM      4  C3  UNL d   1      -0.451   0.430  -0.042  0.00  0.00     0.023 A 
ATOM      5  C4  UNL d   1      -0.306   1.695  -0.613  0.00  0.00     0.048 A 
ATOM      6  C5  UNL d   1      -0.776   2.819   0.069  0.00  0.00     0.003 A 
ATOM      7  I   UNL d   1       0.246  -1.246  -1.054  0.00  0.00    -0.146 I 
ENDROOT
TORSDOF 0
ENDMDL
