MODEL 1
REMARK minimizedAffinity -1.6150471
REMARK minimizedRMSD -1
REMARK  0 active torsions:
REMARK  status: ('A' for Active; 'I' for Inactive)
ROOT
ATOM      1  C   UNL d   1       1.074  -1.156  -0.276  0.00  0.00     0.023 A 
ATOM      2  C1  UNL d   1       0.539  -1.470   0.974  0.00  0.00     0.003 A 
ATOM      3  C2  UNL d   1      -0.278  -0.552   1.636  0.00  0.00     0.048 A 
ATOM      4  C3  UNL d   1      -0.558   0.679   1.042  0.00  0.00     0.023 A 
ATOM      5  C4  UNL d   1      -0.025   0.997  -0.209  0.00  0.00     0.048 A 
ATOM      6  C5  UNL d   1       0.792   0.075  -0.866  0.00  0.00     0.003 A 
ATOM      7  I   UNL d   1      -1.774   2.048   2.025  0.00  0.00    -0.146 I 
ENDROOT
TORSDOF 0
ENDMDL
