MODEL 1
REMARK minimizedAffinity -2.17521119
REMARK minimizedRMSD -1
REMARK  0 active torsions:
REMARK  status: ('A' for Active; 'I' for Inactive)
ROOT
ATOM      1  C   UNL d   1      -0.601   1.335   0.291  0.00  0.00     0.023 A 
ATOM      2  C1  UNL d   1      -0.922   0.146   0.946  0.00  0.00     0.003 A 
ATOM      3  C2  UNL d   1      -0.439  -1.072   0.464  0.00  0.00     0.048 A 
ATOM      4  C3  UNL d   1       0.367  -1.094  -0.674  0.00  0.00     0.023 A 
ATOM      5  C4  UNL d   1       0.692   0.094  -1.333  0.00  0.00     0.048 A 
ATOM      6  C5  UNL d   1       0.205   1.309  -0.847  0.00  0.00     0.003 A 
ATOM      7  I   UNL d   1       1.089  -2.905  -1.395  0.00  0.00    -0.146 I 
ENDROOT
TORSDOF 0
ENDMDL
