MODEL 1
REMARK minimizedAffinity -2.84841442
REMARK minimizedRMSD -1
REMARK  0 active torsions:
REMARK  status: ('A' for Active; 'I' for Inactive)
ROOT
ATOM      1  C   UNL d   1      -1.611   2.201   1.576  0.00  0.00     0.023 A 
ATOM      2  C1  UNL d   1      -1.518   2.224   0.185  0.00  0.00     0.003 A 
ATOM      3  C2  UNL d   1      -0.836   1.208  -0.488  0.00  0.00     0.048 A 
ATOM      4  C3  UNL d   1      -0.250   0.171   0.237  0.00  0.00     0.023 A 
ATOM      5  C4  UNL d   1      -0.341   0.143   1.629  0.00  0.00     0.048 A 
ATOM      6  C5  UNL d   1      -1.023   1.162   2.298  0.00  0.00     0.003 A 
ATOM      7  I   UNL d   1       0.765  -1.342  -0.762  0.00  0.00    -0.146 I 
ENDROOT
TORSDOF 0
ENDMDL
