MODEL 1
REMARK minimizedAffinity -1.36940801
REMARK minimizedRMSD -1
REMARK  0 active torsions:
REMARK  status: ('A' for Active; 'I' for Inactive)
ROOT
ATOM      1  C   UNL d   1      -1.604   1.507   1.838  0.00  0.00     0.023 A 
ATOM      2  C1  UNL d   1      -1.802   1.568   0.458  0.00  0.00     0.003 A 
ATOM      3  C2  UNL d   1      -1.120   0.689  -0.386  0.00  0.00     0.048 A 
ATOM      4  C3  UNL d   1      -0.242  -0.249   0.157  0.00  0.00     0.023 A 
ATOM      5  C4  UNL d   1      -0.042  -0.314   1.537  0.00  0.00     0.048 A 
ATOM      6  C5  UNL d   1      -0.726   0.567   2.376  0.00  0.00     0.003 A 
ATOM      7  I   UNL d   1       0.773  -1.559  -1.097  0.00  0.00    -0.146 I 
ENDROOT
TORSDOF 0
ENDMDL
