MODEL 1
REMARK minimizedAffinity -2.68525982
REMARK minimizedRMSD -1
REMARK  0 active torsions:
REMARK  status: ('A' for Active; 'I' for Inactive)
ROOT
ATOM      1  C   UNL d   1      -1.711   1.936   1.181  0.00  0.00     0.023 A 
ATOM      2  C1  UNL d   1      -1.262   2.127  -0.126  0.00  0.00     0.003 A 
ATOM      3  C2  UNL d   1      -0.498   1.142  -0.754  0.00  0.00     0.048 A 
ATOM      4  C3  UNL d   1      -0.187  -0.033  -0.070  0.00  0.00     0.023 A 
ATOM      5  C4  UNL d   1      -0.635  -0.229   1.237  0.00  0.00     0.048 A 
ATOM      6  C5  UNL d   1      -1.398   0.760   1.862  0.00  0.00     0.003 A 
ATOM      7  I   UNL d   1       0.950  -1.501  -1.002  0.00  0.00    -0.146 I 
ENDROOT
TORSDOF 0
ENDMDL
