MODEL 1
REMARK minimizedAffinity -1.66341615
REMARK minimizedRMSD -1
REMARK  0 active torsions:
REMARK  status: ('A' for Active; 'I' for Inactive)
ROOT
ATOM      1  C   UNL d   1       0.967  -0.024   1.712  0.00  0.00     0.023 A 
ATOM      2  C1  UNL d   1      -0.050   0.523   2.495  0.00  0.00     0.003 A 
ATOM      3  C2  UNL d   1      -1.235   0.957   1.899  0.00  0.00     0.048 A 
ATOM      4  C3  UNL d   1      -1.398   0.840   0.519  0.00  0.00     0.023 A 
ATOM      5  C4  UNL d   1      -0.384   0.293  -0.269  0.00  0.00     0.048 A 
ATOM      6  C5  UNL d   1       0.800  -0.139   0.332  0.00  0.00     0.003 A 
ATOM      7  I   UNL d   1      -3.162   1.485  -0.371  0.00  0.00    -0.146 I 
ENDROOT
TORSDOF 0
ENDMDL
