MODEL 1
REMARK minimizedAffinity -3.94581795
REMARK minimizedRMSD -1
REMARK  0 active torsions:
REMARK  status: ('A' for Active; 'I' for Inactive)
ROOT
ATOM      1  C   UNL d   1      -1.223   3.269   1.003  0.00  0.00     0.023 A 
ATOM      2  C1  UNL d   1      -1.478   2.052   1.635  0.00  0.00     0.003 A 
ATOM      3  C2  UNL d   1      -0.866   0.883   1.176  0.00  0.00     0.048 A 
ATOM      4  C3  UNL d   1       0.000   0.940   0.085  0.00  0.00     0.023 A 
ATOM      5  C4  UNL d   1       0.259   2.156  -0.550  0.00  0.00     0.048 A 
ATOM      6  C5  UNL d   1      -0.355   3.321  -0.088  0.00  0.00     0.003 A 
ATOM      7  I   UNL d   1       0.912  -0.798  -0.600  0.00  0.00    -0.146 I 
ENDROOT
TORSDOF 0
ENDMDL
