MODEL 1
REMARK minimizedAffinity -4.65579557
REMARK minimizedRMSD -1
REMARK  0 active torsions:
REMARK  status: ('A' for Active; 'I' for Inactive)
ROOT
ATOM      1  C   UNL d   1      -1.519   3.188   0.724  0.00  0.00     0.023 A 
ATOM      2  C1  UNL d   1      -0.614   3.254  -0.335  0.00  0.00     0.003 A 
ATOM      3  C2  UNL d   1       0.010   2.093  -0.796  0.00  0.00     0.048 A 
ATOM      4  C3  UNL d   1      -0.277   0.869  -0.194  0.00  0.00     0.023 A 
ATOM      5  C4  UNL d   1      -1.183   0.798   0.866  0.00  0.00     0.048 A 
ATOM      6  C5  UNL d   1      -1.803   1.961   1.324  0.00  0.00     0.003 A 
ATOM      7  I   UNL d   1       0.649  -0.861  -0.878  0.00  0.00    -0.146 I 
ENDROOT
TORSDOF 0
ENDMDL
