MODEL 1
REMARK minimizedAffinity -3.83045292
REMARK minimizedRMSD -1
REMARK  0 active torsions:
REMARK  status: ('A' for Active; 'I' for Inactive)
ROOT
ATOM      1  C   UNL d   1      -1.959   2.590   1.563  0.00  0.00     0.023 A 
ATOM      2  C1  UNL d   1      -2.050   2.516   0.173  0.00  0.00     0.003 A 
ATOM      3  C2  UNL d   1      -1.383   1.502  -0.519  0.00  0.00     0.048 A 
ATOM      4  C3  UNL d   1      -0.627   0.566   0.186  0.00  0.00     0.023 A 
ATOM      5  C4  UNL d   1      -0.534   0.636   1.577  0.00  0.00     0.048 A 
ATOM      6  C5  UNL d   1      -1.202   1.652   2.264  0.00  0.00     0.003 A 
ATOM      7  I   UNL d   1       0.366  -0.943  -0.841  0.00  0.00    -0.146 I 
ENDROOT
TORSDOF 0
ENDMDL
