MODEL 1
REMARK minimizedAffinity -3.46660423
REMARK minimizedRMSD -1
REMARK  0 active torsions:
REMARK  status: ('A' for Active; 'I' for Inactive)
ROOT
ATOM      1  C   UNL d   1      -1.153   3.615   0.752  0.00  0.00     0.023 A 
ATOM      2  C1  UNL d   1      -0.353   3.385  -0.368  0.00  0.00     0.003 A 
ATOM      3  C2  UNL d   1      -0.016   2.080  -0.731  0.00  0.00     0.048 A 
ATOM      4  C3  UNL d   1      -0.483   1.008   0.030  0.00  0.00     0.023 A 
ATOM      5  C4  UNL d   1      -1.284   1.233   1.150  0.00  0.00     0.048 A 
ATOM      6  C5  UNL d   1      -1.618   2.540   1.510  0.00  0.00     0.003 A 
ATOM      7  I   UNL d   1       0.018  -0.936  -0.509  0.00  0.00    -0.146 I 
ENDROOT
TORSDOF 0
ENDMDL
