MODEL 1
REMARK minimizedAffinity -3.43210959
REMARK minimizedRMSD -1
REMARK  2 active torsions:
REMARK  status: ('A' for Active; 'I' for Inactive)
REMARK    1  A    between atoms: C1_2  and  C2_3 
REMARK    2  A    between atoms: C2_3  and  C3_4 
ROOT
ATOM      1  C3  UNL d   1       2.318  -2.471   2.923  0.00  0.00    -0.075 A 
ATOM      2  C4  UNL d   1       3.081  -1.517   2.235  0.00  0.00     0.002 A 
ATOM      3  C5  UNL d   1       2.521  -0.780   1.192  0.00  0.00     0.002 A 
ATOM      4  C6  UNL d   1       1.196  -0.993   0.817  0.00  0.00    -0.004 A 
ATOM      5  C7  UNL d   1       0.433  -1.951   1.483  0.00  0.00     0.002 A 
ATOM      6  C8  UNL d   1       0.990  -2.687   2.530  0.00  0.00     0.002 A 
ENDROOT
BRANCH   1   7
ATOM      7  C2  UNL d   1       2.910  -3.252   4.072  0.00  0.00     0.056 C 
BRANCH   7   8
ATOM      8  C1  UNL d   1       2.581  -4.748   4.045  0.00  0.00     0.007 C 
ATOM      9  C   UNL d   1       2.936  -5.465   5.341  0.00  0.00     0.009 C 
ENDBRANCH   7   8
ENDBRANCH   1   7
TORSDOF 2
ENDMDL
