MODEL 1
REMARK minimizedAffinity -4.26275778
REMARK minimizedRMSD -1
REMARK  2 active torsions:
REMARK  status: ('A' for Active; 'I' for Inactive)
REMARK    1  A    between atoms: C1_2  and  C2_3 
REMARK    2  A    between atoms: C2_3  and  C3_4 
ROOT
ATOM      1  C3  UNL d   1       2.029  -2.294   2.923  0.00  0.00    -0.075 A 
ATOM      2  C4  UNL d   1       3.140  -1.573   2.461  0.00  0.00     0.002 A 
ATOM      3  C5  UNL d   1       3.128  -0.991   1.193  0.00  0.00     0.002 A 
ATOM      4  C6  UNL d   1       2.014  -1.132   0.369  0.00  0.00    -0.004 A 
ATOM      5  C7  UNL d   1       0.912  -1.860   0.811  0.00  0.00     0.002 A 
ATOM      6  C8  UNL d   1       0.919  -2.439   2.081  0.00  0.00     0.002 A 
ENDROOT
BRANCH   1   7
ATOM      7  C2  UNL d   1       2.024  -2.901   4.306  0.00  0.00     0.056 C 
BRANCH   7   8
ATOM      8  C1  UNL d   1       3.267  -3.737   4.625  0.00  0.00     0.007 C 
ATOM      9  C   UNL d   1       2.941  -5.172   5.020  0.00  0.00     0.009 C 
ENDBRANCH   7   8
ENDBRANCH   1   7
TORSDOF 2
ENDMDL
