MODEL 1
REMARK minimizedAffinity 1.03812468
REMARK minimizedRMSD -1
REMARK  2 active torsions:
REMARK  status: ('A' for Active; 'I' for Inactive)
REMARK    1  A    between atoms: C1_2  and  C2_3 
REMARK    2  A    between atoms: C2_3  and  C3_4 
ROOT
ATOM      1  C3  UNL d   1       2.473  -0.015   1.093  0.00  0.00    -0.075 A 
ATOM      2  C4  UNL d   1       3.341  -0.811   1.855  0.00  0.00     0.002 A 
ATOM      3  C5  UNL d   1       2.894  -2.008   2.417  0.00  0.00     0.002 A 
ATOM      4  C6  UNL d   1       1.576  -2.418   2.233  0.00  0.00    -0.004 A 
ATOM      5  C7  UNL d   1       0.701  -1.626   1.492  0.00  0.00     0.002 A 
ATOM      6  C8  UNL d   1       1.146  -0.431   0.925  0.00  0.00     0.002 A 
ENDROOT
BRANCH   1   7
ATOM      7  C2  UNL d   1       2.958   1.266   0.458  0.00  0.00     0.056 C 
BRANCH   7   8
ATOM      8  C1  UNL d   1       1.887   2.358   0.359  0.00  0.00     0.007 C 
ATOM      9  C   UNL d   1       2.179   3.389  -0.723  0.00  0.00     0.009 C 
ENDBRANCH   7   8
ENDBRANCH   1   7
TORSDOF 2
ENDMDL
