MODEL 1
REMARK minimizedAffinity 2.84005618
REMARK minimizedRMSD -1
REMARK  2 active torsions:
REMARK  status: ('A' for Active; 'I' for Inactive)
REMARK    1  A    between atoms: C1_2  and  C2_3 
REMARK    2  A    between atoms: C2_3  and  C3_4 
ROOT
ATOM      1  C3  UNL d   1      -0.983  -1.175  -0.212  0.00  0.00    -0.075 A 
ATOM      2  C4  UNL d   1      -0.697  -1.363  -1.572  0.00  0.00     0.002 A 
ATOM      3  C5  UNL d   1       0.501  -1.957  -1.969  0.00  0.00     0.002 A 
ATOM      4  C6  UNL d   1       1.432  -2.361  -1.014  0.00  0.00    -0.004 A 
ATOM      5  C7  UNL d   1       1.165  -2.164   0.340  0.00  0.00     0.002 A 
ATOM      6  C8  UNL d   1      -0.035  -1.574   0.739  0.00  0.00     0.002 A 
ENDROOT
BRANCH   1   7
ATOM      7  C2  UNL d   1      -2.290  -0.559   0.225  0.00  0.00     0.056 C 
BRANCH   7   8
ATOM      8  C1  UNL d   1      -2.429   0.926  -0.127  0.00  0.00     0.007 C 
ATOM      9  C   UNL d   1      -2.301   1.844   1.081  0.00  0.00     0.009 C 
ENDBRANCH   7   8
ENDBRANCH   1   7
TORSDOF 2
ENDMDL
