MODEL 1
REMARK minimizedAffinity 0.13958326
REMARK minimizedRMSD -1
REMARK  2 active torsions:
REMARK  status: ('A' for Active; 'I' for Inactive)
REMARK    1  A    between atoms: C1_2  and  C2_3 
REMARK    2  A    between atoms: C2_3  and  C3_4 
ROOT
ATOM      1  C3  UNL d   1       0.840  -2.218   0.250  0.00  0.00    -0.075 A 
ATOM      2  C4  UNL d   1       1.760  -2.608  -0.734  0.00  0.00     0.002 A 
ATOM      3  C5  UNL d   1       1.407  -2.582  -2.084  0.00  0.00     0.002 A 
ATOM      4  C6  UNL d   1       0.130  -2.177  -2.465  0.00  0.00    -0.004 A 
ATOM      5  C7  UNL d   1      -0.797  -1.803  -1.494  0.00  0.00     0.002 A 
ATOM      6  C8  UNL d   1      -0.445  -1.824  -0.144  0.00  0.00     0.002 A 
ENDROOT
BRANCH   1   7
ATOM      7  C2  UNL d   1       1.226  -2.215   1.710  0.00  0.00     0.056 C 
BRANCH   7   8
ATOM      8  C1  UNL d   1       2.627  -1.658   1.984  0.00  0.00     0.007 C 
ATOM      9  C   UNL d   1       2.717  -0.147   1.810  0.00  0.00     0.009 C 
ENDBRANCH   7   8
ENDBRANCH   1   7
TORSDOF 2
ENDMDL
