MODEL 1
REMARK minimizedAffinity 2.34405065
REMARK minimizedRMSD -1
REMARK  2 active torsions:
REMARK  status: ('A' for Active; 'I' for Inactive)
REMARK    1  A    between atoms: C1_2  and  C2_3 
REMARK    2  A    between atoms: C2_3  and  C3_4 
ROOT
ATOM      1  C3  UNL d   1       3.770  -1.111  -4.569  0.00  0.00    -0.075 A 
ATOM      2  C4  UNL d   1       4.871  -1.928  -4.866  0.00  0.00     0.002 A 
ATOM      3  C5  UNL d   1       5.961  -1.419  -5.573  0.00  0.00     0.002 A 
ATOM      4  C6  UNL d   1       5.960  -0.093  -5.999  0.00  0.00    -0.004 A 
ATOM      5  C7  UNL d   1       4.865   0.723  -5.724  0.00  0.00     0.002 A 
ATOM      6  C8  UNL d   1       3.775   0.218  -5.013  0.00  0.00     0.002 A 
ENDROOT
BRANCH   1   7
ATOM      7  C2  UNL d   1       2.601  -1.648  -3.779  0.00  0.00     0.056 C 
BRANCH   7   8
ATOM      8  C1  UNL d   1       2.917  -2.916  -2.979  0.00  0.00     0.007 C 
ATOM      9  C   UNL d   1       2.198  -2.975  -1.638  0.00  0.00     0.009 C 
ENDBRANCH   7   8
ENDBRANCH   1   7
TORSDOF 2
ENDMDL
