MODEL 1
REMARK minimizedAffinity 1.64149642
REMARK minimizedRMSD -1
REMARK  2 active torsions:
REMARK  status: ('A' for Active; 'I' for Inactive)
REMARK    1  A    between atoms: C1_2  and  C2_3 
REMARK    2  A    between atoms: C2_3  and  C3_4 
ROOT
ATOM      1  C3  UNL d   1       1.842   0.181   0.884  0.00  0.00    -0.075 A 
ATOM      2  C4  UNL d   1       2.578  -0.933   1.313  0.00  0.00     0.002 A 
ATOM      3  C5  UNL d   1       1.931  -2.123   1.648  0.00  0.00     0.002 A 
ATOM      4  C6  UNL d   1       0.543  -2.211   1.568  0.00  0.00    -0.004 A 
ATOM      5  C7  UNL d   1      -0.199  -1.105   1.159  0.00  0.00     0.002 A 
ATOM      6  C8  UNL d   1       0.446   0.086   0.819  0.00  0.00     0.002 A 
ENDROOT
BRANCH   1   7
ATOM      7  C2  UNL d   1       2.539   1.462   0.492  0.00  0.00     0.056 C 
BRANCH   7   8
ATOM      8  C1  UNL d   1       1.589   2.573   0.033  0.00  0.00     0.007 C 
ATOM      9  C   UNL d   1       2.208   3.503  -1.002  0.00  0.00     0.009 C 
ENDBRANCH   7   8
ENDBRANCH   1   7
TORSDOF 2
ENDMDL
