MODEL 1
REMARK minimizedAffinity 15.4241581
REMARK minimizedRMSD -1
REMARK  2 active torsions:
REMARK  status: ('A' for Active; 'I' for Inactive)
REMARK    1  A    between atoms: C2'_3  and  C1'_4 
REMARK    2  A    between atoms: C1'_4  and  C1_5 
ROOT
ATOM      1  C1  I4B d   1       4.135   4.063   1.816  0.00  0.00    -0.075 A 
ATOM      2  C2  I4B d   1       4.482   3.278   2.887  0.00  0.00     0.003 A 
ATOM      3  C3  I4B d   1       4.851   1.925   2.689  0.00  0.00     0.002 A 
ATOM      4  C4  I4B d   1       4.810   1.388   1.418  0.00  0.00    -0.004 A 
ATOM      5  C5  I4B d   1       4.481   2.192   0.331  0.00  0.00     0.002 A 
ATOM      6  C6  I4B d   1       4.153   3.542   0.529  0.00  0.00     0.003 A 
ENDROOT
BRANCH   1   7
ATOM      7  C1' I4B d   1       3.720   5.478   2.064  0.00  0.00     0.060 C 
BRANCH   7   8
ATOM      8  C2' I4B d   1       4.518   5.999   3.242  0.00  0.00    -0.013 C 
ATOM      9  C4' I4B d   1       4.280   5.165   4.473  0.00  0.00     0.013 C 
ATOM     10  C3' I4B d   1       5.967   5.996   2.857  0.00  0.00     0.013 C 
ENDBRANCH   7   8
ENDBRANCH   1   7
TORSDOF 2
ENDMDL
