MODEL 1
REMARK minimizedAffinity 12.5361013
REMARK minimizedRMSD -1
REMARK  2 active torsions:
REMARK  status: ('A' for Active; 'I' for Inactive)
REMARK    1  A    between atoms: C2'_3  and  C1'_4 
REMARK    2  A    between atoms: C1'_4  and  C1_5 
ROOT
ATOM      1  C1  I4B d   1       4.950   5.935   2.637  0.00  0.00    -0.075 A 
ATOM      2  C2  I4B d   1       3.650   5.966   3.077  0.00  0.00     0.003 A 
ATOM      3  C3  I4B d   1       3.368   5.995   4.464  0.00  0.00     0.002 A 
ATOM      4  C4  I4B d   1       4.407   5.941   5.370  0.00  0.00    -0.004 A 
ATOM      5  C5  I4B d   1       5.725   5.933   4.922  0.00  0.00     0.002 A 
ATOM      6  C6  I4B d   1       5.999   5.942   3.547  0.00  0.00     0.003 A 
ENDROOT
BRANCH   1   7
ATOM      7  C1' I4B d   1       5.212   5.871   1.165  0.00  0.00     0.060 C 
BRANCH   7   8
ATOM      8  C2' I4B d   1       5.001   4.440   0.715  0.00  0.00    -0.013 C 
ATOM      9  C4' I4B d   1       5.914   3.497   1.453  0.00  0.00     0.013 C 
ATOM     10  C3' I4B d   1       3.561   4.090   0.944  0.00  0.00     0.013 C 
ENDBRANCH   7   8
ENDBRANCH   1   7
TORSDOF 2
ENDMDL
