MODEL 1
REMARK minimizedAffinity 19.3761692
REMARK minimizedRMSD -1
REMARK  2 active torsions:
REMARK  status: ('A' for Active; 'I' for Inactive)
REMARK    1  A    between atoms: C2'_3  and  C1'_4 
REMARK    2  A    between atoms: C1'_4  and  C1_5 
ROOT
ATOM      1  C1  I4B d   1       0.649   0.426   4.376  0.00  0.00    -0.075 A 
ATOM      2  C2  I4B d   1      -0.356   0.709   3.484  0.00  0.00     0.003 A 
ATOM      3  C3  I4B d   1      -0.406   0.048   2.233  0.00  0.00     0.002 A 
ATOM      4  C4  I4B d   1       0.591  -0.845   1.896  0.00  0.00    -0.004 A 
ATOM      5  C5  I4B d   1       1.596  -1.147   2.810  0.00  0.00     0.002 A 
ATOM      6  C6  I4B d   1       1.619  -0.517   4.063  0.00  0.00     0.003 A 
ENDROOT
BRANCH   1   7
ATOM      7  C1' I4B d   1       0.690   1.167   5.674  0.00  0.00     0.060 C 
BRANCH   7   8
ATOM      8  C2' I4B d   1       0.342   2.615   5.397  0.00  0.00    -0.013 C 
ATOM      9  C4' I4B d   1      -1.009   2.969   5.960  0.00  0.00     0.013 C 
ATOM     10  C3' I4B d   1       1.418   3.473   5.993  0.00  0.00     0.013 C 
ENDBRANCH   7   8
ENDBRANCH   1   7
TORSDOF 2
ENDMDL
