MODEL 1
REMARK minimizedAffinity 10.8557386
REMARK minimizedRMSD -1
REMARK  2 active torsions:
REMARK  status: ('A' for Active; 'I' for Inactive)
REMARK    1  A    between atoms: C2'_3  and  C1'_4 
REMARK    2  A    between atoms: C1'_4  and  C1_5 
ROOT
ATOM      1  C1  I4B d   1       0.813  -0.084   2.924  0.00  0.00    -0.075 A 
ATOM      2  C2  I4B d   1       1.950  -0.017   3.690  0.00  0.00     0.003 A 
ATOM      3  C3  I4B d   1       2.324  -1.109   4.509  0.00  0.00     0.002 A 
ATOM      4  C4  I4B d   1       1.510  -2.222   4.571  0.00  0.00    -0.004 A 
ATOM      5  C5  I4B d   1       0.369  -2.298   3.776  0.00  0.00     0.002 A 
ATOM      6  C6  I4B d   1       0.025  -1.228   2.938  0.00  0.00     0.003 A 
ENDROOT
BRANCH   1   7
ATOM      7  C1' I4B d   1       0.431   1.101   2.095  0.00  0.00     0.060 C 
BRANCH   7   8
ATOM      8  C2' I4B d   1      -0.719   1.803   2.786  0.00  0.00    -0.013 C 
ATOM      9  C4' I4B d   1      -0.329   2.260   4.167  0.00  0.00     0.013 C 
ATOM     10  C3' I4B d   1      -1.137   2.961   1.930  0.00  0.00     0.013 C 
ENDBRANCH   7   8
ENDBRANCH   1   7
TORSDOF 2
ENDMDL
