MODEL 1
REMARK minimizedAffinity 7.65868521
REMARK minimizedRMSD -1
REMARK  2 active torsions:
REMARK  status: ('A' for Active; 'I' for Inactive)
REMARK    1  A    between atoms: C2'_3  and  C1'_4 
REMARK    2  A    between atoms: C1'_4  and  C1_5 
ROOT
ATOM      1  C1  I4B d   1      -0.646  -1.348   2.871  0.00  0.00    -0.075 A 
ATOM      2  C2  I4B d   1       0.188  -0.289   3.132  0.00  0.00     0.003 A 
ATOM      3  C3  I4B d   1       1.384  -0.488   3.864  0.00  0.00     0.002 A 
ATOM      4  C4  I4B d   1       1.679  -1.743   4.355  0.00  0.00    -0.004 A 
ATOM      5  C5  I4B d   1       0.844  -2.819   4.070  0.00  0.00     0.002 A 
ATOM      6  C6  I4B d   1      -0.320  -2.623   3.313  0.00  0.00     0.003 A 
ENDROOT
BRANCH   1   7
ATOM      7  C1' I4B d   1      -1.918  -1.096   2.124  0.00  0.00     0.060 C 
BRANCH   7   8
ATOM      8  C2' I4B d   1      -2.862  -2.245   2.410  0.00  0.00    -0.013 C 
ATOM      9  C4' I4B d   1      -3.967  -1.824   3.344  0.00  0.00     0.013 C 
ATOM     10  C3' I4B d   1      -3.414  -2.728   1.102  0.00  0.00     0.013 C 
ENDBRANCH   7   8
ENDBRANCH   1   7
TORSDOF 2
ENDMDL
