MODEL 1
REMARK minimizedAffinity 18.4743652
REMARK minimizedRMSD -1
REMARK  2 active torsions:
REMARK  status: ('A' for Active; 'I' for Inactive)
REMARK    1  A    between atoms: C2'_3  and  C1'_4 
REMARK    2  A    between atoms: C1'_4  and  C1_5 
ROOT
ATOM      1  C1  I4B d   1      -0.453  -2.579  -4.745  0.00  0.00    -0.075 A 
ATOM      2  C2  I4B d   1       0.503  -1.599  -4.850  0.00  0.00     0.003 A 
ATOM      3  C3  I4B d   1       0.692  -0.672  -3.797  0.00  0.00     0.002 A 
ATOM      4  C4  I4B d   1      -0.124  -0.730  -2.686  0.00  0.00    -0.004 A 
ATOM      5  C5  I4B d   1      -1.077  -1.737  -2.571  0.00  0.00     0.002 A 
ATOM      6  C6  I4B d   1      -1.235  -2.676  -3.601  0.00  0.00     0.003 A 
ENDROOT
BRANCH   1   7
ATOM      7  C1' I4B d   1      -0.649  -3.521  -5.891  0.00  0.00     0.060 C 
BRANCH   7   8
ATOM      8  C2' I4B d   1      -1.266  -4.794  -5.348  0.00  0.00    -0.013 C 
ATOM      9  C4' I4B d   1      -2.607  -5.062  -5.980  0.00  0.00     0.013 C 
ATOM     10  C3' I4B d   1      -0.310  -5.919  -5.607  0.00  0.00     0.013 C 
ENDBRANCH   7   8
ENDBRANCH   1   7
TORSDOF 2
ENDMDL
