MODEL 1
REMARK minimizedAffinity -3.82815862
REMARK minimizedRMSD -1
REMARK  1 active torsions:
REMARK  status: ('A' for Active; 'I' for Inactive)
REMARK    1  A    between atoms: C1_2  and  C2_3 
ROOT
ATOM      1  C2  UNL d   1      -0.553  -0.229  -0.328  0.00  0.00    -0.073 A 
ATOM      2  C3  UNL d   1      -1.197   0.040   0.884  0.00  0.00    -0.002 A 
ATOM      3  C4  UNL d   1      -0.777  -0.585   2.059  0.00  0.00     0.004 A 
ATOM      4  C5  UNL d   1       0.293  -1.479   2.035  0.00  0.00    -0.004 A 
ATOM      5  C6  UNL d   1       0.957  -1.752   0.835  0.00  0.00    -0.075 A 
ATOM      6  C7  UNL d   1       2.109  -2.712   0.792  0.00  0.00     0.076 C 
ATOM      7  C8  UNL d   1       0.528  -1.122  -0.341  0.00  0.00     0.001 A 
ENDROOT
BRANCH   1   8
ATOM      8  C1  UNL d   1      -0.998   0.448  -1.599  0.00  0.00     0.053 C 
ATOM      9  C   UNL d   1      -0.379   1.828  -1.756  0.00  0.00     0.018 C 
ENDBRANCH   1   8
TORSDOF 1
ENDMDL
