MODEL 1
REMARK minimizedAffinity -1.86738098
REMARK minimizedRMSD -1
REMARK  1 active torsions:
REMARK  status: ('A' for Active; 'I' for Inactive)
REMARK    1  A    between atoms: C1_2  and  C2_3 
ROOT
ATOM      1  C2  UNL d   1      -0.075   0.523  -1.307  0.00  0.00    -0.073 A 
ATOM      2  C3  UNL d   1      -0.906   0.719  -0.199  0.00  0.00    -0.002 A 
ATOM      3  C4  UNL d   1      -0.731  -0.044   0.957  0.00  0.00     0.004 A 
ATOM      4  C5  UNL d   1       0.279  -1.004   1.018  0.00  0.00    -0.004 A 
ATOM      5  C6  UNL d   1       1.127  -1.206  -0.075  0.00  0.00    -0.075 A 
ATOM      6  C7  UNL d   1       2.217  -2.236  -0.026  0.00  0.00     0.076 C 
ATOM      7  C8  UNL d   1       0.944  -0.438  -1.233  0.00  0.00     0.001 A 
ENDROOT
BRANCH   1   8
ATOM      8  C1  UNL d   1      -0.256   1.349  -2.555  0.00  0.00     0.053 C 
ATOM      9  C   UNL d   1      -1.405   2.336  -2.424  0.00  0.00     0.018 C 
ENDBRANCH   1   8
TORSDOF 1
ENDMDL
