MODEL 1
REMARK minimizedAffinity -1.57041287
REMARK minimizedRMSD -1
REMARK  1 active torsions:
REMARK  status: ('A' for Active; 'I' for Inactive)
REMARK    1  A    between atoms: C1_2  and  C2_3 
ROOT
ATOM      1  C2  UNL d   1      -0.367   1.779  -2.233  0.00  0.00    -0.073 A 
ATOM      2  C3  UNL d   1      -1.717   1.414  -2.183  0.00  0.00    -0.002 A 
ATOM      3  C4  UNL d   1      -2.098   0.194  -1.624  0.00  0.00     0.004 A 
ATOM      4  C5  UNL d   1      -1.135  -0.671  -1.104  0.00  0.00    -0.004 A 
ATOM      5  C6  UNL d   1       0.219  -0.320  -1.134  0.00  0.00    -0.075 A 
ATOM      6  C7  UNL d   1       1.267  -1.240  -0.581  0.00  0.00     0.076 C 
ATOM      7  C8  UNL d   1       0.593   0.907  -1.700  0.00  0.00     0.001 A 
ENDROOT
BRANCH   1   8
ATOM      8  C1  UNL d   1       0.048   3.099  -2.830  0.00  0.00     0.053 C 
ATOM      9  C   UNL d   1      -1.000   4.178  -2.611  0.00  0.00     0.018 C 
ENDBRANCH   1   8
TORSDOF 1
ENDMDL
