MODEL 1
REMARK minimizedAffinity -0.954501569
REMARK minimizedRMSD -1
REMARK  1 active torsions:
REMARK  status: ('A' for Active; 'I' for Inactive)
REMARK    1  A    between atoms: C1_2  and  C2_3 
ROOT
ATOM      1  C2  UNL d   1       0.976  -1.579   1.176  0.00  0.00    -0.073 A 
ATOM      2  C3  UNL d   1       0.131  -1.393   2.275  0.00  0.00    -0.002 A 
ATOM      3  C4  UNL d   1      -0.905  -0.459   2.218  0.00  0.00     0.004 A 
ATOM      4  C5  UNL d   1      -1.110   0.292   1.060  0.00  0.00    -0.004 A 
ATOM      5  C6  UNL d   1      -0.282   0.111  -0.053  0.00  0.00    -0.075 A 
ATOM      6  C7  UNL d   1      -0.488   0.913  -1.305  0.00  0.00     0.076 C 
ATOM      7  C8  UNL d   1       0.757  -0.826   0.013  0.00  0.00     0.001 A 
ENDROOT
BRANCH   1   8
ATOM      8  C1  UNL d   1       2.092  -2.591   1.231  0.00  0.00     0.053 C 
ATOM      9  C   UNL d   1       3.033  -2.467   0.043  0.00  0.00     0.018 C 
ENDBRANCH   1   8
TORSDOF 1
ENDMDL
