MODEL 1
REMARK minimizedAffinity -2.4060173
REMARK minimizedRMSD -1
REMARK  1 active torsions:
REMARK  status: ('A' for Active; 'I' for Inactive)
REMARK    1  A    between atoms: C1_2  and  C2_3 
ROOT
ATOM      1  C2  UNL d   1      -0.481   1.059  -0.416  0.00  0.00    -0.073 A 
ATOM      2  C3  UNL d   1       0.298   0.448  -1.405  0.00  0.00    -0.002 A 
ATOM      3  C4  UNL d   1       1.014  -0.715  -1.119  0.00  0.00     0.004 A 
ATOM      4  C5  UNL d   1       0.954  -1.282   0.153  0.00  0.00    -0.004 A 
ATOM      5  C6  UNL d   1       0.172  -0.693   1.152  0.00  0.00    -0.075 A 
ATOM      6  C7  UNL d   1       0.098  -1.289   2.527  0.00  0.00     0.076 C 
ATOM      7  C8  UNL d   1      -0.542   0.477   0.858  0.00  0.00     0.001 A 
ENDROOT
BRANCH   1   8
ATOM      8  C1  UNL d   1      -1.261   2.312  -0.721  0.00  0.00     0.053 C 
ATOM      9  C   UNL d   1      -1.111   2.738  -2.173  0.00  0.00     0.018 C 
ENDBRANCH   1   8
TORSDOF 1
ENDMDL
