MODEL 1
REMARK minimizedAffinity -2.724998
REMARK minimizedRMSD -1
REMARK  0 active torsions:
REMARK  status: ('A' for Active; 'I' for Inactive)
ROOT
ATOM      1  C   UNL d   1       5.999   2.797   2.286  0.00  0.00     0.077 C 
ATOM      2  C1  UNL d   1       5.997   2.035   3.578  0.00  0.00    -0.074 A 
ATOM      3  C2  UNL d   1       5.977   2.704   4.807  0.00  0.00    -0.005 A 
ATOM      4  C3  UNL d   1       5.965   1.981   6.000  0.00  0.00     0.006 A 
ATOM      5  C4  UNL d   1       5.973   0.586   5.977  0.00  0.00    -0.005 A 
ATOM      6  C5  UNL d   1       5.992  -0.099   4.758  0.00  0.00    -0.074 A 
ATOM      7  C6  UNL d   1       5.991  -1.598   4.715  0.00  0.00     0.077 C 
ATOM      8  C7  UNL d   1       5.997   0.634   3.563  0.00  0.00    -0.001 A 
ENDROOT
TORSDOF 0
ENDMDL
