MODEL 1
REMARK minimizedAffinity -1.06362557
REMARK minimizedRMSD -1
REMARK  0 active torsions:
REMARK  status: ('A' for Active; 'I' for Inactive)
ROOT
ATOM      1  C   UNL d   1       6.000   3.455   2.659  0.00  0.00     0.077 C 
ATOM      2  C1  UNL d   1       5.994   2.364   3.688  0.00  0.00    -0.074 A 
ATOM      3  C2  UNL d   1       5.966   2.665   5.054  0.00  0.00    -0.005 A 
ATOM      4  C3  UNL d   1       5.951   1.640   5.999  0.00  0.00     0.006 A 
ATOM      5  C4  UNL d   1       5.965   0.306   5.589  0.00  0.00    -0.005 A 
ATOM      6  C5  UNL d   1       5.992  -0.014   4.228  0.00  0.00    -0.074 A 
ATOM      7  C6  UNL d   1       5.997  -1.442   3.771  0.00  0.00     0.077 C 
ATOM      8  C7  UNL d   1       6.000   1.022   3.284  0.00  0.00    -0.001 A 
ENDROOT
TORSDOF 0
ENDMDL
