MODEL 1
REMARK minimizedAffinity -2.00738311
REMARK minimizedRMSD -1
REMARK  0 active torsions:
REMARK  status: ('A' for Active; 'I' for Inactive)
ROOT
ATOM      1  C   UNL d   1       5.867  -2.484   4.778  0.00  0.00     0.077 C 
ATOM      2  C1  UNL d   1       5.903  -0.985   4.793  0.00  0.00    -0.074 A 
ATOM      3  C2  UNL d   1       5.941  -0.278   5.999  0.00  0.00    -0.005 A 
ATOM      4  C3  UNL d   1       5.984   1.116   5.996  0.00  0.00     0.006 A 
ATOM      5  C4  UNL d   1       5.990   1.816   4.790  0.00  0.00    -0.005 A 
ATOM      6  C5  UNL d   1       5.953   1.127   3.573  0.00  0.00    -0.074 A 
ATOM      7  C6  UNL d   1       5.969   1.864   2.267  0.00  0.00     0.077 C 
ATOM      8  C7  UNL d   1       5.917  -0.274   3.584  0.00  0.00    -0.001 A 
ENDROOT
TORSDOF 0
ENDMDL
