MODEL 1
REMARK minimizedAffinity -2.40899396
REMARK minimizedRMSD -1
REMARK  0 active torsions:
REMARK  status: ('A' for Active; 'I' for Inactive)
ROOT
ATOM      1  C   UNL d   1       5.995   4.376   3.735  0.00  0.00     0.077 C 
ATOM      2  C1  UNL d   1       5.999   2.894   3.962  0.00  0.00    -0.074 A 
ATOM      3  C2  UNL d   1       5.994   2.365   5.256  0.00  0.00    -0.005 A 
ATOM      4  C3  UNL d   1       5.988   0.984   5.452  0.00  0.00     0.006 A 
ATOM      5  C4  UNL d   1       5.987   0.119   4.357  0.00  0.00    -0.005 A 
ATOM      6  C5  UNL d   1       5.991   0.629   3.055  0.00  0.00    -0.074 A 
ATOM      7  C6  UNL d   1       5.980  -0.286   1.867  0.00  0.00     0.077 C 
ATOM      8  C7  UNL d   1       5.990   2.018   2.867  0.00  0.00    -0.001 A 
ENDROOT
TORSDOF 0
ENDMDL
