MODEL 1
REMARK minimizedAffinity -1.68831742
REMARK minimizedRMSD -1
REMARK  0 active torsions:
REMARK  status: ('A' for Active; 'I' for Inactive)
ROOT
ATOM      1  C   UNL d   1       5.977   0.037   5.997  0.00  0.00     0.077 C 
ATOM      2  C1  UNL d   1       5.992   0.721   4.662  0.00  0.00    -0.074 A 
ATOM      3  C2  UNL d   1       5.991  -0.020   3.476  0.00  0.00    -0.005 A 
ATOM      4  C3  UNL d   1       5.995   0.630   2.242  0.00  0.00     0.006 A 
ATOM      5  C4  UNL d   1       6.000   2.024   2.181  0.00  0.00    -0.005 A 
ATOM      6  C5  UNL d   1       5.999   2.781   3.357  0.00  0.00    -0.074 A 
ATOM      7  C6  UNL d   1       5.994   4.280   3.310  0.00  0.00     0.077 C 
ATOM      8  C7  UNL d   1       5.988   2.121   4.594  0.00  0.00    -0.001 A 
ENDROOT
TORSDOF 0
ENDMDL
