MODEL 1
REMARK minimizedAffinity -1.33228099
REMARK minimizedRMSD -1
REMARK  0 active torsions:
REMARK  status: ('A' for Active; 'I' for Inactive)
ROOT
ATOM      1  C   UNL d   1       5.995   2.084   2.263  0.00  0.00     0.077 C 
ATOM      2  C1  UNL d   1       5.989   1.349   3.571  0.00  0.00    -0.074 A 
ATOM      3  C2  UNL d   1       6.000   2.043   4.785  0.00  0.00    -0.005 A 
ATOM      4  C3  UNL d   1       5.984   1.346   5.994  0.00  0.00     0.006 A 
ATOM      5  C4  UNL d   1       5.958  -0.049   6.000  0.00  0.00    -0.005 A 
ATOM      6  C5  UNL d   1       5.946  -0.760   4.796  0.00  0.00    -0.074 A 
ATOM      7  C6  UNL d   1       5.908  -2.259   4.785  0.00  0.00     0.077 C 
ATOM      8  C7  UNL d   1       5.955  -0.052   3.586  0.00  0.00    -0.001 A 
ENDROOT
TORSDOF 0
ENDMDL
