MODEL 1
REMARK minimizedAffinity -1.90557897
REMARK minimizedRMSD -1
REMARK  0 active torsions:
REMARK  status: ('A' for Active; 'I' for Inactive)
ROOT
ATOM      1  C   UNL d   1       5.751   3.022   2.382  0.00  0.00     0.077 C 
ATOM      2  C1  UNL d   1       5.774   2.151   3.604  0.00  0.00    -0.074 A 
ATOM      3  C2  UNL d   1       5.991   2.699   4.872  0.00  0.00    -0.005 A 
ATOM      4  C3  UNL d   1       6.000   1.878   6.000  0.00  0.00     0.006 A 
ATOM      5  C4  UNL d   1       5.793   0.504   5.871  0.00  0.00    -0.005 A 
ATOM      6  C5  UNL d   1       5.573  -0.061   4.611  0.00  0.00    -0.074 A 
ATOM      7  C6  UNL d   1       5.339  -1.534   4.455  0.00  0.00     0.077 C 
ATOM      8  C7  UNL d   1       5.559   0.771   3.483  0.00  0.00    -0.001 A 
ENDROOT
TORSDOF 0
ENDMDL
