MODEL 1
REMARK minimizedAffinity -2.18825722
REMARK minimizedRMSD -1
REMARK  0 active torsions:
REMARK  status: ('A' for Active; 'I' for Inactive)
ROOT
ATOM      1  C   UNL d   1       6.000   3.881   5.757  0.00  0.00     0.077 C 
ATOM      2  C1  UNL d   1       5.601   2.597   5.093  0.00  0.00    -0.074 A 
ATOM      3  C2  UNL d   1       5.195   2.575   3.755  0.00  0.00    -0.005 A 
ATOM      4  C3  UNL d   1       4.836   1.372   3.148  0.00  0.00     0.006 A 
ATOM      5  C4  UNL d   1       4.879   0.180   3.871  0.00  0.00    -0.005 A 
ATOM      6  C5  UNL d   1       5.283   0.182   5.210  0.00  0.00    -0.074 A 
ATOM      7  C6  UNL d   1       5.344  -1.092   6.000  0.00  0.00     0.077 C 
ATOM      8  C7  UNL d   1       5.649   1.394   5.811  0.00  0.00    -0.001 A 
ENDROOT
TORSDOF 0
ENDMDL
