MODEL 1
REMARK minimizedAffinity -0.448022306
REMARK minimizedRMSD -1
REMARK  0 active torsions:
REMARK  status: ('A' for Active; 'I' for Inactive)
ROOT
ATOM      1  C   UNL d   1       6.000   4.580   4.930  0.00  0.00     0.077 C 
ATOM      2  C1  UNL d   1       5.986   3.226   4.284  0.00  0.00    -0.074 A 
ATOM      3  C2  UNL d   1       5.981   3.094   2.892  0.00  0.00    -0.005 A 
ATOM      4  C3  UNL d   1       5.978   1.828   2.306  0.00  0.00     0.006 A 
ATOM      5  C4  UNL d   1       5.978   0.684   3.105  0.00  0.00    -0.005 A 
ATOM      6  C5  UNL d   1       5.984   0.797   4.499  0.00  0.00    -0.074 A 
ATOM      7  C6  UNL d   1       5.995  -0.422   5.372  0.00  0.00     0.077 C 
ATOM      8  C7  UNL d   1       5.995   2.072   5.080  0.00  0.00    -0.001 A 
ENDROOT
TORSDOF 0
ENDMDL
