MODEL 1
REMARK minimizedAffinity -2.5689106
REMARK minimizedRMSD -1
REMARK  0 active torsions:
REMARK  status: ('A' for Active; 'I' for Inactive)
ROOT
ATOM      1  C   UNL d   1       5.250  -0.222   5.854  0.00  0.00     0.077 C 
ATOM      2  C1  UNL d   1       5.518   0.872   4.864  0.00  0.00    -0.074 A 
ATOM      3  C2  UNL d   1       5.639   0.593   3.499  0.00  0.00    -0.005 A 
ATOM      4  C3  UNL d   1       5.879   1.623   2.590  0.00  0.00     0.006 A 
ATOM      5  C4  UNL d   1       6.000   2.940   3.035  0.00  0.00    -0.005 A 
ATOM      6  C5  UNL d   1       5.881   3.238   4.396  0.00  0.00    -0.074 A 
ATOM      7  C6  UNL d   1       5.998   4.649   4.890  0.00  0.00     0.077 C 
ATOM      8  C7  UNL d   1       5.633   2.199   5.303  0.00  0.00    -0.001 A 
ENDROOT
TORSDOF 0
ENDMDL
