MODEL 1
REMARK minimizedAffinity 0.662304103
REMARK minimizedRMSD -1
REMARK  0 active torsions:
REMARK  status: ('A' for Active; 'I' for Inactive)
ROOT
ATOM      1  C   UNL d   1       5.982   1.380   3.302  0.00  0.00     0.077 C 
ATOM      2  C1  UNL d   1       5.981   2.879   3.271  0.00  0.00    -0.074 A 
ATOM      3  C2  UNL d   1       5.991   3.622   4.455  0.00  0.00    -0.005 A 
ATOM      4  C3  UNL d   1       5.999   5.017   4.410  0.00  0.00     0.006 A 
ATOM      5  C4  UNL d   1       5.999   5.680   3.183  0.00  0.00    -0.005 A 
ATOM      6  C5  UNL d   1       5.990   4.954   1.988  0.00  0.00    -0.074 A 
ATOM      7  C6  UNL d   1       5.999   5.651   0.660  0.00  0.00     0.077 C 
ATOM      8  C7  UNL d   1       5.989   3.553   2.041  0.00  0.00    -0.001 A 
ENDROOT
TORSDOF 0
ENDMDL
