MODEL 1
REMARK minimizedAffinity -3.82497311
REMARK minimizedRMSD -1
REMARK  0 active torsions:
REMARK  status: ('A' for Active; 'I' for Inactive)
ROOT
ATOM      1  C   UNL d   1       5.993  -0.749   2.259  0.00  0.00     0.077 C 
ATOM      2  C1  UNL d   1       5.779   0.049   3.510  0.00  0.00    -0.074 A 
ATOM      3  C2  UNL d   1       5.503  -0.583   4.728  0.00  0.00    -0.005 A 
ATOM      4  C3  UNL d   1       5.316   0.172   5.885  0.00  0.00     0.006 A 
ATOM      5  C4  UNL d   1       5.401   1.564   5.838  0.00  0.00    -0.005 A 
ATOM      6  C5  UNL d   1       5.677   2.213   4.630  0.00  0.00    -0.074 A 
ATOM      7  C6  UNL d   1       5.782   3.708   4.563  0.00  0.00     0.077 C 
ATOM      8  C7  UNL d   1       5.871   1.447   3.472  0.00  0.00    -0.001 A 
ENDROOT
TORSDOF 0
ENDMDL
