MODEL 1
REMARK minimizedAffinity -2.02100205
REMARK minimizedRMSD -1
REMARK  0 active torsions:
REMARK  status: ('A' for Active; 'I' for Inactive)
ROOT
ATOM      1  C   UNL d   1       5.940  -0.423   5.560  0.00  0.00     0.077 C 
ATOM      2  C1  UNL d   1       5.968   0.678   4.541  0.00  0.00    -0.074 A 
ATOM      3  C2  UNL d   1       5.971   0.390   3.173  0.00  0.00    -0.005 A 
ATOM      4  C3  UNL d   1       5.987   1.424   2.237  0.00  0.00     0.006 A 
ATOM      5  C4  UNL d   1       5.999   2.754   2.659  0.00  0.00    -0.005 A 
ATOM      6  C5  UNL d   1       5.995   3.061   4.024  0.00  0.00    -0.074 A 
ATOM      7  C6  UNL d   1       5.998   4.485   4.495  0.00  0.00     0.077 C 
ATOM      8  C7  UNL d   1       5.972   2.016   4.958  0.00  0.00    -0.001 A 
ENDROOT
TORSDOF 0
ENDMDL
