MODEL 1
REMARK minimizedAffinity -1.39875352
REMARK minimizedRMSD -1
REMARK  0 active torsions:
REMARK  status: ('A' for Active; 'I' for Inactive)
ROOT
ATOM      1  C   UNL d   1       5.939  -0.036   6.000  0.00  0.00     0.077 C 
ATOM      2  C1  UNL d   1       5.967   0.969   4.887  0.00  0.00    -0.074 A 
ATOM      3  C2  UNL d   1       5.983   0.561   3.550  0.00  0.00    -0.005 A 
ATOM      4  C3  UNL d   1       5.999   1.508   2.526  0.00  0.00     0.006 A 
ATOM      5  C4  UNL d   1       6.000   2.870   2.829  0.00  0.00    -0.005 A 
ATOM      6  C5  UNL d   1       5.983   3.297   4.160  0.00  0.00    -0.074 A 
ATOM      7  C6  UNL d   1       5.974   4.757   4.503  0.00  0.00     0.077 C 
ATOM      8  C7  UNL d   1       5.960   2.340   5.183  0.00  0.00    -0.001 A 
ENDROOT
TORSDOF 0
ENDMDL
