MODEL 1
REMARK minimizedAffinity -3.54898
REMARK minimizedRMSD -1
REMARK  0 active torsions:
REMARK  status: ('A' for Active; 'I' for Inactive)
ROOT
ATOM      1  C   UNL d   1       5.985  -1.565   6.000  0.00  0.00     0.077 C 
ATOM      2  C1  UNL d   1       5.756  -0.422   5.057  0.00  0.00    -0.074 A 
ATOM      3  C2  UNL d   1       5.309  -0.646   3.751  0.00  0.00    -0.005 A 
ATOM      4  C3  UNL d   1       5.091   0.428   2.888  0.00  0.00     0.006 A 
ATOM      5  C4  UNL d   1       5.316   1.735   3.322  0.00  0.00    -0.005 A 
ATOM      6  C5  UNL d   1       5.762   1.979   4.625  0.00  0.00    -0.074 A 
ATOM      7  C6  UNL d   1       6.000   3.378   5.111  0.00  0.00     0.077 C 
ATOM      8  C7  UNL d   1       5.973   0.894   5.488  0.00  0.00    -0.001 A 
ENDROOT
TORSDOF 0
ENDMDL
