MODEL 1
REMARK minimizedAffinity -3.89258933
REMARK minimizedRMSD -1
REMARK  0 active torsions:
REMARK  status: ('A' for Active; 'I' for Inactive)
ROOT
ATOM      1  C4' PXY d   1       1.002  -1.607  -1.123  0.00  0.00     0.077 C 
ATOM      2  C1' PXY d   1      -1.534   2.956   1.360  0.00  0.00     0.077 C 
ATOM      3  C1  PXY d   1      -0.869   1.753   0.720  0.00  0.00    -0.082 A 
ATOM      4  C2  PXY d   1      -0.183   1.905  -0.401  0.00  0.00     0.003 A 
ATOM      5  C3  PXY d   1       0.398   0.822  -1.010  0.00  0.00     0.003 A 
ATOM      6  C4  PXY d   1       0.322  -0.419  -0.437  0.00  0.00    -0.082 A 
ATOM      7  C5  PXY d   1      -0.367  -0.580   0.713  0.00  0.00     0.003 A 
ATOM      8  C6  PXY d   1      -0.985   0.524   1.293  0.00  0.00     0.003 A 
ENDROOT
TORSDOF 0
ENDMDL
