MODEL 1
REMARK minimizedAffinity -3.49354553
REMARK minimizedRMSD -1
REMARK  0 active torsions:
REMARK  status: ('A' for Active; 'I' for Inactive)
ROOT
ATOM      1  C4' PXY d   1      -0.231  -1.136   1.450  0.00  0.00     0.077 C 
ATOM      2  C1' PXY d   1      -0.983   4.321  -0.302  0.00  0.00     0.077 C 
ATOM      3  C1  PXY d   1      -0.786   2.894   0.170  0.00  0.00    -0.082 A 
ATOM      4  C2  PXY d   1      -0.165   2.026  -0.612  0.00  0.00     0.003 A 
ATOM      5  C3  PXY d   1      -0.007   0.723  -0.214  0.00  0.00     0.003 A 
ATOM      6  C4  PXY d   1      -0.443   0.317   1.019  0.00  0.00    -0.082 A 
ATOM      7  C5  PXY d   1      -1.069   1.199   1.826  0.00  0.00     0.003 A 
ATOM      8  C6  PXY d   1      -1.256   2.507   1.387  0.00  0.00     0.003 A 
ENDROOT
TORSDOF 0
ENDMDL
