MODEL 1
REMARK minimizedAffinity -4.23998213
REMARK minimizedRMSD -1
REMARK  0 active torsions:
REMARK  status: ('A' for Active; 'I' for Inactive)
ROOT
ATOM      1  C4' PXY d   1       1.464  -1.895  -0.813  0.00  0.00     0.077 C 
ATOM      2  C1' PXY d   1      -2.067   2.255   1.119  0.00  0.00     0.077 C 
ATOM      3  C1  PXY d   1      -1.138   1.163   0.625  0.00  0.00    -0.082 A 
ATOM      4  C2  PXY d   1      -0.628   1.241  -0.594  0.00  0.00     0.003 A 
ATOM      5  C3  PXY d   1       0.189   0.247  -1.068  0.00  0.00     0.003 A 
ATOM      6  C4  PXY d   1       0.529  -0.811  -0.268  0.00  0.00    -0.082 A 
ATOM      7  C5  PXY d   1       0.020  -0.892   0.980  0.00  0.00     0.003 A 
ATOM      8  C6  PXY d   1      -0.839   0.106   1.428  0.00  0.00     0.003 A 
ENDROOT
TORSDOF 0
ENDMDL
