MODEL 1
REMARK minimizedAffinity -4.90230942
REMARK minimizedRMSD -1
REMARK  0 active torsions:
REMARK  status: ('A' for Active; 'I' for Inactive)
ROOT
ATOM      1  C4' PXY d   1      -2.291   2.020   1.566  0.00  0.00     0.077 C 
ATOM      2  C1' PXY d   1       1.502  -1.433  -1.100  0.00  0.00     0.077 C 
ATOM      3  C1  PXY d   1       0.502  -0.538  -0.395  0.00  0.00    -0.082 A 
ATOM      4  C2  PXY d   1       0.227   0.656  -0.894  0.00  0.00     0.003 A 
ATOM      5  C3  PXY d   1      -0.651   1.491  -0.253  0.00  0.00     0.003 A 
ATOM      6  C4  PXY d   1      -1.294   1.079   0.883  0.00  0.00    -0.082 A 
ATOM      7  C5  PXY d   1      -1.028  -0.142   1.393  0.00  0.00     0.003 A 
ATOM      8  C6  PXY d   1      -0.102  -0.958   0.749  0.00  0.00     0.003 A 
ENDROOT
TORSDOF 0
ENDMDL
