MODEL 1
REMARK minimizedAffinity -3.65761733
REMARK minimizedRMSD -1
REMARK  0 active torsions:
REMARK  status: ('A' for Active; 'I' for Inactive)
ROOT
ATOM      1  C4' PXY d   1       0.013  -1.234   1.993  0.00  0.00     0.077 C 
ATOM      2  C1' PXY d   1      -0.618   3.469  -1.307  0.00  0.00     0.077 C 
ATOM      3  C1  PXY d   1      -0.448   2.229  -0.452  0.00  0.00    -0.082 A 
ATOM      4  C2  PXY d   1      -1.171   2.088   0.647  0.00  0.00     0.003 A 
ATOM      5  C3  PXY d   1      -1.007   0.988   1.449  0.00  0.00     0.003 A 
ATOM      6  C4  PXY d   1      -0.132  -0.003   1.094  0.00  0.00    -0.082 A 
ATOM      7  C5  PXY d   1       0.602   0.128  -0.031  0.00  0.00     0.003 A 
ATOM      8  C6  PXY d   1       0.450   1.272  -0.810  0.00  0.00     0.003 A 
ENDROOT
TORSDOF 0
ENDMDL
