MODEL 1
REMARK minimizedAffinity -1.79077208
REMARK minimizedRMSD -1
REMARK  0 active torsions:
REMARK  status: ('A' for Active; 'I' for Inactive)
ROOT
ATOM      1  C4' PXY d   1      -1.746   2.533   0.872  0.00  0.00     0.077 C 
ATOM      2  C1' PXY d   1       1.547  -1.973  -0.635  0.00  0.00     0.077 C 
ATOM      3  C1  PXY d   1       0.691  -0.783  -0.246  0.00  0.00    -0.082 A 
ATOM      4  C2  PXY d   1      -0.092  -0.861   0.817  0.00  0.00     0.003 A 
ATOM      5  C3  PXY d   1      -0.896   0.194   1.165  0.00  0.00     0.003 A 
ATOM      6  C4  PXY d   1      -0.858   1.360   0.447  0.00  0.00    -0.082 A 
ATOM      7  C5  PXY d   1      -0.054   1.450  -0.633  0.00  0.00     0.003 A 
ATOM      8  C6  PXY d   1       0.724   0.354  -0.993  0.00  0.00     0.003 A 
ENDROOT
TORSDOF 0
ENDMDL
