MODEL 1
REMARK minimizedAffinity -3.73337245
REMARK minimizedRMSD -1
REMARK  0 active torsions:
REMARK  status: ('A' for Active; 'I' for Inactive)
ROOT
ATOM      1  C4' PXY d   1      -2.296   2.201   1.309  0.00  0.00     0.077 C 
ATOM      2  C1' PXY d   1       1.554  -1.672  -0.587  0.00  0.00     0.077 C 
ATOM      3  C1  PXY d   1       0.548  -0.648  -0.099  0.00  0.00    -0.082 A 
ATOM      4  C2  PXY d   1       0.055  -0.747   1.125  0.00  0.00     0.003 A 
ATOM      5  C3  PXY d   1      -0.878   0.152   1.572  0.00  0.00     0.003 A 
ATOM      6  C4  PXY d   1      -1.272   1.195   0.777  0.00  0.00    -0.082 A 
ATOM      7  C5  PXY d   1      -0.766   1.309  -0.469  0.00  0.00     0.003 A 
ATOM      8  C6  PXY d   1       0.150   0.363  -0.919  0.00  0.00     0.003 A 
ENDROOT
TORSDOF 0
ENDMDL
