MODEL 1
REMARK minimizedAffinity -3.67442417
REMARK minimizedRMSD -1
REMARK  0 active torsions:
REMARK  status: ('A' for Active; 'I' for Inactive)
ROOT
ATOM      1  C4' PXY d   1       1.320  -1.613  -0.824  0.00  0.00     0.077 C 
ATOM      2  C1' PXY d   1      -2.234   2.437   1.268  0.00  0.00     0.077 C 
ATOM      3  C1  PXY d   1      -1.299   1.372   0.731  0.00  0.00    -0.082 A 
ATOM      4  C2  PXY d   1      -0.798   1.494  -0.487  0.00  0.00     0.003 A 
ATOM      5  C3  PXY d   1       0.024   0.524  -1.000  0.00  0.00     0.003 A 
ATOM      6  C4  PXY d   1       0.380  -0.557  -0.238  0.00  0.00    -0.082 A 
ATOM      7  C5  PXY d   1      -0.119  -0.684   1.010  0.00  0.00     0.003 A 
ATOM      8  C6  PXY d   1      -0.984   0.291   1.497  0.00  0.00     0.003 A 
ENDROOT
TORSDOF 0
ENDMDL
