MODEL 1
REMARK minimizedAffinity -3.03334427
REMARK minimizedRMSD -1
REMARK  0 active torsions:
REMARK  status: ('A' for Active; 'I' for Inactive)
ROOT
ATOM      1  C4' PXY d   1      -1.191   2.270   1.927  0.00  0.00     0.077 C 
ATOM      2  C1' PXY d   1       0.960  -1.966  -1.365  0.00  0.00     0.077 C 
ATOM      3  C1  PXY d   1       0.402  -0.847  -0.509  0.00  0.00    -0.082 A 
ATOM      4  C2  PXY d   1       0.070  -1.088   0.749  0.00  0.00     0.003 A 
ATOM      5  C3  PXY d   1      -0.466  -0.094   1.527  0.00  0.00     0.003 A 
ATOM      6  C4  PXY d   1      -0.615   1.172   1.029  0.00  0.00    -0.082 A 
ATOM      7  C5  PXY d   1      -0.269   1.429  -0.250  0.00  0.00     0.003 A 
ATOM      8  C6  PXY d   1       0.235   0.397  -1.036  0.00  0.00     0.003 A 
ENDROOT
TORSDOF 0
ENDMDL
