MODEL 1
REMARK minimizedAffinity -2.22420359
REMARK minimizedRMSD -1
REMARK  0 active torsions:
REMARK  status: ('A' for Active; 'I' for Inactive)
ROOT
ATOM      1  C4' PXY d   1      -0.782   1.551  -0.639  0.00  0.00     0.077 C 
ATOM      2  C1' PXY d   1       0.964  -3.781  -2.031  0.00  0.00     0.077 C 
ATOM      3  C1  PXY d   1       0.508  -2.386  -1.653  0.00  0.00    -0.082 A 
ATOM      4  C2  PXY d   1      -0.263  -1.702  -2.484  0.00  0.00     0.003 A 
ATOM      5  C3  PXY d   1      -0.658  -0.427  -2.172  0.00  0.00     0.003 A 
ATOM      6  C4  PXY d   1      -0.305   0.135  -0.974  0.00  0.00    -0.082 A 
ATOM      7  C5  PXY d   1       0.472  -0.560  -0.117  0.00  0.00     0.003 A 
ATOM      8  C6  PXY d   1       0.897  -1.838  -0.470  0.00  0.00     0.003 A 
ENDROOT
TORSDOF 0
ENDMDL
