MODEL 1
REMARK minimizedAffinity -0.921928346
REMARK minimizedRMSD -1
REMARK  0 active torsions:
REMARK  status: ('A' for Active; 'I' for Inactive)
ROOT
ATOM      1  C4' PXY d   1      -2.303   2.146   1.605  0.00  0.00     0.077 C 
ATOM      2  C1' PXY d   1       1.137  -1.852  -0.760  0.00  0.00     0.077 C 
ATOM      3  C1  PXY d   1       0.238  -0.795  -0.149  0.00  0.00    -0.082 A 
ATOM      4  C2  PXY d   1      -0.115  -0.892   1.123  0.00  0.00     0.003 A 
ATOM      5  C3  PXY d   1      -0.952   0.038   1.683  0.00  0.00     0.003 A 
ATOM      6  C4  PXY d   1      -1.390   1.107   0.948  0.00  0.00    -0.082 A 
ATOM      7  C5  PXY d   1      -1.025   1.219  -0.347  0.00  0.00     0.003 A 
ATOM      8  C6  PXY d   1      -0.208   0.242  -0.908  0.00  0.00     0.003 A 
ENDROOT
TORSDOF 0
ENDMDL
