MODEL 1
REMARK minimizedAffinity -3.49571252
REMARK minimizedRMSD -1
REMARK  0 active torsions:
REMARK  status: ('A' for Active; 'I' for Inactive)
ROOT
ATOM      1  C4' PXY d   1       1.099  -2.005  -0.739  0.00  0.00     0.077 C 
ATOM      2  C1' PXY d   1      -2.024   2.351   1.426  0.00  0.00     0.077 C 
ATOM      3  C1  PXY d   1      -1.201   1.205   0.870  0.00  0.00    -0.082 A 
ATOM      4  C2  PXY d   1      -0.798   1.240  -0.389  0.00  0.00     0.003 A 
ATOM      5  C3  PXY d   1      -0.080   0.198  -0.917  0.00  0.00     0.003 A 
ATOM      6  C4  PXY d   1       0.274  -0.867  -0.132  0.00  0.00    -0.082 A 
ATOM      7  C5  PXY d   1      -0.124  -0.905   1.157  0.00  0.00     0.003 A 
ATOM      8  C6  PXY d   1      -0.887   0.144   1.662  0.00  0.00     0.003 A 
ENDROOT
TORSDOF 0
ENDMDL
