MODEL 1
REMARK minimizedAffinity -4.85139227
REMARK minimizedRMSD -1
REMARK  0 active torsions:
REMARK  status: ('A' for Active; 'I' for Inactive)
ROOT
ATOM      1  C4' PXY d   1      -1.019   2.726  -1.377  0.00  0.00     0.077 C 
ATOM      2  C1' PXY d   1       0.011  -1.272   2.668  0.00  0.00     0.077 C 
ATOM      3  C1  PXY d   1      -0.270  -0.220   1.614  0.00  0.00    -0.082 A 
ATOM      4  C2  PXY d   1       0.234  -0.361   0.399  0.00  0.00     0.003 A 
ATOM      5  C3  PXY d   1       0.017   0.597  -0.558  0.00  0.00     0.003 A 
ATOM      6  C4  PXY d   1      -0.769   1.684  -0.284  0.00  0.00    -0.082 A 
ATOM      7  C5  PXY d   1      -1.296   1.830   0.951  0.00  0.00     0.003 A 
ATOM      8  C6  PXY d   1      -1.030   0.867   1.920  0.00  0.00     0.003 A 
ENDROOT
TORSDOF 0
ENDMDL
