MODEL 1
REMARK minimizedAffinity -0.486876696
REMARK minimizedRMSD -1
REMARK  0 active torsions:
REMARK  status: ('A' for Active; 'I' for Inactive)
ROOT
ATOM      1  C4' PXY d   1      -1.401   4.024  -1.531  0.00  0.00     0.077 C 
ATOM      2  C1' PXY d   1       0.548  -1.243  -0.159  0.00  0.00     0.077 C 
ATOM      3  C1  PXY d   1       0.025   0.133  -0.520  0.00  0.00    -0.082 A 
ATOM      4  C2  PXY d   1       0.849   1.033  -1.032  0.00  0.00     0.003 A 
ATOM      5  C3  PXY d   1       0.400   2.293  -1.334  0.00  0.00     0.003 A 
ATOM      6  C4  PXY d   1      -0.918   2.618  -1.161  0.00  0.00    -0.082 A 
ATOM      7  C5  PXY d   1      -1.768   1.703  -0.649  0.00  0.00     0.003 A 
ATOM      8  C6  PXY d   1      -1.283   0.443  -0.310  0.00  0.00     0.003 A 
ENDROOT
TORSDOF 0
ENDMDL
