MODEL 1
REMARK minimizedAffinity -3.10473609
REMARK minimizedRMSD -1
REMARK  0 active torsions:
REMARK  status: ('A' for Active; 'I' for Inactive)
ROOT
ATOM      1  C4' PXY d   1       0.809  -1.532  -0.739  0.00  0.00     0.077 C 
ATOM      2  C1' PXY d   1      -2.064   2.897   1.616  0.00  0.00     0.077 C 
ATOM      3  C1  PXY d   1      -1.306   1.732   1.010  0.00  0.00    -0.082 A 
ATOM      4  C2  PXY d   1      -0.963   1.769  -0.267  0.00  0.00     0.003 A 
ATOM      5  C3  PXY d   1      -0.306   0.710  -0.839  0.00  0.00     0.003 A 
ATOM      6  C4  PXY d   1       0.051  -0.374  -0.082  0.00  0.00    -0.082 A 
ATOM      7  C5  PXY d   1      -0.286  -0.414   1.224  0.00  0.00     0.003 A 
ATOM      8  C6  PXY d   1      -0.989   0.653   1.776  0.00  0.00     0.003 A 
ENDROOT
TORSDOF 0
ENDMDL
