MODEL 1
REMARK minimizedAffinity 0.962008238
REMARK minimizedRMSD -1
REMARK  0 active torsions:
REMARK  status: ('A' for Active; 'I' for Inactive)
ROOT
ATOM      1  C4' PXY d   1       1.589  -2.042   0.275  0.00  0.00     0.077 C 
ATOM      2  C1' PXY d   1      -1.079   2.995  -0.688  0.00  0.00     0.077 C 
ATOM      3  C1  PXY d   1      -0.384   1.674  -0.424  0.00  0.00    -0.082 A 
ATOM      4  C2  PXY d   1       0.700   1.356  -1.112  0.00  0.00     0.003 A 
ATOM      5  C3  PXY d   1       1.322   0.151  -0.908  0.00  0.00     0.003 A 
ATOM      6  C4  PXY d   1       0.861  -0.714   0.048  0.00  0.00    -0.082 A 
ATOM      7  C5  PXY d   1      -0.239  -0.392   0.762  0.00  0.00     0.003 A 
ATOM      8  C6  PXY d   1      -0.880   0.818   0.510  0.00  0.00     0.003 A 
ENDROOT
TORSDOF 0
ENDMDL
