MODEL 1
REMARK minimizedAffinity -3.85767579
REMARK minimizedRMSD -1
REMARK  0 active torsions:
REMARK  status: ('A' for Active; 'I' for Inactive)
ROOT
ATOM      1  C4' PXY d   1      -1.914   2.259   1.336  0.00  0.00     0.077 C 
ATOM      2  C1' PXY d   1       1.609  -1.589  -1.152  0.00  0.00     0.077 C 
ATOM      3  C1  PXY d   1       0.690  -0.570  -0.507  0.00  0.00    -0.082 A 
ATOM      4  C2  PXY d   1       0.208  -0.799   0.704  0.00  0.00     0.003 A 
ATOM      5  C3  PXY d   1      -0.649   0.097   1.289  0.00  0.00     0.003 A 
ATOM      6  C4  PXY d   1      -0.975   1.263   0.650  0.00  0.00    -0.082 A 
ATOM      7  C5  PXY d   1      -0.479   1.508  -0.581  0.00  0.00     0.003 A 
ATOM      8  C6  PXY d   1       0.357   0.567  -1.175  0.00  0.00     0.003 A 
ENDROOT
TORSDOF 0
ENDMDL
