MODEL 1
REMARK minimizedAffinity -1.87237167
REMARK minimizedRMSD -1
REMARK  0 active torsions:
REMARK  status: ('A' for Active; 'I' for Inactive)
ROOT
ATOM      1  C4' PXY d   1      -0.731   3.405  -1.953  0.00  0.00     0.077 C 
ATOM      2  C1' PXY d   1       0.258  -1.709   0.553  0.00  0.00     0.077 C 
ATOM      3  C1  PXY d   1      -0.013  -0.372  -0.108  0.00  0.00    -0.082 A 
ATOM      4  C2  PXY d   1       1.001   0.383  -0.496  0.00  0.00     0.003 A 
ATOM      5  C3  PXY d   1       0.775   1.609  -1.066  0.00  0.00     0.003 A 
ATOM      6  C4  PXY d   1      -0.504   2.044  -1.290  0.00  0.00    -0.082 A 
ATOM      7  C5  PXY d   1      -1.545   1.274  -0.906  0.00  0.00     0.003 A 
ATOM      8  C6  PXY d   1      -1.293   0.051  -0.291  0.00  0.00     0.003 A 
ENDROOT
TORSDOF 0
ENDMDL
