MODEL 1
REMARK minimizedAffinity 3.22035861
REMARK minimizedRMSD -1
REMARK  1 active torsions:
REMARK  status: ('A' for Active; 'I' for Inactive)
REMARK    1  A    between atoms: C3_4  and  O_7 
ROOT
ATOM      1  C   UNL d   1       4.708   1.995  -0.733  0.00  0.00    -0.033 A 
ATOM      2  C1  UNL d   1       3.391   1.684  -0.391  0.00  0.00     0.039 A 
ATOM      3  C2  UNL d   1       2.990   0.350  -0.291  0.00  0.00    -0.080 A 
ATOM      4  C3  UNL d   1       3.915  -0.661  -0.536  0.00  0.00     0.150 A 
ATOM      5  C4  UNL d   1       5.230  -0.358  -0.873  0.00  0.00    -0.007 A 
ATOM      6  C5  UNL d   1       5.628   0.974  -0.973  0.00  0.00     0.039 A 
ENDROOT
BRANCH   4   7
ATOM      7  O   UNL d   1       3.570  -1.978  -0.455  0.00  0.00    -0.526 OA
ATOM      8  H5  UNL d   1       2.624  -2.035  -0.241  0.00  0.00     0.418 HD
ENDBRANCH   4   7
TORSDOF 1
ENDMDL
