MODEL 1
REMARK minimizedAffinity 7.14917135
REMARK minimizedRMSD -1
REMARK  1 active torsions:
REMARK  status: ('A' for Active; 'I' for Inactive)
REMARK    1  A    between atoms: C3_4  and  O_7 
ROOT
ATOM      1  C   UNL d   1      -2.837   2.650   1.454  0.00  0.00    -0.033 A 
ATOM      2  C1  UNL d   1      -1.654   3.377   1.301  0.00  0.00     0.039 A 
ATOM      3  C2  UNL d   1      -0.658   2.918   0.438  0.00  0.00    -0.080 A 
ATOM      4  C3  UNL d   1      -0.856   1.734  -0.267  0.00  0.00     0.150 A 
ATOM      5  C4  UNL d   1      -2.033   1.007  -0.122  0.00  0.00    -0.007 A 
ATOM      6  C5  UNL d   1      -3.026   1.466   0.741  0.00  0.00     0.039 A 
ENDROOT
BRANCH   4   7
ATOM      7  O   UNL d   1       0.090   1.244  -1.118  0.00  0.00    -0.526 OA
ATOM      8  H5  UNL d   1       0.861   1.836  -1.094  0.00  0.00     0.418 HD
ENDBRANCH   4   7
TORSDOF 1
ENDMDL
