MODEL 1
REMARK minimizedAffinity 10.8361654
REMARK minimizedRMSD -1
REMARK  1 active torsions:
REMARK  status: ('A' for Active; 'I' for Inactive)
REMARK    1  A    between atoms: C3_4  and  O_7 
ROOT
ATOM      1  C   UNL d   1       5.454   1.780   0.389  0.00  0.00    -0.033 A 
ATOM      2  C1  UNL d   1       5.806   2.424   1.577  0.00  0.00     0.039 A 
ATOM      3  C2  UNL d   1       5.993   3.808   1.595  0.00  0.00    -0.080 A 
ATOM      4  C3  UNL d   1       5.823   4.535   0.420  0.00  0.00     0.150 A 
ATOM      5  C4  UNL d   1       5.469   3.901  -0.766  0.00  0.00    -0.007 A 
ATOM      6  C5  UNL d   1       5.284   2.519  -0.782  0.00  0.00     0.039 A 
ENDROOT
BRANCH   4   7
ATOM      7  O   UNL d   1       5.999   5.886   0.386  0.00  0.00    -0.526 OA
ATOM      8  H5  UNL d   1       6.270   6.183   1.271  0.00  0.00     0.418 HD
ENDBRANCH   4   7
TORSDOF 1
ENDMDL
