MODEL 1
REMARK minimizedAffinity 5.29432487
REMARK minimizedRMSD -1
REMARK  1 active torsions:
REMARK  status: ('A' for Active; 'I' for Inactive)
REMARK    1  A    between atoms: C3_4  and  O_7 
ROOT
ATOM      1  C   UNL d   1       6.000   0.415  -0.192  0.00  0.00    -0.033 A 
ATOM      2  C1  UNL d   1       5.320  -0.788   0.004  0.00  0.00     0.039 A 
ATOM      3  C2  UNL d   1       3.937  -0.849  -0.179  0.00  0.00    -0.080 A 
ATOM      4  C3  UNL d   1       3.247   0.299  -0.558  0.00  0.00     0.150 A 
ATOM      5  C4  UNL d   1       3.919   1.501  -0.760  0.00  0.00    -0.007 A 
ATOM      6  C5  UNL d   1       5.299   1.559  -0.576  0.00  0.00     0.039 A 
ENDROOT
BRANCH   4   7
ATOM      7  O   UNL d   1       1.896   0.291  -0.744  0.00  0.00    -0.526 OA
ATOM      8  H5  UNL d   1       1.564  -0.600  -0.542  0.00  0.00     0.418 HD
ENDBRANCH   4   7
TORSDOF 1
ENDMDL
