MODEL 1
REMARK minimizedAffinity 3.36325669
REMARK minimizedRMSD -1
REMARK  1 active torsions:
REMARK  status: ('A' for Active; 'I' for Inactive)
REMARK    1  A    between atoms: N_2  and  C1_3 
ROOT
ATOM      1  C1  UNL d   1       1.443  -4.113   5.282  0.00  0.00     0.143 A 
ATOM      2  C2  UNL d   1       2.216  -3.034   5.722  0.00  0.00    -0.057 A 
ATOM      3  C3  UNL d   1       2.419  -1.908   4.915  0.00  0.00     0.033 A 
ATOM      4  C4  UNL d   1       1.875  -1.855   3.636  0.00  0.00    -0.042 A 
ATOM      5  C5  UNL d   1       1.123  -2.927   3.168  0.00  0.00     0.033 A 
ATOM      6  C6  UNL d   1       0.918  -4.045   3.982  0.00  0.00    -0.057 A 
ENDROOT
BRANCH   1   7
ATOM      7  N   UNL d   1       1.286  -5.301   5.999  0.00  0.00    -0.732 N 
ATOM      8  C   UNL d   1       0.018  -6.000   6.000  0.00  0.00     0.284 C 
ATOM      9  H3  UNL d   1       2.097  -5.911   5.923  0.00  0.00     0.395 HD
ENDBRANCH   1   7
TORSDOF 1
ENDMDL
