MODEL 1
REMARK minimizedAffinity 1.71319008
REMARK minimizedRMSD -1
REMARK  1 active torsions:
REMARK  status: ('A' for Active; 'I' for Inactive)
REMARK    1  A    between atoms: N_2  and  C1_3 
ROOT
ATOM      1  C1  UNL d   1       1.799  -2.515   3.124  0.00  0.00     0.143 A 
ATOM      2  C2  UNL d   1       1.838  -3.889   2.863  0.00  0.00    -0.057 A 
ATOM      3  C3  UNL d   1       2.686  -4.741   3.580  0.00  0.00     0.033 A 
ATOM      4  C4  UNL d   1       3.536  -4.228   4.555  0.00  0.00    -0.042 A 
ATOM      5  C5  UNL d   1       3.533  -2.862   4.814  0.00  0.00     0.033 A 
ATOM      6  C6  UNL d   1       2.678  -2.017   4.099  0.00  0.00    -0.057 A 
ENDROOT
BRANCH   1   7
ATOM      7  N   UNL d   1       1.050  -1.603   2.378  0.00  0.00    -0.732 N 
ATOM      8  C   UNL d   1       1.681  -0.449   1.774  0.00  0.00     0.284 C 
ATOM      9  H3  UNL d   1       0.362  -2.059   1.783  0.00  0.00     0.395 HD
ENDBRANCH   1   7
TORSDOF 1
ENDMDL
