MODEL 1
REMARK minimizedAffinity 8.71446037
REMARK minimizedRMSD -1
REMARK  1 active torsions:
REMARK  status: ('A' for Active; 'I' for Inactive)
REMARK    1  A    between atoms: N_2  and  C1_3 
ROOT
ATOM      1  C1  UNL d   1       2.245  -2.028   3.030  0.00  0.00     0.143 A 
ATOM      2  C2  UNL d   1       1.755  -3.292   2.686  0.00  0.00    -0.057 A 
ATOM      3  C3  UNL d   1       2.351  -4.460   3.179  0.00  0.00     0.033 A 
ATOM      4  C4  UNL d   1       3.468  -4.383   4.004  0.00  0.00    -0.042 A 
ATOM      5  C5  UNL d   1       3.987  -3.138   4.338  0.00  0.00     0.033 A 
ATOM      6  C6  UNL d   1       3.384  -1.975   3.848  0.00  0.00    -0.057 A 
ENDROOT
BRANCH   1   7
ATOM      7  N   UNL d   1       1.758  -0.833   2.494  0.00  0.00    -0.732 N 
ATOM      8  C   UNL d   1       2.652   0.103   1.847  0.00  0.00     0.284 C 
ATOM      9  H3  UNL d   1       0.868  -0.956   2.017  0.00  0.00     0.395 HD
ENDBRANCH   1   7
TORSDOF 1
ENDMDL
