MODEL 1
REMARK minimizedAffinity 3.65030098
REMARK minimizedRMSD -1
REMARK  1 active torsions:
REMARK  status: ('A' for Active; 'I' for Inactive)
REMARK    1  A    between atoms: N_2  and  C1_3 
ROOT
ATOM      1  C1  UNL d   1       3.549  -3.159   4.357  0.00  0.00     0.143 A 
ATOM      2  C2  UNL d   1       3.156  -2.016   3.653  0.00  0.00    -0.057 A 
ATOM      3  C3  UNL d   1       1.904  -1.940   3.031  0.00  0.00     0.033 A 
ATOM      4  C4  UNL d   1       1.031  -3.023   3.076  0.00  0.00    -0.042 A 
ATOM      5  C5  UNL d   1       1.411  -4.179   3.748  0.00  0.00     0.033 A 
ATOM      6  C6  UNL d   1       2.660  -4.246   4.374  0.00  0.00    -0.057 A 
ENDROOT
BRANCH   1   7
ATOM      7  N   UNL d   1       4.818  -3.333   4.913  0.00  0.00    -0.732 N 
ATOM      8  C   UNL d   1       5.999  -2.881   4.209  0.00  0.00     0.284 C 
ATOM      9  H3  UNL d   1       4.833  -3.145   5.913  0.00  0.00     0.395 HD
ENDBRANCH   1   7
TORSDOF 1
ENDMDL
