MODEL 1
REMARK minimizedAffinity 5.69044447
REMARK minimizedRMSD -1
REMARK  1 active torsions:
REMARK  status: ('A' for Active; 'I' for Inactive)
REMARK    1  A    between atoms: N_2  and  C1_3 
ROOT
ATOM      1  C1  UNL d   1       4.762  -5.915  -2.848  0.00  0.00     0.143 A 
ATOM      2  C2  UNL d   1       3.508  -5.984  -3.464  0.00  0.00    -0.057 A 
ATOM      3  C3  UNL d   1       2.328  -5.997  -2.710  0.00  0.00     0.033 A 
ATOM      4  C4  UNL d   1       2.384  -5.970  -1.320  0.00  0.00    -0.042 A 
ATOM      5  C5  UNL d   1       3.620  -5.927  -0.686  0.00  0.00     0.033 A 
ATOM      6  C6  UNL d   1       4.794  -5.907  -1.445  0.00  0.00    -0.057 A 
ENDROOT
BRANCH   1   7
ATOM      7  N   UNL d   1       5.973  -5.999  -3.539  0.00  0.00    -0.732 N 
ATOM      8  C   UNL d   1       5.999  -5.990  -4.986  0.00  0.00     0.284 C 
ATOM      9  H3  UNL d   1       6.706  -5.441  -3.107  0.00  0.00     0.395 HD
ENDBRANCH   1   7
TORSDOF 1
ENDMDL
