MODEL 1
REMARK minimizedAffinity 5.38696194
REMARK minimizedRMSD -1
REMARK  1 active torsions:
REMARK  status: ('A' for Active; 'I' for Inactive)
REMARK    1  A    between atoms: N_2  and  C1_3 
ROOT
ATOM      1  C1  UNL d   1       3.597  -3.422   3.692  0.00  0.00     0.143 A 
ATOM      2  C2  UNL d   1       2.455  -4.227   3.767  0.00  0.00    -0.057 A 
ATOM      3  C3  UNL d   1       1.186  -3.714   3.475  0.00  0.00     0.033 A 
ATOM      4  C4  UNL d   1       1.032  -2.376   3.129  0.00  0.00    -0.042 A 
ATOM      5  C5  UNL d   1       2.150  -1.551   3.072  0.00  0.00     0.033 A 
ATOM      6  C6  UNL d   1       3.416  -2.071   3.359  0.00  0.00    -0.057 A 
ENDROOT
BRANCH   1   7
ATOM      7  N   UNL d   1       4.874  -3.848   4.066  0.00  0.00    -0.732 N 
ATOM      8  C   UNL d   1       6.000  -2.939   4.011  0.00  0.00     0.284 C 
ATOM      9  H3  UNL d   1       4.860  -4.441   4.893  0.00  0.00     0.395 HD
ENDBRANCH   1   7
TORSDOF 1
ENDMDL
