MODEL 1
REMARK minimizedAffinity 5.20486689
REMARK minimizedRMSD -1
REMARK  1 active torsions:
REMARK  status: ('A' for Active; 'I' for Inactive)
REMARK    1  A    between atoms: N_2  and  C1_3 
ROOT
ATOM      1  C1  UNL d   1       3.615  -5.926  -2.207  0.00  0.00     0.143 A 
ATOM      2  C2  UNL d   1       2.292  -5.918  -2.662  0.00  0.00    -0.057 A 
ATOM      3  C3  UNL d   1       1.995  -5.945  -4.030  0.00  0.00     0.033 A 
ATOM      4  C4  UNL d   1       3.019  -5.952  -4.971  0.00  0.00    -0.042 A 
ATOM      5  C5  UNL d   1       4.342  -5.936  -4.541  0.00  0.00     0.033 A 
ATOM      6  C6  UNL d   1       4.632  -5.915  -3.174  0.00  0.00    -0.057 A 
ENDROOT
BRANCH   1   7
ATOM      7  N   UNL d   1       3.976  -5.801  -0.863  0.00  0.00    -0.732 N 
ATOM      8  C   UNL d   1       2.975  -5.878   0.179  0.00  0.00     0.284 C 
ATOM      9  H3  UNL d   1       4.841  -6.291  -0.646  0.00  0.00     0.395 HD
ENDBRANCH   1   7
TORSDOF 1
ENDMDL
