MODEL 1
REMARK minimizedAffinity 3.77117014
REMARK minimizedRMSD -1
REMARK  0 active torsions:
REMARK  status: ('A' for Active; 'I' for Inactive)
ROOT
ATOM      1  C   UNL d   1       1.219   0.915  -5.876  0.00  0.00     0.077 C 
ATOM      2  C1  UNL d   1       2.259   1.995  -5.912  0.00  0.00    -0.074 A 
ATOM      3  C2  UNL d   1       3.622   1.680  -5.940  0.00  0.00    -0.005 A 
ATOM      4  C3  UNL d   1       4.577   2.695  -5.984  0.00  0.00     0.006 A 
ATOM      5  C4  UNL d   1       4.181   4.033  -6.000  0.00  0.00    -0.005 A 
ATOM      6  C5  UNL d   1       2.823   4.367  -5.973  0.00  0.00    -0.074 A 
ATOM      7  C6  UNL d   1       2.380   5.799  -5.999  0.00  0.00     0.077 C 
ATOM      8  C7  UNL d   1       1.869   3.341  -5.936  0.00  0.00    -0.001 A 
ENDROOT
TORSDOF 0
ENDMDL
