MODEL 1
REMARK minimizedAffinity -0.93080622
REMARK minimizedRMSD -1
REMARK  0 active torsions:
REMARK  status: ('A' for Active; 'I' for Inactive)
ROOT
ATOM      1  C   UNL d   1       4.996  -3.581   3.913  0.00  0.00     0.077 C 
ATOM      2  C1  UNL d   1       4.239  -3.543   2.619  0.00  0.00    -0.074 A 
ATOM      3  C2  UNL d   1       4.489  -4.481   1.613  0.00  0.00    -0.005 A 
ATOM      4  C3  UNL d   1       3.770  -4.439   0.418  0.00  0.00     0.006 A 
ATOM      5  C4  UNL d   1       2.795  -3.460   0.219  0.00  0.00    -0.005 A 
ATOM      6  C5  UNL d   1       2.531  -2.515   1.215  0.00  0.00    -0.074 A 
ATOM      7  C6  UNL d   1       1.480  -1.463   1.020  0.00  0.00     0.077 C 
ATOM      8  C7  UNL d   1       3.253  -2.568   2.415  0.00  0.00    -0.001 A 
ENDROOT
TORSDOF 0
ENDMDL
