MODEL 1
REMARK minimizedAffinity 5.79121733
REMARK minimizedRMSD -1
REMARK  0 active torsions:
REMARK  status: ('A' for Active; 'I' for Inactive)
ROOT
ATOM      1  C   UNL d   1       3.042   5.959   5.967  0.00  0.00     0.077 C 
ATOM      2  C1  UNL d   1       2.135   5.510   4.861  0.00  0.00    -0.074 A 
ATOM      3  C2  UNL d   1       0.829   6.000   4.758  0.00  0.00    -0.005 A 
ATOM      4  C3  UNL d   1       0.000   5.580   3.718  0.00  0.00     0.006 A 
ATOM      5  C4  UNL d   1       0.467   4.667   2.772  0.00  0.00    -0.005 A 
ATOM      6  C5  UNL d   1       1.770   4.166   2.858  0.00  0.00    -0.074 A 
ATOM      7  C6  UNL d   1       2.292   3.192   1.844  0.00  0.00     0.077 C 
ATOM      8  C7  UNL d   1       2.600   4.598   3.902  0.00  0.00    -0.001 A 
ENDROOT
TORSDOF 0
ENDMDL
