MODEL 1
REMARK minimizedAffinity -0.86351496
REMARK minimizedRMSD -1
REMARK  0 active torsions:
REMARK  status: ('A' for Active; 'I' for Inactive)
ROOT
ATOM      1  C   UNL d   1       3.879  -6.000   6.000  0.00  0.00     0.077 C 
ATOM      2  C1  UNL d   1       4.503  -4.947   5.132  0.00  0.00    -0.074 A 
ATOM      3  C2  UNL d   1       5.213  -3.881   5.693  0.00  0.00    -0.005 A 
ATOM      4  C3  UNL d   1       5.795  -2.915   4.873  0.00  0.00     0.006 A 
ATOM      5  C4  UNL d   1       5.674  -3.005   3.485  0.00  0.00    -0.005 A 
ATOM      6  C5  UNL d   1       4.968  -4.065   2.907  0.00  0.00    -0.074 A 
ATOM      7  C6  UNL d   1       4.836  -4.182   1.417  0.00  0.00     0.077 C 
ATOM      8  C7  UNL d   1       4.391  -5.035   3.737  0.00  0.00    -0.001 A 
ENDROOT
TORSDOF 0
ENDMDL
