MODEL 1
REMARK minimizedAffinity -1.44068325
REMARK minimizedRMSD -1
REMARK  0 active torsions:
REMARK  status: ('A' for Active; 'I' for Inactive)
ROOT
ATOM      1  C   UNL d   1       5.962   3.567  -5.272  0.00  0.00     0.077 C 
ATOM      2  C1  UNL d   1       4.485   3.659  -5.519  0.00  0.00    -0.074 A 
ATOM      3  C2  UNL d   1       3.854   4.901  -5.648  0.00  0.00    -0.005 A 
ATOM      4  C3  UNL d   1       2.482   4.971  -5.887  0.00  0.00     0.006 A 
ATOM      5  C4  UNL d   1       1.728   3.802  -5.999  0.00  0.00    -0.005 A 
ATOM      6  C5  UNL d   1       2.341   2.551  -5.873  0.00  0.00    -0.074 A 
ATOM      7  C6  UNL d   1       1.547   1.286  -6.000  0.00  0.00     0.077 C 
ATOM      8  C7  UNL d   1       3.722   2.489  -5.640  0.00  0.00    -0.001 A 
ENDROOT
TORSDOF 0
ENDMDL
