MODEL 1
REMARK minimizedAffinity -2.85067439
REMARK minimizedRMSD -1
REMARK  0 active torsions:
REMARK  status: ('A' for Active; 'I' for Inactive)
ROOT
ATOM      1  C   UNL d   1       1.056   2.189  -5.981  0.00  0.00     0.077 C 
ATOM      2  C1  UNL d   1       2.150   3.215  -5.983  0.00  0.00    -0.074 A 
ATOM      3  C2  UNL d   1       1.854   4.581  -5.998  0.00  0.00    -0.005 A 
ATOM      4  C3  UNL d   1       2.882   5.524  -5.990  0.00  0.00     0.006 A 
ATOM      5  C4  UNL d   1       4.214   5.111  -5.967  0.00  0.00    -0.005 A 
ATOM      6  C5  UNL d   1       4.530   3.748  -5.950  0.00  0.00    -0.074 A 
ATOM      7  C6  UNL d   1       5.957   3.287  -5.914  0.00  0.00     0.077 C 
ATOM      8  C7  UNL d   1       3.491   2.807  -5.951  0.00  0.00    -0.001 A 
ENDROOT
TORSDOF 0
ENDMDL
