MODEL 1
REMARK minimizedAffinity 8.14434242
REMARK minimizedRMSD -1
REMARK  0 active torsions:
REMARK  status: ('A' for Active; 'I' for Inactive)
ROOT
ATOM      1  C   UNL d   1      -1.236   5.999   4.724  0.00  0.00     0.077 C 
ATOM      2  C1  UNL d   1       0.198   5.764   4.350  0.00  0.00    -0.074 A 
ATOM      3  C2  UNL d   1       0.545   5.352   3.059  0.00  0.00    -0.005 A 
ATOM      4  C3  UNL d   1       1.883   5.147   2.723  0.00  0.00     0.006 A 
ATOM      5  C4  UNL d   1       2.886   5.350   3.672  0.00  0.00    -0.005 A 
ATOM      6  C5  UNL d   1       2.557   5.762   4.968  0.00  0.00    -0.074 A 
ATOM      7  C6  UNL d   1       3.622   5.994   5.998  0.00  0.00     0.077 C 
ATOM      8  C7  UNL d   1       1.211   5.973   5.296  0.00  0.00    -0.001 A 
ENDROOT
TORSDOF 0
ENDMDL
