MODEL 1
REMARK minimizedAffinity -1.47134233
REMARK minimizedRMSD -1
REMARK  0 active torsions:
REMARK  status: ('A' for Active; 'I' for Inactive)
ROOT
ATOM      1  C   UNL d   1       5.902   5.781  -5.951  0.00  0.00     0.077 C 
ATOM      2  C1  UNL d   1       4.537   5.158  -5.961  0.00  0.00    -0.074 A 
ATOM      3  C2  UNL d   1       3.385   5.950  -5.976  0.00  0.00    -0.005 A 
ATOM      4  C3  UNL d   1       2.123   5.357  -5.996  0.00  0.00     0.006 A 
ATOM      5  C4  UNL d   1       2.001   3.967  -6.000  0.00  0.00    -0.005 A 
ATOM      6  C5  UNL d   1       3.141   3.158  -5.986  0.00  0.00    -0.074 A 
ATOM      7  C6  UNL d   1       3.027   1.662  -6.000  0.00  0.00     0.077 C 
ATOM      8  C7  UNL d   1       4.406   3.762  -5.973  0.00  0.00    -0.001 A 
ENDROOT
TORSDOF 0
ENDMDL
