MODEL 1
REMARK minimizedAffinity -3.17283487
REMARK minimizedRMSD -1
REMARK  0 active torsions:
REMARK  status: ('A' for Active; 'I' for Inactive)
ROOT
ATOM      1  C   UNL d   1       4.515  -4.181   3.380  0.00  0.00     0.077 C 
ATOM      2  C1  UNL d   1       3.988  -3.599   2.103  0.00  0.00    -0.074 A 
ATOM      3  C2  UNL d   1       4.606  -3.874   0.878  0.00  0.00    -0.005 A 
ATOM      4  C3  UNL d   1       4.098  -3.332  -0.303  0.00  0.00     0.006 A 
ATOM      5  C4  UNL d   1       2.970  -2.512  -0.272  0.00  0.00    -0.005 A 
ATOM      6  C5  UNL d   1       2.338  -2.227   0.943  0.00  0.00    -0.074 A 
ATOM      7  C6  UNL d   1       1.119  -1.355   0.993  0.00  0.00     0.077 C 
ATOM      8  C7  UNL d   1       2.850  -2.780   2.125  0.00  0.00    -0.001 A 
ENDROOT
TORSDOF 0
ENDMDL
