MODEL 1
REMARK minimizedAffinity -0.35887742
REMARK minimizedRMSD -1
REMARK  0 active torsions:
REMARK  status: ('A' for Active; 'I' for Inactive)
ROOT
ATOM      1  C   UNL d   1      -2.561   2.308  -4.526  0.00  0.00     0.077 C 
ATOM      2  C1  UNL d   1      -3.082   1.241  -3.609  0.00  0.00    -0.074 A 
ATOM      3  C2  UNL d   1      -2.665   1.172  -2.276  0.00  0.00    -0.005 A 
ATOM      4  C3  UNL d   1      -3.166   0.180  -1.433  0.00  0.00     0.006 A 
ATOM      5  C4  UNL d   1      -4.087  -0.751  -1.914  0.00  0.00    -0.005 A 
ATOM      6  C5  UNL d   1      -4.517  -0.697  -3.244  0.00  0.00    -0.074 A 
ATOM      7  C6  UNL d   1      -5.514  -1.684  -3.774  0.00  0.00     0.077 C 
ATOM      8  C7  UNL d   1      -4.014   0.307  -4.083  0.00  0.00    -0.001 A 
ENDROOT
TORSDOF 0
ENDMDL
