MODEL 1
REMARK minimizedAffinity 10.9678688
REMARK minimizedRMSD -1
REMARK  0 active torsions:
REMARK  status: ('A' for Active; 'I' for Inactive)
ROOT
ATOM      1  C1  BNZ d   1      -5.905  -0.374  -4.082  0.00  0.00     0.000 A 
ATOM      2  C2  BNZ d   1      -5.132   0.064  -3.039  0.00  0.00     0.000 A 
ATOM      3  C3  BNZ d   1      -4.440  -0.822  -2.262  0.00  0.00     0.000 A 
ATOM      4  C4  BNZ d   1      -4.552  -2.144  -2.502  0.00  0.00     0.000 A 
ATOM      5  C5  BNZ d   1      -5.335  -2.601  -3.543  0.00  0.00     0.000 A 
ATOM      6  C6  BNZ d   1      -6.000  -1.705  -4.348  0.00  0.00     0.000 A 
ENDROOT
TORSDOF 0
ENDMDL
