MODEL 1
REMARK minimizedAffinity 1.67268741
REMARK minimizedRMSD -1
REMARK  0 active torsions:
REMARK  status: ('A' for Active; 'I' for Inactive)
ROOT
ATOM      1  C1  BNZ d   1      -2.251   2.049  -3.293  0.00  0.00     0.000 A 
ATOM      2  C2  BNZ d   1      -1.733   3.232  -2.836  0.00  0.00     0.000 A 
ATOM      3  C3  BNZ d   1      -1.008   4.044  -3.663  0.00  0.00     0.000 A 
ATOM      4  C4  BNZ d   1      -0.769   3.654  -4.932  0.00  0.00     0.000 A 
ATOM      5  C5  BNZ d   1      -1.276   2.460  -5.404  0.00  0.00     0.000 A 
ATOM      6  C6  BNZ d   1      -2.038   1.664  -4.580  0.00  0.00     0.000 A 
ENDROOT
TORSDOF 0
ENDMDL
