MODEL 1
REMARK minimizedAffinity 2.84832716
REMARK minimizedRMSD -1
REMARK  0 active torsions:
REMARK  status: ('A' for Active; 'I' for Inactive)
ROOT
ATOM      1  C1  BNZ d   1       1.404  -1.436   2.217  0.00  0.00     0.000 A 
ATOM      2  C2  BNZ d   1       2.459  -1.491   3.089  0.00  0.00     0.000 A 
ATOM      3  C3  BNZ d   1       3.484  -2.373   2.892  0.00  0.00     0.000 A 
ATOM      4  C4  BNZ d   1       3.434  -3.226   1.849  0.00  0.00     0.000 A 
ATOM      5  C5  BNZ d   1       2.373  -3.190   0.967  0.00  0.00     0.000 A 
ATOM      6  C6  BNZ d   1       1.362  -2.274   1.146  0.00  0.00     0.000 A 
ENDROOT
TORSDOF 0
ENDMDL
