MODEL 1
REMARK minimizedAffinity -2.59784245
REMARK minimizedRMSD -1
REMARK  0 active torsions:
REMARK  status: ('A' for Active; 'I' for Inactive)
ROOT
ATOM      1  C1  BNZ d   1       3.899   3.638  -5.976  0.00  0.00     0.000 A 
ATOM      2  C2  BNZ d   1       5.268   3.654  -5.999  0.00  0.00     0.000 A 
ATOM      3  C3  BNZ d   1       5.955   4.835  -5.982  0.00  0.00     0.000 A 
ATOM      4  C4  BNZ d   1       5.273   5.999  -5.982  0.00  0.00     0.000 A 
ATOM      5  C5  BNZ d   1       3.893   6.000  -5.968  0.00  0.00     0.000 A 
ATOM      6  C6  BNZ d   1       3.205   4.808  -5.946  0.00  0.00     0.000 A 
ENDROOT
TORSDOF 0
ENDMDL
