MODEL 1
REMARK minimizedAffinity 4.8316803
REMARK minimizedRMSD -1
REMARK  0 active torsions:
REMARK  status: ('A' for Active; 'I' for Inactive)
ROOT
ATOM      1  C1  BNZ d   1       2.995   4.134   3.385  0.00  0.00     0.000 A 
ATOM      2  C2  BNZ d   1       3.633   5.082   4.140  0.00  0.00     0.000 A 
ATOM      3  C3  BNZ d   1       2.921   5.998   4.862  0.00  0.00     0.000 A 
ATOM      4  C4  BNZ d   1       1.574   5.992   4.796  0.00  0.00     0.000 A 
ATOM      5  C5  BNZ d   1       0.916   5.049   4.032  0.00  0.00     0.000 A 
ATOM      6  C6  BNZ d   1       1.635   4.103   3.338  0.00  0.00     0.000 A 
ENDROOT
TORSDOF 0
ENDMDL
