MODEL 1
REMARK minimizedAffinity 6.8819313
REMARK minimizedRMSD -1
REMARK  0 active torsions:
REMARK  status: ('A' for Active; 'I' for Inactive)
ROOT
ATOM      1  C1  BNZ d   1       2.019  -1.356   2.699  0.00  0.00     0.000 A 
ATOM      2  C2  BNZ d   1       0.811  -1.607   2.104  0.00  0.00     0.000 A 
ATOM      3  C3  BNZ d   1       0.742  -1.970   0.788  0.00  0.00     0.000 A 
ATOM      4  C4  BNZ d   1       1.874  -2.042   0.059  0.00  0.00     0.000 A 
ATOM      5  C5  BNZ d   1       3.098  -1.782   0.642  0.00  0.00     0.000 A 
ATOM      6  C6  BNZ d   1       3.168  -1.456   1.977  0.00  0.00     0.000 A 
ENDROOT
TORSDOF 0
ENDMDL
