MODEL 1
REMARK minimizedAffinity 0.26944983
REMARK minimizedRMSD -1
REMARK  0 active torsions:
REMARK  status: ('A' for Active; 'I' for Inactive)
ROOT
ATOM      1  C1  BNZ d   1       4.043  -2.870   0.465  0.00  0.00     0.000 A 
ATOM      2  C2  BNZ d   1       3.209  -3.954   0.413  0.00  0.00     0.000 A 
ATOM      3  C3  BNZ d   1       3.669  -5.172  -0.004  0.00  0.00     0.000 A 
ATOM      4  C4  BNZ d   1       4.951  -5.294  -0.405  0.00  0.00     0.000 A 
ATOM      5  C5  BNZ d   1       5.802  -4.208  -0.367  0.00  0.00     0.000 A 
ATOM      6  C6  BNZ d   1       5.345  -2.993   0.090  0.00  0.00     0.000 A 
ENDROOT
TORSDOF 0
ENDMDL
