MODEL 1
REMARK minimizedAffinity 8.72599888
REMARK minimizedRMSD -1
REMARK  0 active torsions:
REMARK  status: ('A' for Active; 'I' for Inactive)
ROOT
ATOM      1  C1  BNZ d   1       3.277  -5.026   5.989  0.00  0.00     0.000 A 
ATOM      2  C2  BNZ d   1       3.638  -3.710   5.875  0.00  0.00     0.000 A 
ATOM      3  C3  BNZ d   1       4.951  -3.353   5.746  0.00  0.00     0.000 A 
ATOM      4  C4  BNZ d   1       5.903  -4.307   5.771  0.00  0.00     0.000 A 
ATOM      5  C5  BNZ d   1       5.556  -5.638   5.895  0.00  0.00     0.000 A 
ATOM      6  C6  BNZ d   1       4.231  -5.997   5.986  0.00  0.00     0.000 A 
ENDROOT
TORSDOF 0
ENDMDL
