MODEL 1
REMARK minimizedAffinity -0.549072862
REMARK minimizedRMSD -1
REMARK  0 active torsions:
REMARK  status: ('A' for Active; 'I' for Inactive)
ROOT
ATOM      1  C1  BNZ d   1       2.814   3.639  -5.940  0.00  0.00     0.000 A 
ATOM      2  C2  BNZ d   1       4.183   3.655  -5.910  0.00  0.00     0.000 A 
ATOM      3  C3  BNZ d   1       4.869   4.837  -5.899  0.00  0.00     0.000 A 
ATOM      4  C4  BNZ d   1       4.188   6.000  -5.959  0.00  0.00     0.000 A 
ATOM      5  C5  BNZ d   1       2.808   6.000  -5.999  0.00  0.00     0.000 A 
ATOM      6  C6  BNZ d   1       2.119   4.809  -5.971  0.00  0.00     0.000 A 
ENDROOT
TORSDOF 0
ENDMDL
