MODEL 1
REMARK minimizedAffinity 5.13919783
REMARK minimizedRMSD -1
REMARK  0 active torsions:
REMARK  status: ('A' for Active; 'I' for Inactive)
ROOT
ATOM      1  C1  BNZ d   1       2.517  -1.987   2.190  0.00  0.00     0.000 A 
ATOM      2  C2  BNZ d   1       2.366  -3.080   1.379  0.00  0.00     0.000 A 
ATOM      3  C3  BNZ d   1       1.121  -3.522   1.025  0.00  0.00     0.000 A 
ATOM      4  C4  BNZ d   1       0.032  -2.894   1.513  0.00  0.00     0.000 A 
ATOM      5  C5  BNZ d   1       0.168  -1.796   2.339  0.00  0.00     0.000 A 
ATOM      6  C6  BNZ d   1       1.422  -1.331   2.662  0.00  0.00     0.000 A 
ENDROOT
TORSDOF 0
ENDMDL
