MODEL 1
REMARK minimizedAffinity -0.46256116
REMARK minimizedRMSD -1
REMARK  0 active torsions:
REMARK  status: ('A' for Active; 'I' for Inactive)
ROOT
ATOM      1  C1  BNZ d   1       1.541  -2.759   1.418  0.00  0.00     0.000 A 
ATOM      2  C2  BNZ d   1       1.229  -4.047   1.073  0.00  0.00     0.000 A 
ATOM      3  C3  BNZ d   1       2.213  -4.956   0.801  0.00  0.00     0.000 A 
ATOM      4  C4  BNZ d   1       3.504  -4.566   0.835  0.00  0.00     0.000 A 
ATOM      5  C5  BNZ d   1       3.833  -3.268   1.172  0.00  0.00     0.000 A 
ATOM      6  C6  BNZ d   1       2.842  -2.366   1.482  0.00  0.00     0.000 A 
ENDROOT
TORSDOF 0
ENDMDL
