MODEL 1
REMARK minimizedAffinity 3.73030162
REMARK minimizedRMSD -1
REMARK  0 active torsions:
REMARK  status: ('A' for Active; 'I' for Inactive)
ROOT
ATOM      1  C1  BNZ d   1       3.480  -4.880   4.908  0.00  0.00     0.000 A 
ATOM      2  C2  BNZ d   1       4.269  -6.000   4.888  0.00  0.00     0.000 A 
ATOM      3  C3  BNZ d   1       5.518  -5.985   5.443  0.00  0.00     0.000 A 
ATOM      4  C4  BNZ d   1       5.992  -4.842   5.980  0.00  0.00     0.000 A 
ATOM      5  C5  BNZ d   1       5.213  -3.703   5.999  0.00  0.00     0.000 A 
ATOM      6  C6  BNZ d   1       3.941  -3.732   5.474  0.00  0.00     0.000 A 
ENDROOT
TORSDOF 0
ENDMDL
