MODEL 1
REMARK minimizedAffinity -6.02638197
REMARK minimizedRMSD -1
REMARK  3 active torsions:
REMARK  status: ('A' for Active; 'I' for Inactive)
REMARK    1  A    between atoms: C3'_2  and  C2'_3 
REMARK    2  A    between atoms: C2'_3  and  C1'_4 
REMARK    3  A    between atoms: C1'_4  and  C1_5 
ROOT
ATOM      1  C1  N4B d   1      -0.265   0.027   0.337  0.00  0.00    -0.075 A 
ATOM      2  C2  N4B d   1       0.652  -0.336   1.348  0.00  0.00     0.002 A 
ATOM      3  C3  N4B d   1       0.218  -0.503   2.640  0.00  0.00     0.002 A 
ATOM      4  C4  N4B d   1      -1.118  -0.296   2.947  0.00  0.00    -0.004 A 
ATOM      5  C5  N4B d   1      -2.002   0.029   1.960  0.00  0.00     0.002 A 
ATOM      6  C6  N4B d   1      -1.581   0.197   0.656  0.00  0.00     0.002 A 
ENDROOT
BRANCH   1   7
ATOM      7  C1' N4B d   1       0.178   0.305  -1.074  0.00  0.00     0.057 C 
BRANCH   7   8
ATOM      8  C2' N4B d   1       0.061  -0.975  -1.897  0.00  0.00     0.009 C 
BRANCH   8   9
ATOM      9  C3' N4B d   1       0.992  -0.966  -3.097  0.00  0.00     0.004 C 
ATOM     10  C4' N4B d   1       1.848  -2.194  -3.177  0.00  0.00     0.003 C 
ENDBRANCH   8   9
ENDBRANCH   7   8
ENDBRANCH   1   7
TORSDOF 3
ENDMDL
