MODEL 1
REMARK minimizedAffinity -3.84800315
REMARK minimizedRMSD -1
REMARK  3 active torsions:
REMARK  status: ('A' for Active; 'I' for Inactive)
REMARK    1  A    between atoms: C3'_2  and  C2'_3 
REMARK    2  A    between atoms: C2'_3  and  C1'_4 
REMARK    3  A    between atoms: C1'_4  and  C1_5 
ROOT
ATOM      1  C1  N4B d   1      -0.142   0.411   0.878  0.00  0.00    -0.075 A 
ATOM      2  C2  N4B d   1       0.348   0.415   2.202  0.00  0.00     0.002 A 
ATOM      3  C3  N4B d   1      -0.530   0.435   3.259  0.00  0.00     0.002 A 
ATOM      4  C4  N4B d   1      -1.895   0.470   3.016  0.00  0.00    -0.004 A 
ATOM      5  C5  N4B d   1      -2.360   0.440   1.734  0.00  0.00     0.002 A 
ATOM      6  C6  N4B d   1      -1.490   0.416   0.663  0.00  0.00     0.002 A 
ENDROOT
BRANCH   1   7
ATOM      7  C1' N4B d   1       0.779   0.476  -0.310  0.00  0.00     0.057 C 
BRANCH   7   8
ATOM      8  C2' N4B d   1      -0.049   0.411  -1.590  0.00  0.00     0.009 C 
BRANCH   8   9
ATOM      9  C3' N4B d   1       0.771  -0.073  -2.773  0.00  0.00     0.004 C 
ATOM     10  C4' N4B d   1       0.295  -1.390  -3.310  0.00  0.00     0.003 C 
ENDBRANCH   8   9
ENDBRANCH   7   8
ENDBRANCH   1   7
TORSDOF 3
ENDMDL
