MODEL 1
REMARK minimizedAffinity -6.17488289
REMARK minimizedRMSD -1
REMARK  3 active torsions:
REMARK  status: ('A' for Active; 'I' for Inactive)
REMARK    1  A    between atoms: C3'_2  and  C2'_3 
REMARK    2  A    between atoms: C2'_3  and  C1'_4 
REMARK    3  A    between atoms: C1'_4  and  C1_5 
ROOT
ATOM      1  C1  N4B d   1       0.009  -0.031   0.618  0.00  0.00    -0.075 A 
ATOM      2  C2  N4B d   1       0.551  -0.254   1.902  0.00  0.00     0.002 A 
ATOM      3  C3  N4B d   1      -0.273  -0.278   3.001  0.00  0.00     0.002 A 
ATOM      4  C4  N4B d   1      -1.633  -0.062   2.842  0.00  0.00    -0.004 A 
ATOM      5  C5  N4B d   1      -2.153   0.129   1.595  0.00  0.00     0.002 A 
ATOM      6  C6  N4B d   1      -1.337   0.150   0.482  0.00  0.00     0.002 A 
ENDROOT
BRANCH   1   7
ATOM      7  C1' N4B d   1       0.881   0.089  -0.603  0.00  0.00     0.057 C 
BRANCH   7   8
ATOM      8  C2' N4B d   1       0.018  -0.067  -1.851  0.00  0.00     0.009 C 
BRANCH   8   9
ATOM      9  C3' N4B d   1       0.722  -0.869  -2.932  0.00  0.00     0.004 C 
ATOM     10  C4' N4B d   1       0.214  -2.276  -3.035  0.00  0.00     0.003 C 
ENDBRANCH   8   9
ENDBRANCH   7   8
ENDBRANCH   1   7
TORSDOF 3
ENDMDL
