MODEL 1
REMARK minimizedAffinity -6.02301645
REMARK minimizedRMSD -1
REMARK  3 active torsions:
REMARK  status: ('A' for Active; 'I' for Inactive)
REMARK    1  A    between atoms: C3'_2  and  C2'_3 
REMARK    2  A    between atoms: C2'_3  and  C1'_4 
REMARK    3  A    between atoms: C1'_4  and  C1_5 
ROOT
ATOM      1  C1  N4B d   1      -0.432  -0.251   0.916  0.00  0.00    -0.075 A 
ATOM      2  C2  N4B d   1       0.427  -0.946   1.794  0.00  0.00     0.002 A 
ATOM      3  C3  N4B d   1       0.059  -1.142   3.103  0.00  0.00     0.002 A 
ATOM      4  C4  N4B d   1      -1.149  -0.637   3.558  0.00  0.00    -0.004 A 
ATOM      5  C5  N4B d   1      -1.985   0.012   2.697  0.00  0.00     0.002 A 
ATOM      6  C6  N4B d   1      -1.630   0.212   1.378  0.00  0.00     0.002 A 
ENDROOT
BRANCH   1   7
ATOM      7  C1' N4B d   1      -0.035   0.062  -0.501  0.00  0.00     0.057 C 
BRANCH   7   8
ATOM      8  C2' N4B d   1       0.359  -1.231  -1.208  0.00  0.00     0.009 C 
BRANCH   8   9
ATOM      9  C3' N4B d   1       0.752  -0.990  -2.656  0.00  0.00     0.004 C 
ATOM     10  C4' N4B d   1       1.838  -1.912  -3.123  0.00  0.00     0.003 C 
ENDBRANCH   8   9
ENDBRANCH   7   8
ENDBRANCH   1   7
TORSDOF 3
ENDMDL
