MODEL 1
REMARK minimizedAffinity -2.28871059
REMARK minimizedRMSD -1
REMARK  3 active torsions:
REMARK  status: ('A' for Active; 'I' for Inactive)
REMARK    1  A    between atoms: C3'_2  and  C2'_3 
REMARK    2  A    between atoms: C2'_3  and  C1'_4 
REMARK    3  A    between atoms: C1'_4  and  C1_5 
ROOT
ATOM      1  C1  N4B d   1       0.287  -0.042   0.084  0.00  0.00    -0.075 A 
ATOM      2  C2  N4B d   1       1.595   0.429   0.332  0.00  0.00     0.002 A 
ATOM      3  C3  N4B d   1       1.968   0.780   1.607  0.00  0.00     0.002 A 
ATOM      4  C4  N4B d   1       1.048   0.687   2.641  0.00  0.00    -0.004 A 
ATOM      5  C5  N4B d   1      -0.205   0.207   2.397  0.00  0.00     0.002 A 
ATOM      6  C6  N4B d   1      -0.593  -0.153   1.122  0.00  0.00     0.002 A 
ENDROOT
BRANCH   1   7
ATOM      7  C1' N4B d   1      -0.193  -0.357  -1.306  0.00  0.00     0.057 C 
BRANCH   7   8
ATOM      8  C2' N4B d   1       0.967  -0.196  -2.285  0.00  0.00     0.009 C 
BRANCH   8   9
ATOM      9  C3' N4B d   1       0.887  -1.193  -3.428  0.00  0.00     0.004 C 
ATOM     10  C4' N4B d   1       2.098  -2.074  -3.516  0.00  0.00     0.003 C 
ENDBRANCH   8   9
ENDBRANCH   7   8
ENDBRANCH   1   7
TORSDOF 3
ENDMDL
