MODEL 1
REMARK minimizedAffinity -6.13241291
REMARK minimizedRMSD -1
REMARK  3 active torsions:
REMARK  status: ('A' for Active; 'I' for Inactive)
REMARK    1  A    between atoms: C3'_2  and  C2'_3 
REMARK    2  A    between atoms: C2'_3  and  C1'_4 
REMARK    3  A    between atoms: C1'_4  and  C1_5 
ROOT
ATOM      1  C1  N4B d   1       0.281   0.328   0.416  0.00  0.00    -0.075 A 
ATOM      2  C2  N4B d   1      -0.889  -0.266   0.939  0.00  0.00     0.002 A 
ATOM      3  C3  N4B d   1      -1.026  -0.434   2.295  0.00  0.00     0.002 A 
ATOM      4  C4  N4B d   1      -0.004  -0.035   3.143  0.00  0.00    -0.004 A 
ATOM      5  C5  N4B d   1       1.112   0.561   2.631  0.00  0.00     0.002 A 
ATOM      6  C6  N4B d   1       1.262   0.740   1.271  0.00  0.00     0.002 A 
ENDROOT
BRANCH   1   7
ATOM      7  C1' N4B d   1       0.513   0.454  -1.065  0.00  0.00     0.057 C 
BRANCH   7   8
ATOM      8  C2' N4B d   1       0.420  -0.927  -1.706  0.00  0.00     0.009 C 
BRANCH   8   9
ATOM      9  C3' N4B d   1       0.989  -0.940  -3.114  0.00  0.00     0.004 C 
ATOM     10  C4' N4B d   1       1.763  -2.188  -3.418  0.00  0.00     0.003 C 
ENDBRANCH   8   9
ENDBRANCH   7   8
ENDBRANCH   1   7
TORSDOF 3
ENDMDL
