MODEL 1
REMARK minimizedAffinity 3.69244266
REMARK minimizedRMSD -1
REMARK  3 active torsions:
REMARK  status: ('A' for Active; 'I' for Inactive)
REMARK    1  A    between atoms: C3'_2  and  C2'_3 
REMARK    2  A    between atoms: C2'_3  and  C1'_4 
REMARK    3  A    between atoms: C1'_4  and  C1_5 
ROOT
ATOM      1  C1  N4B d   1       1.231   0.867   0.716  0.00  0.00    -0.075 A 
ATOM      2  C2  N4B d   1      -0.007   1.265   0.164  0.00  0.00     0.002 A 
ATOM      3  C3  N4B d   1      -0.376   0.824  -1.083  0.00  0.00     0.002 A 
ATOM      4  C4  N4B d   1       0.480   0.003  -1.801  0.00  0.00    -0.004 A 
ATOM      5  C5  N4B d   1       1.663  -0.397  -1.251  0.00  0.00     0.002 A 
ATOM      6  C6  N4B d   1       2.045   0.036   0.003  0.00  0.00     0.002 A 
ENDROOT
BRANCH   1   7
ATOM      7  C1' N4B d   1       1.716   1.393   2.039  0.00  0.00     0.057 C 
BRANCH   7   8
ATOM      8  C2' N4B d   1       2.775   2.464   1.795  0.00  0.00     0.009 C 
BRANCH   8   9
ATOM      9  C3' N4B d   1       4.181   1.889   1.820  0.00  0.00     0.004 C 
ATOM     10  C4' N4B d   1       5.215   2.864   1.343  0.00  0.00     0.003 C 
ENDBRANCH   8   9
ENDBRANCH   7   8
ENDBRANCH   1   7
TORSDOF 3
ENDMDL
