MODEL 1
REMARK minimizedAffinity 6.67044497
REMARK minimizedRMSD -1
REMARK  3 active torsions:
REMARK  status: ('A' for Active; 'I' for Inactive)
REMARK    1  A    between atoms: C3'_2  and  C2'_3 
REMARK    2  A    between atoms: C2'_3  and  C1'_4 
REMARK    3  A    between atoms: C1'_4  and  C1_5 
ROOT
ATOM      1  C1  N4B d   1       0.591   0.718   0.261  0.00  0.00    -0.075 A 
ATOM      2  C2  N4B d   1      -0.455   1.060   1.147  0.00  0.00     0.002 A 
ATOM      3  C3  N4B d   1      -0.163   1.547   2.397  0.00  0.00     0.002 A 
ATOM      4  C4  N4B d   1       1.160   1.682   2.789  0.00  0.00    -0.004 A 
ATOM      5  C5  N4B d   1       2.164   1.373   1.918  0.00  0.00     0.002 A 
ATOM      6  C6  N4B d   1       1.886   0.886   0.657  0.00  0.00     0.002 A 
ENDROOT
BRANCH   1   7
ATOM      7  C1' N4B d   1       0.322   0.101  -1.085  0.00  0.00     0.057 C 
BRANCH   7   8
ATOM      8  C2' N4B d   1       1.456   0.464  -2.038  0.00  0.00     0.009 C 
BRANCH   8   9
ATOM      9  C3' N4B d   1       1.887  -0.721  -2.885  0.00  0.00     0.004 C 
ATOM     10  C4' N4B d   1       3.348  -0.693  -3.223  0.00  0.00     0.003 C 
ENDBRANCH   8   9
ENDBRANCH   7   8
ENDBRANCH   1   7
TORSDOF 3
ENDMDL
