MODEL 1
REMARK minimizedAffinity 0.551124394
REMARK minimizedRMSD -1
REMARK  3 active torsions:
REMARK  status: ('A' for Active; 'I' for Inactive)
REMARK    1  A    between atoms: C3'_2  and  C2'_3 
REMARK    2  A    between atoms: C2'_3  and  C1'_4 
REMARK    3  A    between atoms: C1'_4  and  C1_5 
ROOT
ATOM      1  C1  N4B d   1       1.328  -0.322  -1.533  0.00  0.00    -0.075 A 
ATOM      2  C2  N4B d   1       1.090  -1.656  -1.933  0.00  0.00     0.002 A 
ATOM      3  C3  N4B d   1       1.493  -2.082  -3.175  0.00  0.00     0.002 A 
ATOM      4  C4  N4B d   1       2.115  -1.192  -4.038  0.00  0.00    -0.004 A 
ATOM      5  C5  N4B d   1       2.363   0.087  -3.634  0.00  0.00     0.002 A 
ATOM      6  C6  N4B d   1       1.968   0.528  -2.387  0.00  0.00     0.002 A 
ENDROOT
BRANCH   1   7
ATOM      7  C1' N4B d   1       0.829   0.213  -0.219  0.00  0.00     0.057 C 
BRANCH   7   8
ATOM      8  C2' N4B d   1       1.993   0.286   0.765  0.00  0.00     0.009 C 
BRANCH   8   9
ATOM      9  C3' N4B d   1       1.761   1.333   1.842  0.00  0.00     0.004 C 
ATOM     10  C4' N4B d   1       0.789   0.881   2.891  0.00  0.00     0.003 C 
ENDBRANCH   8   9
ENDBRANCH   7   8
ENDBRANCH   1   7
TORSDOF 3
ENDMDL
