MODEL 1
REMARK minimizedAffinity -4.49153566
REMARK minimizedRMSD -1
REMARK  0 active torsions:
REMARK  status: ('A' for Active; 'I' for Inactive)
ROOT
ATOM      1  C   UNL d   1      -3.250  -1.241   3.187  0.00  0.00     0.078 C 
ATOM      2  C1  UNL d   1      -2.282  -0.781   2.138  0.00  0.00    -0.077 A 
ATOM      3  C2  UNL d   1      -1.125  -1.516   1.852  0.00  0.00    -0.001 A 
ATOM      4  C3  UNL d   1      -0.228  -1.070   0.880  0.00  0.00     0.003 A 
ATOM      5  C4  UNL d   1      -0.478   0.113   0.188  0.00  0.00    -0.005 A 
ATOM      6  C5  UNL d   1      -1.625   0.853   0.467  0.00  0.00     0.003 A 
ATOM      7  C6  UNL d   1      -2.524   0.408   1.439  0.00  0.00    -0.001 A 
ENDROOT
TORSDOF 0
ENDMDL
