MODEL 1
REMARK minimizedAffinity -4.42859697
REMARK minimizedRMSD -1
REMARK  0 active torsions:
REMARK  status: ('A' for Active; 'I' for Inactive)
ROOT
ATOM      1  C   UNL d   1      -2.891   1.123   1.315  0.00  0.00     0.078 C 
ATOM      2  C1  UNL d   1      -1.544   1.392   0.713  0.00  0.00    -0.077 A 
ATOM      3  C2  UNL d   1      -0.806   0.367   0.110  0.00  0.00    -0.001 A 
ATOM      4  C3  UNL d   1       0.451   0.630  -0.437  0.00  0.00     0.003 A 
ATOM      5  C4  UNL d   1       0.982   1.918  -0.385  0.00  0.00    -0.005 A 
ATOM      6  C5  UNL d   1       0.255   2.944   0.216  0.00  0.00     0.003 A 
ATOM      7  C6  UNL d   1      -1.002   2.683   0.763  0.00  0.00    -0.001 A 
ENDROOT
TORSDOF 0
ENDMDL
