MODEL 1
REMARK minimizedAffinity -4.10845089
REMARK minimizedRMSD -1
REMARK  0 active torsions:
REMARK  status: ('A' for Active; 'I' for Inactive)
ROOT
ATOM      1  C   UNL d   1      -0.232  -0.250   0.074  0.00  0.00     0.078 C 
ATOM      2  C1  UNL d   1      -0.691  -0.989   1.296  0.00  0.00    -0.077 A 
ATOM      3  C2  UNL d   1      -0.071  -2.180   1.693  0.00  0.00    -0.001 A 
ATOM      4  C3  UNL d   1      -0.515  -2.863   2.826  0.00  0.00     0.003 A 
ATOM      5  C4  UNL d   1      -1.581  -2.364   3.571  0.00  0.00    -0.005 A 
ATOM      6  C5  UNL d   1      -2.206  -1.180   3.182  0.00  0.00     0.003 A 
ATOM      7  C6  UNL d   1      -1.763  -0.496   2.049  0.00  0.00    -0.001 A 
ENDROOT
TORSDOF 0
ENDMDL
