MODEL 1
REMARK minimizedAffinity -1.65349984
REMARK minimizedRMSD -1
REMARK  0 active torsions:
REMARK  status: ('A' for Active; 'I' for Inactive)
ROOT
ATOM      1  C   UNL d   1      -0.694  -1.923  -0.193  0.00  0.00     0.078 C 
ATOM      2  C1  UNL d   1       0.381  -0.883  -0.079  0.00  0.00    -0.077 A 
ATOM      3  C2  UNL d   1       1.731  -1.247  -0.010  0.00  0.00    -0.001 A 
ATOM      4  C3  UNL d   1       2.721  -0.269   0.106  0.00  0.00     0.003 A 
ATOM      5  C4  UNL d   1       2.370   1.078   0.155  0.00  0.00    -0.005 A 
ATOM      6  C5  UNL d   1       1.029   1.450   0.089  0.00  0.00     0.003 A 
ATOM      7  C6  UNL d   1       0.038   0.474  -0.027  0.00  0.00    -0.001 A 
ENDROOT
TORSDOF 0
ENDMDL
