MODEL 1
REMARK minimizedAffinity -5.02172709
REMARK minimizedRMSD -1
REMARK  0 active torsions:
REMARK  status: ('A' for Active; 'I' for Inactive)
ROOT
ATOM      1  C   UNL d   1      -0.814  -1.163   1.502  0.00  0.00     0.078 C 
ATOM      2  C1  UNL d   1      -0.538   0.090   0.725  0.00  0.00    -0.077 A 
ATOM      3  C2  UNL d   1      -1.515   1.082   0.584  0.00  0.00    -0.001 A 
ATOM      4  C3  UNL d   1      -1.247   2.239  -0.150  0.00  0.00     0.003 A 
ATOM      5  C4  UNL d   1      -0.002   2.413  -0.751  0.00  0.00    -0.005 A 
ATOM      6  C5  UNL d   1       0.977   1.430  -0.618  0.00  0.00     0.003 A 
ATOM      7  C6  UNL d   1       0.710   0.273   0.116  0.00  0.00    -0.001 A 
ENDROOT
TORSDOF 0
ENDMDL
