MODEL 1
REMARK minimizedAffinity -3.49810839
REMARK minimizedRMSD -1
REMARK  0 active torsions:
REMARK  status: ('A' for Active; 'I' for Inactive)
ROOT
ATOM      1  C   UNL d   1       2.274   2.571   2.011  0.00  0.00     0.078 C 
ATOM      2  C1  UNL d   1       0.876   2.325   1.529  0.00  0.00    -0.077 A 
ATOM      3  C2  UNL d   1      -0.122   3.295   1.687  0.00  0.00    -0.001 A 
ATOM      4  C3  UNL d   1      -1.422   3.049   1.242  0.00  0.00     0.003 A 
ATOM      5  C4  UNL d   1      -1.737   1.834   0.638  0.00  0.00    -0.005 A 
ATOM      6  C5  UNL d   1      -0.751   0.862   0.479  0.00  0.00     0.003 A 
ATOM      7  C6  UNL d   1       0.550   1.106   0.923  0.00  0.00    -0.001 A 
ENDROOT
TORSDOF 0
ENDMDL
