MODEL 1
REMARK minimizedAffinity -4.18305445
REMARK minimizedRMSD -1
REMARK  0 active torsions:
REMARK  status: ('A' for Active; 'I' for Inactive)
ROOT
ATOM      1  C   UNL d   1      -0.020  -1.416   0.314  0.00  0.00     0.078 C 
ATOM      2  C1  UNL d   1      -0.116   0.080   0.292  0.00  0.00    -0.077 A 
ATOM      3  C2  UNL d   1      -1.257   0.737   0.770  0.00  0.00    -0.001 A 
ATOM      4  C3  UNL d   1      -1.336   2.130   0.734  0.00  0.00     0.003 A 
ATOM      5  C4  UNL d   1      -0.279   2.878   0.220  0.00  0.00    -0.005 A 
ATOM      6  C5  UNL d   1       0.859   2.233  -0.260  0.00  0.00     0.003 A 
ATOM      7  C6  UNL d   1       0.940   0.840  -0.225  0.00  0.00    -0.001 A 
ENDROOT
TORSDOF 0
ENDMDL
