MODEL 1
REMARK minimizedAffinity -2.74390674
REMARK minimizedRMSD -1
REMARK  0 active torsions:
REMARK  status: ('A' for Active; 'I' for Inactive)
ROOT
ATOM      1  C   UNL d   1      -0.000  -1.371  -0.284  0.00  0.00     0.078 C 
ATOM      2  C1  UNL d   1      -0.203   0.071   0.073  0.00  0.00    -0.077 A 
ATOM      3  C2  UNL d   1       0.879   0.957   0.138  0.00  0.00    -0.001 A 
ATOM      4  C3  UNL d   1       0.676   2.294   0.482  0.00  0.00     0.003 A 
ATOM      5  C4  UNL d   1      -0.607   2.758   0.764  0.00  0.00    -0.005 A 
ATOM      6  C5  UNL d   1      -1.690   1.883   0.704  0.00  0.00     0.003 A 
ATOM      7  C6  UNL d   1      -1.489   0.545   0.361  0.00  0.00    -0.001 A 
ENDROOT
TORSDOF 0
ENDMDL
