MODEL 1
REMARK minimizedAffinity -3.41433978
REMARK minimizedRMSD -1
REMARK  0 active torsions:
REMARK  status: ('A' for Active; 'I' for Inactive)
ROOT
ATOM      1  C   UNL d   1       0.000  -0.704   0.340  0.00  0.00     0.078 C 
ATOM      2  C1  UNL d   1      -0.528  -1.593  -0.746  0.00  0.00    -0.077 A 
ATOM      3  C2  UNL d   1      -1.903  -1.815  -0.891  0.00  0.00    -0.001 A 
ATOM      4  C3  UNL d   1      -2.380  -2.653  -1.900  0.00  0.00     0.003 A 
ATOM      5  C4  UNL d   1      -1.489  -3.275  -2.772  0.00  0.00    -0.005 A 
ATOM      6  C5  UNL d   1      -0.119  -3.062  -2.634  0.00  0.00     0.003 A 
ATOM      7  C6  UNL d   1       0.360  -2.224  -1.626  0.00  0.00    -0.001 A 
ENDROOT
TORSDOF 0
ENDMDL
