MODEL 1
REMARK minimizedAffinity -1.23739922
REMARK minimizedRMSD -1
REMARK  0 active torsions:
REMARK  status: ('A' for Active; 'I' for Inactive)
ROOT
ATOM      1  C   UNL d   1       3.023   5.998   3.334  0.00  0.00     0.078 C 
ATOM      2  C1  UNL d   1       2.083   4.830   3.324  0.00  0.00    -0.077 A 
ATOM      3  C2  UNL d   1       0.925   4.829   4.111  0.00  0.00    -0.001 A 
ATOM      4  C3  UNL d   1       0.064   3.731   4.098  0.00  0.00     0.003 A 
ATOM      5  C4  UNL d   1       0.352   2.624   3.301  0.00  0.00    -0.005 A 
ATOM      6  C5  UNL d   1       1.503   2.615   2.516  0.00  0.00     0.003 A 
ATOM      7  C6  UNL d   1       2.366   3.713   2.528  0.00  0.00    -0.001 A 
ENDROOT
TORSDOF 0
ENDMDL
