MODEL 1
REMARK minimizedAffinity -4.63874054
REMARK minimizedRMSD -1
REMARK  0 active torsions:
REMARK  status: ('A' for Active; 'I' for Inactive)
ROOT
ATOM      1  C   UNL d   1      -0.401   0.064   0.400  0.00  0.00     0.078 C 
ATOM      2  C1  UNL d   1      -0.018   1.510   0.289  0.00  0.00    -0.077 A 
ATOM      3  C2  UNL d   1       0.294   2.080  -0.951  0.00  0.00    -0.001 A 
ATOM      4  C3  UNL d   1       0.658   3.425  -1.038  0.00  0.00     0.003 A 
ATOM      5  C4  UNL d   1       0.715   4.210   0.112  0.00  0.00    -0.005 A 
ATOM      6  C5  UNL d   1       0.408   3.650   1.351  0.00  0.00     0.003 A 
ATOM      7  C6  UNL d   1       0.044   2.306   1.440  0.00  0.00    -0.001 A 
ENDROOT
TORSDOF 0
ENDMDL
