MODEL 1
REMARK minimizedAffinity 5.99785852
REMARK minimizedRMSD -1
REMARK  0 active torsions:
REMARK  status: ('A' for Active; 'I' for Inactive)
ROOT
ATOM      1  C   UNL d   1       2.919   1.232  -3.376  0.00  0.00     0.078 C 
ATOM      2  C1  UNL d   1       3.994   2.277  -3.336  0.00  0.00    -0.077 A 
ATOM      3  C2  UNL d   1       4.105   3.155  -2.251  0.00  0.00    -0.001 A 
ATOM      4  C3  UNL d   1       5.105   4.130  -2.232  0.00  0.00     0.003 A 
ATOM      5  C4  UNL d   1       5.999   4.236  -3.295  0.00  0.00    -0.005 A 
ATOM      6  C5  UNL d   1       5.894   3.368  -4.380  0.00  0.00     0.003 A 
ATOM      7  C6  UNL d   1       4.896   2.393  -4.401  0.00  0.00    -0.001 A 
ENDROOT
TORSDOF 0
ENDMDL
