MODEL 1
REMARK minimizedAffinity -0.486120403
REMARK minimizedRMSD -1
REMARK  0 active torsions:
REMARK  status: ('A' for Active; 'I' for Inactive)
ROOT
ATOM      1  C   UNL d   1      -0.745   3.014  -5.983  0.00  0.00     0.078 C 
ATOM      2  C1  UNL d   1       0.675   2.531  -5.981  0.00  0.00    -0.077 A 
ATOM      3  C2  UNL d   1       1.744   3.436  -5.984  0.00  0.00    -0.001 A 
ATOM      4  C3  UNL d   1       3.061   2.973  -5.993  0.00  0.00     0.003 A 
ATOM      5  C4  UNL d   1       3.321   1.604  -6.000  0.00  0.00    -0.005 A 
ATOM      6  C5  UNL d   1       2.264   0.696  -5.999  0.00  0.00     0.003 A 
ATOM      7  C6  UNL d   1       0.947   1.158  -5.991  0.00  0.00    -0.001 A 
ENDROOT
TORSDOF 0
ENDMDL
