MODEL 1
REMARK minimizedAffinity -2.61403823
REMARK minimizedRMSD -1
REMARK  0 active torsions:
REMARK  status: ('A' for Active; 'I' for Inactive)
ROOT
ATOM      1  C   UNL d   1      -5.366   5.186  -5.998  0.00  0.00     0.078 C 
ATOM      2  C1  UNL d   1      -4.095   4.642  -5.418  0.00  0.00    -0.077 A 
ATOM      3  C2  UNL d   1      -3.495   5.242  -4.304  0.00  0.00    -0.001 A 
ATOM      4  C3  UNL d   1      -2.307   4.731  -3.780  0.00  0.00     0.003 A 
ATOM      5  C4  UNL d   1      -1.707   3.617  -4.364  0.00  0.00    -0.005 A 
ATOM      6  C5  UNL d   1      -2.295   3.014  -5.474  0.00  0.00     0.003 A 
ATOM      7  C6  UNL d   1      -3.483   3.524  -5.999  0.00  0.00    -0.001 A 
ENDROOT
TORSDOF 0
ENDMDL
