MODEL 1
REMARK minimizedAffinity -3.19395113
REMARK minimizedRMSD -1
REMARK  0 active torsions:
REMARK  status: ('A' for Active; 'I' for Inactive)
ROOT
ATOM      1  C   UNL d   1      -0.080   3.003  -4.765  0.00  0.00     0.078 C 
ATOM      2  C1  UNL d   1       1.381   2.665  -4.790  0.00  0.00    -0.077 A 
ATOM      3  C2  UNL d   1       2.109   2.700  -5.985  0.00  0.00    -0.001 A 
ATOM      4  C3  UNL d   1       3.466   2.373  -5.995  0.00  0.00     0.003 A 
ATOM      5  C4  UNL d   1       4.107   2.007  -4.813  0.00  0.00    -0.005 A 
ATOM      6  C5  UNL d   1       3.390   1.968  -3.619  0.00  0.00     0.003 A 
ATOM      7  C6  UNL d   1       2.033   2.294  -3.607  0.00  0.00    -0.001 A 
ENDROOT
TORSDOF 0
ENDMDL
