MODEL 1
REMARK minimizedAffinity -4.31293392
REMARK minimizedRMSD -1
REMARK  0 active torsions:
REMARK  status: ('A' for Active; 'I' for Inactive)
ROOT
ATOM      1  C   UNL d   1      -0.430  -0.811  -0.645  0.00  0.00     0.078 C 
ATOM      2  C1  UNL d   1      -0.339   0.621  -0.208  0.00  0.00    -0.077 A 
ATOM      3  C2  UNL d   1      -1.494   1.375   0.034  0.00  0.00    -0.001 A 
ATOM      4  C3  UNL d   1      -1.395   2.710   0.431  0.00  0.00     0.003 A 
ATOM      5  C4  UNL d   1      -0.143   3.302   0.589  0.00  0.00    -0.005 A 
ATOM      6  C5  UNL d   1       1.011   2.559   0.348  0.00  0.00     0.003 A 
ATOM      7  C6  UNL d   1       0.914   1.225  -0.049  0.00  0.00    -0.001 A 
ENDROOT
TORSDOF 0
ENDMDL
