MODEL 1
REMARK minimizedAffinity 13.6721239
REMARK minimizedRMSD -1
REMARK  0 active torsions:
REMARK  status: ('A' for Active; 'I' for Inactive)
ROOT
ATOM      1  C4' PXY d   1       2.913  -0.274  -0.254  0.00  0.00     0.077 C 
ATOM      2  C1' PXY d   1      -2.265   1.527   1.578  0.00  0.00     0.077 C 
ATOM      3  C1  PXY d   1      -0.903   1.056   1.110  0.00  0.00    -0.082 A 
ATOM      4  C2  PXY d   1      -0.553   1.219  -0.156  0.00  0.00     0.003 A 
ATOM      5  C3  PXY d   1       0.662   0.770  -0.603  0.00  0.00     0.003 A 
ATOM      6  C4  PXY d   1       1.551   0.195   0.265  0.00  0.00    -0.082 A 
ATOM      7  C5  PXY d   1       1.206   0.034   1.560  0.00  0.00     0.003 A 
ATOM      8  C6  PXY d   1      -0.049   0.460   1.986  0.00  0.00     0.003 A 
ENDROOT
TORSDOF 0
ENDMDL
