MODEL 1
REMARK minimizedAffinity 12.4472132
REMARK minimizedRMSD -1
REMARK  0 active torsions:
REMARK  status: ('A' for Active; 'I' for Inactive)
ROOT
ATOM      1  C4' PXY d   1       3.040  -0.251  -0.602  0.00  0.00     0.077 C 
ATOM      2  C1' PXY d   1      -2.161   1.626   1.084  0.00  0.00     0.077 C 
ATOM      3  C1  PXY d   1      -0.793   1.136   0.654  0.00  0.00    -0.082 A 
ATOM      4  C2  PXY d   1      -0.472   1.134  -0.630  0.00  0.00     0.003 A 
ATOM      5  C3  PXY d   1       0.749   0.665  -1.039  0.00  0.00     0.003 A 
ATOM      6  C4  PXY d   1       1.673   0.243  -0.121  0.00  0.00    -0.082 A 
ATOM      7  C5  PXY d   1       1.357   0.252   1.192  0.00  0.00     0.003 A 
ATOM      8  C6  PXY d   1       0.097   0.694   1.583  0.00  0.00     0.003 A 
ENDROOT
TORSDOF 0
ENDMDL
