MODEL 1
REMARK minimizedAffinity 5.85043335
REMARK minimizedRMSD -1
REMARK  0 active torsions:
REMARK  status: ('A' for Active; 'I' for Inactive)
ROOT
ATOM      1  C4' PXY d   1       4.186   0.087  -0.440  0.00  0.00     0.077 C 
ATOM      2  C1' PXY d   1       5.992   5.530   0.281  0.00  0.00     0.077 C 
ATOM      3  C1  PXY d   1       5.507   4.107   0.087  0.00  0.00    -0.082 A 
ATOM      4  C2  PXY d   1       5.995   3.140   0.847  0.00  0.00     0.003 A 
ATOM      5  C3  PXY d   1       5.592   1.843   0.663  0.00  0.00     0.003 A 
ATOM      6  C4  PXY d   1       4.639   1.540  -0.273  0.00  0.00    -0.082 A 
ATOM      7  C5  PXY d   1       4.128   2.522  -1.045  0.00  0.00     0.003 A 
ATOM      8  C6  PXY d   1       4.581   3.827  -0.870  0.00  0.00     0.003 A 
ENDROOT
TORSDOF 0
ENDMDL
