MODEL 1
REMARK minimizedAffinity 15.0878048
REMARK minimizedRMSD -1
REMARK  0 active torsions:
REMARK  status: ('A' for Active; 'I' for Inactive)
ROOT
ATOM      1  C4' PXY d   1       2.717  -2.696  -1.221  0.00  0.00     0.077 C 
ATOM      2  C1' PXY d   1       4.696   2.735  -1.204  0.00  0.00     0.077 C 
ATOM      3  C1  PXY d   1       4.174   1.312  -1.196  0.00  0.00    -0.082 A 
ATOM      4  C2  PXY d   1       4.597   0.455  -2.111  0.00  0.00     0.003 A 
ATOM      5  C3  PXY d   1       4.112  -0.827  -2.137  0.00  0.00     0.003 A 
ATOM      6  C4  PXY d   1       3.224  -1.252  -1.186  0.00  0.00    -0.082 A 
ATOM      7  C5  PXY d   1       2.795  -0.386  -0.242  0.00  0.00     0.003 A 
ATOM      8  C6  PXY d   1       3.269   0.923  -0.258  0.00  0.00     0.003 A 
ENDROOT
TORSDOF 0
ENDMDL
