MODEL 1
REMARK minimizedAffinity 14.4124565
REMARK minimizedRMSD -1
REMARK  0 active torsions:
REMARK  status: ('A' for Active; 'I' for Inactive)
ROOT
ATOM      1  C4' PXY d   1       3.222  -0.197  -0.574  0.00  0.00     0.077 C 
ATOM      2  C1' PXY d   1      -1.943   1.621   1.280  0.00  0.00     0.077 C 
ATOM      3  C1  PXY d   1      -0.583   1.147   0.806  0.00  0.00    -0.082 A 
ATOM      4  C2  PXY d   1      -0.308   1.141  -0.488  0.00  0.00     0.003 A 
ATOM      5  C3  PXY d   1       0.905   0.686  -0.937  0.00  0.00     0.003 A 
ATOM      6  C4  PXY d   1       1.866   0.282  -0.049  0.00  0.00    -0.082 A 
ATOM      7  C5  PXY d   1       1.596   0.295   1.274  0.00  0.00     0.003 A 
ATOM      8  C6  PXY d   1       0.344   0.722   1.706  0.00  0.00     0.003 A 
ENDROOT
TORSDOF 0
ENDMDL
