MODEL 1
REMARK minimizedAffinity 11.1446228
REMARK minimizedRMSD -1
REMARK  0 active torsions:
REMARK  status: ('A' for Active; 'I' for Inactive)
ROOT
ATOM      1  C4' PXY d   1       5.745   0.293   0.520  0.00  0.00     0.077 C 
ATOM      2  C1' PXY d   1       6.000   5.881  -0.936  0.00  0.00     0.077 C 
ATOM      3  C1  PXY d   1       5.939   4.419  -0.543  0.00  0.00    -0.082 A 
ATOM      4  C2  PXY d   1       5.823   3.493  -1.482  0.00  0.00     0.003 A 
ATOM      5  C3  PXY d   1       5.734   2.168  -1.142  0.00  0.00     0.003 A 
ATOM      6  C4  PXY d   1       5.819   1.782   0.169  0.00  0.00    -0.082 A 
ATOM      7  C5  PXY d   1       5.949   2.719   1.132  0.00  0.00     0.003 A 
ATOM      8  C6  PXY d   1       5.995   4.062   0.769  0.00  0.00     0.003 A 
ENDROOT
TORSDOF 0
ENDMDL
