MODEL 1
REMARK minimizedAffinity 8.19623566
REMARK minimizedRMSD -1
REMARK  0 active torsions:
REMARK  status: ('A' for Active; 'I' for Inactive)
ROOT
ATOM      1  C4' PXY d   1       4.821   0.954  -1.363  0.00  0.00     0.077 C 
ATOM      2  C1' PXY d   1       0.051  -0.088   1.731  0.00  0.00     0.077 C 
ATOM      3  C1  PXY d   1       1.303   0.172   0.917  0.00  0.00    -0.082 A 
ATOM      4  C2  PXY d   1       2.031   1.249   1.164  0.00  0.00     0.003 A 
ATOM      5  C3  PXY d   1       3.149   1.517   0.416  0.00  0.00     0.003 A 
ATOM      6  C4  PXY d   1       3.554   0.646  -0.560  0.00  0.00    -0.082 A 
ATOM      7  C5  PXY d   1       2.822  -0.460  -0.811  0.00  0.00     0.003 A 
ATOM      8  C6  PXY d   1       1.668  -0.692  -0.068  0.00  0.00     0.003 A 
ENDROOT
TORSDOF 0
ENDMDL
