MODEL 1
REMARK minimizedAffinity 15.8921442
REMARK minimizedRMSD -1
REMARK  0 active torsions:
REMARK  status: ('A' for Active; 'I' for Inactive)
ROOT
ATOM      1  C4' PXY d   1       6.000   5.999   0.438  0.00  0.00     0.077 C 
ATOM      2  C1' PXY d   1       5.032   0.310   0.107  0.00  0.00     0.077 C 
ATOM      3  C1  PXY d   1       5.285   1.801   0.207  0.00  0.00    -0.082 A 
ATOM      4  C2  PXY d   1       5.033   2.578  -0.834  0.00  0.00     0.003 A 
ATOM      5  C3  PXY d   1       5.286   3.925  -0.772  0.00  0.00     0.003 A 
ATOM      6  C4  PXY d   1       5.751   4.489   0.386  0.00  0.00    -0.082 A 
ATOM      7  C5  PXY d   1       6.000   3.704   1.456  0.00  0.00     0.003 A 
ATOM      8  C6  PXY d   1       5.776   2.334   1.358  0.00  0.00     0.003 A 
ENDROOT
TORSDOF 0
ENDMDL
