MODEL 1
REMARK minimizedAffinity 9.63092232
REMARK minimizedRMSD -1
REMARK  0 active torsions:
REMARK  status: ('A' for Active; 'I' for Inactive)
ROOT
ATOM      1  C4' PXY d   1       0.262   0.562  -0.370  0.00  0.00     0.077 C 
ATOM      2  C1' PXY d   1       6.000  -0.077  -0.669  0.00  0.00     0.077 C 
ATOM      3  C1  PXY d   1       4.493   0.080  -0.598  0.00  0.00    -0.082 A 
ATOM      4  C2  PXY d   1       3.968   1.283  -0.435  0.00  0.00     0.003 A 
ATOM      5  C3  PXY d   1       2.609   1.439  -0.336  0.00  0.00     0.003 A 
ATOM      6  C4  PXY d   1       1.777   0.358  -0.458  0.00  0.00    -0.082 A 
ATOM      7  C5  PXY d   1       2.305  -0.872  -0.634  0.00  0.00     0.003 A 
ATOM      8  C6  PXY d   1       3.689  -1.014  -0.691  0.00  0.00     0.003 A 
ENDROOT
TORSDOF 0
ENDMDL
