MODEL 1
REMARK minimizedAffinity 10.6338444
REMARK minimizedRMSD -1
REMARK  0 active torsions:
REMARK  status: ('A' for Active; 'I' for Inactive)
ROOT
ATOM      1  C4' PXY d   1       0.260   0.781  -0.298  0.00  0.00     0.077 C 
ATOM      2  C1' PXY d   1       5.998   0.203  -0.704  0.00  0.00     0.077 C 
ATOM      3  C1  PXY d   1       4.491   0.343  -0.602  0.00  0.00    -0.082 A 
ATOM      4  C2  PXY d   1       3.941   1.545  -0.649  0.00  0.00     0.003 A 
ATOM      5  C3  PXY d   1       2.583   1.691  -0.526  0.00  0.00     0.003 A 
ATOM      6  C4  PXY d   1       1.776   0.592  -0.407  0.00  0.00    -0.082 A 
ATOM      7  C5  PXY d   1       2.329  -0.639  -0.369  0.00  0.00     0.003 A 
ATOM      8  C6  PXY d   1       3.713  -0.763  -0.454  0.00  0.00     0.003 A 
ENDROOT
TORSDOF 0
ENDMDL
