MODEL 1
REMARK minimizedAffinity 12.0924892
REMARK minimizedRMSD -1
REMARK  0 active torsions:
REMARK  status: ('A' for Active; 'I' for Inactive)
ROOT
ATOM      1  C4' PXY d   1       3.044  -0.902  -0.751  0.00  0.00     0.077 C 
ATOM      2  C1' PXY d   1      -0.755  -5.248  -1.050  0.00  0.00     0.077 C 
ATOM      3  C1  PXY d   1       0.243  -4.111  -0.959  0.00  0.00    -0.082 A 
ATOM      4  C2  PXY d   1       0.199  -3.129  -1.845  0.00  0.00     0.003 A 
ATOM      5  C3  PXY d   1       1.114  -2.109  -1.797  0.00  0.00     0.003 A 
ATOM      6  C4  PXY d   1       2.050  -2.066  -0.799  0.00  0.00    -0.082 A 
ATOM      7  C5  PXY d   1       2.095  -3.058   0.116  0.00  0.00     0.003 A 
ATOM      8  C6  PXY d   1       1.183  -4.105   0.024  0.00  0.00     0.003 A 
ENDROOT
TORSDOF 0
ENDMDL
