MODEL 1
REMARK minimizedAffinity 4.66751003
REMARK minimizedRMSD -1
REMARK  0 active torsions:
REMARK  status: ('A' for Active; 'I' for Inactive)
ROOT
ATOM      1  C4' PXY d   1       1.678  -6.000   6.000  0.00  0.00     0.077 C 
ATOM      2  C1' PXY d   1      -0.536  -1.548   3.052  0.00  0.00     0.077 C 
ATOM      3  C1  PXY d   1       0.033  -2.718   3.830  0.00  0.00    -0.082 A 
ATOM      4  C2  PXY d   1       1.308  -2.712   4.182  0.00  0.00     0.003 A 
ATOM      5  C3  PXY d   1       1.847  -3.777   4.857  0.00  0.00     0.003 A 
ATOM      6  C4  PXY d   1       1.059  -4.835   5.223  0.00  0.00    -0.082 A 
ATOM      7  C5  PXY d   1      -0.246  -4.845   4.876  0.00  0.00     0.003 A 
ATOM      8  C6  PXY d   1      -0.763  -3.773   4.155  0.00  0.00     0.003 A 
ENDROOT
TORSDOF 0
ENDMDL
