MODEL 1
REMARK minimizedAffinity -0.699356079
REMARK minimizedRMSD -1
REMARK  0 active torsions:
REMARK  status: ('A' for Active; 'I' for Inactive)
ROOT
ATOM      1  C4' PXY d   1      -2.183   0.018   2.247  0.00  0.00     0.077 C 
ATOM      2  C1' PXY d   1       1.448  -0.487  -2.222  0.00  0.00     0.077 C 
ATOM      3  C1  PXY d   1       0.492  -0.367  -1.052  0.00  0.00    -0.082 A 
ATOM      4  C2  PXY d   1       0.037   0.824  -0.698  0.00  0.00     0.003 A 
ATOM      5  C3  PXY d   1      -0.803   0.954   0.378  0.00  0.00     0.003 A 
ATOM      6  C4  PXY d   1      -1.223  -0.152   1.066  0.00  0.00    -0.082 A 
ATOM      7  C5  PXY d   1      -0.772  -1.372   0.705  0.00  0.00     0.003 A 
ATOM      8  C6  PXY d   1       0.113  -1.478  -0.364  0.00  0.00     0.003 A 
ENDROOT
TORSDOF 0
ENDMDL
