MODEL 1
REMARK minimizedAffinity -3.22703505
REMARK minimizedRMSD -1
REMARK  0 active torsions:
REMARK  status: ('A' for Active; 'I' for Inactive)
ROOT
ATOM      1  C4' PXY d   1       5.145   5.903  -0.194  0.00  0.00     0.077 C 
ATOM      2  C1' PXY d   1       4.425   5.971  -5.929  0.00  0.00     0.077 C 
ATOM      3  C1  PXY d   1       4.602   5.959  -4.423  0.00  0.00    -0.082 A 
ATOM      4  C2  PXY d   1       5.820   5.973  -3.908  0.00  0.00     0.003 A 
ATOM      5  C3  PXY d   1       5.999   5.929  -2.549  0.00  0.00     0.003 A 
ATOM      6  C4  PXY d   1       4.918   5.925  -1.708  0.00  0.00    -0.082 A 
ATOM      7  C5  PXY d   1       3.672   5.921  -2.226  0.00  0.00     0.003 A 
ATOM      8  C6  PXY d   1       3.512   5.924  -3.609  0.00  0.00     0.003 A 
ENDROOT
TORSDOF 0
ENDMDL
