MODEL 1
REMARK minimizedAffinity -4.41839123
REMARK minimizedRMSD -1
REMARK  0 active torsions:
REMARK  status: ('A' for Active; 'I' for Inactive)
ROOT
ATOM      1  C4' PXY d   1       2.791   0.125  -2.732  0.00  0.00     0.077 C 
ATOM      2  C1' PXY d   1      -1.869   0.144   0.689  0.00  0.00     0.077 C 
ATOM      3  C1  PXY d   1      -0.641   0.130  -0.200  0.00  0.00    -0.082 A 
ATOM      4  C2  PXY d   1      -0.376   1.176  -0.966  0.00  0.00     0.003 A 
ATOM      5  C3  PXY d   1       0.712   1.167  -1.800  0.00  0.00     0.003 A 
ATOM      6  C4  PXY d   1       1.568   0.099  -1.811  0.00  0.00    -0.082 A 
ATOM      7  C5  PXY d   1       1.311  -0.968  -1.024  0.00  0.00     0.003 A 
ATOM      8  C6  PXY d   1       0.178  -0.956  -0.215  0.00  0.00     0.003 A 
ENDROOT
TORSDOF 0
ENDMDL
