MODEL 1
REMARK minimizedAffinity -4.79947233
REMARK minimizedRMSD -1
REMARK  0 active torsions:
REMARK  status: ('A' for Active; 'I' for Inactive)
ROOT
ATOM      1  C4' PXY d   1      -2.410   2.422   3.168  0.00  0.00     0.077 C 
ATOM      2  C1' PXY d   1       0.389  -2.186   1.080  0.00  0.00     0.077 C 
ATOM      3  C1  PXY d   1      -0.346  -0.983   1.640  0.00  0.00    -0.082 A 
ATOM      4  C2  PXY d   1      -1.028  -0.196   0.824  0.00  0.00     0.003 A 
ATOM      5  C3  PXY d   1      -1.671   0.914   1.308  0.00  0.00     0.003 A 
ATOM      6  C4  PXY d   1      -1.661   1.191   2.649  0.00  0.00    -0.082 A 
ATOM      7  C5  PXY d   1      -0.976   0.387   3.489  0.00  0.00     0.003 A 
ATOM      8  C6  PXY d   1      -0.295  -0.712   2.972  0.00  0.00     0.003 A 
ENDROOT
TORSDOF 0
ENDMDL
