MODEL 1
REMARK minimizedAffinity -1.20309508
REMARK minimizedRMSD -1
REMARK  0 active torsions:
REMARK  status: ('A' for Active; 'I' for Inactive)
ROOT
ATOM      1  C4' PXY d   1      -1.327   0.508   2.384  0.00  0.00     0.077 C 
ATOM      2  C1' PXY d   1       1.968  -1.087  -2.089  0.00  0.00     0.077 C 
ATOM      3  C1  PXY d   1       1.102  -0.657  -0.921  0.00  0.00    -0.082 A 
ATOM      4  C2  PXY d   1       1.216  -1.279   0.241  0.00  0.00     0.003 A 
ATOM      5  C3  PXY d   1       0.418  -0.924   1.298  0.00  0.00     0.003 A 
ATOM      6  C4  PXY d   1      -0.467   0.114   1.181  0.00  0.00    -0.082 A 
ATOM      7  C5  PXY d   1      -0.581   0.760   0.001  0.00  0.00     0.003 A 
ATOM      8  C6  PXY d   1       0.208   0.358  -1.072  0.00  0.00     0.003 A 
ENDROOT
TORSDOF 0
ENDMDL
