MODEL 1
REMARK minimizedAffinity -1.78225851
REMARK minimizedRMSD -1
REMARK  0 active torsions:
REMARK  status: ('A' for Active; 'I' for Inactive)
ROOT
ATOM      1  C4' PXY d   1      -2.235   0.707   1.921  0.00  0.00     0.077 C 
ATOM      2  C1' PXY d   1       1.926  -1.100  -1.662  0.00  0.00     0.077 C 
ATOM      3  C1  PXY d   1       0.837  -0.614  -0.726  0.00  0.00    -0.082 A 
ATOM      4  C2  PXY d   1       0.486  -1.357   0.312  0.00  0.00     0.003 A 
ATOM      5  C3  PXY d   1      -0.518  -0.947   1.150  0.00  0.00     0.003 A 
ATOM      6  C4  PXY d   1      -1.134   0.260   0.955  0.00  0.00    -0.082 A 
ATOM      7  C5  PXY d   1      -0.774   1.029  -0.095  0.00  0.00     0.003 A 
ATOM      8  C6  PXY d   1       0.220   0.576  -0.958  0.00  0.00     0.003 A 
ENDROOT
TORSDOF 0
ENDMDL
