MODEL 1
REMARK minimizedAffinity -4.68548918
REMARK minimizedRMSD -1
REMARK  0 active torsions:
REMARK  status: ('A' for Active; 'I' for Inactive)
ROOT
ATOM      1  C4' PXY d   1      -2.275   0.340   1.642  0.00  0.00     0.077 C 
ATOM      2  C1' PXY d   1       2.084  -1.198  -1.830  0.00  0.00     0.077 C 
ATOM      3  C1  PXY d   1       0.944  -0.782  -0.922  0.00  0.00    -0.082 A 
ATOM      4  C2  PXY d   1       0.511  -1.617   0.010  0.00  0.00     0.003 A 
ATOM      5  C3  PXY d   1      -0.540  -1.270   0.819  0.00  0.00     0.003 A 
ATOM      6  C4  PXY d   1      -1.120  -0.034   0.709  0.00  0.00    -0.082 A 
ATOM      7  C5  PXY d   1      -0.678   0.827  -0.232  0.00  0.00     0.003 A 
ATOM      8  C6  PXY d   1       0.364   0.440  -1.070  0.00  0.00     0.003 A 
ENDROOT
TORSDOF 0
ENDMDL
