MODEL 1
REMARK minimizedAffinity -3.3724122
REMARK minimizedRMSD -1
REMARK  0 active torsions:
REMARK  status: ('A' for Active; 'I' for Inactive)
ROOT
ATOM      1  C4' PXY d   1      -2.390   0.208   1.976  0.00  0.00     0.077 C 
ATOM      2  C1' PXY d   1       2.041  -1.195  -1.462  0.00  0.00     0.077 C 
ATOM      3  C1  PXY d   1       0.884  -0.815  -0.560  0.00  0.00    -0.082 A 
ATOM      4  C2  PXY d   1       0.248  -1.755   0.120  0.00  0.00     0.003 A 
ATOM      5  C3  PXY d   1      -0.821  -1.433   0.917  0.00  0.00     0.003 A 
ATOM      6  C4  PXY d   1      -1.210  -0.129   1.060  0.00  0.00    -0.082 A 
ATOM      7  C5  PXY d   1      -0.560   0.838   0.377  0.00  0.00     0.003 A 
ATOM      8  C6  PXY d   1       0.496   0.486  -0.458  0.00  0.00     0.003 A 
ENDROOT
TORSDOF 0
ENDMDL
