MODEL 1
REMARK minimizedAffinity -2.07685804
REMARK minimizedRMSD -1
REMARK  0 active torsions:
REMARK  status: ('A' for Active; 'I' for Inactive)
ROOT
ATOM      1  C4' PXY d   1       1.747   1.754  -2.983  0.00  0.00     0.077 C 
ATOM      2  C1' PXY d   1       0.615  -2.482   0.784  0.00  0.00     0.077 C 
ATOM      3  C1  PXY d   1       0.924  -1.376  -0.205  0.00  0.00    -0.082 A 
ATOM      4  C2  PXY d   1       0.208  -0.264  -0.187  0.00  0.00     0.003 A 
ATOM      5  C3  PXY d   1       0.453   0.734  -1.095  0.00  0.00     0.003 A 
ATOM      6  C4  PXY d   1       1.477   0.614  -1.997  0.00  0.00    -0.082 A 
ATOM      7  C5  PXY d   1       2.219  -0.513  -2.014  0.00  0.00     0.003 A 
ATOM      8  C6  PXY d   1       1.928  -1.531  -1.111  0.00  0.00     0.003 A 
ENDROOT
TORSDOF 0
ENDMDL
