MODEL 1
REMARK minimizedAffinity 0.245191142
REMARK minimizedRMSD -1
REMARK  0 active torsions:
REMARK  status: ('A' for Active; 'I' for Inactive)
ROOT
ATOM      1  C4' PXY d   1      -2.062   0.608   2.098  0.00  0.00     0.077 C 
ATOM      2  C1' PXY d   1       1.806  -1.689  -1.532  0.00  0.00     0.077 C 
ATOM      3  C1  PXY d   1       0.797  -1.075  -0.583  0.00  0.00    -0.082 A 
ATOM      4  C2  PXY d   1       0.305  -1.800   0.408  0.00  0.00     0.003 A 
ATOM      5  C3  PXY d   1      -0.633  -1.271   1.256  0.00  0.00     0.003 A 
ATOM      6  C4  PXY d   1      -1.033   0.032   1.121  0.00  0.00    -0.082 A 
ATOM      7  C5  PXY d   1      -0.528   0.782   0.119  0.00  0.00     0.003 A 
ATOM      8  C6  PXY d   1       0.393   0.213  -0.756  0.00  0.00     0.003 A 
ENDROOT
TORSDOF 0
ENDMDL
