MODEL 1
REMARK minimizedAffinity -2.12849689
REMARK minimizedRMSD -1
REMARK  0 active torsions:
REMARK  status: ('A' for Active; 'I' for Inactive)
ROOT
ATOM      1  C4' PXY d   1      -2.182   0.767   1.951  0.00  0.00     0.077 C 
ATOM      2  C1' PXY d   1       1.972  -1.231  -1.537  0.00  0.00     0.077 C 
ATOM      3  C1  PXY d   1       0.890  -0.696  -0.620  0.00  0.00    -0.082 A 
ATOM      4  C2  PXY d   1       0.056  -1.539  -0.030  0.00  0.00     0.003 A 
ATOM      5  C3  PXY d   1      -0.948  -1.070   0.777  0.00  0.00     0.003 A 
ATOM      6  C4  PXY d   1      -1.068   0.271   1.025  0.00  0.00    -0.082 A 
ATOM      7  C5  PXY d   1      -0.216   1.136   0.436  0.00  0.00     0.003 A 
ATOM      8  C6  PXY d   1       0.772   0.643  -0.412  0.00  0.00     0.003 A 
ENDROOT
TORSDOF 0
ENDMDL
