MODEL 1
REMARK minimizedAffinity -2.52852535
REMARK minimizedRMSD -1
REMARK  0 active torsions:
REMARK  status: ('A' for Active; 'I' for Inactive)
ROOT
ATOM      1  C4' PXY d   1       1.509   1.817  -3.309  0.00  0.00     0.077 C 
ATOM      2  C1' PXY d   1       0.374  -1.988   0.892  0.00  0.00     0.077 C 
ATOM      3  C1  PXY d   1       0.684  -0.995  -0.211  0.00  0.00    -0.082 A 
ATOM      4  C2  PXY d   1       0.010   0.142  -0.275  0.00  0.00     0.003 A 
ATOM      5  C3  PXY d   1       0.255   1.037  -1.285  0.00  0.00     0.003 A 
ATOM      6  C4  PXY d   1       1.236   0.789  -2.207  0.00  0.00    -0.082 A 
ATOM      7  C5  PXY d   1       1.935  -0.364  -2.142  0.00  0.00     0.003 A 
ATOM      8  C6  PXY d   1       1.643  -1.278  -1.134  0.00  0.00     0.003 A 
ENDROOT
TORSDOF 0
ENDMDL
