MODEL 1
REMARK minimizedAffinity -3.68943095
REMARK minimizedRMSD -1
REMARK  0 active torsions:
REMARK  status: ('A' for Active; 'I' for Inactive)
ROOT
ATOM      1  C4' PXY d   1       1.607   1.706  -2.922  0.00  0.00     0.077 C 
ATOM      2  C1' PXY d   1       0.182  -2.377   0.913  0.00  0.00     0.077 C 
ATOM      3  C1  PXY d   1       0.568  -1.310  -0.092  0.00  0.00    -0.082 A 
ATOM      4  C2  PXY d   1      -0.189  -0.233  -0.226  0.00  0.00     0.003 A 
ATOM      5  C3  PXY d   1       0.128   0.726  -1.153  0.00  0.00     0.003 A 
ATOM      6  C4  PXY d   1       1.261   0.608  -1.913  0.00  0.00    -0.082 A 
ATOM      7  C5  PXY d   1       2.044  -0.483  -1.774  0.00  0.00     0.003 A 
ATOM      8  C6  PXY d   1       1.683  -1.465  -0.857  0.00  0.00     0.003 A 
ENDROOT
TORSDOF 0
ENDMDL
