MODEL 1
REMARK minimizedAffinity -3.12372184
REMARK minimizedRMSD -1
REMARK  0 active torsions:
REMARK  status: ('A' for Active; 'I' for Inactive)
ROOT
ATOM      1  C4' PXY d   1       0.676  -1.430  -0.738  0.00  0.00     0.077 C 
ATOM      2  C1' PXY d   1      -2.643   1.887   2.638  0.00  0.00     0.077 C 
ATOM      3  C1  PXY d   1      -1.782   1.016   1.744  0.00  0.00    -0.082 A 
ATOM      4  C2  PXY d   1      -0.771   0.341   2.266  0.00  0.00     0.003 A 
ATOM      5  C3  PXY d   1       0.036  -0.427   1.467  0.00  0.00     0.003 A 
ATOM      6  C4  PXY d   1      -0.225  -0.545   0.128  0.00  0.00    -0.082 A 
ATOM      7  C5  PXY d   1      -1.261   0.132  -0.410  0.00  0.00     0.003 A 
ATOM      8  C6  PXY d   1      -2.044   0.938   0.411  0.00  0.00     0.003 A 
ENDROOT
TORSDOF 0
ENDMDL
