MODEL 1
REMARK minimizedAffinity -2.34708858
REMARK minimizedRMSD -1
REMARK  0 active torsions:
REMARK  status: ('A' for Active; 'I' for Inactive)
ROOT
ATOM      1  C4' PXY d   1       2.149  -1.572  -2.197  0.00  0.00     0.077 C 
ATOM      2  C1' PXY d   1      -1.239   2.717  -0.317  0.00  0.00     0.077 C 
ATOM      3  C1  PXY d   1      -0.351   1.587  -0.798  0.00  0.00    -0.082 A 
ATOM      4  C2  PXY d   1       0.440   1.775  -1.842  0.00  0.00     0.003 A 
ATOM      5  C3  PXY d   1       1.226   0.754  -2.310  0.00  0.00     0.003 A 
ATOM      6  C4  PXY d   1       1.242  -0.456  -1.671  0.00  0.00    -0.082 A 
ATOM      7  C5  PXY d   1       0.446  -0.653  -0.598  0.00  0.00     0.003 A 
ATOM      8  C6  PXY d   1      -0.375   0.383  -0.164  0.00  0.00     0.003 A 
ENDROOT
TORSDOF 0
ENDMDL
