MODEL 1
REMARK minimizedAffinity -3.64132476
REMARK minimizedRMSD -1
REMARK  0 active torsions:
REMARK  status: ('A' for Active; 'I' for Inactive)
ROOT
ATOM      1  C4' PXY d   1       1.158   1.934  -3.383  0.00  0.00     0.077 C 
ATOM      2  C1' PXY d   1       1.007  -2.420   0.416  0.00  0.00     0.077 C 
ATOM      3  C1  PXY d   1       1.059  -1.282  -0.584  0.00  0.00    -0.082 A 
ATOM      4  C2  PXY d   1       0.299  -0.214  -0.400  0.00  0.00     0.003 A 
ATOM      5  C3  PXY d   1       0.309   0.810  -1.311  0.00  0.00     0.003 A 
ATOM      6  C4  PXY d   1       1.146   0.765  -2.394  0.00  0.00    -0.082 A 
ATOM      7  C5  PXY d   1       1.932  -0.316  -2.584  0.00  0.00     0.003 A 
ATOM      8  C6  PXY d   1       1.876  -1.364  -1.669  0.00  0.00     0.003 A 
ENDROOT
TORSDOF 0
ENDMDL
