MODEL 1
REMARK minimizedAffinity -4.02173328
REMARK minimizedRMSD -1
REMARK  0 active torsions:
REMARK  status: ('A' for Active; 'I' for Inactive)
ROOT
ATOM      1  C4' PXY d   1      -2.142   0.214   2.392  0.00  0.00     0.077 C 
ATOM      2  C1' PXY d   1       1.490  -1.598  -1.723  0.00  0.00     0.077 C 
ATOM      3  C1  PXY d   1       0.542  -1.111  -0.645  0.00  0.00    -0.082 A 
ATOM      4  C2  PXY d   1       0.107  -1.957   0.274  0.00  0.00     0.003 A 
ATOM      5  C3  PXY d   1      -0.776  -1.540   1.237  0.00  0.00     0.003 A 
ATOM      6  C4  PXY d   1      -1.176  -0.232   1.291  0.00  0.00    -0.082 A 
ATOM      7  C5  PXY d   1      -0.728   0.640   0.363  0.00  0.00     0.003 A 
ATOM      8  C6  PXY d   1       0.135   0.188  -0.631  0.00  0.00     0.003 A 
ENDROOT
TORSDOF 0
ENDMDL
