MODEL 1
REMARK minimizedAffinity -4.01676035
REMARK minimizedRMSD -1
REMARK  0 active torsions:
REMARK  status: ('A' for Active; 'I' for Inactive)
ROOT
ATOM      1  C4' PXY d   1       1.163  -2.977  -0.045  0.00  0.00     0.077 C 
ATOM      2  C1' PXY d   1      -0.484   2.345  -1.587  0.00  0.00     0.077 C 
ATOM      3  C1  PXY d   1      -0.062   0.949  -1.173  0.00  0.00    -0.082 A 
ATOM      4  C2  PXY d   1       1.174   0.542  -1.413  0.00  0.00     0.003 A 
ATOM      5  C3  PXY d   1       1.564  -0.729  -1.075  0.00  0.00     0.003 A 
ATOM      6  C4  PXY d   1       0.695  -1.573  -0.436  0.00  0.00    -0.082 A 
ATOM      7  C5  PXY d   1      -0.564  -1.161  -0.178  0.00  0.00     0.003 A 
ATOM      8  C6  PXY d   1      -0.952   0.118  -0.567  0.00  0.00     0.003 A 
ENDROOT
TORSDOF 0
ENDMDL
