MODEL 1
REMARK minimizedAffinity 0.986158609
REMARK minimizedRMSD -1
REMARK  0 active torsions:
REMARK  status: ('A' for Active; 'I' for Inactive)
ROOT
ATOM      1  C4' PXY d   1      -2.730  -0.614   3.550  0.00  0.00     0.077 C 
ATOM      2  C1' PXY d   1      -0.503   1.985  -1.108  0.00  0.00     0.077 C 
ATOM      3  C1  PXY d   1      -1.081   1.312   0.121  0.00  0.00    -0.082 A 
ATOM      4  C2  PXY d   1      -1.512   0.063   0.042  0.00  0.00     0.003 A 
ATOM      5  C3  PXY d   1      -2.066  -0.550   1.135  0.00  0.00     0.003 A 
ATOM      6  C4  PXY d   1      -2.131   0.103   2.337  0.00  0.00    -0.082 A 
ATOM      7  C5  PXY d   1      -1.684   1.373   2.429  0.00  0.00     0.003 A 
ATOM      8  C6  PXY d   1      -1.162   1.992   1.297  0.00  0.00     0.003 A 
ENDROOT
TORSDOF 0
ENDMDL
