MODEL 1
REMARK minimizedAffinity -2.48716116
REMARK minimizedRMSD -1
REMARK  0 active torsions:
REMARK  status: ('A' for Active; 'I' for Inactive)
ROOT
ATOM      1  C4' PXY d   1       0.896   2.190  -2.685  0.00  0.00     0.077 C 
ATOM      2  C1' PXY d   1       1.208  -2.593   0.546  0.00  0.00     0.077 C 
ATOM      3  C1  PXY d   1       1.138  -1.340  -0.304  0.00  0.00    -0.082 A 
ATOM      4  C2  PXY d   1       0.221  -0.423  -0.045  0.00  0.00     0.003 A 
ATOM      5  C3  PXY d   1       0.123   0.701  -0.824  0.00  0.00     0.003 A 
ATOM      6  C4  PXY d   1       1.009   0.914  -1.846  0.00  0.00    -0.082 A 
ATOM      7  C5  PXY d   1       1.955  -0.012  -2.111  0.00  0.00     0.003 A 
ATOM      8  C6  PXY d   1       2.010  -1.166  -1.334  0.00  0.00     0.003 A 
ENDROOT
TORSDOF 0
ENDMDL
