MODEL 1
REMARK minimizedAffinity -2.91916871
REMARK minimizedRMSD -1
REMARK  0 active torsions:
REMARK  status: ('A' for Active; 'I' for Inactive)
ROOT
ATOM      1  C1  BNZ d   1       0.873  -0.700   0.325  0.00  0.00     0.000 A 
ATOM      2  C2  BNZ d   1       0.825   0.631   0.646  0.00  0.00     0.000 A 
ATOM      3  C3  BNZ d   1      -0.098   1.458   0.068  0.00  0.00     0.000 A 
ATOM      4  C4  BNZ d   1      -0.944   0.962  -0.858  0.00  0.00     0.000 A 
ATOM      5  C5  BNZ d   1      -0.902  -0.375  -1.199  0.00  0.00     0.000 A 
ATOM      6  C6  BNZ d   1       0.002  -1.212  -0.587  0.00  0.00     0.000 A 
ENDROOT
TORSDOF 0
ENDMDL
