MODEL 1
REMARK minimizedAffinity -1.54660845
REMARK minimizedRMSD -1
REMARK  0 active torsions:
REMARK  status: ('A' for Active; 'I' for Inactive)
ROOT
ATOM      1  C1  BNZ d   1       1.726  -1.853   1.730  0.00  0.00     0.000 A 
ATOM      2  C2  BNZ d   1       1.512  -0.704   2.443  0.00  0.00     0.000 A 
ATOM      3  C3  BNZ d   1       1.462   0.510   1.816  0.00  0.00     0.000 A 
ATOM      4  C4  BNZ d   1       1.666   0.576   0.484  0.00  0.00     0.000 A 
ATOM      5  C5  BNZ d   1       1.892  -0.573  -0.247  0.00  0.00     0.000 A 
ATOM      6  C6  BNZ d   1       1.903  -1.796   0.382  0.00  0.00     0.000 A 
ENDROOT
TORSDOF 0
ENDMDL
