MODEL 1
REMARK minimizedAffinity 2.42209053
REMARK minimizedRMSD -1
REMARK  0 active torsions:
REMARK  status: ('A' for Active; 'I' for Inactive)
ROOT
ATOM      1  C1  BNZ d   1       1.034  -3.211  -0.761  0.00  0.00     0.000 A 
ATOM      2  C2  BNZ d   1      -0.265  -2.872  -1.030  0.00  0.00     0.000 A 
ATOM      3  C3  BNZ d   1      -0.669  -1.567  -0.998  0.00  0.00     0.000 A 
ATOM      4  C4  BNZ d   1       0.216  -0.607  -0.659  0.00  0.00     0.000 A 
ATOM      5  C5  BNZ d   1       1.527  -0.934  -0.375  0.00  0.00     0.000 A 
ATOM      6  C6  BNZ d   1       1.939  -2.245  -0.446  0.00  0.00     0.000 A 
ENDROOT
TORSDOF 0
ENDMDL
