MODEL 1
REMARK minimizedAffinity 3.37667799
REMARK minimizedRMSD -1
REMARK  0 active torsions:
REMARK  status: ('A' for Active; 'I' for Inactive)
ROOT
ATOM      1  C1  BNZ d   1       2.433  -3.340  -1.842  0.00  0.00     0.000 A 
ATOM      2  C2  BNZ d   1       3.442  -2.989  -2.698  0.00  0.00     0.000 A 
ATOM      3  C3  BNZ d   1       4.068  -1.779  -2.582  0.00  0.00     0.000 A 
ATOM      4  C4  BNZ d   1       3.658  -0.907  -1.638  0.00  0.00     0.000 A 
ATOM      5  C5  BNZ d   1       2.635  -1.244  -0.774  0.00  0.00     0.000 A 
ATOM      6  C6  BNZ d   1       2.034  -2.478  -0.868  0.00  0.00     0.000 A 
ENDROOT
TORSDOF 0
ENDMDL
