MODEL 1
REMARK minimizedAffinity 4.6288805
REMARK minimizedRMSD -1
REMARK  0 active torsions:
REMARK  status: ('A' for Active; 'I' for Inactive)
ROOT
ATOM      1  C1  BNZ d   1      -1.956  -4.344   6.000  0.00  0.00     0.000 A 
ATOM      2  C2  BNZ d   1      -1.440  -3.075   5.999  0.00  0.00     0.000 A 
ATOM      3  C3  BNZ d   1      -0.089  -2.869   5.972  0.00  0.00     0.000 A 
ATOM      4  C4  BNZ d   1       0.744  -3.930   5.986  0.00  0.00     0.000 A 
ATOM      5  C5  BNZ d   1       0.239  -5.215   5.996  0.00  0.00     0.000 A 
ATOM      6  C6  BNZ d   1      -1.122  -5.419   5.984  0.00  0.00     0.000 A 
ENDROOT
TORSDOF 0
ENDMDL
