MODEL 1
REMARK minimizedAffinity 5.16368389
REMARK minimizedRMSD -1
REMARK  0 active torsions:
REMARK  status: ('A' for Active; 'I' for Inactive)
ROOT
ATOM      1  C1  BNZ d   1       3.178  -2.299  -2.667  0.00  0.00     0.000 A 
ATOM      2  C2  BNZ d   1       2.260  -2.962  -1.897  0.00  0.00     0.000 A 
ATOM      3  C3  BNZ d   1       1.979  -2.543  -0.627  0.00  0.00     0.000 A 
ATOM      4  C4  BNZ d   1       2.644  -1.487  -0.115  0.00  0.00     0.000 A 
ATOM      5  C5  BNZ d   1       3.579  -0.813  -0.876  0.00  0.00     0.000 A 
ATOM      6  C6  BNZ d   1       3.831  -1.215  -2.168  0.00  0.00     0.000 A 
ENDROOT
TORSDOF 0
ENDMDL
