MODEL 1
REMARK minimizedAffinity 6.93088341
REMARK minimizedRMSD -1
REMARK  0 active torsions:
REMARK  status: ('A' for Active; 'I' for Inactive)
ROOT
ATOM      1  C1  BNZ d   1       3.950   5.913   5.048  0.00  0.00     0.000 A 
ATOM      2  C2  BNZ d   1       4.000   4.920   4.106  0.00  0.00     0.000 A 
ATOM      3  C3  BNZ d   1       5.011   4.000   4.111  0.00  0.00     0.000 A 
ATOM      4  C4  BNZ d   1       5.991   4.098   5.032  0.00  0.00     0.000 A 
ATOM      5  C5  BNZ d   1       5.959   5.098   5.983  0.00  0.00     0.000 A 
ATOM      6  C6  BNZ d   1       4.919   5.999   5.999  0.00  0.00     0.000 A 
ENDROOT
TORSDOF 0
ENDMDL
