MODEL 1
REMARK minimizedAffinity -2.95336986
REMARK minimizedRMSD -1
REMARK  1 active torsions:
REMARK  status: ('A' for Active; 'I' for Inactive)
REMARK    1  A    between atoms: C1_2  and  C2_3 
ROOT
ATOM      1  C2  UNL d   1       0.159  -0.228   0.640  0.00  0.00    -0.077 A 
ATOM      2  C3  UNL d   1       0.742  -0.240   1.915  0.00  0.00     0.002 A 
ATOM      3  C4  UNL d   1       0.012   0.178   3.030  0.00  0.00     0.002 A 
ATOM      4  C5  UNL d   1      -1.305   0.608   2.881  0.00  0.00    -0.004 A 
ATOM      5  C6  UNL d   1      -1.893   0.626   1.616  0.00  0.00     0.002 A 
ATOM      6  C7  UNL d   1      -1.165   0.209   0.501  0.00  0.00     0.002 A 
ENDROOT
BRANCH   1   7
ATOM      7  C1  UNL d   1       0.928  -0.725  -0.556  0.00  0.00     0.055 C 
ATOM      8  C   UNL d   1       0.178  -0.450  -1.850  0.00  0.00     0.019 C 
ENDBRANCH   1   7
TORSDOF 1
ENDMDL
