MODEL 1
REMARK minimizedAffinity -2.30528092
REMARK minimizedRMSD -1
REMARK  1 active torsions:
REMARK  status: ('A' for Active; 'I' for Inactive)
REMARK    1  A    between atoms: C1_2  and  C2_3 
ROOT
ATOM      1  C2  UNL d   1       0.287  -0.385  -1.985  0.00  0.00    -0.077 A 
ATOM      2  C3  UNL d   1      -0.966  -0.130  -1.410  0.00  0.00     0.002 A 
ATOM      3  C4  UNL d   1      -1.113  -0.095  -0.022  0.00  0.00     0.002 A 
ATOM      4  C5  UNL d   1      -0.010  -0.309   0.802  0.00  0.00    -0.004 A 
ATOM      5  C6  UNL d   1       1.240  -0.565   0.240  0.00  0.00     0.002 A 
ATOM      6  C7  UNL d   1       1.388  -0.602  -1.147  0.00  0.00     0.002 A 
ENDROOT
BRANCH   1   7
ATOM      7  C1  UNL d   1       0.456  -0.375  -3.481  0.00  0.00     0.055 C 
ATOM      8  C   UNL d   1       1.702   0.397  -3.892  0.00  0.00     0.019 C 
ENDBRANCH   1   7
TORSDOF 1
ENDMDL
