MODEL 1
REMARK minimizedAffinity -2.1345346
REMARK minimizedRMSD -1
REMARK  1 active torsions:
REMARK  status: ('A' for Active; 'I' for Inactive)
REMARK    1  A    between atoms: C1_2  and  C2_3 
ROOT
ATOM      1  C2  UNL d   1       0.788  -0.264   0.686  0.00  0.00    -0.077 A 
ATOM      2  C3  UNL d   1       0.066   0.213   1.789  0.00  0.00     0.002 A 
ATOM      3  C4  UNL d   1      -1.263   0.614   1.644  0.00  0.00     0.002 A 
ATOM      4  C5  UNL d   1      -1.883   0.539   0.398  0.00  0.00    -0.004 A 
ATOM      5  C6  UNL d   1      -1.173   0.068  -0.705  0.00  0.00     0.002 A 
ATOM      6  C7  UNL d   1       0.156  -0.332  -0.562  0.00  0.00     0.002 A 
ENDROOT
BRANCH   1   7
ATOM      7  C1  UNL d   1       2.206  -0.743   0.851  0.00  0.00     0.055 C 
ATOM      8  C   UNL d   1       2.752  -0.393   2.228  0.00  0.00     0.019 C 
ENDBRANCH   1   7
TORSDOF 1
ENDMDL
