MODEL 1
REMARK minimizedAffinity -4.16200018
REMARK minimizedRMSD -1
REMARK  1 active torsions:
REMARK  status: ('A' for Active; 'I' for Inactive)
REMARK    1  A    between atoms: C1_2  and  C2_3 
ROOT
ATOM      1  C2  UNL d   1      -0.401  -0.074  -0.528  0.00  0.00    -0.077 A 
ATOM      2  C3  UNL d   1       0.141  -0.256   0.753  0.00  0.00     0.002 A 
ATOM      3  C4  UNL d   1      -0.558   0.173   1.883  0.00  0.00     0.002 A 
ATOM      4  C5  UNL d   1      -1.802   0.785   1.744  0.00  0.00    -0.004 A 
ATOM      5  C6  UNL d   1      -2.348   0.973   0.475  0.00  0.00     0.002 A 
ATOM      6  C7  UNL d   1      -1.651   0.545  -0.656  0.00  0.00     0.002 A 
ENDROOT
BRANCH   1   7
ATOM      7  C1  UNL d   1       0.328  -0.581  -1.744  0.00  0.00     0.055 C 
ATOM      8  C   UNL d   1       0.943   0.563  -2.538  0.00  0.00     0.019 C 
ENDBRANCH   1   7
TORSDOF 1
ENDMDL
