MODEL 1
REMARK minimizedAffinity 8.63248253
REMARK minimizedRMSD -1
REMARK  0 active torsions:
REMARK  status: ('A' for Active; 'I' for Inactive)
ROOT
ATOM      1  C   UNL d   1       0.024  -0.256   1.736  0.00  0.00     0.077 C 
ATOM      2  C1  UNL d   1       0.827  -1.247   2.525  0.00  0.00    -0.074 A 
ATOM      3  C2  UNL d   1       1.961  -1.854   1.976  0.00  0.00    -0.005 A 
ATOM      4  C3  UNL d   1       2.702  -2.767   2.726  0.00  0.00     0.006 A 
ATOM      5  C4  UNL d   1       2.318  -3.082   4.030  0.00  0.00    -0.005 A 
ATOM      6  C5  UNL d   1       1.187  -2.485   4.596  0.00  0.00    -0.074 A 
ATOM      7  C6  UNL d   1       0.766  -2.805   5.999  0.00  0.00     0.077 C 
ATOM      8  C7  UNL d   1       0.451  -1.563   3.839  0.00  0.00    -0.001 A 
ENDROOT
TORSDOF 0
ENDMDL
