MODEL 1
REMARK minimizedAffinity 4.05507946
REMARK minimizedRMSD -1
REMARK  0 active torsions:
REMARK  status: ('A' for Active; 'I' for Inactive)
ROOT
ATOM      1  C   UNL d   1       1.542   2.661   3.088  0.00  0.00     0.077 C 
ATOM      2  C1  UNL d   1       1.610   1.246   2.596  0.00  0.00    -0.074 A 
ATOM      3  C2  UNL d   1       2.422   0.899   1.511  0.00  0.00    -0.005 A 
ATOM      4  C3  UNL d   1       2.481  -0.423   1.071  0.00  0.00     0.006 A 
ATOM      5  C4  UNL d   1       1.731  -1.411   1.710  0.00  0.00    -0.005 A 
ATOM      6  C5  UNL d   1       0.914  -1.083   2.797  0.00  0.00    -0.074 A 
ATOM      7  C6  UNL d   1       0.109  -2.134   3.501  0.00  0.00     0.077 C 
ATOM      8  C7  UNL d   1       0.865   0.246   3.238  0.00  0.00    -0.001 A 
ENDROOT
TORSDOF 0
ENDMDL
