MODEL 1
REMARK minimizedAffinity 15.241828
REMARK minimizedRMSD -1
REMARK  0 active torsions:
REMARK  status: ('A' for Active; 'I' for Inactive)
ROOT
ATOM      1  C   UNL d   1      -5.933  -2.239  -1.467  0.00  0.00     0.077 C 
ATOM      2  C1  UNL d   1      -5.305  -0.939  -1.873  0.00  0.00    -0.074 A 
ATOM      3  C2  UNL d   1      -4.131  -0.914  -2.633  0.00  0.00    -0.005 A 
ATOM      4  C3  UNL d   1      -3.564   0.302  -3.011  0.00  0.00     0.006 A 
ATOM      5  C4  UNL d   1      -4.163   1.505  -2.633  0.00  0.00    -0.005 A 
ATOM      6  C5  UNL d   1      -5.338   1.499  -1.874  0.00  0.00    -0.074 A 
ATOM      7  C6  UNL d   1      -6.000   2.782  -1.468  0.00  0.00     0.077 C 
ATOM      8  C7  UNL d   1      -5.906   0.273  -1.504  0.00  0.00    -0.001 A 
ENDROOT
TORSDOF 0
ENDMDL
