MODEL 1
REMARK minimizedAffinity 9.24538517
REMARK minimizedRMSD -1
REMARK  0 active torsions:
REMARK  status: ('A' for Active; 'I' for Inactive)
ROOT
ATOM      1  C   UNL d   1      -1.623   1.543   0.913  0.00  0.00     0.077 C 
ATOM      2  C1  UNL d   1      -2.455   1.749  -0.318  0.00  0.00    -0.074 A 
ATOM      3  C2  UNL d   1      -2.188   1.039  -1.493  0.00  0.00    -0.005 A 
ATOM      4  C3  UNL d   1      -2.976   1.233  -2.627  0.00  0.00     0.006 A 
ATOM      5  C4  UNL d   1      -4.038   2.138  -2.598  0.00  0.00    -0.005 A 
ATOM      6  C5  UNL d   1      -4.321   2.856  -1.431  0.00  0.00    -0.074 A 
ATOM      7  C6  UNL d   1      -5.465   3.825  -1.380  0.00  0.00     0.077 C 
ATOM      8  C7  UNL d   1      -3.528   2.650  -0.294  0.00  0.00    -0.001 A 
ENDROOT
TORSDOF 0
ENDMDL
