MODEL 1
REMARK minimizedAffinity 5.95100832
REMARK minimizedRMSD -1
REMARK  0 active torsions:
REMARK  status: ('A' for Active; 'I' for Inactive)
ROOT
ATOM      1  C   UNL d   1      -5.651   2.871  -4.340  0.00  0.00     0.077 C 
ATOM      2  C1  UNL d   1      -4.985   1.944  -3.367  0.00  0.00    -0.074 A 
ATOM      3  C2  UNL d   1      -3.601   1.986  -3.165  0.00  0.00    -0.005 A 
ATOM      4  C3  UNL d   1      -2.998   1.123  -2.250  0.00  0.00     0.006 A 
ATOM      5  C4  UNL d   1      -3.770   0.212  -1.528  0.00  0.00    -0.005 A 
ATOM      6  C5  UNL d   1      -5.154   0.156  -1.716  0.00  0.00    -0.074 A 
ATOM      7  C6  UNL d   1      -6.000  -0.810  -0.941  0.00  0.00     0.077 C 
ATOM      8  C7  UNL d   1      -5.755   1.031  -2.632  0.00  0.00    -0.001 A 
ENDROOT
TORSDOF 0
ENDMDL
