MODEL 1
REMARK minimizedAffinity 3.88664937
REMARK minimizedRMSD -1
REMARK  0 active torsions:
REMARK  status: ('A' for Active; 'I' for Inactive)
ROOT
ATOM      1  C   UNL d   1       6.000  -2.645   3.939  0.00  0.00     0.077 C 
ATOM      2  C1  UNL d   1       4.504  -2.609   4.045  0.00  0.00    -0.074 A 
ATOM      3  C2  UNL d   1       3.859  -2.956   5.237  0.00  0.00    -0.005 A 
ATOM      4  C3  UNL d   1       2.468  -2.908   5.323  0.00  0.00     0.006 A 
ATOM      5  C4  UNL d   1       1.709  -2.512   4.221  0.00  0.00    -0.005 A 
ATOM      6  C5  UNL d   1       2.336  -2.160   3.022  0.00  0.00    -0.074 A 
ATOM      7  C6  UNL d   1       1.536  -1.723   1.831  0.00  0.00     0.077 C 
ATOM      8  C7  UNL d   1       3.735  -2.205   2.945  0.00  0.00    -0.001 A 
ENDROOT
TORSDOF 0
ENDMDL
