MODEL 1
REMARK minimizedAffinity -5.5324626
REMARK minimizedRMSD -1
REMARK  0 active torsions:
REMARK  status: ('A' for Active; 'I' for Inactive)
ROOT
ATOM      1  C   UNL d   1      -0.111   0.189  -0.095  0.00  0.00     0.078 C 
ATOM      2  C1  UNL d   1       1.331   0.070   0.297  0.00  0.00    -0.077 A 
ATOM      3  C2  UNL d   1       2.179   1.184   0.275  0.00  0.00    -0.001 A 
ATOM      4  C3  UNL d   1       3.522   1.057   0.633  0.00  0.00     0.003 A 
ATOM      5  C4  UNL d   1       4.030  -0.183   1.014  0.00  0.00    -0.005 A 
ATOM      6  C5  UNL d   1       3.195  -1.298   1.037  0.00  0.00     0.003 A 
ATOM      7  C6  UNL d   1       1.851  -1.173   0.679  0.00  0.00    -0.001 A 
ENDROOT
TORSDOF 0
ENDMDL
