MODEL 1
REMARK minimizedAffinity -4.78400183
REMARK minimizedRMSD -1
REMARK  0 active torsions:
REMARK  status: ('A' for Active; 'I' for Inactive)
ROOT
ATOM      1  C   UNL d   1       2.686  -1.494   1.746  0.00  0.00     0.078 C 
ATOM      2  C1  UNL d   1       1.544  -0.935   0.951  0.00  0.00    -0.077 A 
ATOM      3  C2  UNL d   1       1.101   0.378   1.148  0.00  0.00    -0.001 A 
ATOM      4  C3  UNL d   1       0.031   0.881   0.407  0.00  0.00     0.003 A 
ATOM      5  C4  UNL d   1      -0.607   0.078  -0.535  0.00  0.00    -0.005 A 
ATOM      6  C5  UNL d   1      -0.175  -1.232  -0.737  0.00  0.00     0.003 A 
ATOM      7  C6  UNL d   1       0.895  -1.737   0.003  0.00  0.00    -0.001 A 
ENDROOT
TORSDOF 0
ENDMDL
