MODEL 1
REMARK minimizedAffinity -3.72627616
REMARK minimizedRMSD -1
REMARK  0 active torsions:
REMARK  status: ('A' for Active; 'I' for Inactive)
ROOT
ATOM      1  C   UNL d   1      -0.865   0.758  -0.380  0.00  0.00     0.078 C 
ATOM      2  C1  UNL d   1       0.310  -0.092   0.001  0.00  0.00    -0.077 A 
ATOM      3  C2  UNL d   1       1.101   0.226   1.111  0.00  0.00    -0.001 A 
ATOM      4  C3  UNL d   1       2.198  -0.569   1.448  0.00  0.00     0.003 A 
ATOM      5  C4  UNL d   1       2.513  -1.688   0.679  0.00  0.00    -0.005 A 
ATOM      6  C5  UNL d   1       1.732  -2.012  -0.428  0.00  0.00     0.003 A 
ATOM      7  C6  UNL d   1       0.635  -1.217  -0.767  0.00  0.00    -0.001 A 
ENDROOT
TORSDOF 0
ENDMDL
