MODEL 1
REMARK minimizedAffinity -5.87082863
REMARK minimizedRMSD -1
REMARK  0 active torsions:
REMARK  status: ('A' for Active; 'I' for Inactive)
ROOT
ATOM      1  C   UNL d   1      -0.638   0.703  -0.029  0.00  0.00     0.078 C 
ATOM      2  C1  UNL d   1       0.761   0.204   0.181  0.00  0.00    -0.077 A 
ATOM      3  C2  UNL d   1       1.053  -1.164   0.133  0.00  0.00    -0.001 A 
ATOM      4  C3  UNL d   1       2.357  -1.615   0.340  0.00  0.00     0.003 A 
ATOM      5  C4  UNL d   1       3.380  -0.705   0.597  0.00  0.00    -0.005 A 
ATOM      6  C5  UNL d   1       3.099   0.659   0.649  0.00  0.00     0.003 A 
ATOM      7  C6  UNL d   1       1.795   1.112   0.442  0.00  0.00    -0.001 A 
ENDROOT
TORSDOF 0
ENDMDL
