MODEL 1
REMARK minimizedAffinity -3.5088191
REMARK minimizedRMSD -1
REMARK  0 active torsions:
REMARK  status: ('A' for Active; 'I' for Inactive)
ROOT
ATOM      1  C   UNL d   1       2.486  -2.138  -0.339  0.00  0.00     0.078 C 
ATOM      2  C1  UNL d   1       1.328  -1.186  -0.306  0.00  0.00    -0.077 A 
ATOM      3  C2  UNL d   1       0.032  -1.615  -0.616  0.00  0.00    -0.001 A 
ATOM      4  C3  UNL d   1      -1.035  -0.716  -0.591  0.00  0.00     0.003 A 
ATOM      5  C4  UNL d   1      -0.817   0.620  -0.258  0.00  0.00    -0.005 A 
ATOM      6  C5  UNL d   1       0.470   1.057   0.050  0.00  0.00     0.003 A 
ATOM      7  C6  UNL d   1       1.538   0.159   0.026  0.00  0.00    -0.001 A 
ENDROOT
TORSDOF 0
ENDMDL
