MODEL 1
REMARK minimizedAffinity -4.38855553
REMARK minimizedRMSD -1
REMARK  0 active torsions:
REMARK  status: ('A' for Active; 'I' for Inactive)
ROOT
ATOM      1  C   UNL d   1       2.404  -1.472   1.139  0.00  0.00     0.078 C 
ATOM      2  C1  UNL d   1       1.269  -0.737   0.492  0.00  0.00    -0.077 A 
ATOM      3  C2  UNL d   1       0.364  -1.400  -0.345  0.00  0.00    -0.001 A 
ATOM      4  C3  UNL d   1      -0.683  -0.700  -0.949  0.00  0.00     0.003 A 
ATOM      5  C4  UNL d   1      -0.833   0.666  -0.722  0.00  0.00    -0.005 A 
ATOM      6  C5  UNL d   1       0.064   1.335   0.107  0.00  0.00     0.003 A 
ATOM      7  C6  UNL d   1       1.111   0.638   0.712  0.00  0.00    -0.001 A 
ENDROOT
TORSDOF 0
ENDMDL
