MODEL 1
REMARK minimizedAffinity -2.85237765
REMARK minimizedRMSD -1
REMARK  0 active torsions:
REMARK  status: ('A' for Active; 'I' for Inactive)
ROOT
ATOM      1  C   UNL d   1      -1.312  -0.047   1.434  0.00  0.00     0.078 C 
ATOM      2  C1  UNL d   1       0.073  -0.507   1.088  0.00  0.00    -0.077 A 
ATOM      3  C2  UNL d   1       0.410  -0.854  -0.226  0.00  0.00    -0.001 A 
ATOM      4  C3  UNL d   1       1.700  -1.290  -0.532  0.00  0.00     0.003 A 
ATOM      5  C4  UNL d   1       2.663  -1.383   0.471  0.00  0.00    -0.005 A 
ATOM      6  C5  UNL d   1       2.336  -1.041   1.781  0.00  0.00     0.003 A 
ATOM      7  C6  UNL d   1       1.047  -0.606   2.089  0.00  0.00    -0.001 A 
ENDROOT
TORSDOF 0
ENDMDL
