MODEL 1
REMARK minimizedAffinity -5.88277245
REMARK minimizedRMSD -1
REMARK  0 active torsions:
REMARK  status: ('A' for Active; 'I' for Inactive)
ROOT
ATOM      1  C   UNL d   1      -0.703   0.553  -0.323  0.00  0.00     0.078 C 
ATOM      2  C1  UNL d   1       0.685   0.137   0.064  0.00  0.00    -0.077 A 
ATOM      3  C2  UNL d   1       1.713   1.080   0.185  0.00  0.00    -0.001 A 
ATOM      4  C3  UNL d   1       3.003   0.677   0.536  0.00  0.00     0.003 A 
ATOM      5  C4  UNL d   1       3.276  -0.670   0.769  0.00  0.00    -0.005 A 
ATOM      6  C5  UNL d   1       2.259  -1.615   0.649  0.00  0.00     0.003 A 
ATOM      7  C6  UNL d   1       0.970  -1.214   0.298  0.00  0.00    -0.001 A 
ENDROOT
TORSDOF 0
ENDMDL
