MODEL 1
REMARK minimizedAffinity -5.87343025
REMARK minimizedRMSD -1
REMARK  0 active torsions:
REMARK  status: ('A' for Active; 'I' for Inactive)
ROOT
ATOM      1  C   UNL d   1      -1.085   0.902   0.155  0.00  0.00     0.078 C 
ATOM      2  C1  UNL d   1       0.330   0.440   0.333  0.00  0.00    -0.077 A 
ATOM      3  C2  UNL d   1       0.657  -0.920   0.274  0.00  0.00    -0.001 A 
ATOM      4  C3  UNL d   1       1.978  -1.337   0.451  0.00  0.00     0.003 A 
ATOM      5  C4  UNL d   1       2.981  -0.399   0.689  0.00  0.00    -0.005 A 
ATOM      6  C5  UNL d   1       2.665   0.956   0.751  0.00  0.00     0.003 A 
ATOM      7  C6  UNL d   1       1.345   1.375   0.575  0.00  0.00    -0.001 A 
ENDROOT
TORSDOF 0
ENDMDL
