MODEL 1
REMARK minimizedAffinity -5.71790838
REMARK minimizedRMSD -1
REMARK  0 active torsions:
REMARK  status: ('A' for Active; 'I' for Inactive)
ROOT
ATOM      1  C   UNL d   1      -0.385   0.743  -0.257  0.00  0.00     0.078 C 
ATOM      2  C1  UNL d   1       1.009   0.237  -0.040  0.00  0.00    -0.077 A 
ATOM      3  C2  UNL d   1       1.287  -1.135  -0.045  0.00  0.00    -0.001 A 
ATOM      4  C3  UNL d   1       2.589  -1.592   0.169  0.00  0.00     0.003 A 
ATOM      5  C4  UNL d   1       3.622  -0.684   0.391  0.00  0.00    -0.005 A 
ATOM      6  C5  UNL d   1       3.354   0.683   0.400  0.00  0.00     0.003 A 
ATOM      7  C6  UNL d   1       2.054   1.143   0.186  0.00  0.00    -0.001 A 
ENDROOT
TORSDOF 0
ENDMDL
