MODEL 1
REMARK minimizedAffinity -2.79432535
REMARK minimizedRMSD -1
REMARK  0 active torsions:
REMARK  status: ('A' for Active; 'I' for Inactive)
ROOT
ATOM      1  C   UNL d   1       2.500  -0.629   1.393  0.00  0.00     0.078 C 
ATOM      2  C1  UNL d   1       1.399   0.113   0.695  0.00  0.00    -0.077 A 
ATOM      3  C2  UNL d   1       0.243  -0.550   0.266  0.00  0.00    -0.001 A 
ATOM      4  C3  UNL d   1      -0.770   0.151  -0.391  0.00  0.00     0.003 A 
ATOM      5  C4  UNL d   1      -0.636   1.518  -0.625  0.00  0.00    -0.005 A 
ATOM      6  C5  UNL d   1       0.512   2.185  -0.204  0.00  0.00     0.003 A 
ATOM      7  C6  UNL d   1       1.525   1.486   0.453  0.00  0.00    -0.001 A 
ENDROOT
TORSDOF 0
ENDMDL
