MODEL 1
REMARK minimizedAffinity -4.40560722
REMARK minimizedRMSD -1
REMARK  0 active torsions:
REMARK  status: ('A' for Active; 'I' for Inactive)
ROOT
ATOM      1  C   UNL d   1       2.893  -1.457   0.836  0.00  0.00     0.078 C 
ATOM      2  C1  UNL d   1       1.769  -0.583   0.364  0.00  0.00    -0.077 A 
ATOM      3  C2  UNL d   1       1.871   0.813   0.415  0.00  0.00    -0.001 A 
ATOM      4  C3  UNL d   1       0.813   1.614  -0.020  0.00  0.00     0.003 A 
ATOM      5  C4  UNL d   1      -0.354   1.028  -0.507  0.00  0.00    -0.005 A 
ATOM      6  C5  UNL d   1      -0.465  -0.360  -0.559  0.00  0.00     0.003 A 
ATOM      7  C6  UNL d   1       0.592  -1.162  -0.125  0.00  0.00    -0.001 A 
ENDROOT
TORSDOF 0
ENDMDL
