MODEL 1
REMARK minimizedAffinity -3.17785001
REMARK minimizedRMSD -1
REMARK  0 active torsions:
REMARK  status: ('A' for Active; 'I' for Inactive)
ROOT
ATOM      1  C   UNL d   1       2.297  -1.668   0.936  0.00  0.00     0.078 C 
ATOM      2  C1  UNL d   1       1.365  -0.585   0.481  0.00  0.00    -0.077 A 
ATOM      3  C2  UNL d   1       1.767   0.757   0.474  0.00  0.00    -0.001 A 
ATOM      4  C3  UNL d   1       0.885   1.755   0.058  0.00  0.00     0.003 A 
ATOM      5  C4  UNL d   1      -0.404   1.423  -0.355  0.00  0.00    -0.005 A 
ATOM      6  C5  UNL d   1      -0.813   0.091  -0.350  0.00  0.00     0.003 A 
ATOM      7  C6  UNL d   1       0.067  -0.909   0.067  0.00  0.00    -0.001 A 
ENDROOT
TORSDOF 0
ENDMDL
