MODEL 1
REMARK minimizedAffinity -4.32687378
REMARK minimizedRMSD -1
REMARK  0 active torsions:
REMARK  status: ('A' for Active; 'I' for Inactive)
ROOT
ATOM      1  C   UNL d   1       2.481  -1.833   0.002  0.00  0.00     0.078 C 
ATOM      2  C1  UNL d   1       1.193  -1.066  -0.023  0.00  0.00    -0.077 A 
ATOM      3  C2  UNL d   1      -0.025  -1.710  -0.272  0.00  0.00    -0.001 A 
ATOM      4  C3  UNL d   1      -1.215  -0.981  -0.303  0.00  0.00     0.003 A 
ATOM      5  C4  UNL d   1      -1.199   0.395  -0.085  0.00  0.00    -0.005 A 
ATOM      6  C5  UNL d   1       0.008   1.045   0.161  0.00  0.00     0.003 A 
ATOM      7  C6  UNL d   1       1.199   0.318   0.192  0.00  0.00    -0.001 A 
ENDROOT
TORSDOF 0
ENDMDL
