MODEL 1
REMARK minimizedAffinity 5.97886562
REMARK minimizedRMSD -1
REMARK  0 active torsions:
REMARK  status: ('A' for Active; 'I' for Inactive)
ROOT
ATOM      1  O1  BZF d   1      -2.838  -2.307  -4.814  0.00  0.00    -0.204 OA
ATOM      2  C2  BZF d   1      -3.315  -3.564  -4.497  0.00  0.00     0.174 A 
ATOM      3  C3  BZF d   1      -3.667  -3.628  -3.197  0.00  0.00    -0.012 A 
ATOM      4  C3A BZF d   1      -3.478  -2.303  -2.690  0.00  0.00    -0.107 A 
ATOM      5  C4  BZF d   1      -3.672  -1.730  -1.466  0.00  0.00     0.055 A 
ATOM      6  C5  BZF d   1      -3.321  -0.430  -1.282  0.00  0.00    -0.016 A 
ATOM      7  C6  BZF d   1      -2.771   0.324  -2.298  0.00  0.00     0.022 A 
ATOM      8  C7  BZF d   1      -2.565  -0.200  -3.531  0.00  0.00     0.029 A 
ATOM      9  C7A BZF d   1      -2.948  -1.504  -3.729  0.00  0.00     0.058 A 
ENDROOT
TORSDOF 0
ENDMDL
