MODEL 1
REMARK minimizedAffinity 11.6177063
REMARK minimizedRMSD -1
REMARK  0 active torsions:
REMARK  status: ('A' for Active; 'I' for Inactive)
ROOT
ATOM      1  O1  BZF d   1       1.507   3.305  -0.209  0.00  0.00    -0.204 OA
ATOM      2  C2  BZF d   1       2.606   3.017  -0.994  0.00  0.00     0.174 A 
ATOM      3  C3  BZF d   1       3.391   2.095  -0.399  0.00  0.00    -0.012 A 
ATOM      4  C3A BZF d   1       2.693   1.720   0.792  0.00  0.00    -0.107 A 
ATOM      5  C4  BZF d   1       2.958   0.832   1.795  0.00  0.00     0.055 A 
ATOM      6  C5  BZF d   1       2.108   0.758   2.853  0.00  0.00    -0.016 A 
ATOM      7  C6  BZF d   1       0.990   1.560   2.944  0.00  0.00     0.022 A 
ATOM      8  C7  BZF d   1       0.683   2.453   1.971  0.00  0.00     0.029 A 
ATOM      9  C7A BZF d   1       1.521   2.506   0.885  0.00  0.00     0.058 A 
ENDROOT
TORSDOF 0
ENDMDL
