MODEL 1
REMARK minimizedAffinity 6.29328489
REMARK minimizedRMSD -1
REMARK  0 active torsions:
REMARK  status: ('A' for Active; 'I' for Inactive)
ROOT
ATOM      1  O1  BZF d   1       3.798   0.956   0.810  0.00  0.00    -0.204 OA
ATOM      2  C2  BZF d   1       4.189  -0.367   0.746  0.00  0.00     0.174 A 
ATOM      3  C3  BZF d   1       3.886  -1.012   1.891  0.00  0.00    -0.012 A 
ATOM      4  C3A BZF d   1       3.184  -0.053   2.688  0.00  0.00    -0.107 A 
ATOM      5  C4  BZF d   1       2.612  -0.100   3.927  0.00  0.00     0.055 A 
ATOM      6  C5  BZF d   1       2.069   1.032   4.448  0.00  0.00    -0.016 A 
ATOM      7  C6  BZF d   1       2.085   2.228   3.760  0.00  0.00     0.022 A 
ATOM      8  C7  BZF d   1       2.636   2.323   2.526  0.00  0.00     0.029 A 
ATOM      9  C7A BZF d   1       3.156   1.173   1.983  0.00  0.00     0.058 A 
ENDROOT
TORSDOF 0
ENDMDL
