MODEL 1
REMARK minimizedAffinity 12.5819082
REMARK minimizedRMSD -1
REMARK  0 active torsions:
REMARK  status: ('A' for Active; 'I' for Inactive)
ROOT
ATOM      1  O1  BZF d   1       3.541  -5.317   1.755  0.00  0.00    -0.204 OA
ATOM      2  C2  BZF d   1       2.749  -5.662   0.677  0.00  0.00     0.174 A 
ATOM      3  C3  BZF d   1       1.774  -4.749   0.488  0.00  0.00    -0.012 A 
ATOM      4  C3A BZF d   1       2.025  -3.725   1.455  0.00  0.00    -0.107 A 
ATOM      5  C4  BZF d   1       1.407  -2.544   1.754  0.00  0.00     0.055 A 
ATOM      6  C5  BZF d   1       1.858  -1.811   2.805  0.00  0.00    -0.016 A 
ATOM      7  C6  BZF d   1       2.918  -2.230   3.582  0.00  0.00     0.022 A 
ATOM      8  C7  BZF d   1       3.566  -3.392   3.321  0.00  0.00     0.029 A 
ATOM      9  C7A BZF d   1       3.134  -4.119   2.239  0.00  0.00     0.058 A 
ENDROOT
TORSDOF 0
ENDMDL
