MODEL 1
REMARK minimizedAffinity 6.74927759
REMARK minimizedRMSD -1
REMARK  0 active torsions:
REMARK  status: ('A' for Active; 'I' for Inactive)
ROOT
ATOM      1  O1  BZF d   1       1.132  -0.187   4.410  0.00  0.00    -0.204 OA
ATOM      2  C2  BZF d   1       1.326  -1.542   4.592  0.00  0.00     0.174 A 
ATOM      3  C3  BZF d   1       2.090  -2.053   3.605  0.00  0.00    -0.012 A 
ATOM      4  C3A BZF d   1       2.469  -0.931   2.803  0.00  0.00    -0.107 A 
ATOM      5  C4  BZF d   1       3.240  -0.793   1.684  0.00  0.00     0.055 A 
ATOM      6  C5  BZF d   1       3.351   0.431   1.104  0.00  0.00    -0.016 A 
ATOM      7  C6  BZF d   1       2.702   1.537   1.613  0.00  0.00     0.022 A 
ATOM      8  C7  BZF d   1       1.930   1.451   2.724  0.00  0.00     0.029 A 
ATOM      9  C7A BZF d   1       1.842   0.222   3.331  0.00  0.00     0.058 A 
ENDROOT
TORSDOF 0
ENDMDL
