MODEL 1
REMARK minimizedAffinity 4.31620216
REMARK minimizedRMSD -1
REMARK  0 active torsions:
REMARK  status: ('A' for Active; 'I' for Inactive)
ROOT
ATOM      1  O1  BZF d   1       3.864  -5.969  -5.318  0.00  0.00    -0.204 OA
ATOM      2  C2  BZF d   1       5.204  -5.978  -5.655  0.00  0.00     0.174 A 
ATOM      3  C3  BZF d   1       5.975  -5.934  -4.549  0.00  0.00    -0.012 A 
ATOM      4  C3A BZF d   1       5.061  -5.988  -3.450  0.00  0.00    -0.107 A 
ATOM      5  C4  BZF d   1       5.222  -5.994  -2.094  0.00  0.00     0.055 A 
ATOM      6  C5  BZF d   1       4.121  -5.979  -1.298  0.00  0.00    -0.016 A 
ATOM      7  C6  BZF d   1       2.845  -5.953  -1.823  0.00  0.00     0.022 A 
ATOM      8  C7  BZF d   1       2.635  -5.951  -3.162  0.00  0.00     0.029 A 
ATOM      9  C7A BZF d   1       3.745  -5.999  -3.969  0.00  0.00     0.058 A 
ENDROOT
TORSDOF 0
ENDMDL
