MODEL 1
REMARK minimizedAffinity -1.22776902
REMARK minimizedRMSD -1
REMARK  0 active torsions:
REMARK  status: ('A' for Active; 'I' for Inactive)
ROOT
ATOM      1  O1  BZF d   1       4.169  -5.976  -1.743  0.00  0.00    -0.204 OA
ATOM      2  C2  BZF d   1       2.920  -5.974  -1.152  0.00  0.00     0.174 A 
ATOM      3  C3  BZF d   1       1.949  -5.916  -2.087  0.00  0.00    -0.012 A 
ATOM      4  C3A BZF d   1       2.632  -5.972  -3.343  0.00  0.00    -0.107 A 
ATOM      5  C4  BZF d   1       2.210  -5.968  -4.642  0.00  0.00     0.055 A 
ATOM      6  C5  BZF d   1       3.135  -5.959  -5.637  0.00  0.00    -0.016 A 
ATOM      7  C6  BZF d   1       4.488  -5.947  -5.370  0.00  0.00     0.022 A 
ATOM      8  C7  BZF d   1       4.955  -5.956  -4.097  0.00  0.00     0.029 A 
ATOM      9  C7A BZF d   1       4.023  -5.998  -3.090  0.00  0.00     0.058 A 
ENDROOT
TORSDOF 0
ENDMDL
