MODEL 1
REMARK minimizedAffinity 7.29163742
REMARK minimizedRMSD -1
REMARK  0 active torsions:
REMARK  status: ('A' for Active; 'I' for Inactive)
ROOT
ATOM      1  O1  BZF d   1       0.221   1.029   1.534  0.00  0.00    -0.204 OA
ATOM      2  C2  BZF d   1      -0.231   2.286   1.182  0.00  0.00     0.174 A 
ATOM      3  C3  BZF d   1      -0.156   2.466  -0.152  0.00  0.00    -0.012 A 
ATOM      4  C3A BZF d   1       0.289   1.211  -0.676  0.00  0.00    -0.107 A 
ATOM      5  C4  BZF d   1       0.540   0.757  -1.940  0.00  0.00     0.055 A 
ATOM      6  C5  BZF d   1       1.034  -0.498  -2.105  0.00  0.00    -0.016 A 
ATOM      7  C6  BZF d   1       1.294  -1.323  -1.030  0.00  0.00     0.022 A 
ATOM      8  C7  BZF d   1       1.056  -0.919   0.242  0.00  0.00     0.029 A 
ATOM      9  C7A BZF d   1       0.526   0.337   0.410  0.00  0.00     0.058 A 
ENDROOT
TORSDOF 0
ENDMDL
