MODEL 1
REMARK minimizedAffinity -3.1127162
REMARK minimizedRMSD -1
REMARK  0 active torsions:
REMARK  status: ('A' for Active; 'I' for Inactive)
ROOT
ATOM      1  O1  BZF d   1       3.758  -0.724  -5.949  0.00  0.00    -0.204 OA
ATOM      2  C2  BZF d   1       4.940  -0.010  -5.907  0.00  0.00     0.174 A 
ATOM      3  C3  BZF d   1       5.999  -0.843  -5.845  0.00  0.00    -0.012 A 
ATOM      4  C3A BZF d   1       5.449  -2.160  -5.940  0.00  0.00    -0.107 A 
ATOM      5  C4  BZF d   1       6.000  -3.409  -5.951  0.00  0.00     0.055 A 
ATOM      6  C5  BZF d   1       5.180  -4.493  -5.981  0.00  0.00    -0.016 A 
ATOM      7  C6  BZF d   1       3.807  -4.364  -5.996  0.00  0.00     0.022 A 
ATOM      8  C7  BZF d   1       3.214  -3.145  -5.991  0.00  0.00     0.029 A 
ATOM      9  C7A BZF d   1       4.040  -2.048  -5.993  0.00  0.00     0.058 A 
ENDROOT
TORSDOF 0
ENDMDL
