MODEL 1
REMARK minimizedAffinity -0.728244364
REMARK minimizedRMSD -1
REMARK  0 active torsions:
REMARK  status: ('A' for Active; 'I' for Inactive)
ROOT
ATOM      1  O1  BZF d   1       5.520   1.057  -5.998  0.00  0.00    -0.204 OA
ATOM      2  C2  BZF d   1       5.084   1.948  -5.037  0.00  0.00     0.174 A 
ATOM      3  C3  BZF d   1       4.848   1.315  -3.870  0.00  0.00    -0.012 A 
ATOM      4  C3A BZF d   1       5.244  -0.042  -4.091  0.00  0.00    -0.107 A 
ATOM      5  C4  BZF d   1       5.263  -1.156  -3.301  0.00  0.00     0.055 A 
ATOM      6  C5  BZF d   1       5.639  -2.344  -3.843  0.00  0.00    -0.016 A 
ATOM      7  C6  BZF d   1       5.997  -2.456  -5.170  0.00  0.00     0.022 A 
ATOM      8  C7  BZF d   1       5.998  -1.378  -5.992  0.00  0.00     0.029 A 
ATOM      9  C7A BZF d   1       5.650  -0.170  -5.440  0.00  0.00     0.058 A 
ENDROOT
TORSDOF 0
ENDMDL
