MODEL 1
REMARK minimizedAffinity -3.38935089
REMARK minimizedRMSD -1
REMARK  0 active torsions:
REMARK  status: ('A' for Active; 'I' for Inactive)
ROOT
ATOM      1  O1  BZF d   1      -0.669   1.942   2.237  0.00  0.00    -0.204 OA
ATOM      2  C2  BZF d   1      -1.798   2.415   1.597  0.00  0.00     0.174 A 
ATOM      3  C3  BZF d   1      -1.867   1.942   0.336  0.00  0.00    -0.012 A 
ATOM      4  C3A BZF d   1      -0.757   1.048   0.208  0.00  0.00    -0.107 A 
ATOM      5  C4  BZF d   1      -0.299   0.259  -0.808  0.00  0.00     0.055 A 
ATOM      6  C5  BZF d   1       0.854  -0.438  -0.635  0.00  0.00    -0.016 A 
ATOM      7  C6  BZF d   1       1.578  -0.365   0.538  0.00  0.00     0.022 A 
ATOM      8  C7  BZF d   1       1.161   0.401   1.576  0.00  0.00     0.029 A 
ATOM      9  C7A BZF d   1      -0.022   1.081   1.416  0.00  0.00     0.058 A 
ENDROOT
TORSDOF 0
ENDMDL
