MODEL 1
REMARK minimizedAffinity -4.29445505
REMARK minimizedRMSD -1
REMARK  0 active torsions:
REMARK  status: ('A' for Active; 'I' for Inactive)
ROOT
ATOM      1  O1  BZF d   1       0.011  -0.430  -0.316  0.00  0.00    -0.204 OA
ATOM      2  C2  BZF d   1       0.206  -0.924   0.959  0.00  0.00     0.174 A 
ATOM      3  C3  BZF d   1       0.108   0.062   1.874  0.00  0.00    -0.012 A 
ATOM      4  C3A BZF d   1      -0.256   1.229   1.132  0.00  0.00    -0.107 A 
ATOM      5  C4  BZF d   1      -0.515   2.523   1.484  0.00  0.00     0.055 A 
ATOM      6  C5  BZF d   1      -0.771   3.435   0.509  0.00  0.00    -0.016 A 
ATOM      7  C6  BZF d   1      -0.771   3.089  -0.826  0.00  0.00     0.022 A 
ATOM      8  C7  BZF d   1      -0.524   1.817  -1.224  0.00  0.00     0.029 A 
ATOM      9  C7A BZF d   1      -0.298   0.886  -0.239  0.00  0.00     0.058 A 
ENDROOT
TORSDOF 0
ENDMDL
