MODEL 1
REMARK minimizedAffinity -5.87661362
REMARK minimizedRMSD -1
REMARK  0 active torsions:
REMARK  status: ('A' for Active; 'I' for Inactive)
ROOT
ATOM      1  O1  BZF d   1      -0.004   0.139  -0.921  0.00  0.00    -0.204 OA
ATOM      2  C2  BZF d   1       0.592  -0.745  -0.043  0.00  0.00     0.174 A 
ATOM      3  C3  BZF d   1       0.625  -0.233   1.204  0.00  0.00    -0.012 A 
ATOM      4  C3A BZF d   1      -0.073   1.013   1.117  0.00  0.00    -0.107 A 
ATOM      5  C4  BZF d   1      -0.387   1.978   2.031  0.00  0.00     0.055 A 
ATOM      6  C5  BZF d   1      -1.013   3.108   1.608  0.00  0.00    -0.016 A 
ATOM      7  C6  BZF d   1      -1.334   3.308   0.281  0.00  0.00     0.022 A 
ATOM      8  C7  BZF d   1      -1.047   2.376  -0.660  0.00  0.00     0.029 A 
ATOM      9  C7A BZF d   1      -0.445   1.219  -0.231  0.00  0.00     0.058 A 
ENDROOT
TORSDOF 0
ENDMDL
