MODEL 1
REMARK minimizedAffinity -5.77505636
REMARK minimizedRMSD -1
REMARK  0 active torsions:
REMARK  status: ('A' for Active; 'I' for Inactive)
ROOT
ATOM      1  O1  BZF d   1       0.260   0.089  -0.926  0.00  0.00    -0.204 OA
ATOM      2  C2  BZF d   1       0.630  -0.780   0.083  0.00  0.00     0.174 A 
ATOM      3  C3  BZF d   1       0.546  -0.178   1.287  0.00  0.00    -0.012 A 
ATOM      4  C3A BZF d   1       0.007   1.121   1.022  0.00  0.00    -0.107 A 
ATOM      5  C4  BZF d   1      -0.323   2.180   1.818  0.00  0.00     0.055 A 
ATOM      6  C5  BZF d   1      -0.758   3.331   1.239  0.00  0.00    -0.016 A 
ATOM      7  C6  BZF d   1      -0.869   3.457  -0.130  0.00  0.00     0.022 A 
ATOM      8  C7  BZF d   1      -0.559   2.432  -0.960  0.00  0.00     0.029 A 
ATOM      9  C7A BZF d   1      -0.151   1.257  -0.377  0.00  0.00     0.058 A 
ENDROOT
TORSDOF 0
ENDMDL
