MODEL 1
REMARK minimizedAffinity -5.23902607
REMARK minimizedRMSD -1
REMARK  0 active torsions:
REMARK  status: ('A' for Active; 'I' for Inactive)
ROOT
ATOM      1  O1  BZF d   1       0.350   0.570  -1.010  0.00  0.00    -0.204 OA
ATOM      2  C2  BZF d   1       0.441  -0.467  -0.101  0.00  0.00     0.174 A 
ATOM      3  C3  BZF d   1      -0.078  -0.106   1.090  0.00  0.00    -0.012 A 
ATOM      4  C3A BZF d   1      -0.604   1.210   0.888  0.00  0.00    -0.107 A 
ATOM      5  C4  BZF d   1      -1.258   2.094   1.698  0.00  0.00     0.055 A 
ATOM      6  C5  BZF d   1      -1.571   3.325   1.214  0.00  0.00    -0.016 A 
ATOM      7  C6  BZF d   1      -1.242   3.706  -0.070  0.00  0.00     0.022 A 
ATOM      8  C7  BZF d   1      -0.598   2.862  -0.912  0.00  0.00     0.029 A 
ATOM      9  C7A BZF d   1      -0.309   1.605  -0.437  0.00  0.00     0.058 A 
ENDROOT
TORSDOF 0
ENDMDL
