MODEL 1
REMARK minimizedAffinity 6.20055151
REMARK minimizedRMSD -1
REMARK  1 active torsions:
REMARK  status: ('A' for Active; 'I' for Inactive)
REMARK    1  A    between atoms: N_2  and  C1_3 
ROOT
ATOM      1  C1  UNL d   1      -2.546   3.743   3.521  0.00  0.00     0.143 A 
ATOM      2  C2  UNL d   1      -1.922   2.491   3.531  0.00  0.00    -0.057 A 
ATOM      3  C3  UNL d   1      -2.068   1.598   2.463  0.00  0.00     0.033 A 
ATOM      4  C4  UNL d   1      -2.868   1.930   1.375  0.00  0.00    -0.042 A 
ATOM      5  C5  UNL d   1      -3.518   3.159   1.354  0.00  0.00     0.033 A 
ATOM      6  C6  UNL d   1      -3.363   4.050   2.421  0.00  0.00    -0.057 A 
ENDROOT
BRANCH   1   7
ATOM      7  N   UNL d   1      -2.520   4.635   4.596  0.00  0.00    -0.732 N 
ATOM      8  C   UNL d   1      -3.004   5.990   4.442  0.00  0.00     0.284 C 
ATOM      9  H3  UNL d   1      -2.788   4.194   5.473  0.00  0.00     0.395 HD
ENDBRANCH   1   7
TORSDOF 1
ENDMDL
