MODEL 1
REMARK minimizedAffinity 8.10776806
REMARK minimizedRMSD -1
REMARK  1 active torsions:
REMARK  status: ('A' for Active; 'I' for Inactive)
REMARK    1  A    between atoms: N_2  and  C1_3 
ROOT
ATOM      1  C1  UNL d   1      -2.214   3.767   4.404  0.00  0.00     0.143 A 
ATOM      2  C2  UNL d   1      -3.318   4.206   3.665  0.00  0.00    -0.057 A 
ATOM      3  C3  UNL d   1      -4.065   5.319   4.067  0.00  0.00     0.033 A 
ATOM      4  C4  UNL d   1      -3.738   5.998   5.236  0.00  0.00    -0.042 A 
ATOM      5  C5  UNL d   1      -2.660   5.565   6.000  0.00  0.00     0.033 A 
ATOM      6  C6  UNL d   1      -1.914   4.456   5.589  0.00  0.00    -0.057 A 
ENDROOT
BRANCH   1   7
ATOM      7  N   UNL d   1      -1.492   2.608   4.109  0.00  0.00    -0.732 N 
ATOM      8  C   UNL d   1      -2.101   1.531   3.358  0.00  0.00     0.284 C 
ATOM      9  H3  UNL d   1      -0.530   2.807   3.845  0.00  0.00     0.395 HD
ENDBRANCH   1   7
TORSDOF 1
ENDMDL
