MODEL 1
REMARK minimizedAffinity 6.09550428
REMARK minimizedRMSD -1
REMARK  1 active torsions:
REMARK  status: ('A' for Active; 'I' for Inactive)
REMARK    1  A    between atoms: N_2  and  C1_3 
ROOT
ATOM      1  C1  UNL d   1      -2.963   3.459   3.819  0.00  0.00     0.143 A 
ATOM      2  C2  UNL d   1      -4.066   3.566   2.966  0.00  0.00    -0.057 A 
ATOM      3  C3  UNL d   1      -4.619   2.438   2.348  0.00  0.00     0.033 A 
ATOM      4  C4  UNL d   1      -4.059   1.181   2.552  0.00  0.00    -0.042 A 
ATOM      5  C5  UNL d   1      -2.946   1.054   3.376  0.00  0.00     0.033 A 
ATOM      6  C6  UNL d   1      -2.402   2.184   3.995  0.00  0.00    -0.057 A 
ENDROOT
BRANCH   1   7
ATOM      7  N   UNL d   1      -2.307   4.555   4.384  0.00  0.00    -0.732 N 
ATOM      8  C   UNL d   1      -3.010   5.461   5.267  0.00  0.00     0.284 C 
ATOM      9  H3  UNL d   1      -1.362   4.329   4.688  0.00  0.00     0.395 HD
ENDBRANCH   1   7
TORSDOF 1
ENDMDL
