MODEL 1
REMARK minimizedAffinity 5.62700653
REMARK minimizedRMSD -1
REMARK  1 active torsions:
REMARK  status: ('A' for Active; 'I' for Inactive)
REMARK    1  A    between atoms: N_2  and  C1_3 
ROOT
ATOM      1  C1  UNL d   1       5.267   5.392   3.609  0.00  0.00     0.143 A 
ATOM      2  C2  UNL d   1       5.790   4.470   2.696  0.00  0.00    -0.057 A 
ATOM      3  C3  UNL d   1       5.141   4.199   1.485  0.00  0.00     0.033 A 
ATOM      4  C4  UNL d   1       3.939   4.827   1.178  0.00  0.00    -0.042 A 
ATOM      5  C5  UNL d   1       3.387   5.729   2.081  0.00  0.00     0.033 A 
ATOM      6  C6  UNL d   1       4.043   6.000   3.286  0.00  0.00    -0.057 A 
ENDROOT
BRANCH   1   7
ATOM      7  N   UNL d   1       5.813   5.631   4.872  0.00  0.00    -0.732 N 
ATOM      8  C   UNL d   1       4.964   5.998   5.985  0.00  0.00     0.284 C 
ATOM      9  H3  UNL d   1       6.547   4.968   5.110  0.00  0.00     0.395 HD
ENDBRANCH   1   7
TORSDOF 1
ENDMDL
