MODEL 1
REMARK minimizedAffinity 13.1045027
REMARK minimizedRMSD -1
REMARK  1 active torsions:
REMARK  status: ('A' for Active; 'I' for Inactive)
REMARK    1  A    between atoms: N_2  and  C1_3 
ROOT
ATOM      1  C1  UNL d   1      -2.683   2.217   4.834  0.00  0.00     0.143 A 
ATOM      2  C2  UNL d   1      -2.560   1.438   3.679  0.00  0.00    -0.057 A 
ATOM      3  C3  UNL d   1      -2.924   0.086   3.672  0.00  0.00     0.033 A 
ATOM      4  C4  UNL d   1      -3.392  -0.520   4.833  0.00  0.00    -0.042 A 
ATOM      5  C5  UNL d   1      -3.499   0.228   6.000  0.00  0.00     0.033 A 
ATOM      6  C6  UNL d   1      -3.141   1.580   5.998  0.00  0.00    -0.057 A 
ENDROOT
BRANCH   1   7
ATOM      7  N   UNL d   1      -2.246   3.540   4.931  0.00  0.00    -0.732 N 
ATOM      8  C   UNL d   1      -2.745   4.407   5.976  0.00  0.00     0.284 C 
ATOM      9  H3  UNL d   1      -1.248   3.633   4.754  0.00  0.00     0.395 HD
ENDBRANCH   1   7
TORSDOF 1
ENDMDL
