MODEL 1
REMARK minimizedAffinity 3.71702147
REMARK minimizedRMSD -1
REMARK  1 active torsions:
REMARK  status: ('A' for Active; 'I' for Inactive)
REMARK    1  A    between atoms: N_2  and  C1_3 
ROOT
ATOM      1  C1  UNL d   1      -3.777  -0.401   1.511  0.00  0.00     0.143 A 
ATOM      2  C2  UNL d   1      -3.268  -0.272   0.214  0.00  0.00    -0.057 A 
ATOM      3  C3  UNL d   1      -4.110  -0.323  -0.904  0.00  0.00     0.033 A 
ATOM      4  C4  UNL d   1      -5.475  -0.534  -0.745  0.00  0.00    -0.042 A 
ATOM      5  C5  UNL d   1      -5.999  -0.690   0.533  0.00  0.00     0.033 A 
ATOM      6  C6  UNL d   1      -5.155  -0.631   1.646  0.00  0.00    -0.057 A 
ENDROOT
BRANCH   1   7
ATOM      7  N   UNL d   1      -2.980  -0.458   2.657  0.00  0.00    -0.732 N 
ATOM      8  C   UNL d   1      -2.224   0.699   3.087  0.00  0.00     0.284 C 
ATOM      9  H3  UNL d   1      -3.426  -0.968   3.416  0.00  0.00     0.395 HD
ENDBRANCH   1   7
TORSDOF 1
ENDMDL
