MODEL 1
REMARK minimizedAffinity 5.43097115
REMARK minimizedRMSD -1
REMARK  1 active torsions:
REMARK  status: ('A' for Active; 'I' for Inactive)
REMARK    1  A    between atoms: N_2  and  C1_3 
ROOT
ATOM      1  C1  UNL d   1       5.410   5.456   3.620  0.00  0.00     0.143 A 
ATOM      2  C2  UNL d   1       5.996   4.313   3.065  0.00  0.00    -0.057 A 
ATOM      3  C3  UNL d   1       5.521   3.761   1.869  0.00  0.00     0.033 A 
ATOM      4  C4  UNL d   1       4.429   4.328   1.220  0.00  0.00    -0.042 A 
ATOM      5  C5  UNL d   1       3.815   5.449   1.766  0.00  0.00     0.033 A 
ATOM      6  C6  UNL d   1       4.298   5.999   2.958  0.00  0.00    -0.057 A 
ENDROOT
BRANCH   1   7
ATOM      7  N   UNL d   1       5.773   5.994   4.857  0.00  0.00    -0.732 N 
ATOM      8  C   UNL d   1       5.999   5.133   5.998  0.00  0.00     0.284 C 
ATOM      9  H3  UNL d   1       6.446   6.752   4.768  0.00  0.00     0.395 HD
ENDBRANCH   1   7
TORSDOF 1
ENDMDL
