MODEL 1
REMARK minimizedAffinity 8.78757095
REMARK minimizedRMSD -1
REMARK  1 active torsions:
REMARK  status: ('A' for Active; 'I' for Inactive)
REMARK    1  A    between atoms: N_2  and  C1_3 
ROOT
ATOM      1  C1  UNL d   1      -0.418  -0.112  -1.660  0.00  0.00     0.143 A 
ATOM      2  C2  UNL d   1      -1.030  -1.363  -1.526  0.00  0.00    -0.057 A 
ATOM      3  C3  UNL d   1      -0.285  -2.547  -1.592  0.00  0.00     0.033 A 
ATOM      4  C4  UNL d   1       1.085  -2.501  -1.823  0.00  0.00    -0.042 A 
ATOM      5  C5  UNL d   1       1.711  -1.270  -1.984  0.00  0.00     0.033 A 
ATOM      6  C6  UNL d   1       0.963  -0.091  -1.911  0.00  0.00    -0.057 A 
ENDROOT
BRANCH   1   7
ATOM      7  N   UNL d   1      -1.118   1.096  -1.703  0.00  0.00    -0.732 N 
ATOM      8  C   UNL d   1      -0.724   2.145  -2.618  0.00  0.00     0.284 C 
ATOM      9  H3  UNL d   1      -2.125   0.965  -1.630  0.00  0.00     0.395 HD
ENDBRANCH   1   7
TORSDOF 1
ENDMDL
