MODEL 1
REMARK minimizedAffinity 9.31681061
REMARK minimizedRMSD -1
REMARK  1 active torsions:
REMARK  status: ('A' for Active; 'I' for Inactive)
REMARK    1  A    between atoms: N_2  and  C1_3 
ROOT
ATOM      1  C1  UNL d   1       1.871   4.329  -2.257  0.00  0.00     0.143 A 
ATOM      2  C2  UNL d   1       1.106   3.210  -2.605  0.00  0.00    -0.057 A 
ATOM      3  C3  UNL d   1       1.316   1.968  -1.993  0.00  0.00     0.033 A 
ATOM      4  C4  UNL d   1       2.318   1.816  -1.040  0.00  0.00    -0.042 A 
ATOM      5  C5  UNL d   1       3.107   2.909  -0.696  0.00  0.00     0.033 A 
ATOM      6  C6  UNL d   1       2.887   4.148  -1.306  0.00  0.00    -0.057 A 
ENDROOT
BRANCH   1   7
ATOM      7  N   UNL d   1       1.776   5.566  -2.899  0.00  0.00    -0.732 N 
ATOM      8  C   UNL d   1       2.804   5.998  -3.821  0.00  0.00     0.284 C 
ATOM      9  H3  UNL d   1       0.829   5.773  -3.206  0.00  0.00     0.395 HD
ENDBRANCH   1   7
TORSDOF 1
ENDMDL
