MODEL 1
REMARK minimizedAffinity 5.52714968
REMARK minimizedRMSD -1
REMARK  1 active torsions:
REMARK  status: ('A' for Active; 'I' for Inactive)
REMARK    1  A    between atoms: N_2  and  C1_3 
ROOT
ATOM      1  C1  UNL d   1      -3.249   0.196   3.444  0.00  0.00     0.143 A 
ATOM      2  C2  UNL d   1      -4.511   0.018   2.867  0.00  0.00    -0.057 A 
ATOM      3  C3  UNL d   1      -5.624  -0.322   3.645  0.00  0.00     0.033 A 
ATOM      4  C4  UNL d   1      -5.488  -0.519   5.015  0.00  0.00    -0.042 A 
ATOM      5  C5  UNL d   1      -4.238  -0.372   5.607  0.00  0.00     0.033 A 
ATOM      6  C6  UNL d   1      -3.132  -0.026   4.825  0.00  0.00    -0.057 A 
ENDROOT
BRANCH   1   7
ATOM      7  N   UNL d   1      -2.085   0.438   2.710  0.00  0.00    -0.732 N 
ATOM      8  C   UNL d   1      -1.916  -0.129   1.389  0.00  0.00     0.284 C 
ATOM      9  H3  UNL d   1      -1.765   1.400   2.794  0.00  0.00     0.395 HD
ENDBRANCH   1   7
TORSDOF 1
ENDMDL
