MODEL 1
REMARK minimizedAffinity -1.48475599
REMARK minimizedRMSD -1
REMARK  1 active torsions:
REMARK  status: ('A' for Active; 'I' for Inactive)
REMARK    1  A    between atoms: N_2  and  C1_3 
ROOT
ATOM      1  C1  UNL d   1      -2.630  -0.636   0.246  0.00  0.00     0.143 A 
ATOM      2  C2  UNL d   1      -1.487  -0.015  -0.269  0.00  0.00    -0.057 A 
ATOM      3  C3  UNL d   1      -0.658   0.769   0.542  0.00  0.00     0.033 A 
ATOM      4  C4  UNL d   1      -0.975   0.970   1.882  0.00  0.00    -0.042 A 
ATOM      5  C5  UNL d   1      -2.120   0.383   2.410  0.00  0.00     0.033 A 
ATOM      6  C6  UNL d   1      -2.940  -0.404   1.596  0.00  0.00    -0.057 A 
ENDROOT
BRANCH   1   7
ATOM      7  N   UNL d   1      -3.547  -1.346  -0.532  0.00  0.00    -0.732 N 
ATOM      8  C   UNL d   1      -4.971  -1.147  -0.360  0.00  0.00     0.284 C 
ATOM      9  H3  UNL d   1      -3.253  -1.426  -1.503  0.00  0.00     0.395 HD
ENDBRANCH   1   7
TORSDOF 1
ENDMDL
