MODEL 1
REMARK minimizedAffinity 1.78281319
REMARK minimizedRMSD -1
REMARK  1 active torsions:
REMARK  status: ('A' for Active; 'I' for Inactive)
REMARK    1  A    between atoms: N_2  and  C1_3 
ROOT
ATOM      1  C1  UNL d   1      -4.244   0.872   3.495  0.00  0.00     0.143 A 
ATOM      2  C2  UNL d   1      -5.119   0.261   2.591  0.00  0.00    -0.057 A 
ATOM      3  C3  UNL d   1      -6.000  -0.748   3.000  0.00  0.00     0.033 A 
ATOM      4  C4  UNL d   1      -6.000  -1.185   4.321  0.00  0.00    -0.042 A 
ATOM      5  C5  UNL d   1      -5.121  -0.610   5.232  0.00  0.00     0.033 A 
ATOM      6  C6  UNL d   1      -4.249   0.402   4.818  0.00  0.00    -0.057 A 
ENDROOT
BRANCH   1   7
ATOM      7  N   UNL d   1      -3.277   1.811   3.128  0.00  0.00    -0.732 N 
ATOM      8  C   UNL d   1      -1.888   1.426   3.000  0.00  0.00     0.284 C 
ATOM      9  H3  UNL d   1      -3.604   2.440   2.398  0.00  0.00     0.395 HD
ENDBRANCH   1   7
TORSDOF 1
ENDMDL
