MODEL 1
REMARK minimizedAffinity 5.61911345
REMARK minimizedRMSD -1
REMARK  1 active torsions:
REMARK  status: ('A' for Active; 'I' for Inactive)
REMARK    1  A    between atoms: C1_2  and  C2_3 
ROOT
ATOM      1  C2  UNL d   1      -3.578  -0.315  -4.566  0.00  0.00    -0.076 A 
ATOM      2  C3  UNL d   1      -4.867  -0.797  -4.281  0.00  0.00     0.004 A 
ATOM      3  C4  UNL d   1      -5.999  -0.041  -4.583  0.00  0.00    -0.003 A 
ATOM      4  C5  UNL d   1      -5.859   1.209  -5.176  0.00  0.00     0.000 A 
ATOM      5  C6  UNL d   1      -4.588   1.695  -5.482  0.00  0.00     0.000 A 
ATOM      6  C7  UNL d   1      -3.438   0.938  -5.198  0.00  0.00    -0.073 A 
ATOM      7  C8  UNL d   1      -2.092   1.514  -5.544  0.00  0.00     0.078 C 
ENDROOT
BRANCH   1   8
ATOM      8  C1  UNL d   1      -2.387  -1.168  -4.190  0.00  0.00     0.053 C 
ATOM      9  C   UNL d   1      -1.881  -2.007  -5.354  0.00  0.00     0.018 C 
ENDBRANCH   1   8
TORSDOF 1
ENDMDL
