MODEL 1
REMARK minimizedAffinity 0.418754667
REMARK minimizedRMSD -1
REMARK  1 active torsions:
REMARK  status: ('A' for Active; 'I' for Inactive)
REMARK    1  A    between atoms: C1_2  and  C2_3 
ROOT
ATOM      1  C2  UNL d   1      -3.962   1.029  -4.089  0.00  0.00    -0.076 A 
ATOM      2  C3  UNL d   1      -4.188   2.293  -3.517  0.00  0.00     0.004 A 
ATOM      3  C4  UNL d   1      -3.715   3.453  -4.129  0.00  0.00    -0.003 A 
ATOM      4  C5  UNL d   1      -3.009   3.367  -5.324  0.00  0.00     0.000 A 
ATOM      5  C6  UNL d   1      -2.791   2.123  -5.915  0.00  0.00     0.000 A 
ATOM      6  C7  UNL d   1      -3.275   0.946  -5.319  0.00  0.00    -0.073 A 
ATOM      7  C8  UNL d   1      -3.005  -0.370  -5.997  0.00  0.00     0.078 C 
ENDROOT
BRANCH   1   8
ATOM      8  C1  UNL d   1      -4.475  -0.195  -3.366  0.00  0.00     0.053 C 
ATOM      9  C   UNL d   1      -3.369  -0.957  -2.652  0.00  0.00     0.018 C 
ENDBRANCH   1   8
TORSDOF 1
ENDMDL
