MODEL 1
REMARK minimizedAffinity 2.64558482
REMARK minimizedRMSD -1
REMARK  1 active torsions:
REMARK  status: ('A' for Active; 'I' for Inactive)
REMARK    1  A    between atoms: C1_2  and  C2_3 
ROOT
ATOM      1  C2  UNL d   1      -3.783   1.097  -3.640  0.00  0.00    -0.076 A 
ATOM      2  C3  UNL d   1      -3.612   1.033  -2.246  0.00  0.00     0.004 A 
ATOM      3  C4  UNL d   1      -3.515  -0.194  -1.591  0.00  0.00    -0.003 A 
ATOM      4  C5  UNL d   1      -3.585  -1.376  -2.320  0.00  0.00     0.000 A 
ATOM      5  C6  UNL d   1      -3.737  -1.331  -3.706  0.00  0.00     0.000 A 
ATOM      6  C7  UNL d   1      -3.821  -0.102  -4.383  0.00  0.00    -0.073 A 
ATOM      7  C8  UNL d   1      -3.990  -0.112  -5.878  0.00  0.00     0.078 C 
ENDROOT
BRANCH   1   8
ATOM      8  C1  UNL d   1      -3.911   2.456  -4.292  0.00  0.00     0.053 C 
ATOM      9  C   UNL d   1      -3.056   3.512  -3.609  0.00  0.00     0.018 C 
ENDBRANCH   1   8
TORSDOF 1
ENDMDL
