MODEL 1
REMARK minimizedAffinity 4.71803951
REMARK minimizedRMSD -1
REMARK  1 active torsions:
REMARK  status: ('A' for Active; 'I' for Inactive)
REMARK    1  A    between atoms: C1_2  and  C2_3 
ROOT
ATOM      1  C2  UNL d   1      -3.744  -0.615  -4.269  0.00  0.00    -0.076 A 
ATOM      2  C3  UNL d   1      -4.416   0.618  -4.211  0.00  0.00     0.004 A 
ATOM      3  C4  UNL d   1      -4.032   1.683  -5.026  0.00  0.00    -0.003 A 
ATOM      4  C5  UNL d   1      -2.972   1.530  -5.912  0.00  0.00     0.000 A 
ATOM      5  C6  UNL d   1      -2.306   0.308  -5.995  0.00  0.00     0.000 A 
ATOM      6  C7  UNL d   1      -2.690  -0.780  -5.193  0.00  0.00    -0.073 A 
ATOM      7  C8  UNL d   1      -1.932  -2.074  -5.319  0.00  0.00     0.078 C 
ENDROOT
BRANCH   1   8
ATOM      8  C1  UNL d   1      -4.187  -1.725  -3.342  0.00  0.00     0.053 C 
ATOM      9  C   UNL d   1      -3.578  -1.601  -1.953  0.00  0.00     0.018 C 
ENDBRANCH   1   8
TORSDOF 1
ENDMDL
