MODEL 1
REMARK minimizedAffinity 5.26032019
REMARK minimizedRMSD -1
REMARK  1 active torsions:
REMARK  status: ('A' for Active; 'I' for Inactive)
REMARK    1  A    between atoms: C1_2  and  C2_3 
ROOT
ATOM      1  C2  UNL d   1      -3.541  -0.570  -3.587  0.00  0.00    -0.076 A 
ATOM      2  C3  UNL d   1      -4.790   0.075  -3.608  0.00  0.00     0.004 A 
ATOM      3  C4  UNL d   1      -5.343   0.528  -4.804  0.00  0.00    -0.003 A 
ATOM      4  C5  UNL d   1      -4.657   0.343  -5.999  0.00  0.00     0.000 A 
ATOM      5  C6  UNL d   1      -3.426  -0.311  -6.000  0.00  0.00     0.000 A 
ATOM      6  C7  UNL d   1      -2.861  -0.788  -4.805  0.00  0.00    -0.073 A 
ATOM      7  C8  UNL d   1      -1.527  -1.480  -4.863  0.00  0.00     0.078 C 
ENDROOT
BRANCH   1   8
ATOM      8  C1  UNL d   1      -2.978  -1.016  -2.257  0.00  0.00     0.053 C 
ATOM      9  C   UNL d   1      -2.883   0.123  -1.253  0.00  0.00     0.018 C 
ENDBRANCH   1   8
TORSDOF 1
ENDMDL
