MODEL 1
REMARK minimizedAffinity -5.80927849
REMARK minimizedRMSD -1
REMARK  0 active torsions:
REMARK  status: ('A' for Active; 'I' for Inactive)
ROOT
ATOM      1  N1  IND d   1       0.918  -0.504   1.292  0.00  0.00    -0.196 N 
ATOM      2  C2  IND d   1       1.148   0.405   0.297  0.00  0.00     0.054 A 
ATOM      3  C3  IND d   1       0.068   0.502  -0.510  0.00  0.00    -0.031 A 
ATOM      4  C4  IND d   1      -2.222  -0.659  -0.324  0.00  0.00     0.051 A 
ATOM      5  C5  IND d   1      -2.895  -1.605   0.398  0.00  0.00    -0.031 A 
ATOM      6  C6  IND d   1      -2.321  -2.242   1.479  0.00  0.00     0.015 A 
ATOM      7  C7  IND d   1      -1.051  -1.949   1.886  0.00  0.00    -0.016 A 
ATOM      8  C8  IND d   1      -0.362  -0.995   1.151  0.00  0.00    -0.047 A 
ATOM      9  C9  IND d   1      -0.924  -0.375   0.027  0.00  0.00    -0.096 A 
ATOM     10  HN1 IND d   1       1.478  -0.731   1.903  0.00  0.00     0.298 HD
ENDROOT
TORSDOF 0
ENDMDL
