MODEL 1
REMARK minimizedAffinity 4.64371634
REMARK minimizedRMSD -1
REMARK  0 active torsions:
REMARK  status: ('A' for Active; 'I' for Inactive)
ROOT
ATOM      1  N1  IND d   1       0.997  -0.846   1.164  0.00  0.00    -0.196 N 
ATOM      2  C2  IND d   1       0.066  -1.668   1.735  0.00  0.00     0.054 A 
ATOM      3  C3  IND d   1      -0.998  -1.815   0.914  0.00  0.00    -0.031 A 
ATOM      4  C4  IND d   1      -1.377  -0.882  -1.455  0.00  0.00     0.051 A 
ATOM      5  C5  IND d   1      -0.824  -0.048  -2.385  0.00  0.00    -0.031 A 
ATOM      6  C6  IND d   1       0.391   0.573  -2.177  0.00  0.00     0.015 A 
ATOM      7  C7  IND d   1       1.106   0.373  -1.030  0.00  0.00    -0.016 A 
ATOM      8  C8  IND d   1       0.543  -0.468  -0.080  0.00  0.00    -0.047 A 
ATOM      9  C9  IND d   1      -0.709  -1.067  -0.268  0.00  0.00    -0.096 A 
ATOM     10  HN1 IND d   1       1.741  -0.606   1.522  0.00  0.00     0.298 HD
ENDROOT
TORSDOF 0
ENDMDL
