MODEL 1
REMARK minimizedAffinity -3.97405624
REMARK minimizedRMSD -1
REMARK  0 active torsions:
REMARK  status: ('A' for Active; 'I' for Inactive)
ROOT
ATOM      1  N1  IND d   1       1.634   2.778   2.225  0.00  0.00    -0.196 N 
ATOM      2  C2  IND d   1       2.134   3.323   1.076  0.00  0.00     0.054 A 
ATOM      3  C3  IND d   1       2.124   2.411   0.078  0.00  0.00    -0.031 A 
ATOM      4  C4  IND d   1       1.234  -0.005   0.082  0.00  0.00     0.051 A 
ATOM      5  C5  IND d   1       0.716  -0.961   0.910  0.00  0.00    -0.031 A 
ATOM      6  C6  IND d   1       0.470  -0.714   2.245  0.00  0.00     0.015 A 
ATOM      7  C7  IND d   1       0.723   0.508   2.801  0.00  0.00    -0.016 A 
ATOM      8  C8  IND d   1       1.256   1.479   1.965  0.00  0.00    -0.047 A 
ATOM      9  C9  IND d   1       1.548   1.221   0.620  0.00  0.00    -0.096 A 
ATOM     10  HN1 IND d   1       1.566   3.179   2.982  0.00  0.00     0.298 HD
ENDROOT
TORSDOF 0
ENDMDL
