MODEL 1
REMARK minimizedAffinity -0.201231003
REMARK minimizedRMSD -1
REMARK  0 active torsions:
REMARK  status: ('A' for Active; 'I' for Inactive)
ROOT
ATOM      1  N1  IND d   1      -2.280  -0.848  -1.306  0.00  0.00    -0.196 N 
ATOM      2  C2  IND d   1      -2.054   0.098  -2.266  0.00  0.00     0.054 A 
ATOM      3  C3  IND d   1      -0.958   0.828  -1.959  0.00  0.00    -0.031 A 
ATOM      4  C4  IND d   1       0.673   0.577   0.016  0.00  0.00     0.051 A 
ATOM      5  C5  IND d   1       0.862  -0.123   1.175  0.00  0.00    -0.031 A 
ATOM      6  C6  IND d   1      -0.002  -1.121   1.573  0.00  0.00     0.015 A 
ATOM      7  C7  IND d   1      -1.087  -1.467   0.818  0.00  0.00    -0.016 A 
ATOM      8  C8  IND d   1      -1.286  -0.755  -0.356  0.00  0.00    -0.047 A 
ATOM      9  C9  IND d   1      -0.436   0.289  -0.744  0.00  0.00    -0.096 A 
ATOM     10  HN1 IND d   1      -2.933  -1.407  -1.296  0.00  0.00     0.298 HD
ENDROOT
TORSDOF 0
ENDMDL
