MODEL 1
REMARK minimizedAffinity 1.36352623
REMARK minimizedRMSD -1
REMARK  0 active torsions:
REMARK  status: ('A' for Active; 'I' for Inactive)
ROOT
ATOM      1  N1  IND d   1      -0.976  -1.581  -0.988  0.00  0.00    -0.196 N 
ATOM      2  C2  IND d   1      -2.299  -1.327  -1.218  0.00  0.00     0.054 A 
ATOM      3  C3  IND d   1      -2.590  -0.041  -0.920  0.00  0.00    -0.031 A 
ATOM      4  C4  IND d   1      -1.027   1.850  -0.137  0.00  0.00     0.051 A 
ATOM      5  C5  IND d   1       0.261   2.092   0.249  0.00  0.00    -0.031 A 
ATOM      6  C6  IND d   1       1.223   1.103   0.239  0.00  0.00     0.015 A 
ATOM      7  C7  IND d   1       0.934  -0.168  -0.169  0.00  0.00    -0.016 A 
ATOM      8  C8  IND d   1      -0.375  -0.420  -0.555  0.00  0.00    -0.047 A 
ATOM      9  C9  IND d   1      -1.366   0.570  -0.507  0.00  0.00    -0.096 A 
ATOM     10  HN1 IND d   1      -0.584  -2.339  -1.097  0.00  0.00     0.298 HD
ENDROOT
TORSDOF 0
ENDMDL
