MODEL 1
REMARK minimizedAffinity -1.67192054
REMARK minimizedRMSD -1
REMARK  0 active torsions:
REMARK  status: ('A' for Active; 'I' for Inactive)
ROOT
ATOM      1  N1  IND d   1       1.450   0.595   0.145  0.00  0.00    -0.196 N 
ATOM      2  C2  IND d   1       1.447   1.700  -0.660  0.00  0.00     0.054 A 
ATOM      3  C3  IND d   1       0.375   1.679  -1.484  0.00  0.00    -0.031 A 
ATOM      4  C4  IND d   1      -1.556  -0.019  -1.611  0.00  0.00     0.051 A 
ATOM      5  C5  IND d   1      -1.974  -1.216  -1.100  0.00  0.00    -0.031 A 
ATOM      6  C6  IND d   1      -1.258  -1.882  -0.126  0.00  0.00     0.015 A 
ATOM      7  C7  IND d   1      -0.100  -1.369   0.383  0.00  0.00    -0.016 A 
ATOM      8  C8  IND d   1       0.331  -0.157  -0.138  0.00  0.00    -0.047 A 
ATOM      9  C9  IND d   1      -0.368   0.503  -1.157  0.00  0.00    -0.096 A 
ATOM     10  HN1 IND d   1       2.050   0.403   0.731  0.00  0.00     0.298 HD
ENDROOT
TORSDOF 0
ENDMDL
