MODEL 1
REMARK minimizedAffinity -3.91854692
REMARK minimizedRMSD -1
REMARK  0 active torsions:
REMARK  status: ('A' for Active; 'I' for Inactive)
ROOT
ATOM      1  N1  IND d   1       0.604  -0.594   1.130  0.00  0.00    -0.196 N 
ATOM      2  C2  IND d   1       0.704   0.504   0.322  0.00  0.00     0.054 A 
ATOM      3  C3  IND d   1      -0.326   0.540  -0.553  0.00  0.00    -0.031 A 
ATOM      4  C4  IND d   1      -2.343  -1.046  -0.771  0.00  0.00     0.051 A 
ATOM      5  C5  IND d   1      -2.853  -2.214  -0.278  0.00  0.00    -0.031 A 
ATOM      6  C6  IND d   1      -2.226  -2.914   0.732  0.00  0.00     0.015 A 
ATOM      7  C7  IND d   1      -1.066  -2.465   1.297  0.00  0.00    -0.016 A 
ATOM      8  C8  IND d   1      -0.541  -1.283   0.794  0.00  0.00    -0.047 A 
ATOM      9  C9  IND d   1      -1.150  -0.590  -0.260  0.00  0.00    -0.096 A 
ATOM     10  HN1 IND d   1       1.162  -0.817   1.745  0.00  0.00     0.298 HD
ENDROOT
TORSDOF 0
ENDMDL
