MODEL 1
REMARK minimizedAffinity -6.17017698
REMARK minimizedRMSD -1
REMARK  0 active torsions:
REMARK  status: ('A' for Active; 'I' for Inactive)
ROOT
ATOM      1  N1  IND d   1       0.282  -1.151   1.828  0.00  0.00    -0.196 N 
ATOM      2  C2  IND d   1       0.536   0.081   1.294  0.00  0.00     0.054 A 
ATOM      3  C3  IND d   1      -0.401   0.395   0.371  0.00  0.00    -0.031 A 
ATOM      4  C4  IND d   1      -2.494  -0.919  -0.348  0.00  0.00     0.051 A 
ATOM      5  C5  IND d   1      -3.130  -2.116  -0.167  0.00  0.00    -0.031 A 
ATOM      6  C6  IND d   1      -2.652  -3.070   0.709  0.00  0.00     0.015 A 
ATOM      7  C7  IND d   1      -1.523  -2.857   1.447  0.00  0.00    -0.016 A 
ATOM      8  C8  IND d   1      -0.871  -1.647   1.260  0.00  0.00    -0.047 A 
ATOM      9  C9  IND d   1      -1.327  -0.692   0.342  0.00  0.00    -0.096 A 
ATOM     10  HN1 IND d   1       0.763  -1.550   2.420  0.00  0.00     0.298 HD
ENDROOT
TORSDOF 0
ENDMDL
