MODEL 1
REMARK minimizedAffinity -5.70512295
REMARK minimizedRMSD -1
REMARK  0 active torsions:
REMARK  status: ('A' for Active; 'I' for Inactive)
ROOT
ATOM      1  N1  IND d   1      -2.168  -1.470   0.880  0.00  0.00    -0.196 N 
ATOM      2  C2  IND d   1      -3.086  -1.395  -0.130  0.00  0.00     0.054 A 
ATOM      3  C3  IND d   1      -2.661  -0.543  -1.090  0.00  0.00    -0.031 A 
ATOM      4  C4  IND d   1      -0.447   0.759  -1.256  0.00  0.00     0.051 A 
ATOM      5  C5  IND d   1       0.693   1.040  -0.556  0.00  0.00    -0.031 A 
ATOM      6  C6  IND d   1       0.944   0.485   0.682  0.00  0.00     0.015 A 
ATOM      7  C7  IND d   1       0.065  -0.384   1.264  0.00  0.00    -0.016 A 
ATOM      8  C8  IND d   1      -1.097  -0.666   0.559  0.00  0.00    -0.047 A 
ATOM      9  C9  IND d   1      -1.376  -0.073  -0.679  0.00  0.00    -0.096 A 
ATOM     10  HN1 IND d   1      -2.247  -1.941   1.596  0.00  0.00     0.298 HD
ENDROOT
TORSDOF 0
ENDMDL
