MODEL 1
REMARK minimizedAffinity -6.14570427
REMARK minimizedRMSD -1
REMARK  0 active torsions:
REMARK  status: ('A' for Active; 'I' for Inactive)
ROOT
ATOM      1  N1  IND d   1       0.689  -0.177   0.778  0.00  0.00    -0.196 N 
ATOM      2  C2  IND d   1       1.072   0.500  -0.346  0.00  0.00     0.054 A 
ATOM      3  C3  IND d   1       0.058   0.538  -1.240  0.00  0.00    -0.031 A 
ATOM      4  C4  IND d   1      -2.346  -0.358  -1.026  0.00  0.00     0.051 A 
ATOM      5  C5  IND d   1      -3.155  -1.083  -0.198  0.00  0.00    -0.031 A 
ATOM      6  C6  IND d   1      -2.717  -1.551   1.024  0.00  0.00     0.015 A 
ATOM      7  C7  IND d   1      -1.450  -1.300   1.470  0.00  0.00    -0.016 A 
ATOM      8  C8  IND d   1      -0.623  -0.569   0.628  0.00  0.00    -0.047 A 
ATOM      9  C9  IND d   1      -1.049  -0.128  -0.631  0.00  0.00    -0.096 A 
ATOM     10  HN1 IND d   1       1.185  -0.333   1.463  0.00  0.00     0.298 HD
ENDROOT
TORSDOF 0
ENDMDL
