MODEL 1
REMARK minimizedAffinity -5.09893799
REMARK minimizedRMSD -1
REMARK  0 active torsions:
REMARK  status: ('A' for Active; 'I' for Inactive)
ROOT
ATOM      1  N1  IND d   1       0.523  -0.359   1.823  0.00  0.00    -0.196 N 
ATOM      2  C2  IND d   1       1.584   0.283   1.247  0.00  0.00     0.054 A 
ATOM      3  C3  IND d   1       1.299   0.607  -0.034  0.00  0.00    -0.031 A 
ATOM      4  C4  IND d   1      -0.883   0.271  -1.359  0.00  0.00     0.051 A 
ATOM      5  C5  IND d   1      -2.121  -0.301  -1.269  0.00  0.00    -0.031 A 
ATOM      6  C6  IND d   1      -2.550  -0.933  -0.120  0.00  0.00     0.015 A 
ATOM      7  C7  IND d   1      -1.758  -1.005   0.991  0.00  0.00    -0.016 A 
ATOM      8  C8  IND d   1      -0.498  -0.431   0.901  0.00  0.00    -0.047 A 
ATOM      9  C9  IND d   1      -0.041   0.174  -0.277  0.00  0.00    -0.096 A 
ATOM     10  HN1 IND d   1       0.498  -0.665   2.626  0.00  0.00     0.298 HD
ENDROOT
TORSDOF 0
ENDMDL
