MODEL 1
REMARK minimizedAffinity -4.35192585
REMARK minimizedRMSD -1
REMARK  0 active torsions:
REMARK  status: ('A' for Active; 'I' for Inactive)
ROOT
ATOM      1  N1  IND d   1       0.475  -0.328   0.571  0.00  0.00    -0.196 N 
ATOM      2  C2  IND d   1       0.995  -1.113   1.561  0.00  0.00     0.054 A 
ATOM      3  C3  IND d   1       0.125  -2.094   1.889  0.00  0.00    -0.031 A 
ATOM      4  C4  IND d   1      -2.166  -2.660   0.860  0.00  0.00     0.051 A 
ATOM      5  C5  IND d   1      -3.081  -2.205  -0.048  0.00  0.00    -0.031 A 
ATOM      6  C6  IND d   1      -2.852  -1.080  -0.814  0.00  0.00     0.015 A 
ATOM      7  C7  IND d   1      -1.688  -0.371  -0.707  0.00  0.00    -0.016 A 
ATOM      8  C8  IND d   1      -0.760  -0.826   0.219  0.00  0.00    -0.047 A 
ATOM      9  C9  IND d   1      -1.006  -1.942   1.028  0.00  0.00    -0.096 A 
ATOM     10  HN1 IND d   1       0.855   0.362   0.226  0.00  0.00     0.298 HD
ENDROOT
TORSDOF 0
ENDMDL
