MODEL 1
REMARK minimizedAffinity -2.96780229
REMARK minimizedRMSD -1
REMARK  0 active torsions:
REMARK  status: ('A' for Active; 'I' for Inactive)
ROOT
ATOM      1  N1  IND d   1       0.502  -0.375   1.115  0.00  0.00    -0.196 N 
ATOM      2  C2  IND d   1       0.472   0.586   0.144  0.00  0.00     0.054 A 
ATOM      3  C3  IND d   1      -0.490   0.307  -0.765  0.00  0.00    -0.031 A 
ATOM      4  C4  IND d   1      -2.198  -1.618  -0.799  0.00  0.00     0.051 A 
ATOM      5  C5  IND d   1      -2.539  -2.767  -0.142  0.00  0.00    -0.031 A 
ATOM      6  C6  IND d   1      -1.873  -3.184   0.992  0.00  0.00     0.015 A 
ATOM      7  C7  IND d   1      -0.843  -2.459   1.520  0.00  0.00    -0.016 A 
ATOM      8  C8  IND d   1      -0.489  -1.295   0.852  0.00  0.00    -0.047 A 
ATOM      9  C9  IND d   1      -1.134  -0.889  -0.324  0.00  0.00    -0.096 A 
ATOM     10  HN1 IND d   1       1.048  -0.401   1.779  0.00  0.00     0.298 HD
ENDROOT
TORSDOF 0
ENDMDL
