MODEL 1
REMARK minimizedAffinity -5.83014536
REMARK minimizedRMSD -1
REMARK  0 active torsions:
REMARK  status: ('A' for Active; 'I' for Inactive)
ROOT
ATOM      1  N1  IND d   1       0.392   0.030   1.354  0.00  0.00    -0.196 N 
ATOM      2  C2  IND d   1       0.856   0.731   0.276  0.00  0.00     0.054 A 
ATOM      3  C3  IND d   1       0.015   0.592  -0.773  0.00  0.00    -0.031 A 
ATOM      4  C4  IND d   1      -2.233  -0.655  -0.912  0.00  0.00     0.051 A 
ATOM      5  C5  IND d   1      -3.056  -1.476  -0.193  0.00  0.00    -0.031 A 
ATOM      6  C6  IND d   1      -2.767  -1.842   1.105  0.00  0.00     0.015 A 
ATOM      7  C7  IND d   1      -1.645  -1.390   1.740  0.00  0.00    -0.016 A 
ATOM      8  C8  IND d   1      -0.804  -0.562   1.011  0.00  0.00    -0.047 A 
ATOM      9  C9  IND d   1      -1.070  -0.221  -0.322  0.00  0.00    -0.096 A 
ATOM     10  HN1 IND d   1       0.782  -0.031   2.118  0.00  0.00     0.298 HD
ENDROOT
TORSDOF 0
ENDMDL
