MODEL 1
REMARK minimizedAffinity -5.38267088
REMARK minimizedRMSD -1
REMARK  0 active torsions:
REMARK  status: ('A' for Active; 'I' for Inactive)
ROOT
ATOM      1  N1  IND d   1      -2.225  -1.207  -0.597  0.00  0.00    -0.196 N 
ATOM      2  C2  IND d   1      -2.286  -0.156  -1.470  0.00  0.00     0.054 A 
ATOM      3  C3  IND d   1      -1.147   0.570  -1.412  0.00  0.00    -0.031 A 
ATOM      4  C4  IND d   1       0.986   0.160  -0.031  0.00  0.00     0.051 A 
ATOM      5  C5  IND d   1       1.502  -0.653   0.939  0.00  0.00    -0.031 A 
ATOM      6  C6  IND d   1       0.789  -1.716   1.455  0.00  0.00     0.015 A 
ATOM      7  C7  IND d   1      -0.468  -2.013   1.010  0.00  0.00    -0.016 A 
ATOM      8  C8  IND d   1      -0.998  -1.185   0.030  0.00  0.00    -0.047 A 
ATOM      9  C9  IND d   1      -0.295  -0.079  -0.467  0.00  0.00    -0.096 A 
ATOM     10  HN1 IND d   1      -2.847  -1.784  -0.462  0.00  0.00     0.298 HD
ENDROOT
TORSDOF 0
ENDMDL
