MODEL 1
REMARK minimizedAffinity 1.02050781
REMARK minimizedRMSD -1
REMARK  0 active torsions:
REMARK  status: ('A' for Active; 'I' for Inactive)
ROOT
ATOM      1  N1  IND d   1       0.690   0.138  -0.497  0.00  0.00    -0.196 N 
ATOM      2  C2  IND d   1       0.283   0.950  -1.519  0.00  0.00     0.054 A 
ATOM      3  C3  IND d   1      -0.877   0.497  -2.045  0.00  0.00    -0.031 A 
ATOM      4  C4  IND d   1      -2.335  -1.497  -1.320  0.00  0.00     0.051 A 
ATOM      5  C5  IND d   1      -2.357  -2.557  -0.458  0.00  0.00    -0.031 A 
ATOM      6  C6  IND d   1      -1.346  -2.776   0.456  0.00  0.00     0.015 A 
ATOM      7  C7  IND d   1      -0.276  -1.932   0.549  0.00  0.00    -0.016 A 
ATOM      8  C8  IND d   1      -0.246  -0.859  -0.330  0.00  0.00    -0.047 A 
ATOM      9  C9  IND d   1      -1.248  -0.656  -1.288  0.00  0.00    -0.096 A 
ATOM     10  HN1 IND d   1       1.410   0.234  -0.037  0.00  0.00     0.298 HD
ENDROOT
TORSDOF 0
ENDMDL
