MODEL 1
REMARK minimizedAffinity -4.37951136
REMARK minimizedRMSD -1
REMARK  0 active torsions:
REMARK  status: ('A' for Active; 'I' for Inactive)
ROOT
ATOM      1  N1  IND d   1      -0.601   0.093  -1.618  0.00  0.00    -0.196 N 
ATOM      2  C2  IND d   1      -1.952  -0.107  -1.558  0.00  0.00     0.054 A 
ATOM      3  C3  IND d   1      -2.318  -0.474  -0.309  0.00  0.00    -0.031 A 
ATOM      4  C4  IND d   1      -0.880  -0.710   1.813  0.00  0.00     0.051 A 
ATOM      5  C5  IND d   1       0.415  -0.665   2.248  0.00  0.00    -0.031 A 
ATOM      6  C6  IND d   1       1.458  -0.357   1.399  0.00  0.00     0.015 A 
ATOM      7  C7  IND d   1       1.243  -0.069   0.081  0.00  0.00    -0.016 A 
ATOM      8  C8  IND d   1      -0.070  -0.120  -0.365  0.00  0.00    -0.047 A 
ATOM      9  C9  IND d   1      -1.128  -0.474   0.482  0.00  0.00    -0.096 A 
ATOM     10  HN1 IND d   1      -0.158   0.315  -2.321  0.00  0.00     0.298 HD
ENDROOT
TORSDOF 0
ENDMDL
