MODEL 1
REMARK minimizedAffinity 7.22137213
REMARK minimizedRMSD -1
REMARK  0 active torsions:
REMARK  status: ('A' for Active; 'I' for Inactive)
ROOT
ATOM      1  C   UNL d   1      -2.629   2.441  -0.428  0.00  0.00     0.124 A 
ATOM      2  C1  UNL d   1      -1.442   1.942   0.090  0.00  0.00     0.062 A 
ATOM      3  C2  UNL d   1      -1.466   0.963   1.078  0.00  0.00     0.162 A 
ATOM      4  C3  UNL d   1      -2.682   0.474   1.555  0.00  0.00    -0.034 A 
ATOM      5  C4  UNL d   1      -3.872   0.981   1.031  0.00  0.00     0.162 A 
ATOM      6  C5  UNL d   1      -3.843   1.960   0.043  0.00  0.00     0.062 A 
ATOM      7  F   UNL d   1      -4.991   2.441  -0.455  0.00  0.00    -0.097 F 
ATOM      8  F1  UNL d   1      -5.059   0.534   1.467  0.00  0.00    -0.096 F 
ATOM      9  I   UNL d   1      -2.722  -0.991   3.033  0.00  0.00    -0.060 I 
ATOM     10  F2  UNL d   1      -0.303   0.499   1.560  0.00  0.00    -0.096 F 
ATOM     11  F3  UNL d   1      -0.268   2.406  -0.363  0.00  0.00    -0.097 F 
ATOM     12  F4  UNL d   1      -2.604   3.384  -1.378  0.00  0.00    -0.092 F 
ENDROOT
TORSDOF 0
ENDMDL
