MODEL 1
REMARK minimizedAffinity 2.40608001
REMARK minimizedRMSD -1
REMARK  0 active torsions:
REMARK  status: ('A' for Active; 'I' for Inactive)
ROOT
ATOM      1  C   UNL d   1      -0.155   0.793   0.936  0.00  0.00     0.124 A 
ATOM      2  C1  UNL d   1      -0.414   2.042   0.389  0.00  0.00     0.062 A 
ATOM      3  C2  UNL d   1      -1.722   2.511   0.302  0.00  0.00     0.162 A 
ATOM      4  C3  UNL d   1      -2.781   1.730   0.765  0.00  0.00    -0.034 A 
ATOM      5  C4  UNL d   1      -2.513   0.474   1.312  0.00  0.00     0.162 A 
ATOM      6  C5  UNL d   1      -1.204   0.010   1.397  0.00  0.00     0.062 A 
ATOM      7  F   UNL d   1      -0.956  -1.197   1.925  0.00  0.00    -0.097 F 
ATOM      8  F1  UNL d   1      -3.508  -0.302   1.767  0.00  0.00    -0.096 F 
ATOM      9  I   UNL d   1      -4.738   2.427   0.637  0.00  0.00    -0.060 I 
ATOM     10  F2  UNL d   1      -1.943   3.722  -0.231  0.00  0.00    -0.096 F 
ATOM     11  F3  UNL d   1       0.598   2.800  -0.058  0.00  0.00    -0.097 F 
ATOM     12  F4  UNL d   1       1.104   0.344   1.017  0.00  0.00    -0.092 F 
ENDROOT
TORSDOF 0
ENDMDL
