MODEL 1
REMARK minimizedAffinity 5.17450857
REMARK minimizedRMSD -1
REMARK  0 active torsions:
REMARK  status: ('A' for Active; 'I' for Inactive)
ROOT
ATOM      1  C   UNL d   1      -2.288  -5.232  -1.624  0.00  0.00     0.124 A 
ATOM      2  C1  UNL d   1      -2.148  -5.510  -2.976  0.00  0.00     0.062 A 
ATOM      3  C2  UNL d   1      -0.886  -5.729  -3.519  0.00  0.00     0.162 A 
ATOM      4  C3  UNL d   1       0.248  -5.673  -2.709  0.00  0.00    -0.034 A 
ATOM      5  C4  UNL d   1       0.100  -5.391  -1.350  0.00  0.00     0.162 A 
ATOM      6  C5  UNL d   1      -1.164  -5.173  -0.812  0.00  0.00     0.062 A 
ATOM      7  F   UNL d   1      -1.297  -4.904   0.495  0.00  0.00    -0.097 F 
ATOM      8  F1  UNL d   1       1.169  -5.329  -0.542  0.00  0.00    -0.096 F 
ATOM      9  I   UNL d   1       2.138  -6.000  -3.517  0.00  0.00    -0.060 I 
ATOM     10  F2  UNL d   1      -0.780  -5.996  -4.830  0.00  0.00    -0.096 F 
ATOM     11  F3  UNL d   1      -3.233  -5.567  -3.763  0.00  0.00    -0.097 F 
ATOM     12  F4  UNL d   1      -3.504  -5.020  -1.104  0.00  0.00    -0.092 F 
ENDROOT
TORSDOF 0
ENDMDL
