MODEL 1
REMARK minimizedAffinity 9.49338818
REMARK minimizedRMSD -1
REMARK  0 active torsions:
REMARK  status: ('A' for Active; 'I' for Inactive)
ROOT
ATOM      1  C   UNL d   1      -0.046   1.591   0.147  0.00  0.00     0.124 A 
ATOM      2  C1  UNL d   1       0.148   0.481   0.957  0.00  0.00     0.062 A 
ATOM      3  C2  UNL d   1      -0.936  -0.125   1.586  0.00  0.00     0.162 A 
ATOM      4  C3  UNL d   1      -2.225   0.378   1.406  0.00  0.00    -0.034 A 
ATOM      5  C4  UNL d   1      -2.412   1.495   0.591  0.00  0.00     0.162 A 
ATOM      6  C5  UNL d   1      -1.325   2.097  -0.035  0.00  0.00     0.062 A 
ATOM      7  F   UNL d   1      -1.515   3.170  -0.817  0.00  0.00    -0.097 F 
ATOM      8  F1  UNL d   1      -3.637   2.005   0.397  0.00  0.00    -0.096 F 
ATOM      9  I   UNL d   1      -3.848  -0.525   2.344  0.00  0.00    -0.060 I 
ATOM     10  F2  UNL d   1      -0.719  -1.197   2.363  0.00  0.00    -0.096 F 
ATOM     11  F3  UNL d   1       1.383  -0.010   1.136  0.00  0.00    -0.097 F 
ATOM     12  F4  UNL d   1       0.999   2.172  -0.456  0.00  0.00    -0.092 F 
ENDROOT
TORSDOF 0
ENDMDL
