MODEL 1
REMARK minimizedAffinity 8.85345078
REMARK minimizedRMSD -1
REMARK  0 active torsions:
REMARK  status: ('A' for Active; 'I' for Inactive)
ROOT
ATOM      1  C   UNL d   1      -0.059   1.771   0.732  0.00  0.00     0.124 A 
ATOM      2  C1  UNL d   1      -1.314   2.364   0.748  0.00  0.00     0.062 A 
ATOM      3  C2  UNL d   1      -2.418   1.652   1.208  0.00  0.00     0.162 A 
ATOM      4  C3  UNL d   1      -2.272   0.340   1.658  0.00  0.00    -0.034 A 
ATOM      5  C4  UNL d   1      -1.007  -0.250   1.638  0.00  0.00     0.162 A 
ATOM      6  C5  UNL d   1       0.094   0.466   1.177  0.00  0.00     0.062 A 
ATOM      7  F   UNL d   1       1.306  -0.108   1.163  0.00  0.00    -0.097 F 
ATOM      8  F1  UNL d   1      -0.831  -1.509   2.064  0.00  0.00    -0.096 F 
ATOM      9  I   UNL d   1      -3.920  -0.728   2.347  0.00  0.00    -0.060 I 
ATOM     10  F2  UNL d   1      -3.619   2.250   1.212  0.00  0.00    -0.096 F 
ATOM     11  F3  UNL d   1      -1.464   3.625   0.317  0.00  0.00    -0.097 F 
ATOM     12  F4  UNL d   1       1.002   2.458   0.287  0.00  0.00    -0.092 F 
ENDROOT
TORSDOF 0
ENDMDL
