MODEL 1
REMARK minimizedAffinity 0.716489077
REMARK minimizedRMSD -1
REMARK  0 active torsions:
REMARK  status: ('A' for Active; 'I' for Inactive)
ROOT
ATOM      1  C   UNL d   1      -0.561   0.864   0.485  0.00  0.00     0.124 A 
ATOM      2  C1  UNL d   1      -1.546  -0.011   0.924  0.00  0.00     0.062 A 
ATOM      3  C2  UNL d   1      -2.879   0.388   0.942  0.00  0.00     0.162 A 
ATOM      4  C3  UNL d   1      -3.236   1.669   0.518  0.00  0.00    -0.034 A 
ATOM      5  C4  UNL d   1      -2.240   2.543   0.080  0.00  0.00     0.162 A 
ATOM      6  C5  UNL d   1      -0.909   2.139   0.064  0.00  0.00     0.062 A 
ATOM      7  F   UNL d   1       0.041   2.986  -0.360  0.00  0.00    -0.097 F 
ATOM      8  F1  UNL d   1      -2.548   3.781  -0.334  0.00  0.00    -0.096 F 
ATOM      9  I   UNL d   1      -5.229   2.269   0.543  0.00  0.00    -0.060 I 
ATOM     10  F2  UNL d   1      -3.810  -0.477   1.370  0.00  0.00    -0.096 F 
ATOM     11  F3  UNL d   1      -1.212  -1.243   1.333  0.00  0.00    -0.097 F 
ATOM     12  F4  UNL d   1       0.721   0.477   0.470  0.00  0.00    -0.092 F 
ENDROOT
TORSDOF 0
ENDMDL
