MODEL 1
REMARK minimizedAffinity 17.0819416
REMARK minimizedRMSD -1
REMARK  0 active torsions:
REMARK  status: ('A' for Active; 'I' for Inactive)
ROOT
ATOM      1  C   UNL d   1      -0.516   1.030   1.017  0.00  0.00     0.124 A 
ATOM      2  C1  UNL d   1      -0.845   2.152   0.268  0.00  0.00     0.062 A 
ATOM      3  C2  UNL d   1      -2.179   2.499   0.077  0.00  0.00     0.162 A 
ATOM      4  C3  UNL d   1      -3.195   1.725   0.637  0.00  0.00    -0.034 A 
ATOM      5  C4  UNL d   1      -2.856   0.597   1.388  0.00  0.00     0.162 A 
ATOM      6  C5  UNL d   1      -1.521   0.254   1.576  0.00  0.00     0.062 A 
ATOM      7  F   UNL d   1      -1.205  -0.830   2.299  0.00  0.00    -0.097 F 
ATOM      8  F1  UNL d   1      -3.808  -0.170   1.941  0.00  0.00    -0.096 F 
ATOM      9  I   UNL d   1      -5.191   2.241   0.355  0.00  0.00    -0.060 I 
ATOM     10  F2  UNL d   1      -2.468   3.588  -0.650  0.00  0.00    -0.096 F 
ATOM     11  F3  UNL d   1       0.125   2.902  -0.274  0.00  0.00    -0.097 F 
ATOM     12  F4  UNL d   1       0.769   0.697   1.198  0.00  0.00    -0.092 F 
ENDROOT
TORSDOF 0
ENDMDL
