MODEL 1
REMARK minimizedAffinity 4.93250465
REMARK minimizedRMSD -1
REMARK  0 active torsions:
REMARK  status: ('A' for Active; 'I' for Inactive)
ROOT
ATOM      1  C   UNL d   1      -4.298   0.786   0.892  0.00  0.00     0.124 A 
ATOM      2  C1  UNL d   1      -3.734   1.877   0.245  0.00  0.00     0.062 A 
ATOM      3  C2  UNL d   1      -2.363   2.105   0.322  0.00  0.00     0.162 A 
ATOM      4  C3  UNL d   1      -1.546   1.239   1.049  0.00  0.00    -0.034 A 
ATOM      5  C4  UNL d   1      -2.120   0.145   1.698  0.00  0.00     0.162 A 
ATOM      6  C5  UNL d   1      -3.491  -0.079   1.617  0.00  0.00     0.062 A 
ATOM      7  F   UNL d   1      -4.034  -1.133   2.243  0.00  0.00    -0.097 F 
ATOM      8  F1  UNL d   1      -1.363  -0.707   2.405  0.00  0.00    -0.096 F 
ATOM      9  I   UNL d   1       0.505   1.577   1.168  0.00  0.00    -0.060 I 
ATOM     10  F2  UNL d   1      -1.845   3.167  -0.313  0.00  0.00    -0.096 F 
ATOM     11  F3  UNL d   1      -4.512   2.714  -0.456  0.00  0.00    -0.097 F 
ATOM     12  F4  UNL d   1      -5.617   0.569   0.816  0.00  0.00    -0.092 F 
ENDROOT
TORSDOF 0
ENDMDL
