MODEL 1
REMARK minimizedAffinity 9.48972416
REMARK minimizedRMSD -1
REMARK  0 active torsions:
REMARK  status: ('A' for Active; 'I' for Inactive)
ROOT
ATOM      1  C   UNL d   1      -0.014   1.057   1.108  0.00  0.00     0.124 A 
ATOM      2  C1  UNL d   1      -0.906   0.010   1.296  0.00  0.00     0.062 A 
ATOM      3  C2  UNL d   1      -2.271   0.212   1.116  0.00  0.00     0.162 A 
ATOM      4  C3  UNL d   1      -2.753   1.467   0.744  0.00  0.00    -0.034 A 
ATOM      5  C4  UNL d   1      -1.850   2.515   0.558  0.00  0.00     0.162 A 
ATOM      6  C5  UNL d   1      -0.487   2.308   0.739  0.00  0.00     0.062 A 
ATOM      7  F   UNL d   1       0.373   3.321   0.557  0.00  0.00    -0.097 F 
ATOM      8  F1  UNL d   1      -2.280   3.735   0.200  0.00  0.00    -0.096 F 
ATOM      9  I   UNL d   1      -4.794   1.774   0.473  0.00  0.00    -0.060 I 
ATOM     10  F2  UNL d   1      -3.109  -0.818   1.304  0.00  0.00    -0.096 F 
ATOM     11  F3  UNL d   1      -0.451  -1.200   1.653  0.00  0.00    -0.097 F 
ATOM     12  F4  UNL d   1       1.299   0.860   1.283  0.00  0.00    -0.092 F 
ENDROOT
TORSDOF 0
ENDMDL
