MODEL 1
REMARK minimizedAffinity 4.58925676
REMARK minimizedRMSD -1
REMARK  0 active torsions:
REMARK  status: ('A' for Active; 'I' for Inactive)
ROOT
ATOM      1  C   UNL d   1      -0.270   1.309   0.647  0.00  0.00     0.124 A 
ATOM      2  C1  UNL d   1      -1.159   0.311   1.023  0.00  0.00     0.062 A 
ATOM      3  C2  UNL d   1      -2.530   0.552   1.005  0.00  0.00     0.162 A 
ATOM      4  C3  UNL d   1      -3.021   1.796   0.609  0.00  0.00    -0.034 A 
ATOM      5  C4  UNL d   1      -2.121   2.795   0.234  0.00  0.00     0.162 A 
ATOM      6  C5  UNL d   1      -0.752   2.550   0.254  0.00  0.00     0.062 A 
ATOM      7  F   UNL d   1       0.105   3.515  -0.109  0.00  0.00    -0.097 F 
ATOM      8  F1  UNL d   1      -2.559   4.002  -0.152  0.00  0.00    -0.096 F 
ATOM      9  I   UNL d   1      -5.070   2.159   0.581  0.00  0.00    -0.060 I 
ATOM     10  F2  UNL d   1      -3.365  -0.431   1.372  0.00  0.00    -0.096 F 
ATOM     11  F3  UNL d   1      -0.696  -0.888   1.404  0.00  0.00    -0.097 F 
ATOM     12  F4  UNL d   1       1.048   1.076   0.667  0.00  0.00    -0.092 F 
ENDROOT
TORSDOF 0
ENDMDL
