MODEL 1
REMARK minimizedAffinity 6.05158997
REMARK minimizedRMSD -1
REMARK  0 active torsions:
REMARK  status: ('A' for Active; 'I' for Inactive)
ROOT
ATOM      1  C   UNL d   1      -0.334   0.722   0.951  0.00  0.00     0.124 A 
ATOM      2  C1  UNL d   1      -1.479   0.022   1.306  0.00  0.00     0.062 A 
ATOM      3  C2  UNL d   1      -2.732   0.606   1.152  0.00  0.00     0.162 A 
ATOM      4  C3  UNL d   1      -2.849   1.898   0.638  0.00  0.00    -0.034 A 
ATOM      5  C4  UNL d   1      -1.693   2.596   0.283  0.00  0.00     0.162 A 
ATOM      6  C5  UNL d   1      -0.442   2.007   0.439  0.00  0.00     0.062 A 
ATOM      7  F   UNL d   1       0.663   2.685   0.095  0.00  0.00    -0.097 F 
ATOM      8  F1  UNL d   1      -1.768   3.839  -0.214  0.00  0.00    -0.096 F 
ATOM      9  I   UNL d   1      -4.722   2.775   0.405  0.00  0.00    -0.060 I 
ATOM     10  F2  UNL d   1      -3.821  -0.093   1.504  0.00  0.00    -0.096 F 
ATOM     11  F3  UNL d   1      -1.377  -1.220   1.802  0.00  0.00    -0.097 F 
ATOM     12  F4  UNL d   1       0.871   0.158   1.102  0.00  0.00    -0.092 F 
ENDROOT
TORSDOF 0
ENDMDL
