MODEL 1
REMARK minimizedAffinity 2.33200431
REMARK minimizedRMSD -1
REMARK  0 active torsions:
REMARK  status: ('A' for Active; 'I' for Inactive)
ROOT
ATOM      1  C   UNL d   1      -0.430   0.678   0.808  0.00  0.00     0.124 A 
ATOM      2  C1  UNL d   1      -0.792   1.800   0.076  0.00  0.00     0.062 A 
ATOM      3  C2  UNL d   1      -2.105   2.260   0.103  0.00  0.00     0.162 A 
ATOM      4  C3  UNL d   1      -3.067   1.599   0.867  0.00  0.00    -0.034 A 
ATOM      5  C4  UNL d   1      -2.696   0.471   1.601  0.00  0.00     0.162 A 
ATOM      6  C5  UNL d   1      -1.382   0.015   1.570  0.00  0.00     0.062 A 
ATOM      7  F   UNL d   1      -1.034  -1.069   2.278  0.00  0.00    -0.097 F 
ATOM      8  F1  UNL d   1      -3.595  -0.189   2.346  0.00  0.00    -0.096 F 
ATOM      9  I   UNL d   1      -5.032   2.284   0.911  0.00  0.00    -0.060 I 
ATOM     10  F2  UNL d   1      -2.427   3.347  -0.615  0.00  0.00    -0.096 F 
ATOM     11  F3  UNL d   1       0.125   2.442  -0.662  0.00  0.00    -0.097 F 
ATOM     12  F4  UNL d   1       0.834   0.237   0.779  0.00  0.00    -0.092 F 
ENDROOT
TORSDOF 0
ENDMDL
