MODEL 1
REMARK minimizedAffinity 0.216939911
REMARK minimizedRMSD -1
REMARK  0 active torsions:
REMARK  status: ('A' for Active; 'I' for Inactive)
ROOT
ATOM      1  C   UNL d   1      -0.618   0.564   0.585  0.00  0.00     0.124 A 
ATOM      2  C1  UNL d   1      -1.595  -0.130   1.285  0.00  0.00     0.062 A 
ATOM      3  C2  UNL d   1      -2.918   0.300   1.252  0.00  0.00     0.162 A 
ATOM      4  C3  UNL d   1      -3.272   1.430   0.515  0.00  0.00    -0.034 A 
ATOM      5  C4  UNL d   1      -2.284   2.123  -0.185  0.00  0.00     0.162 A 
ATOM      6  C5  UNL d   1      -0.963   1.689  -0.149  0.00  0.00     0.062 A 
ATOM      7  F   UNL d   1      -0.020   2.361  -0.826  0.00  0.00    -0.097 F 
ATOM      8  F1  UNL d   1      -2.590   3.214  -0.904  0.00  0.00    -0.096 F 
ATOM      9  I   UNL d   1      -5.250   2.077   0.464  0.00  0.00    -0.060 I 
ATOM     10  F2  UNL d   1      -3.842  -0.389   1.938  0.00  0.00    -0.096 F 
ATOM     11  F3  UNL d   1      -1.264  -1.218   1.996  0.00  0.00    -0.097 F 
ATOM     12  F4  UNL d   1       0.655   0.148   0.619  0.00  0.00    -0.092 F 
ENDROOT
TORSDOF 0
ENDMDL
