MODEL 1
REMARK minimizedAffinity 7.33293152
REMARK minimizedRMSD -1
REMARK  0 active torsions:
REMARK  status: ('A' for Active; 'I' for Inactive)
ROOT
ATOM      1  C   UNL d   1      -0.622   0.935   0.814  0.00  0.00     0.124 A 
ATOM      2  C1  UNL d   1      -1.594   0.218   1.498  0.00  0.00     0.062 A 
ATOM      3  C2  UNL d   1      -2.932   0.590   1.406  0.00  0.00     0.162 A 
ATOM      4  C3  UNL d   1      -3.306   1.684   0.626  0.00  0.00    -0.034 A 
ATOM      5  C4  UNL d   1      -2.323   2.400  -0.059  0.00  0.00     0.162 A 
ATOM      6  C5  UNL d   1      -0.987   2.025   0.036  0.00  0.00     0.062 A 
ATOM      7  F   UNL d   1      -0.049   2.718  -0.625  0.00  0.00    -0.097 F 
ATOM      8  F1  UNL d   1      -2.648   3.457  -0.818  0.00  0.00    -0.096 F 
ATOM      9  I   UNL d   1      -5.306   2.243   0.485  0.00  0.00    -0.060 I 
ATOM     10  F2  UNL d   1      -3.850  -0.120   2.078  0.00  0.00    -0.096 F 
ATOM     11  F3  UNL d   1      -1.243  -0.835   2.250  0.00  0.00    -0.097 F 
ATOM     12  F4  UNL d   1       0.665   0.575   0.905  0.00  0.00    -0.092 F 
ENDROOT
TORSDOF 0
ENDMDL
