MODEL 1
REMARK minimizedAffinity 6.28899813
REMARK minimizedRMSD -1
REMARK  2 active torsions:
REMARK  status: ('A' for Active; 'I' for Inactive)
REMARK    1  A    between atoms: C2'_3  and  C1'_4 
REMARK    2  A    between atoms: C1'_4  and  C1_5 
ROOT
ATOM      1  C1  I4B d   1      -0.266   1.131  -1.788  0.00  0.00    -0.075 A 
ATOM      2  C2  I4B d   1       0.306  -0.108  -1.933  0.00  0.00     0.003 A 
ATOM      3  C3  I4B d   1      -0.415  -1.159  -2.550  0.00  0.00     0.002 A 
ATOM      4  C4  I4B d   1      -1.715  -0.943  -2.959  0.00  0.00    -0.004 A 
ATOM      5  C5  I4B d   1      -2.286   0.320  -2.832  0.00  0.00     0.002 A 
ATOM      6  C6  I4B d   1      -1.553   1.367  -2.254  0.00  0.00     0.003 A 
ENDROOT
BRANCH   1   7
ATOM      7  C1' I4B d   1       0.511   2.209  -1.102  0.00  0.00     0.060 C 
BRANCH   7   8
ATOM      8  C2' I4B d   1      -0.381   2.828  -0.045  0.00  0.00    -0.013 C 
ATOM      9  C4' I4B d   1      -0.405   1.990   1.206  0.00  0.00     0.013 C 
ATOM     10  C3' I4B d   1       0.127   4.210   0.238  0.00  0.00     0.013 C 
ENDBRANCH   7   8
ENDBRANCH   1   7
TORSDOF 2
ENDMDL
