MODEL 1
REMARK minimizedAffinity 6.68099976
REMARK minimizedRMSD -1
REMARK  2 active torsions:
REMARK  status: ('A' for Active; 'I' for Inactive)
REMARK    1  A    between atoms: C2'_3  and  C1'_4 
REMARK    2  A    between atoms: C1'_4  and  C1_5 
ROOT
ATOM      1  C1  I4B d   1      -1.340   3.321   1.316  0.00  0.00    -0.075 A 
ATOM      2  C2  I4B d   1      -2.523   2.637   1.445  0.00  0.00     0.003 A 
ATOM      3  C3  I4B d   1      -2.709   1.732   2.517  0.00  0.00     0.002 A 
ATOM      4  C4  I4B d   1      -1.675   1.505   3.403  0.00  0.00    -0.004 A 
ATOM      5  C5  I4B d   1      -0.485   2.217   3.284  0.00  0.00     0.002 A 
ATOM      6  C6  I4B d   1      -0.320   3.140   2.241  0.00  0.00     0.003 A 
ENDROOT
BRANCH   1   7
ATOM      7  C1' I4B d   1      -1.165   4.245   0.152  0.00  0.00     0.060 C 
BRANCH   7   8
ATOM      8  C2' I4B d   1      -0.610   3.439  -1.004  0.00  0.00    -0.013 C 
ATOM      9  C4' I4B d   1       0.599   4.107  -1.604  0.00  0.00     0.013 C 
ATOM     10  C3' I4B d   1      -0.274   2.069  -0.495  0.00  0.00     0.013 C 
ENDBRANCH   7   8
ENDBRANCH   1   7
TORSDOF 2
ENDMDL
