MODEL 1
REMARK minimizedAffinity 9.72335529
REMARK minimizedRMSD -1
REMARK  2 active torsions:
REMARK  status: ('A' for Active; 'I' for Inactive)
REMARK    1  A    between atoms: C2'_3  and  C1'_4 
REMARK    2  A    between atoms: C1'_4  and  C1_5 
ROOT
ATOM      1  C1  I4B d   1      -0.475   2.931  -0.197  0.00  0.00    -0.075 A 
ATOM      2  C2  I4B d   1       0.072   4.028  -0.815  0.00  0.00     0.003 A 
ATOM      3  C3  I4B d   1       1.084   3.865  -1.792  0.00  0.00     0.002 A 
ATOM      4  C4  I4B d   1       1.550   2.599  -2.082  0.00  0.00    -0.004 A 
ATOM      5  C5  I4B d   1       0.978   1.487  -1.471  0.00  0.00     0.002 A 
ATOM      6  C6  I4B d   1      -0.049   1.652  -0.532  0.00  0.00     0.003 A 
ENDROOT
BRANCH   1   7
ATOM      7  C1' I4B d   1      -1.518   3.142   0.854  0.00  0.00     0.060 C 
BRANCH   7   8
ATOM      8  C2' I4B d   1      -1.883   1.788   1.428  0.00  0.00    -0.013 C 
ATOM      9  C4' I4B d   1      -1.288   1.598   2.799  0.00  0.00     0.013 C 
ATOM     10  C3' I4B d   1      -3.379   1.689   1.469  0.00  0.00     0.013 C 
ENDBRANCH   7   8
ENDBRANCH   1   7
TORSDOF 2
ENDMDL
