MODEL 1
REMARK minimizedAffinity 3.13973117
REMARK minimizedRMSD -1
REMARK  2 active torsions:
REMARK  status: ('A' for Active; 'I' for Inactive)
REMARK    1  A    between atoms: C2'_3  and  C1'_4 
REMARK    2  A    between atoms: C1'_4  and  C1_5 
ROOT
ATOM      1  C1  I4B d   1      -1.446   2.631   0.937  0.00  0.00    -0.075 A 
ATOM      2  C2  I4B d   1      -2.790   2.535   1.200  0.00  0.00     0.003 A 
ATOM      3  C3  I4B d   1      -3.253   1.711   2.254  0.00  0.00     0.002 A 
ATOM      4  C4  I4B d   1      -2.348   0.966   2.982  0.00  0.00    -0.004 A 
ATOM      5  C5  I4B d   1      -0.984   1.082   2.729  0.00  0.00     0.002 A 
ATOM      6  C6  I4B d   1      -0.529   1.929   1.708  0.00  0.00     0.003 A 
ENDROOT
BRANCH   1   7
ATOM      7  C1' I4B d   1      -0.994   3.485  -0.205  0.00  0.00     0.060 C 
BRANCH   7   8
ATOM      8  C2' I4B d   1       0.399   3.039  -0.599  0.00  0.00    -0.013 C 
ATOM      9  C4' I4B d   1       0.435   1.562  -0.896  0.00  0.00     0.013 C 
ATOM     10  C3' I4B d   1       0.822   3.841  -1.793  0.00  0.00     0.013 C 
ENDBRANCH   7   8
ENDBRANCH   1   7
TORSDOF 2
ENDMDL
