MODEL 1
REMARK minimizedAffinity 3.24723482
REMARK minimizedRMSD -1
REMARK  2 active torsions:
REMARK  status: ('A' for Active; 'I' for Inactive)
REMARK    1  A    between atoms: C2'_3  and  C1'_4 
REMARK    2  A    between atoms: C1'_4  and  C1_5 
ROOT
ATOM      1  C1  I4B d   1      -3.024  -2.961   4.367  0.00  0.00    -0.075 A 
ATOM      2  C2  I4B d   1      -2.187  -4.039   4.504  0.00  0.00     0.003 A 
ATOM      3  C3  I4B d   1      -0.928  -4.051   3.856  0.00  0.00     0.002 A 
ATOM      4  C4  I4B d   1      -0.570  -2.992   3.046  0.00  0.00    -0.004 A 
ATOM      5  C5  I4B d   1      -1.411  -1.889   2.927  0.00  0.00     0.002 A 
ATOM      6  C6  I4B d   1      -2.641  -1.868   3.601  0.00  0.00     0.003 A 
ENDROOT
BRANCH   1   7
ATOM      7  C1' I4B d   1      -4.361  -2.996   5.039  0.00  0.00     0.060 C 
BRANCH   7   8
ATOM      8  C2' I4B d   1      -5.138  -4.166   4.470  0.00  0.00    -0.013 C 
ATOM      9  C4' I4B d   1      -5.990  -4.819   5.526  0.00  0.00     0.013 C 
ATOM     10  C3' I4B d   1      -5.976  -3.657   3.335  0.00  0.00     0.013 C 
ENDBRANCH   7   8
ENDBRANCH   1   7
TORSDOF 2
ENDMDL
