MODEL 1
REMARK minimizedAffinity 6.21023321
REMARK minimizedRMSD -1
REMARK  2 active torsions:
REMARK  status: ('A' for Active; 'I' for Inactive)
REMARK    1  A    between atoms: C2'_3  and  C1'_4 
REMARK    2  A    between atoms: C1'_4  and  C1_5 
ROOT
ATOM      1  C1  I4B d   1      -1.091   2.094   0.891  0.00  0.00    -0.075 A 
ATOM      2  C2  I4B d   1      -1.001   3.456   1.036  0.00  0.00     0.003 A 
ATOM      3  C3  I4B d   1      -0.368   4.238   0.040  0.00  0.00     0.002 A 
ATOM      4  C4  I4B d   1       0.202   3.617  -1.052  0.00  0.00    -0.004 A 
ATOM      5  C5  I4B d   1       0.090   2.238  -1.208  0.00  0.00     0.002 A 
ATOM      6  C6  I4B d   1      -0.572   1.473  -0.237  0.00  0.00     0.003 A 
ENDROOT
BRANCH   1   7
ATOM      7  C1' I4B d   1      -1.738   1.295   1.978  0.00  0.00     0.060 C 
BRANCH   7   8
ATOM      8  C2' I4B d   1      -1.036  -0.046   2.052  0.00  0.00    -0.013 C 
ATOM      9  C4' I4B d   1       0.423   0.119   2.384  0.00  0.00     0.013 C 
ATOM     10  C3' I4B d   1      -1.736  -0.879   3.085  0.00  0.00     0.013 C 
ENDBRANCH   7   8
ENDBRANCH   1   7
TORSDOF 2
ENDMDL
