MODEL 1
REMARK minimizedAffinity 3.69451499
REMARK minimizedRMSD -1
REMARK  2 active torsions:
REMARK  status: ('A' for Active; 'I' for Inactive)
REMARK    1  A    between atoms: C2'_3  and  C1'_4 
REMARK    2  A    between atoms: C1'_4  and  C1_5 
ROOT
ATOM      1  C1  I4B d   1      -1.678   2.331   0.571  0.00  0.00    -0.075 A 
ATOM      2  C2  I4B d   1      -1.672   3.697   0.705  0.00  0.00     0.003 A 
ATOM      3  C3  I4B d   1      -0.820   4.490  -0.101  0.00  0.00     0.002 A 
ATOM      4  C4  I4B d   1       0.041   3.875  -0.988  0.00  0.00    -0.004 A 
ATOM      5  C5  I4B d   1       0.018   2.492  -1.139  0.00  0.00     0.002 A 
ATOM      6  C6  I4B d   1      -0.855   1.715  -0.364  0.00  0.00     0.003 A 
ENDROOT
BRANCH   1   7
ATOM      7  C1' I4B d   1      -2.566   1.523   1.462  0.00  0.00     0.060 C 
BRANCH   7   8
ATOM      8  C2' I4B d   1      -1.718   0.967   2.588  0.00  0.00    -0.013 C 
ATOM      9  C4' I4B d   1      -2.231  -0.372   3.048  0.00  0.00     0.013 C 
ATOM     10  C3' I4B d   1      -0.305   0.865   2.096  0.00  0.00     0.013 C 
ENDBRANCH   7   8
ENDBRANCH   1   7
TORSDOF 2
ENDMDL
