MODEL 1
REMARK minimizedAffinity 6.03019953
REMARK minimizedRMSD -1
REMARK  2 active torsions:
REMARK  status: ('A' for Active; 'I' for Inactive)
REMARK    1  A    between atoms: C2'_3  and  C1'_4 
REMARK    2  A    between atoms: C1'_4  and  C1_5 
ROOT
ATOM      1  C1  I4B d   1       0.052   0.990  -0.377  0.00  0.00    -0.075 A 
ATOM      2  C2  I4B d   1      -0.771   1.050   0.720  0.00  0.00     0.003 A 
ATOM      3  C3  I4B d   1      -1.368   2.277   1.097  0.00  0.00     0.002 A 
ATOM      4  C4  I4B d   1      -1.077   3.422   0.385  0.00  0.00    -0.004 A 
ATOM      5  C5  I4B d   1      -0.261   3.355  -0.741  0.00  0.00     0.002 A 
ATOM      6  C6  I4B d   1       0.298   2.130  -1.132  0.00  0.00     0.003 A 
ENDROOT
BRANCH   1   7
ATOM      7  C1' I4B d   1       0.692  -0.316  -0.728  0.00  0.00     0.060 C 
BRANCH   7   8
ATOM      8  C2' I4B d   1      -0.125  -0.954  -1.833  0.00  0.00    -0.013 C 
ATOM      9  C4' I4B d   1      -1.513  -0.373  -1.890  0.00  0.00     0.013 C 
ATOM     10  C3' I4B d   1       0.603  -0.744  -3.127  0.00  0.00     0.013 C 
ENDBRANCH   7   8
ENDBRANCH   1   7
TORSDOF 2
ENDMDL
