MODEL 1
REMARK minimizedAffinity 7.68095255
REMARK minimizedRMSD -1
REMARK  2 active torsions:
REMARK  status: ('A' for Active; 'I' for Inactive)
REMARK    1  A    between atoms: C2'_3  and  C1'_4 
REMARK    2  A    between atoms: C1'_4  and  C1_5 
ROOT
ATOM      1  C1  I4B d   1      -0.100   1.223  -0.783  0.00  0.00    -0.075 A 
ATOM      2  C2  I4B d   1      -0.482   1.413   0.521  0.00  0.00     0.003 A 
ATOM      3  C3  I4B d   1      -0.621   2.723   1.040  0.00  0.00     0.002 A 
ATOM      4  C4  I4B d   1      -0.320   3.806   0.239  0.00  0.00    -0.004 A 
ATOM      5  C5  I4B d   1       0.046   3.612  -1.090  0.00  0.00     0.002 A 
ATOM      6  C6  I4B d   1       0.145   2.313  -1.608  0.00  0.00     0.003 A 
ENDROOT
BRANCH   1   7
ATOM      7  C1' I4B d   1       0.069  -0.175  -1.288  0.00  0.00     0.060 C 
BRANCH   7   8
ATOM      8  C2' I4B d   1      -0.649  -0.280  -2.619  0.00  0.00    -0.013 C 
ATOM      9  C4' I4B d   1       0.205  -0.975  -3.646  0.00  0.00     0.013 C 
ATOM     10  C3' I4B d   1      -1.935  -1.019  -2.394  0.00  0.00     0.013 C 
ENDBRANCH   7   8
ENDBRANCH   1   7
TORSDOF 2
ENDMDL
