MODEL 1
REMARK minimizedAffinity 1.76962399
REMARK minimizedRMSD -1
REMARK  2 active torsions:
REMARK  status: ('A' for Active; 'I' for Inactive)
REMARK    1  A    between atoms: C2'_3  and  C1'_4 
REMARK    2  A    between atoms: C1'_4  and  C1_5 
ROOT
ATOM      1  C1  I4B d   1      -0.977   0.865   1.823  0.00  0.00    -0.075 A 
ATOM      2  C2  I4B d   1      -1.997   0.126   2.369  0.00  0.00     0.003 A 
ATOM      3  C3  I4B d   1      -1.746  -1.173   2.873  0.00  0.00     0.002 A 
ATOM      4  C4  I4B d   1      -0.480  -1.711   2.766  0.00  0.00    -0.004 A 
ATOM      5  C5  I4B d   1       0.558  -0.952   2.233  0.00  0.00     0.002 A 
ATOM      6  C6  I4B d   1       0.311   0.349   1.770  0.00  0.00     0.003 A 
ENDROOT
BRANCH   1   7
ATOM      7  C1' I4B d   1      -1.285   2.220   1.271  0.00  0.00     0.060 C 
BRANCH   7   8
ATOM      8  C2' I4B d   1      -0.150   2.617   0.348  0.00  0.00    -0.013 C 
ATOM      9  C4' I4B d   1      -0.404   2.147  -1.060  0.00  0.00     0.013 C 
ATOM     10  C3' I4B d   1      -0.008   4.108   0.404  0.00  0.00     0.013 C 
ENDBRANCH   7   8
ENDBRANCH   1   7
TORSDOF 2
ENDMDL
