MODEL 1
REMARK minimizedAffinity 6.42855406
REMARK minimizedRMSD -1
REMARK  2 active torsions:
REMARK  status: ('A' for Active; 'I' for Inactive)
REMARK    1  A    between atoms: C2'_3  and  C1'_4 
REMARK    2  A    between atoms: C1'_4  and  C1_5 
ROOT
ATOM      1  C1  I4B d   1       0.101   1.884  -1.523  0.00  0.00    -0.075 A 
ATOM      2  C2  I4B d   1      -0.152   2.260  -0.227  0.00  0.00     0.003 A 
ATOM      3  C3  I4B d   1      -0.226   3.632   0.115  0.00  0.00     0.002 A 
ATOM      4  C4  I4B d   1       0.008   4.587  -0.853  0.00  0.00    -0.004 A 
ATOM      5  C5  I4B d   1       0.242   4.204  -2.171  0.00  0.00     0.002 A 
ATOM      6  C6  I4B d   1       0.277   2.844  -2.511  0.00  0.00     0.003 A 
ENDROOT
BRANCH   1   7
ATOM      7  C1' I4B d   1       0.205   0.426  -1.843  0.00  0.00     0.060 C 
BRANCH   7   8
ATOM      8  C2' I4B d   1      -0.471   0.192  -3.178  0.00  0.00    -0.013 C 
ATOM      9  C4' I4B d   1       0.523  -0.241  -4.224  0.00  0.00     0.013 C 
ATOM     10  C3' I4B d   1      -1.537  -0.844  -2.983  0.00  0.00     0.013 C 
ENDBRANCH   7   8
ENDBRANCH   1   7
TORSDOF 2
ENDMDL
