MODEL 1
REMARK minimizedAffinity 7.72300863
REMARK minimizedRMSD -1
REMARK  2 active torsions:
REMARK  status: ('A' for Active; 'I' for Inactive)
REMARK    1  A    between atoms: C2'_3  and  C1'_4 
REMARK    2  A    between atoms: C1'_4  and  C1_5 
ROOT
ATOM      1  C1  I4B d   1      -0.899   1.678  -0.699  0.00  0.00    -0.075 A 
ATOM      2  C2  I4B d   1       0.291   1.948  -1.327  0.00  0.00     0.003 A 
ATOM      3  C3  I4B d   1       0.619   1.297  -2.541  0.00  0.00     0.002 A 
ATOM      4  C4  I4B d   1      -0.243   0.353  -3.061  0.00  0.00    -0.004 A 
ATOM      5  C5  I4B d   1      -1.459   0.098  -2.435  0.00  0.00     0.002 A 
ATOM      6  C6  I4B d   1      -1.796   0.774  -1.253  0.00  0.00     0.003 A 
ENDROOT
BRANCH   1   7
ATOM      7  C1' I4B d   1      -1.200   2.359   0.599  0.00  0.00     0.060 C 
BRANCH   7   8
ATOM      8  C2' I4B d   1      -1.125   1.320   1.699  0.00  0.00    -0.013 C 
ATOM      9  C4' I4B d   1      -0.096   1.695   2.733  0.00  0.00     0.013 C 
ATOM     10  C3' I4B d   1      -2.488   1.195   2.312  0.00  0.00     0.013 C 
ENDBRANCH   7   8
ENDBRANCH   1   7
TORSDOF 2
ENDMDL
