MODEL 1
REMARK minimizedAffinity 9.22765923
REMARK minimizedRMSD -1
REMARK  2 active torsions:
REMARK  status: ('A' for Active; 'I' for Inactive)
REMARK    1  A    between atoms: C2'_3  and  C1'_4 
REMARK    2  A    between atoms: C1'_4  and  C1_5 
ROOT
ATOM      1  C1  I4B d   1      -0.404   2.882  -0.246  0.00  0.00    -0.075 A 
ATOM      2  C2  I4B d   1       0.226   1.672  -0.401  0.00  0.00     0.003 A 
ATOM      3  C3  I4B d   1       0.838   1.340  -1.634  0.00  0.00     0.002 A 
ATOM      4  C4  I4B d   1       0.752   2.220  -2.694  0.00  0.00    -0.004 A 
ATOM      5  C5  I4B d   1       0.133   3.455  -2.528  0.00  0.00     0.002 A 
ATOM      6  C6  I4B d   1      -0.439   3.794  -1.293  0.00  0.00     0.003 A 
ENDROOT
BRANCH   1   7
ATOM      7  C1' I4B d   1      -1.068   3.186   1.059  0.00  0.00     0.060 C 
BRANCH   7   8
ATOM      8  C2' I4B d   1      -1.066   1.920   1.891  0.00  0.00    -0.013 C 
ATOM      9  C4' I4B d   1      -0.746   2.215   3.332  0.00  0.00     0.013 C 
ATOM     10  C3' I4B d   1      -2.413   1.274   1.756  0.00  0.00     0.013 C 
ENDBRANCH   7   8
ENDBRANCH   1   7
TORSDOF 2
ENDMDL
