MODEL 1
REMARK minimizedAffinity 10.2853689
REMARK minimizedRMSD -1
REMARK  2 active torsions:
REMARK  status: ('A' for Active; 'I' for Inactive)
REMARK    1  A    between atoms: C2'_3  and  C1'_4 
REMARK    2  A    between atoms: C1'_4  and  C1_5 
ROOT
ATOM      1  C1  I4B d   1       0.386   0.419  -0.198  0.00  0.00    -0.075 A 
ATOM      2  C2  I4B d   1       1.482  -0.385  -0.002  0.00  0.00     0.003 A 
ATOM      3  C3  I4B d   1       2.001  -0.576   1.302  0.00  0.00     0.002 A 
ATOM      4  C4  I4B d   1       1.428   0.090   2.366  0.00  0.00    -0.004 A 
ATOM      5  C5  I4B d   1       0.303   0.886   2.168  0.00  0.00     0.002 A 
ATOM      6  C6  I4B d   1      -0.229   1.042   0.880  0.00  0.00     0.003 A 
ENDROOT
BRANCH   1   7
ATOM      7  C1' I4B d   1      -0.115   0.625  -1.592  0.00  0.00     0.060 C 
BRANCH   7   8
ATOM      8  C2' I4B d   1      -0.914  -0.600  -1.987  0.00  0.00    -0.013 C 
ATOM      9  C4' I4B d   1      -2.394  -0.324  -1.946  0.00  0.00     0.013 C 
ATOM     10  C3' I4B d   1      -0.479  -1.013  -3.362  0.00  0.00     0.013 C 
ENDBRANCH   7   8
ENDBRANCH   1   7
TORSDOF 2
ENDMDL
