MODEL 1
REMARK minimizedAffinity 5.71794415
REMARK minimizedRMSD -1
REMARK  2 active torsions:
REMARK  status: ('A' for Active; 'I' for Inactive)
REMARK    1  A    between atoms: C2'_3  and  C1'_4 
REMARK    2  A    between atoms: C1'_4  and  C1_5 
ROOT
ATOM      1  C1  I4B d   1       0.063   2.523  -0.364  0.00  0.00    -0.075 A 
ATOM      2  C2  I4B d   1       0.216   3.012  -1.638  0.00  0.00     0.003 A 
ATOM      3  C3  I4B d   1       0.632   2.155  -2.685  0.00  0.00     0.002 A 
ATOM      4  C4  I4B d   1       0.933   0.837  -2.406  0.00  0.00    -0.004 A 
ATOM      5  C5  I4B d   1       0.756   0.338  -1.119  0.00  0.00     0.002 A 
ATOM      6  C6  I4B d   1       0.306   1.183  -0.094  0.00  0.00     0.003 A 
ENDROOT
BRANCH   1   7
ATOM      7  C1' I4B d   1      -0.347   3.464   0.724  0.00  0.00     0.060 C 
BRANCH   7   8
ATOM      8  C2' I4B d   1       0.008   4.870   0.285  0.00  0.00    -0.013 C 
ATOM      9  C4' I4B d   1      -1.096   5.839   0.615  0.00  0.00     0.013 C 
ATOM     10  C3' I4B d   1       1.289   5.257   0.961  0.00  0.00     0.013 C 
ENDBRANCH   7   8
ENDBRANCH   1   7
TORSDOF 2
ENDMDL
