MODEL 1
REMARK minimizedAffinity 1.50252557
REMARK minimizedRMSD -1
REMARK  0 active torsions:
REMARK  status: ('A' for Active; 'I' for Inactive)
ROOT
ATOM      1  C2' OXE d   1       1.530   1.460   0.797  0.00  0.00     0.078 C 
ATOM      2  C1' OXE d   1       3.768   2.883  -0.121  0.00  0.00     0.078 C 
ATOM      3  C1  OXE d   1       3.672   1.419  -0.473  0.00  0.00    -0.078 A 
ATOM      4  C2  OXE d   1       2.597   0.720   0.020  0.00  0.00    -0.078 A 
ATOM      5  C3  OXE d   1       2.432  -0.620  -0.319  0.00  0.00     0.003 A 
ATOM      6  C4  OXE d   1       3.429  -1.299  -1.030  0.00  0.00    -0.002 A 
ATOM      7  C5  OXE d   1       4.552  -0.615  -1.507  0.00  0.00    -0.002 A 
ATOM      8  C6  OXE d   1       4.667   0.751  -1.274  0.00  0.00     0.003 A 
ENDROOT
TORSDOF 0
ENDMDL
