MODEL 1
REMARK minimizedAffinity 9.34370804
REMARK minimizedRMSD -1
REMARK  0 active torsions:
REMARK  status: ('A' for Active; 'I' for Inactive)
ROOT
ATOM      1  C2' OXE d   1      -4.827   0.119  -0.521  0.00  0.00     0.078 C 
ATOM      2  C1' OXE d   1      -5.318   2.735  -1.413  0.00  0.00     0.078 C 
ATOM      3  C1  OXE d   1      -4.186   1.974  -2.056  0.00  0.00    -0.078 A 
ATOM      4  C2  OXE d   1      -3.923   0.711  -1.581  0.00  0.00    -0.078 A 
ATOM      5  C3  OXE d   1      -2.925  -0.055  -2.176  0.00  0.00     0.003 A 
ATOM      6  C4  OXE d   1      -2.087   0.504  -3.149  0.00  0.00    -0.002 A 
ATOM      7  C5  OXE d   1      -2.312   1.802  -3.619  0.00  0.00    -0.002 A 
ATOM      8  C6  OXE d   1      -3.382   2.533  -3.114  0.00  0.00     0.003 A 
ENDROOT
TORSDOF 0
ENDMDL
