MODEL 1
REMARK minimizedAffinity 5.82934713
REMARK minimizedRMSD -1
REMARK  0 active torsions:
REMARK  status: ('A' for Active; 'I' for Inactive)
ROOT
ATOM      1  C2' OXE d   1      -2.060  -0.225  -1.970  0.00  0.00     0.078 C 
ATOM      2  C1' OXE d   1      -0.248   1.283  -0.446  0.00  0.00     0.078 C 
ATOM      3  C1  OXE d   1      -1.668   1.781  -0.547  0.00  0.00    -0.078 A 
ATOM      4  C2  OXE d   1      -2.536   1.063  -1.332  0.00  0.00    -0.078 A 
ATOM      5  C3  OXE d   1      -3.871   1.448  -1.415  0.00  0.00     0.003 A 
ATOM      6  C4  OXE d   1      -4.301   2.646  -0.831  0.00  0.00    -0.002 A 
ATOM      7  C5  OXE d   1      -3.423   3.414  -0.059  0.00  0.00    -0.002 A 
ATOM      8  C6  OXE d   1      -2.117   2.974   0.128  0.00  0.00     0.003 A 
ENDROOT
TORSDOF 0
ENDMDL
