MODEL 1
REMARK minimizedAffinity 2.95440483
REMARK minimizedRMSD -1
REMARK  0 active torsions:
REMARK  status: ('A' for Active; 'I' for Inactive)
ROOT
ATOM      1  C2' OXE d   1       3.675  -3.150  -2.209  0.00  0.00     0.078 C 
ATOM      2  C1' OXE d   1       1.679  -2.963  -0.244  0.00  0.00     0.078 C 
ATOM      3  C1  OXE d   1       2.557  -1.758  -0.471  0.00  0.00    -0.078 A 
ATOM      4  C2  OXE d   1       3.561  -1.874  -1.402  0.00  0.00    -0.078 A 
ATOM      5  C3  OXE d   1       4.365  -0.774  -1.690  0.00  0.00     0.003 A 
ATOM      6  C4  OXE d   1       4.259   0.398  -0.933  0.00  0.00    -0.002 A 
ATOM      7  C5  OXE d   1       3.269   0.524   0.047  0.00  0.00    -0.002 A 
ATOM      8  C6  OXE d   1       2.384  -0.527   0.261  0.00  0.00     0.003 A 
ENDROOT
TORSDOF 0
ENDMDL
