MODEL 1
REMARK minimizedAffinity 1.23289013
REMARK minimizedRMSD -1
REMARK  0 active torsions:
REMARK  status: ('A' for Active; 'I' for Inactive)
ROOT
ATOM      1  C2' OXE d   1      -0.982   1.342  -0.490  0.00  0.00     0.078 C 
ATOM      2  C1' OXE d   1       1.749   0.782  -0.157  0.00  0.00     0.078 C 
ATOM      3  C1  OXE d   1       0.870   0.751   1.068  0.00  0.00    -0.078 A 
ATOM      4  C2  OXE d   1      -0.456   1.072   0.903  0.00  0.00    -0.078 A 
ATOM      5  C3  OXE d   1      -1.322   1.004   1.991  0.00  0.00     0.003 A 
ATOM      6  C4  OXE d   1      -0.826   0.763   3.278  0.00  0.00    -0.002 A 
ATOM      7  C5  OXE d   1       0.528   0.473   3.474  0.00  0.00    -0.002 A 
ATOM      8  C6  OXE d   1       1.380   0.421   2.376  0.00  0.00     0.003 A 
ENDROOT
TORSDOF 0
ENDMDL
