MODEL 1
REMARK minimizedAffinity 4.03408337
REMARK minimizedRMSD -1
REMARK  0 active torsions:
REMARK  status: ('A' for Active; 'I' for Inactive)
ROOT
ATOM      1  C2' OXE d   1      -0.623   0.948  -0.641  0.00  0.00     0.078 C 
ATOM      2  C1' OXE d   1       2.144   0.689  -0.241  0.00  0.00     0.078 C 
ATOM      3  C1  OXE d   1       1.256   0.718   0.978  0.00  0.00    -0.078 A 
ATOM      4  C2  OXE d   1      -0.092   0.892   0.775  0.00  0.00    -0.078 A 
ATOM      5  C3  OXE d   1      -0.961   0.871   1.862  0.00  0.00     0.003 A 
ATOM      6  C4  OXE d   1      -0.460   0.829   3.169  0.00  0.00    -0.002 A 
ATOM      7  C5  OXE d   1       0.913   0.692   3.399  0.00  0.00    -0.002 A 
ATOM      8  C6  OXE d   1       1.779   0.592   2.316  0.00  0.00     0.003 A 
ENDROOT
TORSDOF 0
ENDMDL
