MODEL 1
REMARK minimizedAffinity 2.66985488
REMARK minimizedRMSD -1
REMARK  0 active torsions:
REMARK  status: ('A' for Active; 'I' for Inactive)
ROOT
ATOM      1  C2' OXE d   1       1.233   0.624   3.146  0.00  0.00     0.078 C 
ATOM      2  C1' OXE d   1       1.949   0.757   0.435  0.00  0.00     0.078 C 
ATOM      3  C1  OXE d   1       0.519   1.065   0.801  0.00  0.00    -0.078 A 
ATOM      4  C2  OXE d   1       0.167   0.952   2.124  0.00  0.00    -0.078 A 
ATOM      5  C3  OXE d   1      -1.126   1.279   2.523  0.00  0.00     0.003 A 
ATOM      6  C4  OXE d   1      -2.110   1.572   1.571  0.00  0.00    -0.002 A 
ATOM      7  C5  OXE d   1      -1.781   1.654   0.213  0.00  0.00    -0.002 A 
ATOM      8  C6  OXE d   1      -0.465   1.445  -0.183  0.00  0.00     0.003 A 
ENDROOT
TORSDOF 0
ENDMDL
