MODEL 1
REMARK minimizedAffinity 3.47338557
REMARK minimizedRMSD -1
REMARK  0 active torsions:
REMARK  status: ('A' for Active; 'I' for Inactive)
ROOT
ATOM      1  C2' OXE d   1       3.649  -2.565  -2.753  0.00  0.00     0.078 C 
ATOM      2  C1' OXE d   1       1.437  -2.902  -1.057  0.00  0.00     0.078 C 
ATOM      3  C1  OXE d   1       2.165  -1.582  -1.009  0.00  0.00    -0.078 A 
ATOM      4  C2  OXE d   1       3.275  -1.443  -1.808  0.00  0.00    -0.078 A 
ATOM      5  C3  OXE d   1       3.951  -0.226  -1.843  0.00  0.00     0.003 A 
ATOM      6  C4  OXE d   1       3.604   0.803  -0.959  0.00  0.00    -0.002 A 
ATOM      7  C5  OXE d   1       2.502   0.667  -0.109  0.00  0.00    -0.002 A 
ATOM      8  C6  OXE d   1       1.748  -0.501  -0.152  0.00  0.00     0.003 A 
ENDROOT
TORSDOF 0
ENDMDL
