MODEL 1
REMARK minimizedAffinity 3.9709723
REMARK minimizedRMSD -1
REMARK  0 active torsions:
REMARK  status: ('A' for Active; 'I' for Inactive)
ROOT
ATOM      1  C2' OXE d   1       3.962  -2.497  -1.840  0.00  0.00     0.078 C 
ATOM      2  C1' OXE d   1       1.880  -2.883   0.002  0.00  0.00     0.078 C 
ATOM      3  C1  OXE d   1       2.412  -1.483  -0.175  0.00  0.00    -0.078 A 
ATOM      4  C2  OXE d   1       3.463  -1.311  -1.044  0.00  0.00    -0.078 A 
ATOM      5  C3  OXE d   1       3.955  -0.032  -1.286  0.00  0.00     0.003 A 
ATOM      6  C4  OXE d   1       3.494   1.058  -0.538  0.00  0.00    -0.002 A 
ATOM      7  C5  OXE d   1       2.452   0.898   0.382  0.00  0.00    -0.002 A 
ATOM      8  C6  OXE d   1       1.873  -0.355   0.544  0.00  0.00     0.003 A 
ENDROOT
TORSDOF 0
ENDMDL
