MODEL 1
REMARK minimizedAffinity -6.21778679
REMARK minimizedRMSD -1
REMARK  2 active torsions:
REMARK  status: ('A' for Active; 'I' for Inactive)
REMARK    1  A    between atoms: C1_2  and  C2_3 
REMARK    2  A    between atoms: C2_3  and  C3_4 
ROOT
ATOM      1  C3  UNL d   1       0.107   0.062  -0.358  0.00  0.00    -0.075 A 
ATOM      2  C4  UNL d   1       0.877   0.906  -1.173  0.00  0.00     0.002 A 
ATOM      3  C5  UNL d   1       2.084   0.461  -1.713  0.00  0.00     0.002 A 
ATOM      4  C6  UNL d   1       2.541  -0.826  -1.438  0.00  0.00    -0.004 A 
ATOM      5  C7  UNL d   1       1.793  -1.666  -0.616  0.00  0.00     0.002 A 
ATOM      6  C8  UNL d   1       0.583  -1.225  -0.078  0.00  0.00     0.002 A 
ENDROOT
BRANCH   1   7
ATOM      7  C2  UNL d   1      -1.214   0.528   0.205  0.00  0.00     0.056 C 
BRANCH   7   8
ATOM      8  C1  UNL d   1      -1.433   0.151   1.674  0.00  0.00     0.007 C 
ATOM      9  C   UNL d   1      -2.197   1.210   2.458  0.00  0.00     0.009 C 
ENDBRANCH   7   8
ENDBRANCH   1   7
TORSDOF 2
ENDMDL
