MODEL 1
REMARK minimizedAffinity -5.7357049
REMARK minimizedRMSD -1
REMARK  2 active torsions:
REMARK  status: ('A' for Active; 'I' for Inactive)
REMARK    1  A    between atoms: C1_2  and  C2_3 
REMARK    2  A    between atoms: C2_3  and  C3_4 
ROOT
ATOM      1  C3  UNL d   1       0.777   0.001  -0.502  0.00  0.00    -0.075 A 
ATOM      2  C4  UNL d   1       0.664   1.202  -1.217  0.00  0.00     0.002 A 
ATOM      3  C5  UNL d   1       1.613   1.545  -2.181  0.00  0.00     0.002 A 
ATOM      4  C6  UNL d   1       2.689   0.698  -2.435  0.00  0.00    -0.004 A 
ATOM      5  C7  UNL d   1       2.820  -0.490  -1.720  0.00  0.00     0.002 A 
ATOM      6  C8  UNL d   1       1.870  -0.838  -0.758  0.00  0.00     0.002 A 
ENDROOT
BRANCH   1   7
ATOM      7  C2  UNL d   1      -0.262  -0.390   0.521  0.00  0.00     0.056 C 
BRANCH   7   8
ATOM      8  C1  UNL d   1      -1.412   0.613   0.657  0.00  0.00     0.007 C 
ATOM      9  C   UNL d   1      -1.792   0.899   2.104  0.00  0.00     0.009 C 
ENDBRANCH   7   8
ENDBRANCH   1   7
TORSDOF 2
ENDMDL
