MODEL 1
REMARK minimizedAffinity -2.55138493
REMARK minimizedRMSD -1
REMARK  2 active torsions:
REMARK  status: ('A' for Active; 'I' for Inactive)
REMARK    1  A    between atoms: C1_2  and  C2_3 
REMARK    2  A    between atoms: C2_3  and  C3_4 
ROOT
ATOM      1  C3  UNL d   1       0.052  -0.294   0.034  0.00  0.00    -0.075 A 
ATOM      2  C4  UNL d   1       0.807   0.734  -0.550  0.00  0.00     0.002 A 
ATOM      3  C5  UNL d   1       2.039   0.458  -1.145  0.00  0.00     0.002 A 
ATOM      4  C6  UNL d   1       2.534  -0.844  -1.155  0.00  0.00    -0.004 A 
ATOM      5  C7  UNL d   1       1.800  -1.870  -0.564  0.00  0.00     0.002 A 
ATOM      6  C8  UNL d   1       0.566  -1.597   0.029  0.00  0.00     0.002 A 
ENDROOT
BRANCH   1   7
ATOM      7  C2  UNL d   1      -1.294  -0.006   0.654  0.00  0.00     0.056 C 
BRANCH   7   8
ATOM      8  C1  UNL d   1      -1.235   0.919   1.874  0.00  0.00     0.007 C 
ATOM      9  C   UNL d   1      -2.305   0.613   2.913  0.00  0.00     0.009 C 
ENDBRANCH   7   8
ENDBRANCH   1   7
TORSDOF 2
ENDMDL
