MODEL 1
REMARK minimizedAffinity -6.02808046
REMARK minimizedRMSD -1
REMARK  2 active torsions:
REMARK  status: ('A' for Active; 'I' for Inactive)
REMARK    1  A    between atoms: C1_2  and  C2_3 
REMARK    2  A    between atoms: C2_3  and  C3_4 
ROOT
ATOM      1  C3  UNL d   1       0.353  -0.127  -0.137  0.00  0.00    -0.075 A 
ATOM      2  C4  UNL d   1       0.758  -1.469  -0.168  0.00  0.00     0.002 A 
ATOM      3  C5  UNL d   1       1.926  -1.841  -0.834  0.00  0.00     0.002 A 
ATOM      4  C6  UNL d   1       2.697  -0.881  -1.485  0.00  0.00    -0.004 A 
ATOM      5  C7  UNL d   1       2.295   0.453  -1.475  0.00  0.00     0.002 A 
ATOM      6  C8  UNL d   1       1.129   0.829  -0.805  0.00  0.00     0.002 A 
ENDROOT
BRANCH   1   7
ATOM      7  C2  UNL d   1      -0.894   0.287   0.607  0.00  0.00     0.056 C 
BRANCH   7   8
ATOM      8  C1  UNL d   1      -0.643   0.709   2.059  0.00  0.00     0.007 C 
ATOM      9  C   UNL d   1      -1.825   1.437   2.685  0.00  0.00     0.009 C 
ENDBRANCH   7   8
ENDBRANCH   1   7
TORSDOF 2
ENDMDL
