MODEL 1
REMARK minimizedAffinity -0.957283378
REMARK minimizedRMSD -1
REMARK  2 active torsions:
REMARK  status: ('A' for Active; 'I' for Inactive)
REMARK    1  A    between atoms: C1_2  and  C2_3 
REMARK    2  A    between atoms: C2_3  and  C3_4 
ROOT
ATOM      1  C3  UNL d   1       1.090  -0.343  -0.962  0.00  0.00    -0.075 A 
ATOM      2  C4  UNL d   1       0.126  -1.043  -0.223  0.00  0.00     0.002 A 
ATOM      3  C5  UNL d   1      -1.013  -0.392   0.253  0.00  0.00     0.002 A 
ATOM      4  C6  UNL d   1      -1.196   0.967   0.006  0.00  0.00    -0.004 A 
ATOM      5  C7  UNL d   1      -0.237   1.676  -0.714  0.00  0.00     0.002 A 
ATOM      6  C8  UNL d   1       0.901   1.026  -1.195  0.00  0.00     0.002 A 
ENDROOT
BRANCH   1   7
ATOM      7  C2  UNL d   1       2.309  -1.049  -1.505  0.00  0.00     0.056 C 
BRANCH   7   8
ATOM      8  C1  UNL d   1       2.764  -0.542  -2.878  0.00  0.00     0.007 C 
ATOM      9  C   UNL d   1       1.802  -0.907  -4.001  0.00  0.00     0.009 C 
ENDBRANCH   7   8
ENDBRANCH   1   7
TORSDOF 2
ENDMDL
