MODEL 1
REMARK minimizedAffinity -3.12040329
REMARK minimizedRMSD -1
REMARK  2 active torsions:
REMARK  status: ('A' for Active; 'I' for Inactive)
REMARK    1  A    between atoms: C1_2  and  C2_3 
REMARK    2  A    between atoms: C2_3  and  C3_4 
ROOT
ATOM      1  C3  UNL d   1      -1.232   0.011   0.887  0.00  0.00    -0.075 A 
ATOM      2  C4  UNL d   1      -0.912   0.945  -0.109  0.00  0.00     0.002 A 
ATOM      3  C5  UNL d   1       0.083   0.667  -1.047  0.00  0.00     0.002 A 
ATOM      4  C6  UNL d   1       0.776  -0.540  -0.994  0.00  0.00    -0.004 A 
ATOM      5  C7  UNL d   1       0.478  -1.468   0.001  0.00  0.00     0.002 A 
ATOM      6  C8  UNL d   1      -0.521  -1.195   0.938  0.00  0.00     0.002 A 
ENDROOT
BRANCH   1   7
ATOM      7  C2  UNL d   1      -2.329   0.293   1.886  0.00  0.00     0.056 C 
BRANCH   7   8
ATOM      8  C1  UNL d   1      -1.819   0.695   3.274  0.00  0.00     0.007 C 
ATOM      9  C   UNL d   1      -1.449   2.169   3.374  0.00  0.00     0.009 C 
ENDBRANCH   7   8
ENDBRANCH   1   7
TORSDOF 2
ENDMDL
