MODEL 1
REMARK minimizedAffinity -5.7620635
REMARK minimizedRMSD -1
REMARK  2 active torsions:
REMARK  status: ('A' for Active; 'I' for Inactive)
REMARK    1  A    between atoms: C1_2  and  C2_3 
REMARK    2  A    between atoms: C2_3  and  C3_4 
ROOT
ATOM      1  C3  UNL d   1       1.085   0.147  -0.806  0.00  0.00    -0.075 A 
ATOM      2  C4  UNL d   1       1.016   1.379  -1.472  0.00  0.00     0.002 A 
ATOM      3  C5  UNL d   1       2.022   1.762  -2.360  0.00  0.00     0.002 A 
ATOM      4  C6  UNL d   1       3.113   0.925  -2.585  0.00  0.00    -0.004 A 
ATOM      5  C7  UNL d   1       3.200  -0.294  -1.916  0.00  0.00     0.002 A 
ATOM      6  C8  UNL d   1       2.193  -0.682  -1.030  0.00  0.00     0.002 A 
ENDROOT
BRANCH   1   7
ATOM      7  C2  UNL d   1      -0.015  -0.287   0.133  0.00  0.00     0.056 C 
BRANCH   7   8
ATOM      8  C1  UNL d   1      -1.207   0.675   0.183  0.00  0.00     0.007 C 
ATOM      9  C   UNL d   1      -1.894   0.709   1.542  0.00  0.00     0.009 C 
ENDBRANCH   7   8
ENDBRANCH   1   7
TORSDOF 2
ENDMDL
