MODEL 1
REMARK minimizedAffinity -6.08985567
REMARK minimizedRMSD -1
REMARK  2 active torsions:
REMARK  status: ('A' for Active; 'I' for Inactive)
REMARK    1  A    between atoms: C1_2  and  C2_3 
REMARK    2  A    between atoms: C2_3  and  C3_4 
ROOT
ATOM      1  C3  UNL d   1       1.344  -0.059  -0.703  0.00  0.00    -0.075 A 
ATOM      2  C4  UNL d   1       1.123   1.224  -1.224  0.00  0.00     0.002 A 
ATOM      3  C5  UNL d   1       2.015   1.779  -2.142  0.00  0.00     0.002 A 
ATOM      4  C6  UNL d   1       3.142   1.065  -2.542  0.00  0.00    -0.004 A 
ATOM      5  C7  UNL d   1       3.381  -0.204  -2.018  0.00  0.00     0.002 A 
ATOM      6  C8  UNL d   1       2.487  -0.764  -1.103  0.00  0.00     0.002 A 
ENDROOT
BRANCH   1   7
ATOM      7  C2  UNL d   1       0.367  -0.677   0.268  0.00  0.00     0.056 C 
BRANCH   7   8
ATOM      8  C1  UNL d   1      -1.047  -0.093   0.187  0.00  0.00     0.007 C 
ATOM      9  C   UNL d   1      -1.448   0.685   1.433  0.00  0.00     0.009 C 
ENDBRANCH   7   8
ENDBRANCH   1   7
TORSDOF 2
ENDMDL
