MODEL 1
REMARK minimizedAffinity -4.67392874
REMARK minimizedRMSD -1
REMARK  2 active torsions:
REMARK  status: ('A' for Active; 'I' for Inactive)
REMARK    1  A    between atoms: C1_2  and  C2_3 
REMARK    2  A    between atoms: C2_3  and  C3_4 
ROOT
ATOM      1  C3  UNL d   1      -0.089  -0.056  -0.255  0.00  0.00    -0.075 A 
ATOM      2  C4  UNL d   1       0.242   1.031  -1.077  0.00  0.00     0.002 A 
ATOM      3  C5  UNL d   1       1.311   0.943  -1.970  0.00  0.00     0.002 A 
ATOM      4  C6  UNL d   1       2.066  -0.226  -2.045  0.00  0.00    -0.004 A 
ATOM      5  C7  UNL d   1       1.755  -1.305  -1.221  0.00  0.00     0.002 A 
ATOM      6  C8  UNL d   1       0.684  -1.222  -0.330  0.00  0.00     0.002 A 
ENDROOT
BRANCH   1   7
ATOM      7  C2  UNL d   1      -1.263   0.022   0.693  0.00  0.00     0.056 C 
BRANCH   7   8
ATOM      8  C1  UNL d   1      -1.219   1.225   1.641  0.00  0.00     0.007 C 
ATOM      9  C   UNL d   1      -2.040   1.020   2.908  0.00  0.00     0.009 C 
ENDBRANCH   7   8
ENDBRANCH   1   7
TORSDOF 2
ENDMDL
