MODEL 1
REMARK minimizedAffinity -4.96180773
REMARK minimizedRMSD -1
REMARK  2 active torsions:
REMARK  status: ('A' for Active; 'I' for Inactive)
REMARK    1  A    between atoms: C1_2  and  C2_3 
REMARK    2  A    between atoms: C2_3  and  C3_4 
ROOT
ATOM      1  C3  UNL d   1       0.227   0.484  -0.754  0.00  0.00    -0.075 A 
ATOM      2  C4  UNL d   1       0.705  -0.831  -0.667  0.00  0.00     0.002 A 
ATOM      3  C5  UNL d   1       1.897  -1.196  -1.294  0.00  0.00     0.002 A 
ATOM      4  C6  UNL d   1       2.620  -0.254  -2.023  0.00  0.00    -0.004 A 
ATOM      5  C7  UNL d   1       2.146   1.052  -2.131  0.00  0.00     0.002 A 
ATOM      6  C8  UNL d   1       0.956   1.420  -1.501  0.00  0.00     0.002 A 
ENDROOT
BRANCH   1   7
ATOM      7  C2  UNL d   1      -1.046   0.892  -0.053  0.00  0.00     0.056 C 
BRANCH   7   8
ATOM      8  C1  UNL d   1      -1.381   0.042   1.177  0.00  0.00     0.007 C 
ATOM      9  C   UNL d   1      -2.035   0.839   2.298  0.00  0.00     0.009 C 
ENDBRANCH   7   8
ENDBRANCH   1   7
TORSDOF 2
ENDMDL
