MODEL 1
REMARK minimizedAffinity -5.19466782
REMARK minimizedRMSD -1
REMARK  2 active torsions:
REMARK  status: ('A' for Active; 'I' for Inactive)
REMARK    1  A    between atoms: C1_2  and  C2_3 
REMARK    2  A    between atoms: C2_3  and  C3_4 
ROOT
ATOM      1  C3  UNL d   1      -0.205  -0.159   0.075  0.00  0.00    -0.075 A 
ATOM      2  C4  UNL d   1       0.697   0.757  -0.485  0.00  0.00     0.002 A 
ATOM      3  C5  UNL d   1       1.902   0.319  -1.035  0.00  0.00     0.002 A 
ATOM      4  C6  UNL d   1       2.224  -1.036  -1.024  0.00  0.00    -0.004 A 
ATOM      5  C7  UNL d   1       1.342  -1.953  -0.456  0.00  0.00     0.002 A 
ATOM      6  C8  UNL d   1       0.134  -1.518   0.091  0.00  0.00     0.002 A 
ENDROOT
BRANCH   1   7
ATOM      7  C2  UNL d   1      -1.524   0.306   0.645  0.00  0.00     0.056 C 
BRANCH   7   8
ATOM      8  C1  UNL d   1      -1.434   0.819   2.086  0.00  0.00     0.007 C 
ATOM      9  C   UNL d   1      -2.789   1.177   2.682  0.00  0.00     0.009 C 
ENDBRANCH   7   8
ENDBRANCH   1   7
TORSDOF 2
ENDMDL
