MODEL 1
REMARK minimizedAffinity -3.54517794
REMARK minimizedRMSD -1
REMARK  2 active torsions:
REMARK  status: ('A' for Active; 'I' for Inactive)
REMARK    1  A    between atoms: C1_2  and  C2_3 
REMARK    2  A    between atoms: C2_3  and  C3_4 
ROOT
ATOM      1  C3  UNL d   1      -0.694   0.097   0.552  0.00  0.00    -0.075 A 
ATOM      2  C4  UNL d   1       0.271   0.690  -0.276  0.00  0.00     0.002 A 
ATOM      3  C5  UNL d   1       1.292  -0.079  -0.835  0.00  0.00     0.002 A 
ATOM      4  C6  UNL d   1       1.368  -1.443  -0.566  0.00  0.00    -0.004 A 
ATOM      5  C7  UNL d   1       0.425  -2.039   0.268  0.00  0.00     0.002 A 
ATOM      6  C8  UNL d   1      -0.601  -1.274   0.825  0.00  0.00     0.002 A 
ENDROOT
BRANCH   1   7
ATOM      7  C2  UNL d   1      -1.820   0.918   1.136  0.00  0.00     0.056 C 
BRANCH   7   8
ATOM      8  C1  UNL d   1      -1.433   1.700   2.395  0.00  0.00     0.007 C 
ATOM      9  C   UNL d   1      -1.956   1.068   3.679  0.00  0.00     0.009 C 
ENDBRANCH   7   8
ENDBRANCH   1   7
TORSDOF 2
ENDMDL
