MODEL 1
REMARK minimizedAffinity -3.68782258
REMARK minimizedRMSD -1
REMARK  2 active torsions:
REMARK  status: ('A' for Active; 'I' for Inactive)
REMARK    1  A    between atoms: C1_2  and  C2_3 
REMARK    2  A    between atoms: C2_3  and  C3_4 
ROOT
ATOM      1  C3  UNL d   1       0.498  -0.354   0.263  0.00  0.00    -0.075 A 
ATOM      2  C4  UNL d   1       0.879  -1.698   0.145  0.00  0.00     0.002 A 
ATOM      3  C5  UNL d   1       1.926  -2.067  -0.700  0.00  0.00     0.002 A 
ATOM      4  C6  UNL d   1       2.598  -1.099  -1.444  0.00  0.00    -0.004 A 
ATOM      5  C7  UNL d   1       2.217   0.237  -1.347  0.00  0.00     0.002 A 
ATOM      6  C8  UNL d   1       1.173   0.609  -0.499  0.00  0.00     0.002 A 
ENDROOT
BRANCH   1   7
ATOM      7  C2  UNL d   1      -0.615   0.055   1.198  0.00  0.00     0.056 C 
BRANCH   7   8
ATOM      8  C1  UNL d   1      -0.213   1.130   2.214  0.00  0.00     0.007 C 
ATOM      9  C   UNL d   1      -1.216   1.288   3.349  0.00  0.00     0.009 C 
ENDBRANCH   7   8
ENDBRANCH   1   7
TORSDOF 2
ENDMDL
