MODEL 1
REMARK minimizedAffinity -0.621035218
REMARK minimizedRMSD -1
REMARK  0 active torsions:
REMARK  status: ('A' for Active; 'I' for Inactive)
ROOT
ATOM      1  C   UNL d   1       1.273   0.116  -4.286  0.00  0.00     0.023 A 
ATOM      2  C1  UNL d   1       1.142   1.353  -3.653  0.00  0.00     0.003 A 
ATOM      3  C2  UNL d   1       0.689   1.418  -2.334  0.00  0.00     0.048 A 
ATOM      4  C3  UNL d   1       0.369   0.244  -1.653  0.00  0.00     0.023 A 
ATOM      5  C4  UNL d   1       0.500  -0.995  -2.282  0.00  0.00     0.048 A 
ATOM      6  C5  UNL d   1       0.952  -1.056  -3.601  0.00  0.00     0.003 A 
ATOM      7  I   UNL d   1      -0.305   0.340   0.311  0.00  0.00    -0.146 I 
ENDROOT
TORSDOF 0
ENDMDL
