MODEL 1
REMARK minimizedAffinity -3.83012414
REMARK minimizedRMSD -1
REMARK  0 active torsions:
REMARK  status: ('A' for Active; 'I' for Inactive)
ROOT
ATOM      1  C   UNL d   1      -1.948   0.433   1.462  0.00  0.00     0.023 A 
ATOM      2  C1  UNL d   1      -2.452   0.300   0.169  0.00  0.00     0.003 A 
ATOM      3  C2  UNL d   1      -1.581   0.115  -0.906  0.00  0.00     0.048 A 
ATOM      4  C3  UNL d   1      -0.206   0.063  -0.681  0.00  0.00     0.023 A 
ATOM      5  C4  UNL d   1       0.304   0.195   0.612  0.00  0.00     0.048 A 
ATOM      6  C5  UNL d   1      -0.571   0.380   1.684  0.00  0.00     0.003 A 
ATOM      7  I   UNL d   1       1.094  -0.212  -2.280  0.00  0.00    -0.146 I 
ENDROOT
TORSDOF 0
ENDMDL
