MODEL 1
REMARK minimizedAffinity -4.49842691
REMARK minimizedRMSD -1
REMARK  0 active torsions:
REMARK  status: ('A' for Active; 'I' for Inactive)
ROOT
ATOM      1  C   UNL d   1      -0.752   0.618   2.860  0.00  0.00     0.023 A 
ATOM      2  C1  UNL d   1       0.582   0.240   2.711  0.00  0.00     0.003 A 
ATOM      3  C2  UNL d   1       1.091  -0.044   1.442  0.00  0.00     0.048 A 
ATOM      4  C3  UNL d   1       0.261   0.052   0.326  0.00  0.00     0.023 A 
ATOM      5  C4  UNL d   1      -1.075   0.431   0.470  0.00  0.00     0.048 A 
ATOM      6  C5  UNL d   1      -1.580   0.713   1.741  0.00  0.00     0.003 A 
ATOM      7  I   UNL d   1       1.016  -0.371  -1.563  0.00  0.00    -0.146 I 
ENDROOT
TORSDOF 0
ENDMDL
