MODEL 1
REMARK minimizedAffinity -2.61078453
REMARK minimizedRMSD -1
REMARK  0 active torsions:
REMARK  status: ('A' for Active; 'I' for Inactive)
ROOT
ATOM      1  C   UNL d   1       1.169   0.142  -4.167  0.00  0.00     0.023 A 
ATOM      2  C1  UNL d   1       1.887   0.486  -3.021  0.00  0.00     0.003 A 
ATOM      3  C2  UNL d   1       1.303   0.341  -1.761  0.00  0.00     0.048 A 
ATOM      4  C3  UNL d   1       0.002  -0.148  -1.654  0.00  0.00     0.023 A 
ATOM      5  C4  UNL d   1      -0.720  -0.494  -2.797  0.00  0.00     0.048 A 
ATOM      6  C5  UNL d   1      -0.133  -0.347  -4.055  0.00  0.00     0.003 A 
ATOM      7  I   UNL d   1      -0.869  -0.364   0.221  0.00  0.00    -0.146 I 
ENDROOT
TORSDOF 0
ENDMDL
