MODEL 1
REMARK minimizedAffinity -4.89222956
REMARK minimizedRMSD -1
REMARK  0 active torsions:
REMARK  status: ('A' for Active; 'I' for Inactive)
ROOT
ATOM      1  C   UNL d   1      -0.951   0.370   2.754  0.00  0.00     0.023 A 
ATOM      2  C1  UNL d   1      -1.828   0.268   1.674  0.00  0.00     0.003 A 
ATOM      3  C2  UNL d   1      -1.328   0.121   0.379  0.00  0.00     0.048 A 
ATOM      4  C3  UNL d   1       0.051   0.076   0.171  0.00  0.00     0.023 A 
ATOM      5  C4  UNL d   1       0.931   0.177   1.249  0.00  0.00     0.048 A 
ATOM      6  C5  UNL d   1       0.426   0.325   2.542  0.00  0.00     0.003 A 
ATOM      7  I   UNL d   1       0.798  -0.143  -1.756  0.00  0.00    -0.146 I 
ENDROOT
TORSDOF 0
ENDMDL
