MODEL 1
REMARK minimizedAffinity -0.145170018
REMARK minimizedRMSD -1
REMARK  0 active torsions:
REMARK  status: ('A' for Active; 'I' for Inactive)
ROOT
ATOM      1  C   UNL d   1      -0.020  -0.063   3.986  0.00  0.00     0.023 A 
ATOM      2  C1  UNL d   1       1.196  -0.530   3.487  0.00  0.00     0.003 A 
ATOM      3  C2  UNL d   1       1.437  -0.523   2.111  0.00  0.00     0.048 A 
ATOM      4  C3  UNL d   1       0.458  -0.047   1.240  0.00  0.00     0.023 A 
ATOM      5  C4  UNL d   1      -0.761   0.421   1.735  0.00  0.00     0.048 A 
ATOM      6  C5  UNL d   1      -0.997   0.412   3.111  0.00  0.00     0.003 A 
ATOM      7  I   UNL d   1       0.814  -0.036  -0.807  0.00  0.00    -0.146 I 
ENDROOT
TORSDOF 0
ENDMDL
