MODEL 1
REMARK minimizedAffinity -0.612900913
REMARK minimizedRMSD -1
REMARK  0 active torsions:
REMARK  status: ('A' for Active; 'I' for Inactive)
ROOT
ATOM      1  C   UNL d   1      -1.147  -0.119   0.697  0.00  0.00     0.023 A 
ATOM      2  C1  UNL d   1      -0.527   1.084   0.361  0.00  0.00     0.003 A 
ATOM      3  C2  UNL d   1       0.118   1.219  -0.870  0.00  0.00     0.048 A 
ATOM      4  C3  UNL d   1       0.138   0.147  -1.762  0.00  0.00     0.023 A 
ATOM      5  C4  UNL d   1      -0.482  -1.059  -1.430  0.00  0.00     0.048 A 
ATOM      6  C5  UNL d   1      -1.125  -1.190  -0.198  0.00  0.00     0.003 A 
ATOM      7  I   UNL d   1       1.096   0.346  -3.595  0.00  0.00    -0.146 I 
ENDROOT
TORSDOF 0
ENDMDL
