MODEL 1
REMARK minimizedAffinity 2.90657258
REMARK minimizedRMSD -1
REMARK  0 active torsions:
REMARK  status: ('A' for Active; 'I' for Inactive)
ROOT
ATOM      1  C   UNL d   1       5.420   2.695   5.123  0.00  0.00     0.023 A 
ATOM      2  C1  UNL d   1       5.652   1.404   5.600  0.00  0.00     0.003 A 
ATOM      3  C2  UNL d   1       5.343   0.299   4.804  0.00  0.00     0.048 A 
ATOM      4  C3  UNL d   1       4.803   0.491   3.533  0.00  0.00     0.023 A 
ATOM      5  C4  UNL d   1       4.570   1.781   3.052  0.00  0.00     0.048 A 
ATOM      6  C5  UNL d   1       4.880   2.883   3.851  0.00  0.00     0.003 A 
ATOM      7  I   UNL d   1       4.343  -1.152   2.346  0.00  0.00    -0.146 I 
ENDROOT
TORSDOF 0
ENDMDL
