MODEL 1
REMARK minimizedAffinity 8.87083054
REMARK minimizedRMSD -1
REMARK  0 active torsions:
REMARK  status: ('A' for Active; 'I' for Inactive)
ROOT
ATOM      1  C   UNL d   1      -1.749   0.037   2.437  0.00  0.00     0.020 A 
ATOM      2  C1  UNL d   1      -2.906  -0.472   1.848  0.00  0.00     0.020 A 
ATOM      3  C2  UNL d   1      -2.917  -1.773   1.340  0.00  0.00     0.034 A 
ATOM      4  C3  UNL d   1      -1.769  -2.570   1.421  0.00  0.00     0.017 A 
ATOM      5  C4  UNL d   1      -0.609  -2.058   2.012  0.00  0.00     0.017 A 
ATOM      6  C5  UNL d   1      -0.603  -0.755   2.519  0.00  0.00     0.034 A 
ATOM      7 Cl   UNL d   1       0.846  -2.981   2.148  0.00  0.00    -0.070 Cl
ATOM      8 Cl1  UNL d   1      -1.854  -4.169   0.773  0.00  0.00    -0.070 Cl
ENDROOT
TORSDOF 0
ENDMDL
