MODEL 1
REMARK minimizedAffinity 4.66035223
REMARK minimizedRMSD -1
REMARK  0 active torsions:
REMARK  status: ('A' for Active; 'I' for Inactive)
ROOT
ATOM      1  C   UNL d   1      -5.913   2.577   5.108  0.00  0.00     0.020 A 
ATOM      2  C1  UNL d   1      -4.735   2.620   5.853  0.00  0.00     0.020 A 
ATOM      3  C2  UNL d   1      -3.573   2.027   5.356  0.00  0.00     0.034 A 
ATOM      4  C3  UNL d   1      -3.585   1.388   4.111  0.00  0.00     0.017 A 
ATOM      5  C4  UNL d   1      -4.768   1.344   3.364  0.00  0.00     0.017 A 
ATOM      6  C5  UNL d   1      -5.929   1.940   3.866  0.00  0.00     0.034 A 
ATOM      7 Cl   UNL d   1      -4.862   0.574   1.820  0.00  0.00    -0.070 Cl
ATOM      8 Cl1  UNL d   1      -2.111   0.676   3.558  0.00  0.00    -0.070 Cl
ENDROOT
TORSDOF 0
ENDMDL
