MODEL 1
REMARK minimizedAffinity 4.33221436
REMARK minimizedRMSD -1
REMARK  0 active torsions:
REMARK  status: ('A' for Active; 'I' for Inactive)
ROOT
ATOM      1  C   UNL d   1      -0.592  -1.790   2.326  0.00  0.00     0.020 A 
ATOM      2  C1  UNL d   1      -0.345  -1.229   3.578  0.00  0.00     0.020 A 
ATOM      3  C2  UNL d   1      -1.142  -0.182   4.043  0.00  0.00     0.034 A 
ATOM      4  C3  UNL d   1      -2.190   0.309   3.256  0.00  0.00     0.017 A 
ATOM      5  C4  UNL d   1      -2.437  -0.255   1.999  0.00  0.00     0.017 A 
ATOM      6  C5  UNL d   1      -1.636  -1.304   1.538  0.00  0.00     0.034 A 
ATOM      7 Cl   UNL d   1      -3.712   0.296   0.970  0.00  0.00    -0.070 Cl
ATOM      8 Cl1  UNL d   1      -3.136   1.606   3.894  0.00  0.00    -0.070 Cl
ENDROOT
TORSDOF 0
ENDMDL
