MODEL 1
REMARK minimizedAffinity 10.1374693
REMARK minimizedRMSD -1
REMARK  0 active torsions:
REMARK  status: ('A' for Active; 'I' for Inactive)
ROOT
ATOM      1  C   UNL d   1      -5.908   2.714  -0.377  0.00  0.00     0.020 A 
ATOM      2  C1  UNL d   1      -5.688   2.260   0.923  0.00  0.00     0.020 A 
ATOM      3  C2  UNL d   1      -5.560   0.891   1.171  0.00  0.00     0.034 A 
ATOM      4  C3  UNL d   1      -5.651  -0.027   0.119  0.00  0.00     0.017 A 
ATOM      5  C4  UNL d   1      -5.872   0.431  -1.185  0.00  0.00     0.017 A 
ATOM      6  C5  UNL d   1      -5.999   1.802  -1.428  0.00  0.00     0.034 A 
ATOM      7 Cl   UNL d   1      -5.997  -0.641  -2.535  0.00  0.00    -0.070 Cl
ATOM      8 Cl1  UNL d   1      -5.483  -1.704   0.499  0.00  0.00    -0.070 Cl
ENDROOT
TORSDOF 0
ENDMDL
