MODEL 1
REMARK minimizedAffinity 12.2243414
REMARK minimizedRMSD -1
REMARK  0 active torsions:
REMARK  status: ('A' for Active; 'I' for Inactive)
ROOT
ATOM      1  C   UNL d   1      -5.651   1.973   4.413  0.00  0.00     0.020 A 
ATOM      2  C1  UNL d   1      -4.466   2.243   5.096  0.00  0.00     0.020 A 
ATOM      3  C2  UNL d   1      -3.254   1.739   4.619  0.00  0.00     0.034 A 
ATOM      4  C3  UNL d   1      -3.225   0.963   3.454  0.00  0.00     0.017 A 
ATOM      5  C4  UNL d   1      -4.415   0.693   2.769  0.00  0.00     0.017 A 
ATOM      6  C5  UNL d   1      -5.625   1.200   3.252  0.00  0.00     0.034 A 
ATOM      7 Cl   UNL d   1      -4.458  -0.257   1.326  0.00  0.00    -0.070 Cl
ATOM      8 Cl1  UNL d   1      -1.691   0.373   2.921  0.00  0.00    -0.070 Cl
ENDROOT
TORSDOF 0
ENDMDL
