MODEL 1
REMARK minimizedAffinity 13.4238091
REMARK minimizedRMSD -1
REMARK  0 active torsions:
REMARK  status: ('A' for Active; 'I' for Inactive)
ROOT
ATOM      1  C   UNL d   1       2.754   2.320  -2.619  0.00  0.00     0.020 A 
ATOM      2  C1  UNL d   1       2.905   2.184  -3.998  0.00  0.00     0.020 A 
ATOM      3  C2  UNL d   1       3.913   2.886  -4.662  0.00  0.00     0.034 A 
ATOM      4  C3  UNL d   1       4.773   3.727  -3.947  0.00  0.00     0.017 A 
ATOM      5  C4  UNL d   1       4.620   3.863  -2.562  0.00  0.00     0.017 A 
ATOM      6  C5  UNL d   1       3.609   3.158  -1.903  0.00  0.00     0.034 A 
ATOM      7 Cl   UNL d   1       5.643   4.882  -1.612  0.00  0.00    -0.070 Cl
ATOM      8 Cl1  UNL d   1       5.998   4.565  -4.833  0.00  0.00    -0.070 Cl
ENDROOT
TORSDOF 0
ENDMDL
