MODEL 1
REMARK minimizedAffinity 8.3661375
REMARK minimizedRMSD -1
REMARK  0 active torsions:
REMARK  status: ('A' for Active; 'I' for Inactive)
ROOT
ATOM      1  C   UNL d   1      -2.097   1.006   5.541  0.00  0.00     0.020 A 
ATOM      2  C1  UNL d   1      -1.732   0.663   4.239  0.00  0.00     0.020 A 
ATOM      3  C2  UNL d   1      -2.650   0.807   3.196  0.00  0.00     0.034 A 
ATOM      4  C3  UNL d   1      -3.936   1.294   3.452  0.00  0.00     0.017 A 
ATOM      5  C4  UNL d   1      -4.302   1.638   4.759  0.00  0.00     0.017 A 
ATOM      6  C5  UNL d   1      -3.379   1.493   5.800  0.00  0.00     0.034 A 
ATOM      7 Cl   UNL d   1      -5.871   2.246   5.153  0.00  0.00    -0.070 Cl
ATOM      8 Cl1  UNL d   1      -5.019   1.446   2.114  0.00  0.00    -0.070 Cl
ENDROOT
TORSDOF 0
ENDMDL
