MODEL 1
REMARK minimizedAffinity 12.1441755
REMARK minimizedRMSD -1
REMARK  0 active torsions:
REMARK  status: ('A' for Active; 'I' for Inactive)
ROOT
ATOM      1  C   UNL d   1      -4.725   1.963   3.886  0.00  0.00     0.020 A 
ATOM      2  C1  UNL d   1      -4.535   2.179   5.250  0.00  0.00     0.020 A 
ATOM      3  C2  UNL d   1      -3.394   1.682   5.883  0.00  0.00     0.034 A 
ATOM      4  C3  UNL d   1      -2.439   0.966   5.152  0.00  0.00     0.017 A 
ATOM      5  C4  UNL d   1      -2.631   0.749   3.783  0.00  0.00     0.017 A 
ATOM      6  C5  UNL d   1      -3.775   1.250   3.154  0.00  0.00     0.034 A 
ATOM      7 Cl   UNL d   1      -1.497  -0.125   2.815  0.00  0.00    -0.070 Cl
ATOM      8 Cl1  UNL d   1      -1.052   0.380   6.000  0.00  0.00    -0.070 Cl
ENDROOT
TORSDOF 0
ENDMDL
