MODEL 1
REMARK minimizedAffinity 12.6421824
REMARK minimizedRMSD -1
REMARK  0 active torsions:
REMARK  status: ('A' for Active; 'I' for Inactive)
ROOT
ATOM      1  C   UNL d   1       0.116  -0.993   2.631  0.00  0.00     0.020 A 
ATOM      2  C1  UNL d   1      -0.479  -1.782   1.647  0.00  0.00     0.020 A 
ATOM      3  C2  UNL d   1      -1.788  -1.519   1.239  0.00  0.00     0.034 A 
ATOM      4  C3  UNL d   1      -2.508  -0.466   1.815  0.00  0.00     0.017 A 
ATOM      5  C4  UNL d   1      -1.910   0.325   2.803  0.00  0.00     0.017 A 
ATOM      6  C5  UNL d   1      -0.598   0.058   3.208  0.00  0.00     0.034 A 
ATOM      7 Cl   UNL d   1      -2.734   1.642   3.561  0.00  0.00    -0.070 Cl
ATOM      8 Cl1  UNL d   1      -4.122  -0.199   1.262  0.00  0.00    -0.070 Cl
ENDROOT
TORSDOF 0
ENDMDL
