MODEL 1
REMARK minimizedAffinity 10.5424814
REMARK minimizedRMSD -1
REMARK  0 active torsions:
REMARK  status: ('A' for Active; 'I' for Inactive)
ROOT
ATOM      1  C   UNL d   1      -3.044   1.947   5.266  0.00  0.00     0.020 A 
ATOM      2  C1  UNL d   1      -1.849   1.246   5.426  0.00  0.00     0.020 A 
ATOM      3  C2  UNL d   1      -1.370   0.438   4.393  0.00  0.00     0.034 A 
ATOM      4  C3  UNL d   1      -2.085   0.328   3.195  0.00  0.00     0.017 A 
ATOM      5  C4  UNL d   1      -3.284   1.032   3.035  0.00  0.00     0.017 A 
ATOM      6  C5  UNL d   1      -3.760   1.840   4.073  0.00  0.00     0.034 A 
ATOM      7 Cl   UNL d   1      -4.223   0.948   1.586  0.00  0.00    -0.070 Cl
ATOM      8 Cl1  UNL d   1      -1.433  -0.689   1.959  0.00  0.00    -0.070 Cl
ENDROOT
TORSDOF 0
ENDMDL
