MODEL 1
REMARK minimizedAffinity 9.36580086
REMARK minimizedRMSD -1
REMARK  0 active torsions:
REMARK  status: ('A' for Active; 'I' for Inactive)
ROOT
ATOM      1  C   UNL d   1       5.183  -6.000  -0.932  0.00  0.00     0.020 A 
ATOM      2  C1  UNL d   1       6.000  -4.881  -1.091  0.00  0.00     0.020 A 
ATOM      3  C2  UNL d   1       5.538  -3.619  -0.710  0.00  0.00     0.034 A 
ATOM      4  C3  UNL d   1       4.256  -3.474  -0.168  0.00  0.00     0.017 A 
ATOM      5  C4  UNL d   1       3.437  -4.598  -0.008  0.00  0.00     0.017 A 
ATOM      6  C5  UNL d   1       3.905  -5.858  -0.392  0.00  0.00     0.034 A 
ATOM      7 Cl   UNL d   1       1.843  -4.497   0.653  0.00  0.00    -0.070 Cl
ATOM      8 Cl1  UNL d   1       3.749  -1.884   0.282  0.00  0.00    -0.070 Cl
ENDROOT
TORSDOF 0
ENDMDL
