MODEL 1
REMARK minimizedAffinity 6.75010967
REMARK minimizedRMSD -1
REMARK  0 active torsions:
REMARK  status: ('A' for Active; 'I' for Inactive)
ROOT
ATOM      1  C   UNL d   1      -1.627   1.089   4.660  0.00  0.00     0.020 A 
ATOM      2  C1  UNL d   1      -0.789   0.428   5.557  0.00  0.00     0.020 A 
ATOM      3  C2  UNL d   1       0.066  -0.578   5.103  0.00  0.00     0.034 A 
ATOM      4  C3  UNL d   1       0.085  -0.926   3.747  0.00  0.00     0.017 A 
ATOM      5  C4  UNL d   1      -0.756  -0.262   2.847  0.00  0.00     0.017 A 
ATOM      6  C5  UNL d   1      -1.611   0.744   3.308  0.00  0.00     0.034 A 
ATOM      7 Cl   UNL d   1      -0.789  -0.636   1.160  0.00  0.00    -0.070 Cl
ATOM      8 Cl1  UNL d   1       1.169  -2.179   3.254  0.00  0.00    -0.070 Cl
ENDROOT
TORSDOF 0
ENDMDL
