MODEL 1
REMARK minimizedAffinity 19.8385601
REMARK minimizedRMSD -1
REMARK  0 active torsions:
REMARK  status: ('A' for Active; 'I' for Inactive)
ROOT
ATOM      1  C   UNL d   1       0.270  -1.034   2.344  0.00  0.00     0.020 A 
ATOM      2  C1  UNL d   1      -0.379  -1.873   1.440  0.00  0.00     0.020 A 
ATOM      3  C2  UNL d   1      -1.757  -1.757   1.244  0.00  0.00     0.034 A 
ATOM      4  C3  UNL d   1      -2.490  -0.799   1.954  0.00  0.00     0.017 A 
ATOM      5  C4  UNL d   1      -1.837   0.043   2.862  0.00  0.00     0.017 A 
ATOM      6  C5  UNL d   1      -0.457  -0.078   3.054  0.00  0.00     0.034 A 
ATOM      7 Cl   UNL d   1      -2.674   1.249   3.775  0.00  0.00    -0.070 Cl
ATOM      8 Cl1  UNL d   1      -4.191  -0.710   1.663  0.00  0.00    -0.070 Cl
ENDROOT
TORSDOF 0
ENDMDL
