MODEL 1
REMARK minimizedAffinity 8.87305355
REMARK minimizedRMSD -1
REMARK  0 active torsions:
REMARK  status: ('A' for Active; 'I' for Inactive)
ROOT
ATOM      1  C   UNL d   1      -1.523  -5.999  -6.000  0.00  0.00     0.020 A 
ATOM      2  C1  UNL d   1      -2.655  -5.912  -5.191  0.00  0.00     0.020 A 
ATOM      3  C2  UNL d   1      -2.530  -5.533  -3.853  0.00  0.00     0.034 A 
ATOM      4  C3  UNL d   1      -1.270  -5.241  -3.319  0.00  0.00     0.017 A 
ATOM      5  C4  UNL d   1      -0.133  -5.330  -4.131  0.00  0.00     0.017 A 
ATOM      6  C5  UNL d   1      -0.265  -5.709  -5.471  0.00  0.00     0.034 A 
ATOM      7 Cl   UNL d   1       1.455  -4.985  -3.544  0.00  0.00    -0.070 Cl
ATOM      8 Cl1  UNL d   1      -1.189  -4.779  -1.656  0.00  0.00    -0.070 Cl
ENDROOT
TORSDOF 0
ENDMDL
