MODEL 1
REMARK minimizedAffinity 7.21564388
REMARK minimizedRMSD -1
REMARK  0 active torsions:
REMARK  status: ('A' for Active; 'I' for Inactive)
ROOT
ATOM      1  C   UNL d   1       0.333  -0.694   4.681  0.00  0.00     0.020 A 
ATOM      2  C1  UNL d   1      -0.529   0.164   3.999  0.00  0.00     0.020 A 
ATOM      3  C2  UNL d   1      -1.031  -0.201   2.748  0.00  0.00     0.034 A 
ATOM      4  C3  UNL d   1      -0.671  -1.426   2.175  0.00  0.00     0.017 A 
ATOM      5  C4  UNL d   1       0.194  -2.286   2.861  0.00  0.00     0.017 A 
ATOM      6  C5  UNL d   1       0.694  -1.916   4.113  0.00  0.00     0.034 A 
ATOM      7 Cl   UNL d   1       0.684  -3.814   2.218  0.00  0.00    -0.070 Cl
ATOM      8 Cl1  UNL d   1      -1.330  -1.812   0.625  0.00  0.00    -0.070 Cl
ENDROOT
TORSDOF 0
ENDMDL
