MODEL 1
REMARK minimizedAffinity 4.20578194
REMARK minimizedRMSD -1
REMARK  0 active torsions:
REMARK  status: ('A' for Active; 'I' for Inactive)
ROOT
ATOM      1  C   UNL d   1      -1.886  -5.843  -4.880  0.00  0.00     0.020 A 
ATOM      2  C1  UNL d   1      -2.878  -5.998  -3.913  0.00  0.00     0.020 A 
ATOM      3  C2  UNL d   1      -2.574  -5.805  -2.564  0.00  0.00     0.034 A 
ATOM      4  C3  UNL d   1      -1.274  -5.455  -2.178  0.00  0.00     0.017 A 
ATOM      5  C4  UNL d   1      -0.279  -5.300  -3.150  0.00  0.00     0.017 A 
ATOM      6  C5  UNL d   1      -0.589  -5.494  -4.499  0.00  0.00     0.034 A 
ATOM      7 Cl   UNL d   1       1.346  -4.869  -2.751  0.00  0.00    -0.070 Cl
ATOM      8 Cl1  UNL d   1      -0.970  -5.232  -0.492  0.00  0.00    -0.070 Cl
ENDROOT
TORSDOF 0
ENDMDL
