MODEL 1
REMARK minimizedAffinity 8.81184864
REMARK minimizedRMSD -1
REMARK  0 active torsions:
REMARK  status: ('A' for Active; 'I' for Inactive)
ROOT
ATOM      1  C   UNL d   1       1.083  -1.424   2.447  0.00  0.00     0.020 A 
ATOM      2  C1  UNL d   1       1.245  -0.833   3.699  0.00  0.00     0.020 A 
ATOM      3  C2  UNL d   1       0.243  -0.010   4.218  0.00  0.00     0.034 A 
ATOM      4  C3  UNL d   1      -0.925   0.225   3.483  0.00  0.00     0.017 A 
ATOM      5  C4  UNL d   1      -1.086  -0.369   2.226  0.00  0.00     0.017 A 
ATOM      6  C5  UNL d   1      -0.080  -1.192   1.712  0.00  0.00     0.034 A 
ATOM      7 Cl   UNL d   1      -2.500  -0.126   1.261  0.00  0.00    -0.070 Cl
ATOM      8 Cl1  UNL d   1      -2.122   1.254   4.185  0.00  0.00    -0.070 Cl
ENDROOT
TORSDOF 0
ENDMDL
