MODEL 1
REMARK minimizedAffinity 13.4773054
REMARK minimizedRMSD -1
REMARK  0 active torsions:
REMARK  status: ('A' for Active; 'I' for Inactive)
ROOT
ATOM      1  C   UNL d   1      -0.570   0.033   3.138  0.00  0.00     0.020 A 
ATOM      2  C1  UNL d   1      -1.074  -0.482   1.944  0.00  0.00     0.020 A 
ATOM      3  C2  UNL d   1      -2.434  -0.364   1.651  0.00  0.00     0.034 A 
ATOM      4  C3  UNL d   1      -3.296   0.270   2.553  0.00  0.00     0.017 A 
ATOM      5  C4  UNL d   1      -2.790   0.787   3.752  0.00  0.00     0.017 A 
ATOM      6  C5  UNL d   1      -1.427   0.666   4.040  0.00  0.00     0.034 A 
ATOM      7 Cl   UNL d   1      -3.791   1.583   4.914  0.00  0.00    -0.070 Cl
ATOM      8 Cl1  UNL d   1      -4.967   0.380   2.127  0.00  0.00    -0.070 Cl
ENDROOT
TORSDOF 0
ENDMDL
