MODEL 1
REMARK minimizedAffinity -2.58395267
REMARK minimizedRMSD -1
REMARK  1 active torsions:
REMARK  status: ('A' for Active; 'I' for Inactive)
REMARK    1  A    between atoms: C3_4  and  O_7 
ROOT
ATOM      1  C   UNL d   1       3.744   2.270   5.250  0.00  0.00    -0.033 A 
ATOM      2  C1  UNL d   1       4.081   3.602   5.000  0.00  0.00     0.039 A 
ATOM      3  C2  UNL d   1       3.154   4.617   5.247  0.00  0.00    -0.080 A 
ATOM      4  C3  UNL d   1       1.897   4.288   5.744  0.00  0.00     0.150 A 
ATOM      5  C4  UNL d   1       1.555   2.963   5.999  0.00  0.00    -0.007 A 
ATOM      6  C5  UNL d   1       2.481   1.951   5.751  0.00  0.00     0.039 A 
ENDROOT
BRANCH   4   7
ATOM      7  O   UNL d   1       0.958   5.243   5.997  0.00  0.00    -0.526 OA
ATOM      8  H5  UNL d   1       1.323   6.108   5.746  0.00  0.00     0.418 HD
ENDBRANCH   4   7
TORSDOF 1
ENDMDL
