MODEL 1
REMARK minimizedAffinity -0.845045507
REMARK minimizedRMSD -1
REMARK  1 active torsions:
REMARK  status: ('A' for Active; 'I' for Inactive)
REMARK    1  A    between atoms: C3_4  and  O_7 
ROOT
ATOM      1  C   UNL d   1      -1.879  -5.931   4.848  0.00  0.00    -0.033 A 
ATOM      2  C1  UNL d   1      -1.688  -5.165   6.000  0.00  0.00     0.039 A 
ATOM      3  C2  UNL d   1      -0.765  -4.118   5.998  0.00  0.00    -0.080 A 
ATOM      4  C3  UNL d   1      -0.041  -3.847   4.841  0.00  0.00     0.150 A 
ATOM      5  C4  UNL d   1      -0.229  -4.603   3.689  0.00  0.00    -0.007 A 
ATOM      6  C5  UNL d   1      -1.151  -5.649   3.692  0.00  0.00     0.039 A 
ENDROOT
BRANCH   4   7
ATOM      7  O   UNL d   1       0.875  -2.838   4.793  0.00  0.00    -0.526 OA
ATOM      8  H5  UNL d   1       0.919  -2.420   5.669  0.00  0.00     0.418 HD
ENDBRANCH   4   7
TORSDOF 1
ENDMDL
