MODEL 1
REMARK minimizedAffinity -0.767192304
REMARK minimizedRMSD -1
REMARK  1 active torsions:
REMARK  status: ('A' for Active; 'I' for Inactive)
REMARK    1  A    between atoms: C3_4  and  O_7 
ROOT
ATOM      1  C   UNL d   1       3.566   2.750   5.982  0.00  0.00    -0.033 A 
ATOM      2  C1  UNL d   1       4.011   4.073   5.979  0.00  0.00     0.039 A 
ATOM      3  C2  UNL d   1       3.088   5.122   5.984  0.00  0.00    -0.080 A 
ATOM      4  C3  UNL d   1       1.726   4.833   5.992  0.00  0.00     0.150 A 
ATOM      5  C4  UNL d   1       1.276   3.517   5.999  0.00  0.00    -0.007 A 
ATOM      6  C5  UNL d   1       2.199   2.472   5.993  0.00  0.00     0.039 A 
ENDROOT
BRANCH   4   7
ATOM      7  O   UNL d   1       0.788   5.823   5.992  0.00  0.00    -0.526 OA
ATOM      8  H5  UNL d   1       1.245   6.680   5.958  0.00  0.00     0.418 HD
ENDBRANCH   4   7
TORSDOF 1
ENDMDL
