MODEL 1
REMARK minimizedAffinity -0.635277629
REMARK minimizedRMSD -1
REMARK  1 active torsions:
REMARK  status: ('A' for Active; 'I' for Inactive)
REMARK    1  A    between atoms: C3_4  and  O_7 
ROOT
ATOM      1  C   UNL d   1       4.045   1.576   4.198  0.00  0.00    -0.033 A 
ATOM      2  C1  UNL d   1       3.385   1.242   5.382  0.00  0.00     0.039 A 
ATOM      3  C2  UNL d   1       2.543   2.168   6.000  0.00  0.00    -0.080 A 
ATOM      4  C3  UNL d   1       2.368   3.423   5.424  0.00  0.00     0.150 A 
ATOM      5  C4  UNL d   1       3.019   3.762   4.242  0.00  0.00    -0.007 A 
ATOM      6  C5  UNL d   1       3.861   2.836   3.628  0.00  0.00     0.039 A 
ENDROOT
BRANCH   4   7
ATOM      7  O   UNL d   1       1.560   4.362   5.993  0.00  0.00    -0.526 OA
ATOM      8  H5  UNL d   1       1.199   3.998   6.819  0.00  0.00     0.418 HD
ENDBRANCH   4   7
TORSDOF 1
ENDMDL
