MODEL 1
REMARK minimizedAffinity 1.47283268
REMARK minimizedRMSD -1
REMARK  1 active torsions:
REMARK  status: ('A' for Active; 'I' for Inactive)
REMARK    1  A    between atoms: C3_4  and  O_7 
ROOT
ATOM      1  C   UNL d   1       3.796   3.945   5.657  0.00  0.00    -0.033 A 
ATOM      2  C1  UNL d   1       2.628   3.263   6.000  0.00  0.00     0.039 A 
ATOM      3  C2  UNL d   1       1.402   3.931   5.999  0.00  0.00    -0.080 A 
ATOM      4  C3  UNL d   1       1.358   5.279   5.653  0.00  0.00     0.150 A 
ATOM      5  C4  UNL d   1       2.518   5.963   5.306  0.00  0.00    -0.007 A 
ATOM      6  C5  UNL d   1       3.742   5.295   5.308  0.00  0.00     0.039 A 
ENDROOT
BRANCH   4   7
ATOM      7  O   UNL d   1       0.186   5.974   5.643  0.00  0.00    -0.526 OA
ATOM      8  H5  UNL d   1      -0.527   5.380   5.932  0.00  0.00     0.418 HD
ENDBRANCH   4   7
TORSDOF 1
ENDMDL
