MODEL 1
REMARK minimizedAffinity 2.09939384
REMARK minimizedRMSD -1
REMARK  1 active torsions:
REMARK  status: ('A' for Active; 'I' for Inactive)
REMARK    1  A    between atoms: C3_4  and  O_7 
ROOT
ATOM      1  C   UNL d   1       4.572   3.092   5.990  0.00  0.00    -0.033 A 
ATOM      2  C1  UNL d   1       4.534   4.488   5.985  0.00  0.00     0.039 A 
ATOM      3  C2  UNL d   1       3.306   5.154   5.984  0.00  0.00    -0.080 A 
ATOM      4  C3  UNL d   1       2.127   4.414   5.990  0.00  0.00     0.150 A 
ATOM      5  C4  UNL d   1       2.158   3.024   5.999  0.00  0.00    -0.007 A 
ATOM      6  C5  UNL d   1       3.385   2.360   5.998  0.00  0.00     0.039 A 
ENDROOT
BRANCH   4   7
ATOM      7  O   UNL d   1       0.906   5.020   5.984  0.00  0.00    -0.526 OA
ATOM      8  H5  UNL d   1       1.040   5.982   5.949  0.00  0.00     0.418 HD
ENDBRANCH   4   7
TORSDOF 1
ENDMDL
