MODEL 1
REMARK minimizedAffinity 4.53569794
REMARK minimizedRMSD -1
REMARK  1 active torsions:
REMARK  status: ('A' for Active; 'I' for Inactive)
REMARK    1  A    between atoms: C3_4  and  O_7 
ROOT
ATOM      1  C   UNL d   1       5.492   2.660   0.331  0.00  0.00    -0.033 A 
ATOM      2  C1  UNL d   1       4.113   2.873   0.371  0.00  0.00     0.039 A 
ATOM      3  C2  UNL d   1       3.238   1.868  -0.046  0.00  0.00    -0.080 A 
ATOM      4  C3  UNL d   1       3.754   0.656  -0.498  0.00  0.00     0.150 A 
ATOM      5  C4  UNL d   1       5.127   0.437  -0.536  0.00  0.00    -0.007 A 
ATOM      6  C5  UNL d   1       5.999   1.442  -0.121  0.00  0.00     0.039 A 
ENDROOT
BRANCH   4   7
ATOM      7  O   UNL d   1       2.940  -0.352  -0.919  0.00  0.00    -0.526 OA
ATOM      8  H5  UNL d   1       2.019  -0.048  -0.863  0.00  0.00     0.418 HD
ENDBRANCH   4   7
TORSDOF 1
ENDMDL
