MODEL 1
REMARK minimizedAffinity 0.852520466
REMARK minimizedRMSD -1
REMARK  1 active torsions:
REMARK  status: ('A' for Active; 'I' for Inactive)
REMARK    1  A    between atoms: C3_4  and  O_7 
ROOT
ATOM      1  C   UNL d   1       4.556   4.253   4.512  0.00  0.00    -0.033 A 
ATOM      2  C1  UNL d   1       5.249   3.154   3.999  0.00  0.00     0.039 A 
ATOM      3  C2  UNL d   1       4.989   1.872   4.488  0.00  0.00    -0.080 A 
ATOM      4  C3  UNL d   1       4.034   1.703   5.487  0.00  0.00     0.150 A 
ATOM      5  C4  UNL d   1       3.338   2.792   6.000  0.00  0.00    -0.007 A 
ATOM      6  C5  UNL d   1       3.599   4.071   5.511  0.00  0.00     0.039 A 
ENDROOT
BRANCH   4   7
ATOM      7  O   UNL d   1       3.750   0.472   5.999  0.00  0.00    -0.526 OA
ATOM      8  H5  UNL d   1       4.328  -0.181   5.570  0.00  0.00     0.418 HD
ENDBRANCH   4   7
TORSDOF 1
ENDMDL
