MODEL 1
REMARK minimizedAffinity 0.579313517
REMARK minimizedRMSD -1
REMARK  1 active torsions:
REMARK  status: ('A' for Active; 'I' for Inactive)
REMARK    1  A    between atoms: C3_4  and  O_7 
ROOT
ATOM      1  C   UNL d   1      -0.363  -6.000   5.167  0.00  0.00    -0.033 A 
ATOM      2  C1  UNL d   1      -0.502  -5.494   3.873  0.00  0.00     0.039 A 
ATOM      3  C2  UNL d   1       0.369  -4.505   3.411  0.00  0.00    -0.080 A 
ATOM      4  C3  UNL d   1       1.373  -4.032   4.251  0.00  0.00     0.150 A 
ATOM      5  C4  UNL d   1       1.519  -4.534   5.540  0.00  0.00    -0.007 A 
ATOM      6  C5  UNL d   1       0.648  -5.521   6.000  0.00  0.00     0.039 A 
ENDROOT
BRANCH   4   7
ATOM      7  O   UNL d   1       2.244  -3.064   3.847  0.00  0.00    -0.526 OA
ATOM      8  H5  UNL d   1       2.004  -2.793   2.945  0.00  0.00     0.418 HD
ENDBRANCH   4   7
TORSDOF 1
ENDMDL
