MODEL 1
REMARK minimizedAffinity 7.69559669
REMARK minimizedRMSD -1
REMARK  0 active torsions:
REMARK  status: ('A' for Active; 'I' for Inactive)
ROOT
ATOM      1  C4' PXY d   1       1.541  -0.452  -1.358  0.00  0.00     0.077 C 
ATOM      2  C1' PXY d   1       1.629  -0.491   4.421  0.00  0.00     0.077 C 
ATOM      3  C1  PXY d   1       1.603  -0.468   2.906  0.00  0.00    -0.082 A 
ATOM      4  C2  PXY d   1       1.349  -1.582   2.239  0.00  0.00     0.003 A 
ATOM      5  C3  PXY d   1       1.353  -1.586   0.868  0.00  0.00     0.003 A 
ATOM      6  C4  PXY d   1       1.568  -0.426   0.172  0.00  0.00    -0.082 A 
ATOM      7  C5  PXY d   1       1.818   0.717   0.845  0.00  0.00     0.003 A 
ATOM      8  C6  PXY d   1       1.850   0.691   2.237  0.00  0.00     0.003 A 
ENDROOT
TORSDOF 0
ENDMDL
