MODEL 1
REMARK minimizedAffinity 7.79714632
REMARK minimizedRMSD -1
REMARK  0 active torsions:
REMARK  status: ('A' for Active; 'I' for Inactive)
ROOT
ATOM      1  C4' PXY d   1       3.341   5.015  -0.881  0.00  0.00     0.077 C 
ATOM      2  C1' PXY d   1       6.000   5.898  -5.938  0.00  0.00     0.077 C 
ATOM      3  C1  PXY d   1       5.291   5.667  -4.618  0.00  0.00    -0.082 A 
ATOM      4  C2  PXY d   1       5.891   6.000  -3.486  0.00  0.00     0.003 A 
ATOM      5  C3  PXY d   1       5.278   5.768  -2.282  0.00  0.00     0.003 A 
ATOM      6  C4  PXY d   1       4.015   5.239  -2.238  0.00  0.00    -0.082 A 
ATOM      7  C5  PXY d   1       3.392   4.908  -3.388  0.00  0.00     0.003 A 
ATOM      8  C6  PXY d   1       4.049   5.113  -4.598  0.00  0.00     0.003 A 
ENDROOT
TORSDOF 0
ENDMDL
