MODEL 1
REMARK minimizedAffinity 3.07847667
REMARK minimizedRMSD -1
REMARK  0 active torsions:
REMARK  status: ('A' for Active; 'I' for Inactive)
ROOT
ATOM      1  C4' PXY d   1      -5.978  -3.015  -6.000  0.00  0.00     0.077 C 
ATOM      2  C1' PXY d   1      -4.397  -5.622  -1.089  0.00  0.00     0.077 C 
ATOM      3  C1  PXY d   1      -4.802  -4.944  -2.383  0.00  0.00    -0.082 A 
ATOM      4  C2  PXY d   1      -5.483  -3.811  -2.343  0.00  0.00     0.003 A 
ATOM      5  C3  PXY d   1      -5.885  -3.201  -3.503  0.00  0.00     0.003 A 
ATOM      6  C4  PXY d   1      -5.540  -3.729  -4.718  0.00  0.00    -0.082 A 
ATOM      7  C5  PXY d   1      -4.836  -4.879  -4.768  0.00  0.00     0.003 A 
ATOM      8  C6  PXY d   1      -4.473  -5.504  -3.579  0.00  0.00     0.003 A 
ENDROOT
TORSDOF 0
ENDMDL
