MODEL 1
REMARK minimizedAffinity 4.05034494
REMARK minimizedRMSD -1
REMARK  0 active torsions:
REMARK  status: ('A' for Active; 'I' for Inactive)
ROOT
ATOM      1  C4' PXY d   1       1.120  -3.109  -1.115  0.00  0.00     0.077 C 
ATOM      2  C1' PXY d   1      -0.238   1.491   2.110  0.00  0.00     0.077 C 
ATOM      3  C1  PXY d   1       0.106   0.281   1.265  0.00  0.00    -0.082 A 
ATOM      4  C2  PXY d   1       1.353  -0.161   1.231  0.00  0.00     0.003 A 
ATOM      5  C3  PXY d   1       1.687  -1.234   0.447  0.00  0.00     0.003 A 
ATOM      6  C4  PXY d   1       0.726  -1.896  -0.268  0.00  0.00    -0.082 A 
ATOM      7  C5  PXY d   1      -0.551  -1.458  -0.231  0.00  0.00     0.003 A 
ATOM      8  C6  PXY d   1      -0.862  -0.341   0.539  0.00  0.00     0.003 A 
ENDROOT
TORSDOF 0
ENDMDL
