MODEL 1
REMARK minimizedAffinity 0.734072626
REMARK minimizedRMSD -1
REMARK  0 active torsions:
REMARK  status: ('A' for Active; 'I' for Inactive)
ROOT
ATOM      1  C4' PXY d   1       2.269   3.857  -1.173  0.00  0.00     0.077 C 
ATOM      2  C1' PXY d   1       2.611  -0.960   2.002  0.00  0.00     0.077 C 
ATOM      3  C1  PXY d   1       2.534   0.307   1.173  0.00  0.00    -0.082 A 
ATOM      4  C2  PXY d   1       1.352   0.809   0.856  0.00  0.00     0.003 A 
ATOM      5  C3  PXY d   1       1.263   1.936   0.081  0.00  0.00     0.003 A 
ATOM      6  C4  PXY d   1       2.396   2.586  -0.330  0.00  0.00    -0.082 A 
ATOM      7  C5  PXY d   1       3.606   2.085  -0.002  0.00  0.00     0.003 A 
ATOM      8  C6  PXY d   1       3.674   0.917   0.751  0.00  0.00     0.003 A 
ENDROOT
TORSDOF 0
ENDMDL
