MODEL 1
REMARK minimizedAffinity 7.14392471
REMARK minimizedRMSD -1
REMARK  0 active torsions:
REMARK  status: ('A' for Active; 'I' for Inactive)
ROOT
ATOM      1  C4' PXY d   1       2.988   3.887  -0.758  0.00  0.00     0.077 C 
ATOM      2  C1' PXY d   1       2.573  -1.124   2.093  0.00  0.00     0.077 C 
ATOM      3  C1  PXY d   1       2.694   0.188   1.344  0.00  0.00    -0.082 A 
ATOM      4  C2  PXY d   1       1.787   1.133   1.528  0.00  0.00     0.003 A 
ATOM      5  C3  PXY d   1       1.864   2.313   0.835  0.00  0.00     0.003 A 
ATOM      6  C4  PXY d   1       2.911   2.550  -0.016  0.00  0.00    -0.082 A 
ATOM      7  C5  PXY d   1       3.847   1.595  -0.201  0.00  0.00     0.003 A 
ATOM      8  C6  PXY d   1       3.728   0.388   0.481  0.00  0.00     0.003 A 
ENDROOT
TORSDOF 0
ENDMDL
