MODEL 1
REMARK minimizedAffinity 0.320402026
REMARK minimizedRMSD -1
REMARK  0 active torsions:
REMARK  status: ('A' for Active; 'I' for Inactive)
ROOT
ATOM      1  C4' PXY d   1       1.411  -2.617   2.710  0.00  0.00     0.077 C 
ATOM      2  C1' PXY d   1       1.851   2.401  -0.126  0.00  0.00     0.077 C 
ATOM      3  C1  PXY d   1       1.724   1.088   0.622  0.00  0.00    -0.082 A 
ATOM      4  C2  PXY d   1       2.815   0.436   0.989  0.00  0.00     0.003 A 
ATOM      5  C3  PXY d   1       2.718  -0.768   1.638  0.00  0.00     0.003 A 
ATOM      6  C4  PXY d   1       1.492  -1.284   1.962  0.00  0.00    -0.082 A 
ATOM      7  C5  PXY d   1       0.374  -0.619   1.600  0.00  0.00     0.003 A 
ATOM      8  C6  PXY d   1       0.493   0.581   0.906  0.00  0.00     0.003 A 
ENDROOT
TORSDOF 0
ENDMDL
