MODEL 1
REMARK minimizedAffinity 3.8821435
REMARK minimizedRMSD -1
REMARK  0 active torsions:
REMARK  status: ('A' for Active; 'I' for Inactive)
ROOT
ATOM      1  C4' PXY d   1       0.478  -0.423   1.987  0.00  0.00     0.077 C 
ATOM      2  C1' PXY d   1       2.428   4.405  -0.524  0.00  0.00     0.077 C 
ATOM      3  C1  PXY d   1       1.905   3.145   0.138  0.00  0.00    -0.082 A 
ATOM      4  C2  PXY d   1       2.757   2.211   0.530  0.00  0.00     0.003 A 
ATOM      5  C3  PXY d   1       2.300   1.051   1.101  0.00  0.00     0.003 A 
ATOM      6  C4  PXY d   1       0.961   0.869   1.322  0.00  0.00    -0.082 A 
ATOM      7  C5  PXY d   1       0.087   1.822   0.935  0.00  0.00     0.003 A 
ATOM      8  C6  PXY d   1       0.568   2.974   0.319  0.00  0.00     0.003 A 
ENDROOT
TORSDOF 0
ENDMDL
