MODEL 1
REMARK minimizedAffinity -3.70754313
REMARK minimizedRMSD -1
REMARK  0 active torsions:
REMARK  status: ('A' for Active; 'I' for Inactive)
ROOT
ATOM      1  C4' PXY d   1      -4.153  -5.999  -1.171  0.00  0.00     0.077 C 
ATOM      2  C1' PXY d   1      -6.000  -3.410  -5.998  0.00  0.00     0.077 C 
ATOM      3  C1  PXY d   1      -5.512  -4.077  -4.727  0.00  0.00    -0.082 A 
ATOM      4  C2  PXY d   1      -5.202  -5.364  -4.741  0.00  0.00     0.003 A 
ATOM      5  C3  PXY d   1      -4.789  -5.991  -3.594  0.00  0.00     0.003 A 
ATOM      6  C4  PXY d   1      -4.641  -5.281  -2.432  0.00  0.00    -0.082 A 
ATOM      7  C5  PXY d   1      -4.945  -3.966  -2.412  0.00  0.00     0.003 A 
ATOM      8  C6  PXY d   1      -5.401  -3.358  -3.578  0.00  0.00     0.003 A 
ENDROOT
TORSDOF 0
ENDMDL
