MODEL 1
REMARK minimizedAffinity 3.86207509
REMARK minimizedRMSD -1
REMARK  0 active torsions:
REMARK  status: ('A' for Active; 'I' for Inactive)
ROOT
ATOM      1  C4' PXY d   1      -5.783  -3.282  -5.672  0.00  0.00     0.077 C 
ATOM      2  C1' PXY d   1      -5.999  -5.989  -0.569  0.00  0.00     0.077 C 
ATOM      3  C1  PXY d   1      -5.947  -5.268  -1.902  0.00  0.00    -0.082 A 
ATOM      4  C2  PXY d   1      -5.957  -5.968  -3.025  0.00  0.00     0.003 A 
ATOM      5  C3  PXY d   1      -5.879  -5.334  -4.238  0.00  0.00     0.003 A 
ATOM      6  C4  PXY d   1      -5.843  -3.967  -4.304  0.00  0.00    -0.082 A 
ATOM      7  C5  PXY d   1      -5.844  -3.245  -3.163  0.00  0.00     0.003 A 
ATOM      8  C6  PXY d   1      -5.883  -3.910  -1.941  0.00  0.00     0.003 A 
ENDROOT
TORSDOF 0
ENDMDL
