MODEL 1
REMARK minimizedAffinity 0.276351511
REMARK minimizedRMSD -1
REMARK  0 active torsions:
REMARK  status: ('A' for Active; 'I' for Inactive)
ROOT
ATOM      1  C4' PXY d   1      -4.581   2.770  -3.302  0.00  0.00     0.077 C 
ATOM      2  C1' PXY d   1      -6.000  -2.142  -5.999  0.00  0.00     0.077 C 
ATOM      3  C1  PXY d   1      -5.624  -0.848  -5.303  0.00  0.00    -0.082 A 
ATOM      4  C2  PXY d   1      -5.321  -0.863  -4.015  0.00  0.00     0.003 A 
ATOM      5  C3  PXY d   1      -5.010   0.303  -3.363  0.00  0.00     0.003 A 
ATOM      6  C4  PXY d   1      -4.957   1.487  -4.048  0.00  0.00    -0.082 A 
ATOM      7  C5  PXY d   1      -5.255   1.508  -5.365  0.00  0.00     0.003 A 
ATOM      8  C6  PXY d   1      -5.608   0.321  -5.999  0.00  0.00     0.003 A 
ENDROOT
TORSDOF 0
ENDMDL
