MODEL 1
REMARK minimizedAffinity -3.09947205
REMARK minimizedRMSD -1
REMARK  1 active torsions:
REMARK  status: ('A' for Active; 'I' for Inactive)
REMARK    1  A    between atoms: N_2  and  C1_3 
ROOT
ATOM      1  C1  UNL d   1       0.082  -0.010   0.525  0.00  0.00     0.143 A 
ATOM      2  C2  UNL d   1       1.063   0.976   0.371  0.00  0.00    -0.057 A 
ATOM      3  C3  UNL d   1       2.259   0.930   1.099  0.00  0.00     0.033 A 
ATOM      4  C4  UNL d   1       2.482  -0.090   2.018  0.00  0.00    -0.042 A 
ATOM      5  C5  UNL d   1       1.510  -1.066   2.206  0.00  0.00     0.033 A 
ATOM      6  C6  UNL d   1       0.322  -1.019   1.471  0.00  0.00    -0.057 A 
ENDROOT
BRANCH   1   7
ATOM      7  N   UNL d   1      -1.168   0.033  -0.097  0.00  0.00    -0.732 N 
ATOM      8  C   UNL d   1      -1.276  -0.017  -1.539  0.00  0.00     0.284 C 
ATOM      9  H3  UNL d   1      -1.864  -0.524   0.392  0.00  0.00     0.395 HD
ENDBRANCH   1   7
TORSDOF 1
ENDMDL
