MODEL 1
REMARK minimizedAffinity -3.7691977
REMARK minimizedRMSD -1
REMARK  1 active torsions:
REMARK  status: ('A' for Active; 'I' for Inactive)
REMARK    1  A    between atoms: N_2  and  C1_3 
ROOT
ATOM      1  C1  UNL d   1      -0.542   0.211   0.244  0.00  0.00     0.143 A 
ATOM      2  C2  UNL d   1       0.442  -0.622   0.786  0.00  0.00    -0.057 A 
ATOM      3  C3  UNL d   1       1.725  -0.140   1.072  0.00  0.00     0.033 A 
ATOM      4  C4  UNL d   1       2.056   1.182   0.792  0.00  0.00    -0.042 A 
ATOM      5  C5  UNL d   1       1.101   2.022   0.230  0.00  0.00     0.033 A 
ATOM      6  C6  UNL d   1      -0.180   1.536  -0.047  0.00  0.00    -0.057 A 
ENDROOT
BRANCH   1   7
ATOM      7  N   UNL d   1      -1.805  -0.234  -0.154  0.00  0.00    -0.732 N 
ATOM      8  C   UNL d   1      -2.456   0.336  -1.314  0.00  0.00     0.284 C 
ATOM      9  H3  UNL d   1      -1.903  -1.244  -0.077  0.00  0.00     0.395 HD
ENDBRANCH   1   7
TORSDOF 1
ENDMDL
