MODEL 1
REMARK minimizedAffinity -2.72176266
REMARK minimizedRMSD -1
REMARK  1 active torsions:
REMARK  status: ('A' for Active; 'I' for Inactive)
REMARK    1  A    between atoms: N_2  and  C1_3 
ROOT
ATOM      1  C1  UNL d   1       1.714  -0.573   1.475  0.00  0.00     0.143 A 
ATOM      2  C2  UNL d   1       0.406  -0.312   1.053  0.00  0.00    -0.057 A 
ATOM      3  C3  UNL d   1       0.132   0.691   0.115  0.00  0.00     0.033 A 
ATOM      4  C4  UNL d   1       1.162   1.473  -0.397  0.00  0.00    -0.042 A 
ATOM      5  C5  UNL d   1       2.467   1.248   0.027  0.00  0.00     0.033 A 
ATOM      6  C6  UNL d   1       2.735   0.240   0.958  0.00  0.00    -0.057 A 
ENDROOT
BRANCH   1   7
ATOM      7  N   UNL d   1       2.039  -1.490   2.477  0.00  0.00    -0.732 N 
ATOM      8  C   UNL d   1       1.082  -2.489   2.901  0.00  0.00     0.284 C 
ATOM      9  H3  UNL d   1       2.992  -1.836   2.393  0.00  0.00     0.395 HD
ENDBRANCH   1   7
TORSDOF 1
ENDMDL
