MODEL 1
REMARK minimizedAffinity -3.26987886
REMARK minimizedRMSD -1
REMARK  1 active torsions:
REMARK  status: ('A' for Active; 'I' for Inactive)
REMARK    1  A    between atoms: N_2  and  C1_3 
ROOT
ATOM      1  C1  UNL d   1      -0.900   0.148  -1.068  0.00  0.00     0.143 A 
ATOM      2  C2  UNL d   1      -0.631  -0.167  -2.404  0.00  0.00    -0.057 A 
ATOM      3  C3  UNL d   1      -1.645  -0.164  -3.369  0.00  0.00     0.033 A 
ATOM      4  C4  UNL d   1      -2.957   0.127  -3.008  0.00  0.00    -0.042 A 
ATOM      5  C5  UNL d   1      -3.252   0.418  -1.681  0.00  0.00     0.033 A 
ATOM      6  C6  UNL d   1      -2.233   0.420  -0.723  0.00  0.00    -0.057 A 
ENDROOT
BRANCH   1   7
ATOM      7  N   UNL d   1       0.047   0.065  -0.044  0.00  0.00    -0.732 N 
ATOM      8  C   UNL d   1       1.132   1.019   0.035  0.00  0.00     0.284 C 
ATOM      9  H3  UNL d   1      -0.372  -0.162   0.855  0.00  0.00     0.395 HD
ENDBRANCH   1   7
TORSDOF 1
ENDMDL
