MODEL 1
REMARK minimizedAffinity -3.7058332
REMARK minimizedRMSD -1
REMARK  1 active torsions:
REMARK  status: ('A' for Active; 'I' for Inactive)
REMARK    1  A    between atoms: N_2  and  C1_3 
ROOT
ATOM      1  C1  UNL d   1      -0.881   0.495  -0.270  0.00  0.00     0.143 A 
ATOM      2  C2  UNL d   1      -0.177  -0.497   0.420  0.00  0.00    -0.057 A 
ATOM      3  C3  UNL d   1       1.092  -0.247   0.956  0.00  0.00     0.033 A 
ATOM      4  C4  UNL d   1       1.694   0.996   0.785  0.00  0.00    -0.042 A 
ATOM      5  C5  UNL d   1       1.022   1.989   0.081  0.00  0.00     0.033 A 
ATOM      6  C6  UNL d   1      -0.248   1.736  -0.446  0.00  0.00    -0.057 A 
ENDROOT
BRANCH   1   7
ATOM      7  N   UNL d   1      -2.104   0.278  -0.910  0.00  0.00    -0.732 N 
ATOM      8  C   UNL d   1      -2.147  -0.259  -2.253  0.00  0.00     0.284 C 
ATOM      9  H3  UNL d   1      -2.807  -0.109  -0.285  0.00  0.00     0.395 HD
ENDBRANCH   1   7
TORSDOF 1
ENDMDL
