MODEL 1
REMARK minimizedAffinity -2.20391631
REMARK minimizedRMSD -1
REMARK  1 active torsions:
REMARK  status: ('A' for Active; 'I' for Inactive)
REMARK    1  A    between atoms: N_2  and  C1_3 
ROOT
ATOM      1  C1  UNL d   1       0.222  -0.041  -0.004  0.00  0.00     0.143 A 
ATOM      2  C2  UNL d   1       0.822   0.966  -0.769  0.00  0.00    -0.057 A 
ATOM      3  C3  UNL d   1       2.088   1.468  -0.443  0.00  0.00     0.033 A 
ATOM      4  C4  UNL d   1       2.766   0.991   0.674  0.00  0.00    -0.042 A 
ATOM      5  C5  UNL d   1       2.178   0.009   1.463  0.00  0.00     0.033 A 
ATOM      6  C6  UNL d   1       0.916  -0.493   1.129  0.00  0.00    -0.057 A 
ENDROOT
BRANCH   1   7
ATOM      7  N   UNL d   1      -1.075  -0.511  -0.219  0.00  0.00    -0.732 N 
ATOM      8  C   UNL d   1      -2.219   0.339   0.034  0.00  0.00     0.284 C 
ATOM      9  H3  UNL d   1      -1.151  -1.068  -1.067  0.00  0.00     0.395 HD
ENDBRANCH   1   7
TORSDOF 1
ENDMDL
