MODEL 1
REMARK minimizedAffinity -4.22953844
REMARK minimizedRMSD -1
REMARK  0 active torsions:
REMARK  status: ('A' for Active; 'I' for Inactive)
ROOT
ATOM      1  C1  DEN d   1      -0.386  -3.723  -1.080  0.00  0.00     0.130 A 
ATOM      2  C2  DEN d   1      -1.216  -3.784  -2.280  0.00  0.00    -0.031 A 
ATOM      3  C3  DEN d   1      -1.612  -2.405  -2.632  0.00  0.00     0.027 A 
ATOM      4  C4  DEN d   1      -1.017  -0.194  -1.445  0.00  0.00     0.027 A 
ATOM      5  C5  DEN d   1      -0.347   0.363  -0.378  0.00  0.00    -0.003 A 
ATOM      6  C6  DEN d   1       0.324  -0.400   0.541  0.00  0.00     0.001 A 
ATOM      7  C7  DEN d   1       0.377  -1.760   0.386  0.00  0.00     0.017 A 
ATOM      8  C8  DEN d   1      -0.303  -2.329  -0.683  0.00  0.00    -0.094 A 
ATOM      9  C9  DEN d   1      -0.965  -1.540  -1.608  0.00  0.00    -0.072 A 
ENDROOT
TORSDOF 0
ENDMDL
