MODEL 1
REMARK minimizedAffinity -3.5802021
REMARK minimizedRMSD -1
REMARK  0 active torsions:
REMARK  status: ('A' for Active; 'I' for Inactive)
ROOT
ATOM      1  C1  DEN d   1       1.021  -0.686  -1.100  0.00  0.00     0.130 A 
ATOM      2  C2  DEN d   1       0.398  -1.952  -0.724  0.00  0.00    -0.031 A 
ATOM      3  C3  DEN d   1      -0.739  -1.655   0.169  0.00  0.00     0.027 A 
ATOM      4  C4  DEN d   1      -1.595   0.632   1.000  0.00  0.00     0.027 A 
ATOM      5  C5  DEN d   1      -1.382   1.993   0.959  0.00  0.00    -0.003 A 
ATOM      6  C6  DEN d   1      -0.342   2.549   0.263  0.00  0.00     0.001 A 
ATOM      7  C7  DEN d   1       0.499   1.743  -0.459  0.00  0.00     0.017 A 
ATOM      8  C8  DEN d   1       0.295   0.370  -0.417  0.00  0.00    -0.094 A 
ATOM      9  C9  DEN d   1      -0.769  -0.172   0.283  0.00  0.00    -0.072 A 
ENDROOT
TORSDOF 0
ENDMDL
