MODEL 1
REMARK minimizedAffinity -4.51348448
REMARK minimizedRMSD -1
REMARK  0 active torsions:
REMARK  status: ('A' for Active; 'I' for Inactive)
ROOT
ATOM      1  C1  DEN d   1      -1.141  -0.449  -0.203  0.00  0.00     0.130 A 
ATOM      2  C2  DEN d   1      -2.269   0.479  -0.206  0.00  0.00    -0.031 A 
ATOM      3  C3  DEN d   1      -1.763   1.813   0.176  0.00  0.00     0.027 A 
ATOM      4  C4  DEN d   1       0.645   2.529   0.762  0.00  0.00     0.027 A 
ATOM      5  C5  DEN d   1       1.941   2.089   0.913  0.00  0.00    -0.003 A 
ATOM      6  C6  DEN d   1       2.292   0.777   0.737  0.00  0.00     0.001 A 
ATOM      7  C7  DEN d   1       1.343  -0.135   0.355  0.00  0.00     0.017 A 
ATOM      8  C8  DEN d   1       0.032   0.300   0.208  0.00  0.00    -0.094 A 
ATOM      9  C9  DEN d   1      -0.300   1.633   0.379  0.00  0.00    -0.072 A 
ENDROOT
TORSDOF 0
ENDMDL
