MODEL 1
REMARK minimizedAffinity -3.09790492
REMARK minimizedRMSD -1
REMARK  0 active torsions:
REMARK  status: ('A' for Active; 'I' for Inactive)
ROOT
ATOM      1  C1  DEN d   1       0.168  -0.421  -0.271  0.00  0.00     0.130 A 
ATOM      2  C2  DEN d   1      -1.099  -0.800   0.347  0.00  0.00    -0.031 A 
ATOM      3  C3  DEN d   1      -1.627   0.377   1.066  0.00  0.00     0.027 A 
ATOM      4  C4  DEN d   1      -0.611   2.739   1.277  0.00  0.00     0.027 A 
ATOM      5  C5  DEN d   1       0.459   3.535   0.933  0.00  0.00    -0.003 A 
ATOM      6  C6  DEN d   1       1.515   3.063   0.199  0.00  0.00     0.001 A 
ATOM      7  C7  DEN d   1       1.502   1.771  -0.254  0.00  0.00     0.017 A 
ATOM      8  C8  DEN d   1       0.430   0.959   0.094  0.00  0.00    -0.094 A 
ATOM      9  C9  DEN d   1      -0.633   1.459   0.827  0.00  0.00    -0.072 A 
ENDROOT
TORSDOF 0
ENDMDL
