MODEL 1
REMARK minimizedAffinity -3.96801829
REMARK minimizedRMSD -1
REMARK  0 active torsions:
REMARK  status: ('A' for Active; 'I' for Inactive)
ROOT
ATOM      1  C1  DEN d   1      -0.306   2.917   0.754  0.00  0.00     0.130 A 
ATOM      2  C2  DEN d   1      -1.443   2.071   0.406  0.00  0.00    -0.031 A 
ATOM      3  C3  DEN d   1      -0.943   0.698   0.195  0.00  0.00     0.027 A 
ATOM      4  C4  DEN d   1       1.470  -0.196   0.376  0.00  0.00     0.027 A 
ATOM      5  C5  DEN d   1       2.778   0.149   0.633  0.00  0.00    -0.003 A 
ATOM      6  C6  DEN d   1       3.152   1.437   0.914  0.00  0.00     0.001 A 
ATOM      7  C7  DEN d   1       2.201   2.419   0.987  0.00  0.00     0.017 A 
ATOM      8  C8  DEN d   1       0.880   2.080   0.722  0.00  0.00    -0.094 A 
ATOM      9  C9  DEN d   1       0.521   0.771   0.452  0.00  0.00    -0.072 A 
ENDROOT
TORSDOF 0
ENDMDL
