MODEL 1
REMARK minimizedAffinity 0.786727488
REMARK minimizedRMSD -1
REMARK  0 active torsions:
REMARK  status: ('A' for Active; 'I' for Inactive)
ROOT
ATOM      1  C1  DEN d   1       1.732  -1.534   0.182  0.00  0.00     0.130 A 
ATOM      2  C2  DEN d   1       2.900  -0.680  -0.013  0.00  0.00    -0.031 A 
ATOM      3  C3  DEN d   1       2.455   0.727   0.056  0.00  0.00     0.027 A 
ATOM      4  C4  DEN d   1       0.083   1.660   0.449  0.00  0.00     0.027 A 
ATOM      5  C5  DEN d   1      -1.237   1.321   0.656  0.00  0.00    -0.003 A 
ATOM      6  C6  DEN d   1      -1.661   0.019   0.686  0.00  0.00     0.001 A 
ATOM      7  C7  DEN d   1      -0.750  -0.994   0.550  0.00  0.00     0.017 A 
ATOM      8  C8  DEN d   1       0.581  -0.661   0.333  0.00  0.00    -0.094 A 
ATOM      9  C9  DEN d   1       0.992   0.661   0.319  0.00  0.00    -0.072 A 
ENDROOT
TORSDOF 0
ENDMDL
