MODEL 1
REMARK minimizedAffinity -2.8721981
REMARK minimizedRMSD -1
REMARK  0 active torsions:
REMARK  status: ('A' for Active; 'I' for Inactive)
ROOT
ATOM      1  C1  DEN d   1       1.459   2.705   1.171  0.00  0.00     0.130 A 
ATOM      2  C2  DEN d   1       2.763   2.073   0.990  0.00  0.00    -0.031 A 
ATOM      3  C3  DEN d   1       2.538   0.675   0.569  0.00  0.00     0.027 A 
ATOM      4  C4  DEN d   1       0.309  -0.563   0.178  0.00  0.00     0.027 A 
ATOM      5  C5  DEN d   1      -1.063  -0.444   0.216  0.00  0.00    -0.003 A 
ATOM      6  C6  DEN d   1      -1.685   0.713   0.604  0.00  0.00     0.001 A 
ATOM      7  C7  DEN d   1      -0.934   1.812   0.927  0.00  0.00     0.017 A 
ATOM      8  C8  DEN d   1       0.450   1.698   0.898  0.00  0.00    -0.094 A 
ATOM      9  C9  DEN d   1       1.060   0.523   0.491  0.00  0.00    -0.072 A 
ENDROOT
TORSDOF 0
ENDMDL
