MODEL 1
REMARK minimizedAffinity -2.2762816
REMARK minimizedRMSD -1
REMARK  0 active torsions:
REMARK  status: ('A' for Active; 'I' for Inactive)
ROOT
ATOM      1  C1  DEN d   1      -1.540   0.597  -0.248  0.00  0.00     0.130 A 
ATOM      2  C2  DEN d   1      -0.344   0.675   0.586  0.00  0.00    -0.031 A 
ATOM      3  C3  DEN d   1       0.483  -0.517   0.312  0.00  0.00     0.027 A 
ATOM      4  C4  DEN d   1       0.033  -2.464  -1.319  0.00  0.00     0.027 A 
ATOM      5  C5  DEN d   1      -0.857  -2.977  -2.236  0.00  0.00    -0.003 A 
ATOM      6  C6  DEN d   1      -2.043  -2.357  -2.528  0.00  0.00     0.001 A 
ATOM      7  C7  DEN d   1      -2.351  -1.164  -1.929  0.00  0.00     0.017 A 
ATOM      8  C8  DEN d   1      -1.462  -0.644  -0.997  0.00  0.00    -0.094 A 
ATOM      9  C9  DEN d   1      -0.262  -1.279  -0.725  0.00  0.00    -0.072 A 
ENDROOT
TORSDOF 0
ENDMDL
