MODEL 1
REMARK minimizedAffinity -5.05753279
REMARK minimizedRMSD -1
REMARK  0 active torsions:
REMARK  status: ('A' for Active; 'I' for Inactive)
ROOT
ATOM      1  C1  DEN d   1       1.928   2.749   1.114  0.00  0.00     0.130 A 
ATOM      2  C2  DEN d   1       3.142   1.971   0.884  0.00  0.00    -0.031 A 
ATOM      3  C3  DEN d   1       2.744   0.644   0.373  0.00  0.00     0.027 A 
ATOM      4  C4  DEN d   1       0.378  -0.276  -0.085  0.00  0.00     0.027 A 
ATOM      5  C5  DEN d   1      -0.968   0.012  -0.030  0.00  0.00    -0.003 A 
ATOM      6  C6  DEN d   1      -1.441   1.209   0.438  0.00  0.00     0.001 A 
ATOM      7  C7  DEN d   1      -0.558   2.182   0.828  0.00  0.00     0.017 A 
ATOM      8  C8  DEN d   1       0.800   1.897   0.782  0.00  0.00    -0.094 A 
ATOM      9  C9  DEN d   1       1.259   0.685   0.295  0.00  0.00    -0.072 A 
ENDROOT
TORSDOF 0
ENDMDL
