MODEL 1
REMARK minimizedAffinity -6.43750286
REMARK minimizedRMSD -1
REMARK  0 active torsions:
REMARK  status: ('A' for Active; 'I' for Inactive)
ROOT
ATOM      1  C1  DEN d   1       0.869  -0.847  -0.052  0.00  0.00     0.130 A 
ATOM      2  C2  DEN d   1      -0.288  -1.278   0.728  0.00  0.00    -0.031 A 
ATOM      3  C3  DEN d   1      -1.080  -0.079   1.070  0.00  0.00     0.027 A 
ATOM      4  C4  DEN d   1      -0.631   2.388   0.466  0.00  0.00     0.027 A 
ATOM      5  C5  DEN d   1       0.234   3.248  -0.173  0.00  0.00    -0.003 A 
ATOM      6  C6  DEN d   1       1.380   2.811  -0.783  0.00  0.00     0.001 A 
ATOM      7  C7  DEN d   1       1.669   1.472  -0.805  0.00  0.00     0.017 A 
ATOM      8  C8  DEN d   1       0.805   0.599  -0.156  0.00  0.00    -0.094 A 
ATOM      9  C9  DEN d   1      -0.355   1.060   0.444  0.00  0.00    -0.072 A 
ENDROOT
TORSDOF 0
ENDMDL
