MODEL 1
REMARK minimizedAffinity -3.457268
REMARK minimizedRMSD -1
REMARK  0 active torsions:
REMARK  status: ('A' for Active; 'I' for Inactive)
ROOT
ATOM      1  C1  DEN d   1       1.411   2.076  -0.062  0.00  0.00     0.130 A 
ATOM      2  C2  DEN d   1       0.543   3.110   0.494  0.00  0.00    -0.031 A 
ATOM      3  C3  DEN d   1      -0.647   2.448   1.066  0.00  0.00     0.027 A 
ATOM      4  C4  DEN d   1      -1.223  -0.065   1.147  0.00  0.00     0.027 A 
ATOM      5  C5  DEN d   1      -0.798  -1.326   0.792  0.00  0.00    -0.003 A 
ATOM      6  C6  DEN d   1       0.367  -1.537   0.104  0.00  0.00     0.001 A 
ATOM      7  C7  DEN d   1       1.171  -0.474  -0.213  0.00  0.00     0.017 A 
ATOM      8  C8  DEN d   1       0.745   0.802   0.135  0.00  0.00    -0.094 A 
ATOM      9  C9  DEN d   1      -0.430   0.993   0.841  0.00  0.00    -0.072 A 
ENDROOT
TORSDOF 0
ENDMDL
