MODEL 1
REMARK minimizedAffinity -1.15292728
REMARK minimizedRMSD -1
REMARK  0 active torsions:
REMARK  status: ('A' for Active; 'I' for Inactive)
ROOT
ATOM      1  C1  DEN d   1       0.415  -1.005   0.480  0.00  0.00     0.130 A 
ATOM      2  C2  DEN d   1       1.845  -0.709   0.478  0.00  0.00    -0.031 A 
ATOM      3  C3  DEN d   1       2.007   0.759   0.490  0.00  0.00     0.027 A 
ATOM      4  C4  DEN d   1       0.193   2.591   0.517  0.00  0.00     0.027 A 
ATOM      5  C5  DEN d   1      -1.164   2.828   0.512  0.00  0.00    -0.003 A 
ATOM      6  C6  DEN d   1      -2.082   1.812   0.463  0.00  0.00     0.001 A 
ATOM      7  C7  DEN d   1      -1.655   0.511   0.462  0.00  0.00     0.017 A 
ATOM      8  C8  DEN d   1      -0.288   0.265   0.458  0.00  0.00    -0.094 A 
ATOM      9  C9  DEN d   1       0.624   1.305   0.521  0.00  0.00    -0.072 A 
ENDROOT
TORSDOF 0
ENDMDL
