MODEL 1
REMARK minimizedAffinity -5.40042782
REMARK minimizedRMSD -1
REMARK  0 active torsions:
REMARK  status: ('A' for Active; 'I' for Inactive)
ROOT
ATOM      1  C1  DEN d   1       0.482  -0.470  -0.414  0.00  0.00     0.130 A 
ATOM      2  C2  DEN d   1      -0.766  -1.006   0.124  0.00  0.00    -0.031 A 
ATOM      3  C3  DEN d   1      -1.538   0.117   0.691  0.00  0.00     0.027 A 
ATOM      4  C4  DEN d   1      -0.930   2.622   0.782  0.00  0.00     0.027 A 
ATOM      5  C5  DEN d   1       0.031   3.556   0.464  0.00  0.00    -0.003 A 
ATOM      6  C6  DEN d   1       1.214   3.212  -0.134  0.00  0.00     0.001 A 
ATOM      7  C7  DEN d   1       1.448   1.906  -0.473  0.00  0.00     0.017 A 
ATOM      8  C8  DEN d   1       0.488   0.957  -0.149  0.00  0.00    -0.094 A 
ATOM      9  C9  DEN d   1      -0.708   1.327   0.445  0.00  0.00    -0.072 A 
ENDROOT
TORSDOF 0
ENDMDL
