MODEL 1
REMARK minimizedAffinity -1.67150033
REMARK minimizedRMSD -1
REMARK  0 active torsions:
REMARK  status: ('A' for Active; 'I' for Inactive)
ROOT
ATOM      1  C1  DEN d   1      -1.225   0.376   0.397  0.00  0.00     0.130 A 
ATOM      2  C2  DEN d   1      -1.055   1.119  -0.849  0.00  0.00    -0.031 A 
ATOM      3  C3  DEN d   1       0.333   0.921  -1.313  0.00  0.00     0.027 A 
ATOM      4  C4  DEN d   1       2.224  -0.461  -0.233  0.00  0.00     0.027 A 
ATOM      5  C5  DEN d   1       2.560  -1.259   0.838  0.00  0.00    -0.003 A 
ATOM      6  C6  DEN d   1       1.675  -1.538   1.846  0.00  0.00     0.001 A 
ATOM      7  C7  DEN d   1       0.396  -1.052   1.782  0.00  0.00     0.017 A 
ATOM      8  C8  DEN d   1       0.053  -0.240   0.709  0.00  0.00    -0.094 A 
ATOM      9  C9  DEN d   1       0.957   0.020  -0.307  0.00  0.00    -0.072 A 
ENDROOT
TORSDOF 0
ENDMDL
