MODEL 1
REMARK minimizedAffinity -3.18812633
REMARK minimizedRMSD -1
REMARK  0 active torsions:
REMARK  status: ('A' for Active; 'I' for Inactive)
ROOT
ATOM      1  C1  DEN d   1      -1.331  -0.769   2.471  0.00  0.00     0.130 A 
ATOM      2  C2  DEN d   1      -0.590  -1.607   3.411  0.00  0.00    -0.031 A 
ATOM      3  C3  DEN d   1       0.706  -1.950   2.793  0.00  0.00     0.027 A 
ATOM      4  C4  DEN d   1       1.635  -1.267   0.486  0.00  0.00     0.027 A 
ATOM      5  C5  DEN d   1       1.365  -0.570  -0.672  0.00  0.00    -0.003 A 
ATOM      6  C6  DEN d   1       0.174   0.074  -0.875  0.00  0.00     0.001 A 
ATOM      7  C7  DEN d   1      -0.775   0.074   0.113  0.00  0.00     0.017 A 
ATOM      8  C8  DEN d   1      -0.513  -0.632   1.280  0.00  0.00    -0.094 A 
ATOM      9  C9  DEN d   1       0.702  -1.267   1.471  0.00  0.00    -0.072 A 
ENDROOT
TORSDOF 0
ENDMDL
