MODEL 1
REMARK minimizedAffinity -3.3364377
REMARK minimizedRMSD -1
REMARK  0 active torsions:
REMARK  status: ('A' for Active; 'I' for Inactive)
ROOT
ATOM      1  C1  DEN d   1       1.729  -2.501   1.116  0.00  0.00     0.130 A 
ATOM      2  C2  DEN d   1       0.521  -2.116   1.839  0.00  0.00    -0.031 A 
ATOM      3  C3  DEN d   1       0.111  -0.779   1.366  0.00  0.00     0.027 A 
ATOM      4  C4  DEN d   1       1.223   0.724  -0.411  0.00  0.00     0.027 A 
ATOM      5  C5  DEN d   1       2.278   0.830  -1.290  0.00  0.00    -0.003 A 
ATOM      6  C6  DEN d   1       3.235  -0.143  -1.404  0.00  0.00     0.001 A 
ATOM      7  C7  DEN d   1       3.131  -1.287  -0.658  0.00  0.00     0.017 A 
ATOM      8  C8  DEN d   1       2.075  -1.399   0.237  0.00  0.00    -0.094 A 
ATOM      9  C9  DEN d   1       1.111  -0.409   0.328  0.00  0.00    -0.072 A 
ENDROOT
TORSDOF 0
ENDMDL
