MODEL 1
REMARK minimizedAffinity -3.08638811
REMARK minimizedRMSD -1
REMARK  0 active torsions:
REMARK  status: ('A' for Active; 'I' for Inactive)
ROOT
ATOM      1  C1  DEN d   1      -0.970  -0.226   1.660  0.00  0.00     0.130 A 
ATOM      2  C2  DEN d   1      -1.474   0.827   0.782  0.00  0.00    -0.031 A 
ATOM      3  C3  DEN d   1      -0.486   1.036  -0.295  0.00  0.00     0.027 A 
ATOM      4  C4  DEN d   1       1.763  -0.165  -0.689  0.00  0.00     0.027 A 
ATOM      5  C5  DEN d   1       2.624  -1.123  -0.203  0.00  0.00    -0.003 A 
ATOM      6  C6  DEN d   1       2.366  -1.821   0.948  0.00  0.00     0.001 A 
ATOM      7  C7  DEN d   1       1.196  -1.601   1.626  0.00  0.00     0.017 A 
ATOM      8  C8  DEN d   1       0.326  -0.631   1.146  0.00  0.00    -0.094 A 
ATOM      9  C9  DEN d   1       0.600   0.055  -0.025  0.00  0.00    -0.072 A 
ENDROOT
TORSDOF 0
ENDMDL
