MODEL 1
REMARK minimizedAffinity -2.8095789
REMARK minimizedRMSD -1
REMARK  0 active torsions:
REMARK  status: ('A' for Active; 'I' for Inactive)
ROOT
ATOM      1  C1  DEN d   1       0.006  -0.514  -1.119  0.00  0.00     0.130 A 
ATOM      2  C2  DEN d   1       0.465   0.279   0.019  0.00  0.00    -0.031 A 
ATOM      3  C3  DEN d   1      -0.156   1.615  -0.075  0.00  0.00     0.027 A 
ATOM      4  C4  DEN d   1      -1.781   2.527  -1.859  0.00  0.00     0.027 A 
ATOM      5  C5  DEN d   1      -2.451   2.228  -3.025  0.00  0.00    -0.003 A 
ATOM      6  C6  DEN d   1      -2.324   1.016  -3.650  0.00  0.00     0.001 A 
ATOM      7  C7  DEN d   1      -1.542   0.041  -3.088  0.00  0.00     0.017 A 
ATOM      8  C8  DEN d   1      -0.857   0.338  -1.917  0.00  0.00    -0.094 A 
ATOM      9  C9  DEN d   1      -1.009   1.565  -1.294  0.00  0.00    -0.072 A 
ENDROOT
TORSDOF 0
ENDMDL
