MODEL 1
REMARK minimizedAffinity -5.48404694
REMARK minimizedRMSD -1
REMARK  0 active torsions:
REMARK  status: ('A' for Active; 'I' for Inactive)
ROOT
ATOM      1  C1  DEN d   1      -1.335  -0.881  -0.922  0.00  0.00     0.130 A 
ATOM      2  C2  DEN d   1      -1.491   0.552  -1.156  0.00  0.00    -0.031 A 
ATOM      3  C3  DEN d   1      -0.230   1.218  -0.772  0.00  0.00     0.027 A 
ATOM      4  C4  DEN d   1       1.940   0.173   0.152  0.00  0.00     0.027 A 
ATOM      5  C5  DEN d   1       2.546  -1.004   0.532  0.00  0.00    -0.003 A 
ATOM      6  C6  DEN d   1       1.894  -2.208   0.487  0.00  0.00     0.001 A 
ATOM      7  C7  DEN d   1       0.612  -2.269   0.009  0.00  0.00     0.017 A 
ATOM      8  C8  DEN d   1      -0.008  -1.085  -0.369  0.00  0.00    -0.094 A 
ATOM      9  C9  DEN d   1       0.672   0.121  -0.327  0.00  0.00    -0.072 A 
ENDROOT
TORSDOF 0
ENDMDL
