MODEL 1
REMARK minimizedAffinity -4.31145144
REMARK minimizedRMSD -1
REMARK  0 active torsions:
REMARK  status: ('A' for Active; 'I' for Inactive)
ROOT
ATOM      1  C1  DEN d   1       0.949   1.095  -0.560  0.00  0.00     0.130 A 
ATOM      2  C2  DEN d   1      -0.455   1.488  -0.473  0.00  0.00    -0.031 A 
ATOM      3  C3  DEN d   1      -1.198   0.385   0.170  0.00  0.00     0.027 A 
ATOM      4  C4  DEN d   1      -0.315  -1.877   1.038  0.00  0.00     0.027 A 
ATOM      5  C5  DEN d   1       0.805  -2.668   1.173  0.00  0.00    -0.003 A 
ATOM      6  C6  DEN d   1       2.035  -2.277   0.714  0.00  0.00     0.001 A 
ATOM      7  C7  DEN d   1       2.183  -1.043   0.137  0.00  0.00     0.017 A 
ATOM      8  C8  DEN d   1       1.057  -0.244  -0.010  0.00  0.00    -0.094 A 
ATOM      9  C9  DEN d   1      -0.175  -0.652   0.472  0.00  0.00    -0.072 A 
ENDROOT
TORSDOF 0
ENDMDL
