MODEL 1
REMARK minimizedAffinity -4.05973148
REMARK minimizedRMSD -1
REMARK  0 active torsions:
REMARK  status: ('A' for Active; 'I' for Inactive)
ROOT
ATOM      1  C1  DEN d   1       2.122  -2.069   1.497  0.00  0.00     0.130 A 
ATOM      2  C2  DEN d   1       3.099  -1.103   1.002  0.00  0.00    -0.031 A 
ATOM      3  C3  DEN d   1       2.364  -0.026   0.307  0.00  0.00     0.027 A 
ATOM      4  C4  DEN d   1      -0.177   0.239  -0.044  0.00  0.00     0.027 A 
ATOM      5  C5  DEN d   1      -1.408  -0.334   0.186  0.00  0.00    -0.003 A 
ATOM      6  C6  DEN d   1      -1.545  -1.533   0.834  0.00  0.00     0.001 A 
ATOM      7  C7  DEN d   1      -0.435  -2.176   1.314  0.00  0.00     0.017 A 
ATOM      8  C8  DEN d   1       0.810  -1.608   1.080  0.00  0.00    -0.094 A 
ATOM      9  C9  DEN d   1       0.927  -0.389   0.434  0.00  0.00    -0.072 A 
ENDROOT
TORSDOF 0
ENDMDL
