MODEL 1
REMARK minimizedAffinity -4.70567608
REMARK minimizedRMSD -1
REMARK  0 active torsions:
REMARK  status: ('A' for Active; 'I' for Inactive)
ROOT
ATOM      1  C1  DEN d   1      -0.088  -1.322  -0.950  0.00  0.00     0.130 A 
ATOM      2  C2  DEN d   1       0.856  -0.828   0.049  0.00  0.00    -0.031 A 
ATOM      3  C3  DEN d   1       0.663   0.630   0.177  0.00  0.00     0.027 A 
ATOM      4  C4  DEN d   1      -0.998   2.163  -1.065  0.00  0.00     0.027 A 
ATOM      5  C5  DEN d   1      -1.994   2.202  -2.016  0.00  0.00    -0.003 A 
ATOM      6  C6  DEN d   1      -2.398   1.085  -2.697  0.00  0.00     0.001 A 
ATOM      7  C7  DEN d   1      -1.833  -0.129  -2.404  0.00  0.00     0.017 A 
ATOM      8  C8  DEN d   1      -0.823  -0.175  -1.452  0.00  0.00    -0.094 A 
ATOM      9  C9  DEN d   1      -0.438   0.964  -0.766  0.00  0.00    -0.072 A 
ENDROOT
TORSDOF 0
ENDMDL
