MODEL 1
REMARK minimizedAffinity -4.2730031
REMARK minimizedRMSD -1
REMARK  0 active torsions:
REMARK  status: ('A' for Active; 'I' for Inactive)
ROOT
ATOM      1  C1  DEN d   1      -2.099   2.295  -1.596  0.00  0.00     0.130 A 
ATOM      2  C2  DEN d   1      -2.440   1.689  -2.881  0.00  0.00    -0.031 A 
ATOM      3  C3  DEN d   1      -1.699   0.417  -2.997  0.00  0.00     0.027 A 
ATOM      4  C4  DEN d   1      -0.069  -0.670  -1.320  0.00  0.00     0.027 A 
ATOM      5  C5  DEN d   1       0.544  -0.525  -0.095  0.00  0.00    -0.003 A 
ATOM      6  C6  DEN d   1       0.348   0.578   0.693  0.00  0.00     0.001 A 
ATOM      7  C7  DEN d   1      -0.518   1.558   0.286  0.00  0.00     0.017 A 
ATOM      8  C8  DEN d   1      -1.135   1.422  -0.951  0.00  0.00    -0.094 A 
ATOM      9  C9  DEN d   1      -0.932   0.294  -1.728  0.00  0.00    -0.072 A 
ENDROOT
TORSDOF 0
ENDMDL
