MODEL 1
REMARK minimizedAffinity -0.927625954
REMARK minimizedRMSD -1
REMARK  0 active torsions:
REMARK  status: ('A' for Active; 'I' for Inactive)
ROOT
ATOM      1  C1  DEN d   1      -0.266   2.135  -0.456  0.00  0.00     0.130 A 
ATOM      2  C2  DEN d   1       0.975   1.852  -1.172  0.00  0.00    -0.031 A 
ATOM      3  C3  DEN d   1       1.408   0.487  -0.812  0.00  0.00     0.027 A 
ATOM      4  C4  DEN d   1       0.281  -1.208   0.773  0.00  0.00     0.027 A 
ATOM      5  C5  DEN d   1      -0.786  -1.415   1.620  0.00  0.00    -0.003 A 
ATOM      6  C6  DEN d   1      -1.727  -0.449   1.858  0.00  0.00     0.001 A 
ATOM      7  C7  DEN d   1      -1.646   0.753   1.208  0.00  0.00     0.017 A 
ATOM      8  C8  DEN d   1      -0.569   0.973   0.358  0.00  0.00    -0.094 A 
ATOM      9  C9  DEN d   1       0.366  -0.021   0.121  0.00  0.00    -0.072 A 
ENDROOT
TORSDOF 0
ENDMDL
