MODEL 1
REMARK minimizedAffinity -4.33910418
REMARK minimizedRMSD -1
REMARK  0 active torsions:
REMARK  status: ('A' for Active; 'I' for Inactive)
ROOT
ATOM      1  C1  DEN d   1       1.291   0.935   0.115  0.00  0.00     0.130 A 
ATOM      2  C2  DEN d   1      -0.044   1.528   0.111  0.00  0.00    -0.031 A 
ATOM      3  C3  DEN d   1      -0.989   0.529   0.648  0.00  0.00     0.027 A 
ATOM      4  C4  DEN d   1      -0.518  -1.864   1.486  0.00  0.00     0.027 A 
ATOM      5  C5  DEN d   1       0.460  -2.816   1.674  0.00  0.00    -0.003 A 
ATOM      6  C6  DEN d   1       1.767  -2.598   1.327  0.00  0.00     0.001 A 
ATOM      7  C7  DEN d   1       2.140  -1.383   0.815  0.00  0.00     0.017 A 
ATOM      8  C8  DEN d   1       1.158  -0.421   0.615  0.00  0.00    -0.094 A 
ATOM      9  C9  DEN d   1      -0.156  -0.657   0.984  0.00  0.00    -0.072 A 
ENDROOT
TORSDOF 0
ENDMDL
