MODEL 1
REMARK minimizedAffinity 12.6533432
REMARK minimizedRMSD -1
REMARK  0 active torsions:
REMARK  status: ('A' for Active; 'I' for Inactive)
ROOT
ATOM      1  C2' OXE d   1       1.463   1.417   2.059  0.00  0.00     0.078 C 
ATOM      2  C1' OXE d   1       0.664  -1.229   1.568  0.00  0.00     0.078 C 
ATOM      3  C1  OXE d   1       1.300  -0.922   2.901  0.00  0.00    -0.078 A 
ATOM      4  C2  OXE d   1       1.731   0.365   3.114  0.00  0.00    -0.078 A 
ATOM      5  C3  OXE d   1       2.275   0.715   4.346  0.00  0.00     0.003 A 
ATOM      6  C4  OXE d   1       2.528  -0.266   5.313  0.00  0.00    -0.002 A 
ATOM      7  C5  OXE d   1       2.134  -1.591   5.101  0.00  0.00    -0.002 A 
ATOM      8  C6  OXE d   1       1.482  -1.927   3.919  0.00  0.00     0.003 A 
ENDROOT
TORSDOF 0
ENDMDL
