MODEL 1
REMARK minimizedAffinity 14.5651493
REMARK minimizedRMSD -1
REMARK  0 active torsions:
REMARK  status: ('A' for Active; 'I' for Inactive)
ROOT
ATOM      1  C2' OXE d   1       4.817   1.217   4.506  0.00  0.00     0.078 C 
ATOM      2  C1' OXE d   1       4.751  -1.166   5.988  0.00  0.00     0.078 C 
ATOM      3  C1  OXE d   1       3.583  -0.870   5.081  0.00  0.00    -0.078 A 
ATOM      4  C2  OXE d   1       3.602   0.321   4.395  0.00  0.00    -0.078 A 
ATOM      5  C3  OXE d   1       2.576   0.619   3.503  0.00  0.00     0.003 A 
ATOM      6  C4  OXE d   1       1.451  -0.211   3.414  0.00  0.00    -0.002 A 
ATOM      7  C5  OXE d   1       1.394  -1.409   4.135  0.00  0.00    -0.002 A 
ATOM      8  C6  OXE d   1       2.468  -1.773   4.938  0.00  0.00     0.003 A 
ENDROOT
TORSDOF 0
ENDMDL
