MODEL 1
REMARK minimizedAffinity 5.02983952
REMARK minimizedRMSD -1
REMARK  0 active torsions:
REMARK  status: ('A' for Active; 'I' for Inactive)
ROOT
ATOM      1  C2' OXE d   1       1.678   0.043   4.130  0.00  0.00     0.078 C 
ATOM      2  C1' OXE d   1       1.266  -2.222   2.523  0.00  0.00     0.078 C 
ATOM      3  C1  OXE d   1       0.279  -1.087   2.406  0.00  0.00    -0.078 A 
ATOM      4  C2  OXE d   1       0.462  -0.003   3.230  0.00  0.00    -0.078 A 
ATOM      5  C3  OXE d   1      -0.388   1.094   3.123  0.00  0.00     0.003 A 
ATOM      6  C4  OXE d   1      -1.516   1.040   2.295  0.00  0.00    -0.002 A 
ATOM      7  C5  OXE d   1      -1.742  -0.072   1.477  0.00  0.00    -0.002 A 
ATOM      8  C6  OXE d   1      -0.833  -1.124   1.489  0.00  0.00     0.003 A 
ENDROOT
TORSDOF 0
ENDMDL
