MODEL 1
REMARK minimizedAffinity 6.13247013
REMARK minimizedRMSD -1
REMARK  0 active torsions:
REMARK  status: ('A' for Active; 'I' for Inactive)
ROOT
ATOM      1  C2' OXE d   1      -1.493  -5.999  -3.382  0.00  0.00     0.078 C 
ATOM      2  C1' OXE d   1      -1.758  -4.368  -5.652  0.00  0.00     0.078 C 
ATOM      3  C1  OXE d   1      -1.357  -3.710  -4.355  0.00  0.00    -0.078 A 
ATOM      4  C2  OXE d   1      -1.275  -4.509  -3.240  0.00  0.00    -0.078 A 
ATOM      5  C3  OXE d   1      -0.856  -3.962  -2.030  0.00  0.00     0.003 A 
ATOM      6  C4  OXE d   1      -0.665  -2.581  -1.904  0.00  0.00    -0.002 A 
ATOM      7  C5  OXE d   1      -0.782  -1.744  -3.019  0.00  0.00    -0.002 A 
ATOM      8  C6  OXE d   1      -1.085  -2.297  -4.258  0.00  0.00     0.003 A 
ENDROOT
TORSDOF 0
ENDMDL
