MODEL 1
REMARK minimizedAffinity 6.59521389
REMARK minimizedRMSD -1
REMARK  0 active torsions:
REMARK  status: ('A' for Active; 'I' for Inactive)
ROOT
ATOM      1  C2' OXE d   1      -1.657  -4.539  -2.635  0.00  0.00     0.078 C 
ATOM      2  C1' OXE d   1      -1.841  -4.178  -5.412  0.00  0.00     0.078 C 
ATOM      3  C1  OXE d   1      -1.169  -3.095  -4.606  0.00  0.00    -0.078 A 
ATOM      4  C2  OXE d   1      -1.125  -3.258  -3.242  0.00  0.00    -0.078 A 
ATOM      5  C3  OXE d   1      -0.469  -2.315  -2.456  0.00  0.00     0.003 A 
ATOM      6  C4  OXE d   1       0.011  -1.129  -3.024  0.00  0.00    -0.002 A 
ATOM      7  C5  OXE d   1      -0.060  -0.925  -4.406  0.00  0.00    -0.002 A 
ATOM      8  C6  OXE d   1      -0.607  -1.915  -5.214  0.00  0.00     0.003 A 
ENDROOT
TORSDOF 0
ENDMDL
