MODEL 1
REMARK minimizedAffinity 6.5088501
REMARK minimizedRMSD -1
REMARK  0 active torsions:
REMARK  status: ('A' for Active; 'I' for Inactive)
ROOT
ATOM      1  C2' OXE d   1      -4.825   2.619  -0.529  0.00  0.00     0.078 C 
ATOM      2  C1' OXE d   1      -4.698   0.218  -1.978  0.00  0.00     0.078 C 
ATOM      3  C1  OXE d   1      -4.025   0.262  -0.628  0.00  0.00    -0.078 A 
ATOM      4  C2  OXE d   1      -4.052   1.455   0.053  0.00  0.00    -0.078 A 
ATOM      5  C3  OXE d   1      -3.495   1.535   1.325  0.00  0.00     0.003 A 
ATOM      6  C4  OXE d   1      -2.773   0.457   1.852  0.00  0.00    -0.002 A 
ATOM      7  C5  OXE d   1      -2.699  -0.755   1.158  0.00  0.00    -0.002 A 
ATOM      8  C6  OXE d   1      -3.355  -0.882  -0.062  0.00  0.00     0.003 A 
ENDROOT
TORSDOF 0
ENDMDL
