MODEL 1
REMARK minimizedAffinity 8.4351368
REMARK minimizedRMSD -1
REMARK  0 active torsions:
REMARK  status: ('A' for Active; 'I' for Inactive)
ROOT
ATOM      1  C2' OXE d   1       0.174  -0.912  -4.356  0.00  0.00     0.078 C 
ATOM      2  C1' OXE d   1      -0.915  -3.335  -5.263  0.00  0.00     0.078 C 
ATOM      3  C1  OXE d   1      -1.134  -2.962  -3.818  0.00  0.00    -0.078 A 
ATOM      4  C2  OXE d   1      -0.558  -1.797  -3.371  0.00  0.00    -0.078 A 
ATOM      5  C3  OXE d   1      -0.775  -1.380  -2.061  0.00  0.00     0.003 A 
ATOM      6  C4  OXE d   1      -1.445  -2.210  -1.154  0.00  0.00    -0.002 A 
ATOM      7  C5  OXE d   1      -2.006  -3.419  -1.579  0.00  0.00    -0.002 A 
ATOM      8  C6  OXE d   1      -1.896  -3.789  -2.915  0.00  0.00     0.003 A 
ENDROOT
TORSDOF 0
ENDMDL
