MODEL 1
REMARK minimizedAffinity 10.3940601
REMARK minimizedRMSD -1
REMARK  0 active torsions:
REMARK  status: ('A' for Active; 'I' for Inactive)
ROOT
ATOM      1  C2' OXE d   1      -1.882  -3.243  -2.075  0.00  0.00     0.078 C 
ATOM      2  C1' OXE d   1      -0.825  -1.802  -4.240  0.00  0.00     0.078 C 
ATOM      3  C1  OXE d   1      -1.360  -3.186  -4.511  0.00  0.00    -0.078 A 
ATOM      4  C2  OXE d   1      -1.833  -3.902  -3.437  0.00  0.00    -0.078 A 
ATOM      5  C3  OXE d   1      -2.388  -5.162  -3.640  0.00  0.00     0.003 A 
ATOM      6  C4  OXE d   1      -2.329  -5.768  -4.900  0.00  0.00    -0.002 A 
ATOM      7  C5  OXE d   1      -1.816  -5.072  -6.000  0.00  0.00    -0.002 A 
ATOM      8  C6  OXE d   1      -1.368  -3.767  -5.831  0.00  0.00     0.003 A 
ENDROOT
TORSDOF 0
ENDMDL
