MODEL 1
REMARK minimizedAffinity 13.6257877
REMARK minimizedRMSD -1
REMARK  0 active torsions:
REMARK  status: ('A' for Active; 'I' for Inactive)
ROOT
ATOM      1  C2' OXE d   1       2.241  -0.079  -4.254  0.00  0.00     0.078 C 
ATOM      2  C1' OXE d   1       0.200  -0.896  -5.999  0.00  0.00     0.078 C 
ATOM      3  C1  OXE d   1      -0.004  -1.125  -4.522  0.00  0.00    -0.078 A 
ATOM      4  C2  OXE d   1       1.021  -0.765  -3.680  0.00  0.00    -0.078 A 
ATOM      5  C3  OXE d   1       0.863  -0.905  -2.304  0.00  0.00     0.003 A 
ATOM      6  C4  OXE d   1      -0.265  -1.549  -1.782  0.00  0.00    -0.002 A 
ATOM      7  C5  OXE d   1      -1.303  -1.960  -2.626  0.00  0.00    -0.002 A 
ATOM      8  C6  OXE d   1      -1.207  -1.717  -3.991  0.00  0.00     0.003 A 
ENDROOT
TORSDOF 0
ENDMDL
