MODEL 1
REMARK minimizedAffinity 11.3992729
REMARK minimizedRMSD -1
REMARK  0 active torsions:
REMARK  status: ('A' for Active; 'I' for Inactive)
ROOT
ATOM      1  C2' OXE d   1      -0.007  -1.089  -5.837  0.00  0.00     0.078 C 
ATOM      2  C1' OXE d   1       1.394  -0.193  -3.575  0.00  0.00     0.078 C 
ATOM      3  C1  OXE d   1       0.253  -1.155  -3.360  0.00  0.00    -0.078 A 
ATOM      4  C2  OXE d   1      -0.457  -1.552  -4.468  0.00  0.00    -0.078 A 
ATOM      5  C3  OXE d   1      -1.485  -2.480  -4.332  0.00  0.00     0.003 A 
ATOM      6  C4  OXE d   1      -1.902  -2.896  -3.061  0.00  0.00    -0.002 A 
ATOM      7  C5  OXE d   1      -1.218  -2.473  -1.917  0.00  0.00    -0.002 A 
ATOM      8  C6  OXE d   1      -0.114  -1.638  -2.052  0.00  0.00     0.003 A 
ENDROOT
TORSDOF 0
ENDMDL
