MODEL 1
REMARK minimizedAffinity 4.52993965
REMARK minimizedRMSD -1
REMARK  0 active torsions:
REMARK  status: ('A' for Active; 'I' for Inactive)
ROOT
ATOM      1  O1  BZF d   1       0.324  -2.658  -3.967  0.00  0.00    -0.204 OA
ATOM      2  C2  BZF d   1       1.583  -2.090  -3.997  0.00  0.00     0.174 A 
ATOM      3  C3  BZF d   1       1.917  -1.603  -2.784  0.00  0.00    -0.012 A 
ATOM      4  C3A BZF d   1       0.835  -1.967  -1.921  0.00  0.00    -0.107 A 
ATOM      5  C4  BZF d   1       0.591  -1.778  -0.591  0.00  0.00     0.055 A 
ATOM      6  C5  BZF d   1      -0.595  -2.192  -0.072  0.00  0.00    -0.016 A 
ATOM      7  C6  BZF d   1      -1.560  -2.792  -0.854  0.00  0.00     0.022 A 
ATOM      8  C7  BZF d   1      -1.361  -3.005  -2.178  0.00  0.00     0.029 A 
ATOM      9  C7A BZF d   1      -0.151  -2.618  -2.699  0.00  0.00     0.058 A 
ENDROOT
TORSDOF 0
ENDMDL
