MODEL 1
REMARK minimizedAffinity 7.40952921
REMARK minimizedRMSD -1
REMARK  0 active torsions:
REMARK  status: ('A' for Active; 'I' for Inactive)
ROOT
ATOM      1  O1  BZF d   1       2.071  -1.147   4.719  0.00  0.00    -0.204 OA
ATOM      2  C2  BZF d   1       2.419  -1.837   3.573  0.00  0.00     0.174 A 
ATOM      3  C3  BZF d   1       1.368  -2.536   3.099  0.00  0.00    -0.012 A 
ATOM      4  C3A BZF d   1       0.272  -2.194   3.952  0.00  0.00    -0.107 A 
ATOM      5  C4  BZF d   1      -1.045  -2.556   3.980  0.00  0.00     0.055 A 
ATOM      6  C5  BZF d   1      -1.834  -2.101   4.988  0.00  0.00    -0.016 A 
ATOM      7  C6  BZF d   1      -1.339  -1.287   5.987  0.00  0.00     0.022 A 
ATOM      8  C7  BZF d   1      -0.041  -0.897   5.999  0.00  0.00     0.029 A 
ATOM      9  C7A BZF d   1       0.751  -1.329   4.963  0.00  0.00     0.058 A 
ENDROOT
TORSDOF 0
ENDMDL
