MODEL 1
REMARK minimizedAffinity 1.85346973
REMARK minimizedRMSD -1
REMARK  0 active torsions:
REMARK  status: ('A' for Active; 'I' for Inactive)
ROOT
ATOM      1  O1  BZF d   1       6.000   3.862  -4.892  0.00  0.00    -0.204 OA
ATOM      2  C2  BZF d   1       5.185   4.167  -5.965  0.00  0.00     0.174 A 
ATOM      3  C3  BZF d   1       4.167   4.964  -5.581  0.00  0.00    -0.012 A 
ATOM      4  C3A BZF d   1       4.409   5.244  -4.199  0.00  0.00    -0.107 A 
ATOM      5  C4  BZF d   1       3.754   5.993  -3.264  0.00  0.00     0.055 A 
ATOM      6  C5  BZF d   1       4.210   6.000  -1.984  0.00  0.00    -0.016 A 
ATOM      7  C6  BZF d   1       5.314   5.266  -1.604  0.00  0.00     0.022 A 
ATOM      8  C7  BZF d   1       6.000   4.511  -2.496  0.00  0.00     0.029 A 
ATOM      9  C7A BZF d   1       5.561   4.528  -3.798  0.00  0.00     0.058 A 
ENDROOT
TORSDOF 0
ENDMDL
