MODEL 1
REMARK minimizedAffinity 12.786171
REMARK minimizedRMSD -1
REMARK  0 active torsions:
REMARK  status: ('A' for Active; 'I' for Inactive)
ROOT
ATOM      1  O1  BZF d   1      -0.342  -4.839  -5.097  0.00  0.00    -0.204 OA
ATOM      2  C2  BZF d   1      -0.782  -6.000  -4.491  0.00  0.00     0.174 A 
ATOM      3  C3  BZF d   1      -0.929  -5.820  -3.162  0.00  0.00    -0.012 A 
ATOM      4  C3A BZF d   1      -0.646  -4.435  -2.937  0.00  0.00    -0.107 A 
ATOM      5  C4  BZF d   1      -0.641  -3.648  -1.821  0.00  0.00     0.055 A 
ATOM      6  C5  BZF d   1      -0.249  -2.351  -1.930  0.00  0.00    -0.016 A 
ATOM      7  C6  BZF d   1       0.149  -1.811  -3.136  0.00  0.00     0.022 A 
ATOM      8  C7  BZF d   1       0.155  -2.552  -4.271  0.00  0.00     0.029 A 
ATOM      9  C7A BZF d   1      -0.272  -3.854  -4.170  0.00  0.00     0.058 A 
ENDROOT
TORSDOF 0
ENDMDL
