MODEL 1
REMARK minimizedAffinity 8.22861576
REMARK minimizedRMSD -1
REMARK  0 active torsions:
REMARK  status: ('A' for Active; 'I' for Inactive)
ROOT
ATOM      1  O1  BZF d   1      -1.064  -2.859  -2.523  0.00  0.00    -0.204 OA
ATOM      2  C2  BZF d   1       0.092  -2.250  -2.971  0.00  0.00     0.174 A 
ATOM      3  C3  BZF d   1       0.742  -1.650  -1.953  0.00  0.00    -0.012 A 
ATOM      4  C3A BZF d   1      -0.010  -1.978  -0.781  0.00  0.00    -0.107 A 
ATOM      5  C4  BZF d   1       0.142  -1.685   0.544  0.00  0.00     0.055 A 
ATOM      6  C5  BZF d   1      -0.809  -2.097   1.424  0.00  0.00    -0.016 A 
ATOM      7  C6  BZF d   1      -1.924  -2.796   1.014  0.00  0.00     0.022 A 
ATOM      8  C7  BZF d   1      -2.116  -3.114  -0.290  0.00  0.00     0.029 A 
ATOM      9  C7A BZF d   1      -1.141  -2.728  -1.177  0.00  0.00     0.058 A 
ENDROOT
TORSDOF 0
ENDMDL
