MODEL 1
REMARK minimizedAffinity 4.96352291
REMARK minimizedRMSD -1
REMARK  0 active torsions:
REMARK  status: ('A' for Active; 'I' for Inactive)
ROOT
ATOM      1  O1  BZF d   1      -0.571  -3.644  -0.147  0.00  0.00    -0.204 OA
ATOM      2  C2  BZF d   1      -0.640  -2.296   0.149  0.00  0.00     0.174 A 
ATOM      3  C3  BZF d   1      -0.521  -1.554  -0.970  0.00  0.00    -0.012 A 
ATOM      4  C3A BZF d   1      -0.460  -2.498  -2.044  0.00  0.00    -0.107 A 
ATOM      5  C4  BZF d   1      -0.356  -2.373  -3.400  0.00  0.00     0.055 A 
ATOM      6  C5  BZF d   1      -0.247  -3.494  -4.160  0.00  0.00    -0.016 A 
ATOM      7  C6  BZF d   1      -0.235  -4.754  -3.599  0.00  0.00     0.022 A 
ATOM      8  C7  BZF d   1      -0.341  -4.928  -2.259  0.00  0.00     0.029 A 
ATOM      9  C7A BZF d   1      -0.484  -3.799  -1.490  0.00  0.00     0.058 A 
ENDROOT
TORSDOF 0
ENDMDL
