MODEL 1
REMARK minimizedAffinity 9.41977215
REMARK minimizedRMSD -1
REMARK  0 active torsions:
REMARK  status: ('A' for Active; 'I' for Inactive)
ROOT
ATOM      1  O1  BZF d   1      -0.517  -2.206  -4.019  0.00  0.00    -0.204 OA
ATOM      2  C2  BZF d   1       0.859  -2.109  -4.091  0.00  0.00     0.174 A 
ATOM      3  C3  BZF d   1       1.409  -2.178  -2.862  0.00  0.00    -0.012 A 
ATOM      4  C3A BZF d   1       0.314  -2.419  -1.973  0.00  0.00    -0.107 A 
ATOM      5  C4  BZF d   1       0.223  -2.599  -0.622  0.00  0.00     0.055 A 
ATOM      6  C5  BZF d   1      -1.004  -2.741  -0.056  0.00  0.00    -0.016 A 
ATOM      7  C6  BZF d   1      -2.160  -2.702  -0.808  0.00  0.00     0.022 A 
ATOM      8  C7  BZF d   1      -2.120  -2.531  -2.152  0.00  0.00     0.029 A 
ATOM      9  C7A BZF d   1      -0.880  -2.421  -2.731  0.00  0.00     0.058 A 
ENDROOT
TORSDOF 0
ENDMDL
