MODEL 1
REMARK minimizedAffinity 2.83056235
REMARK minimizedRMSD -1
REMARK  0 active torsions:
REMARK  status: ('A' for Active; 'I' for Inactive)
ROOT
ATOM      1  O1  BZF d   1       5.989   3.470  -1.778  0.00  0.00    -0.204 OA
ATOM      2  C2  BZF d   1       5.594   4.400  -0.836  0.00  0.00     0.174 A 
ATOM      3  C3  BZF d   1       5.143   5.522  -1.431  0.00  0.00    -0.012 A 
ATOM      4  C3A BZF d   1       5.177   5.244  -2.834  0.00  0.00    -0.107 A 
ATOM      5  C4  BZF d   1       4.836   5.964  -3.943  0.00  0.00     0.055 A 
ATOM      6  C5  BZF d   1       5.060   5.430  -5.173  0.00  0.00    -0.016 A 
ATOM      7  C6  BZF d   1       5.628   4.182  -5.330  0.00  0.00     0.022 A 
ATOM      8  C7  BZF d   1       5.978   3.428  -4.259  0.00  0.00     0.029 A 
ATOM      9  C7A BZF d   1       5.723   3.952  -3.015  0.00  0.00     0.058 A 
ENDROOT
TORSDOF 0
ENDMDL
