MODEL 1
REMARK minimizedAffinity 11.1800594
REMARK minimizedRMSD -1
REMARK  0 active torsions:
REMARK  status: ('A' for Active; 'I' for Inactive)
ROOT
ATOM      1  O1  BZF d   1       2.456  -1.989  -2.045  0.00  0.00    -0.204 OA
ATOM      2  C2  BZF d   1       3.126  -2.014  -3.252  0.00  0.00     0.174 A 
ATOM      3  C3  BZF d   1       2.262  -2.167  -4.276  0.00  0.00    -0.012 A 
ATOM      4  C3A BZF d   1       0.963  -2.150  -3.677  0.00  0.00    -0.107 A 
ATOM      5  C4  BZF d   1      -0.304  -2.244  -4.180  0.00  0.00     0.055 A 
ATOM      6  C5  BZF d   1      -1.355  -2.267  -3.319  0.00  0.00    -0.016 A 
ATOM      7  C6  BZF d   1      -1.177  -2.202  -1.953  0.00  0.00     0.022 A 
ATOM      8  C7  BZF d   1       0.060  -2.103  -1.408  0.00  0.00     0.029 A 
ATOM      9  C7A BZF d   1       1.123  -2.047  -2.276  0.00  0.00     0.058 A 
ENDROOT
TORSDOF 0
ENDMDL
