MODEL 1
REMARK minimizedAffinity 6.8040967
REMARK minimizedRMSD -1
REMARK  0 active torsions:
REMARK  status: ('A' for Active; 'I' for Inactive)
ROOT
ATOM      1  O1  BZF d   1      -1.119  -1.902  -3.499  0.00  0.00    -0.204 OA
ATOM      2  C2  BZF d   1       0.225  -2.072  -3.769  0.00  0.00     0.174 A 
ATOM      3  C3  BZF d   1       0.926  -2.231  -2.628  0.00  0.00    -0.012 A 
ATOM      4  C3A BZF d   1      -0.053  -2.248  -1.584  0.00  0.00    -0.107 A 
ATOM      5  C4  BZF d   1       0.023  -2.391  -0.228  0.00  0.00     0.055 A 
ATOM      6  C5  BZF d   1      -1.113  -2.288   0.511  0.00  0.00    -0.016 A 
ATOM      7  C6  BZF d   1      -2.338  -2.036  -0.071  0.00  0.00     0.022 A 
ATOM      8  C7  BZF d   1      -2.464  -1.892  -1.413  0.00  0.00     0.029 A 
ATOM      9  C7A BZF d   1      -1.323  -2.029  -2.166  0.00  0.00     0.058 A 
ENDROOT
TORSDOF 0
ENDMDL
