MODEL 1
REMARK minimizedAffinity 0.935648203
REMARK minimizedRMSD -1
REMARK  0 active torsions:
REMARK  status: ('A' for Active; 'I' for Inactive)
ROOT
ATOM      1  O1  BZF d   1       6.000   4.735  -1.770  0.00  0.00    -0.204 OA
ATOM      2  C2  BZF d   1       5.154   5.475  -0.966  0.00  0.00     0.174 A 
ATOM      3  C3  BZF d   1       4.143   5.999  -1.689  0.00  0.00    -0.012 A 
ATOM      4  C3A BZF d   1       4.321   5.484  -3.012  0.00  0.00    -0.107 A 
ATOM      5  C4  BZF d   1       3.626   5.632  -4.178  0.00  0.00     0.055 A 
ATOM      6  C5  BZF d   1       4.105   5.054  -5.311  0.00  0.00    -0.016 A 
ATOM      7  C6  BZF d   1       5.277   4.327  -5.315  0.00  0.00     0.022 A 
ATOM      8  C7  BZF d   1       5.999   4.149  -4.182  0.00  0.00     0.029 A 
ATOM      9  C7A BZF d   1       5.500   4.704  -3.029  0.00  0.00     0.058 A 
ENDROOT
TORSDOF 0
ENDMDL
