MODEL 1
REMARK minimizedAffinity 2.72129989
REMARK minimizedRMSD -1
REMARK  0 active torsions:
REMARK  status: ('A' for Active; 'I' for Inactive)
ROOT
ATOM      1  O1  BZF d   1      -2.120  -3.108  -1.110  0.00  0.00    -0.204 OA
ATOM      2  C2  BZF d   1      -2.209  -2.935   0.257  0.00  0.00     0.174 A 
ATOM      3  C3  BZF d   1      -1.086  -2.367   0.742  0.00  0.00    -0.012 A 
ATOM      4  C3A BZF d   1      -0.279  -2.089  -0.407  0.00  0.00    -0.107 A 
ATOM      5  C4  BZF d   1       0.947  -1.512  -0.576  0.00  0.00     0.055 A 
ATOM      6  C5  BZF d   1       1.485  -1.456  -1.823  0.00  0.00    -0.016 A 
ATOM      7  C6  BZF d   1       0.827  -1.971  -2.921  0.00  0.00     0.022 A 
ATOM      8  C7  BZF d   1      -0.394  -2.548  -2.804  0.00  0.00     0.029 A 
ATOM      9  C7A BZF d   1      -0.954  -2.576  -1.550  0.00  0.00     0.058 A 
ENDROOT
TORSDOF 0
ENDMDL
