MODEL 1
REMARK minimizedAffinity 3.22890925
REMARK minimizedRMSD -1
REMARK  0 active torsions:
REMARK  status: ('A' for Active; 'I' for Inactive)
ROOT
ATOM      1  O1  BZF d   1       4.555   5.978  -2.534  0.00  0.00    -0.204 OA
ATOM      2  C2  BZF d   1       5.350   5.336  -1.604  0.00  0.00     0.174 A 
ATOM      3  C3  BZF d   1       5.999   4.296  -2.166  0.00  0.00    -0.012 A 
ATOM      4  C3A BZF d   1       5.655   4.343  -3.554  0.00  0.00    -0.107 A 
ATOM      5  C4  BZF d   1       6.000   3.581  -4.634  0.00  0.00     0.055 A 
ATOM      6  C5  BZF d   1       5.432   3.848  -5.839  0.00  0.00    -0.016 A 
ATOM      7  C6  BZF d   1       4.513   4.864  -6.000  0.00  0.00     0.022 A 
ATOM      8  C7  BZF d   1       4.143   5.650  -4.959  0.00  0.00     0.029 A 
ATOM      9  C7A BZF d   1       4.740   5.404  -3.747  0.00  0.00     0.058 A 
ENDROOT
TORSDOF 0
ENDMDL
