MODEL 1
REMARK minimizedAffinity -0.596427858
REMARK minimizedRMSD -1
REMARK  0 active torsions:
REMARK  status: ('A' for Active; 'I' for Inactive)
ROOT
ATOM      1  O1  BZF d   1       5.995   3.879  -1.936  0.00  0.00    -0.204 OA
ATOM      2  C2  BZF d   1       5.976   5.244  -1.721  0.00  0.00     0.174 A 
ATOM      3  C3  BZF d   1       5.999   5.913  -2.892  0.00  0.00    -0.012 A 
ATOM      4  C3A BZF d   1       5.941   4.903  -3.904  0.00  0.00    -0.107 A 
ATOM      5  C4  BZF d   1       5.917   4.942  -5.269  0.00  0.00     0.055 A 
ATOM      6  C5  BZF d   1       5.934   3.773  -5.963  0.00  0.00    -0.016 A 
ATOM      7  C6  BZF d   1       5.980   2.551  -5.326  0.00  0.00     0.022 A 
ATOM      8  C7  BZF d   1       6.000   2.462  -3.974  0.00  0.00     0.029 A 
ATOM      9  C7A BZF d   1       5.950   3.639  -3.269  0.00  0.00     0.058 A 
ENDROOT
TORSDOF 0
ENDMDL
