MODEL 1
REMARK minimizedAffinity -1.5410639
REMARK minimizedRMSD -1
REMARK  0 active torsions:
REMARK  status: ('A' for Active; 'I' for Inactive)
ROOT
ATOM      1  O1  BZF d   1       3.761   5.522  -2.067  0.00  0.00    -0.204 OA
ATOM      2  C2  BZF d   1       4.937   5.997  -1.519  0.00  0.00     0.174 A 
ATOM      3  C3  BZF d   1       6.000   5.598  -2.247  0.00  0.00    -0.012 A 
ATOM      4  C3A BZF d   1       5.448   4.904  -3.370  0.00  0.00    -0.107 A 
ATOM      5  C4  BZF d   1       5.999   4.288  -4.457  0.00  0.00     0.055 A 
ATOM      6  C5  BZF d   1       5.186   3.640  -5.332  0.00  0.00    -0.016 A 
ATOM      7  C6  BZF d   1       3.820   3.582  -5.147  0.00  0.00     0.022 A 
ATOM      8  C7  BZF d   1       3.227   4.182  -4.087  0.00  0.00     0.029 A 
ATOM      9  C7A BZF d   1       4.042   4.866  -3.219  0.00  0.00     0.058 A 
ENDROOT
TORSDOF 0
ENDMDL
