MODEL 1
REMARK minimizedAffinity 7.40740585
REMARK minimizedRMSD -1
REMARK  2 active torsions:
REMARK  status: ('A' for Active; 'I' for Inactive)
REMARK    1  A    between atoms: C2'_3  and  C1'_4 
REMARK    2  A    between atoms: C1'_4  and  C1_5 
ROOT
ATOM      1  C1  I4B d   1      -1.377  -0.436   1.474  0.00  0.00    -0.075 A 
ATOM      2  C2  I4B d   1      -1.787  -1.455   2.297  0.00  0.00     0.003 A 
ATOM      3  C3  I4B d   1      -1.257  -1.572   3.605  0.00  0.00     0.002 A 
ATOM      4  C4  I4B d   1      -0.288  -0.685   4.028  0.00  0.00    -0.004 A 
ATOM      5  C5  I4B d   1       0.110   0.361   3.200  0.00  0.00     0.002 A 
ATOM      6  C6  I4B d   1      -0.447   0.494   1.920  0.00  0.00     0.003 A 
ENDROOT
BRANCH   1   7
ATOM      7  C1' I4B d   1      -1.933  -0.361   0.088  0.00  0.00     0.060 C 
BRANCH   7   8
ATOM      8  C2' I4B d   1      -0.772  -0.217  -0.874  0.00  0.00    -0.013 C 
ATOM      9  C4' I4B d   1      -0.691  -1.393  -1.811  0.00  0.00     0.013 C 
ATOM     10  C3' I4B d   1      -0.952   1.066  -1.630  0.00  0.00     0.013 C 
ENDBRANCH   7   8
ENDBRANCH   1   7
TORSDOF 2
ENDMDL
