MODEL 1
REMARK minimizedAffinity 3.54727173
REMARK minimizedRMSD -1
REMARK  2 active torsions:
REMARK  status: ('A' for Active; 'I' for Inactive)
REMARK    1  A    between atoms: C2'_3  and  C1'_4 
REMARK    2  A    between atoms: C1'_4  and  C1_5 
ROOT
ATOM      1  C1  I4B d   1       1.211   0.321   2.233  0.00  0.00    -0.075 A 
ATOM      2  C2  I4B d   1       0.652   0.432   0.984  0.00  0.00     0.003 A 
ATOM      3  C3  I4B d   1      -0.728   0.180   0.796  0.00  0.00     0.002 A 
ATOM      4  C4  I4B d   1      -1.498  -0.226   1.867  0.00  0.00    -0.004 A 
ATOM      5  C5  I4B d   1      -0.935  -0.315   3.137  0.00  0.00     0.002 A 
ATOM      6  C6  I4B d   1       0.425  -0.029   3.324  0.00  0.00     0.003 A 
ENDROOT
BRANCH   1   7
ATOM      7  C1' I4B d   1       2.679   0.561   2.390  0.00  0.00     0.060 C 
BRANCH   7   8
ATOM      8  C2' I4B d   1       3.311  -0.721   2.893  0.00  0.00    -0.013 C 
ATOM      9  C4' I4B d   1       4.163  -1.362   1.829  0.00  0.00     0.013 C 
ATOM     10  C3' I4B d   1       4.121  -0.392   4.110  0.00  0.00     0.013 C 
ENDBRANCH   7   8
ENDBRANCH   1   7
TORSDOF 2
ENDMDL
