MODEL 1
REMARK minimizedAffinity 4.38543177
REMARK minimizedRMSD -1
REMARK  2 active torsions:
REMARK  status: ('A' for Active; 'I' for Inactive)
REMARK    1  A    between atoms: C2'_3  and  C1'_4 
REMARK    2  A    between atoms: C1'_4  and  C1_5 
ROOT
ATOM      1  C1  I4B d   1      -1.030  -0.452   2.188  0.00  0.00    -0.075 A 
ATOM      2  C2  I4B d   1      -0.431  -1.495   2.849  0.00  0.00     0.003 A 
ATOM      3  C3  I4B d   1       0.918  -1.394   3.267  0.00  0.00     0.002 A 
ATOM      4  C4  I4B d   1       1.641  -0.259   2.961  0.00  0.00    -0.004 A 
ATOM      5  C5  I4B d   1       1.025   0.807   2.311  0.00  0.00     0.002 A 
ATOM      6  C6  I4B d   1      -0.322   0.715   1.933  0.00  0.00     0.003 A 
ENDROOT
BRANCH   1   7
ATOM      7  C1' I4B d   1      -2.446  -0.606   1.732  0.00  0.00     0.060 C 
BRANCH   7   8
ATOM      8  C2' I4B d   1      -2.775   0.565   0.828  0.00  0.00    -0.013 C 
ATOM      9  C4' I4B d   1      -2.154   0.394  -0.533  0.00  0.00     0.013 C 
ATOM     10  C3' I4B d   1      -4.268   0.671   0.733  0.00  0.00     0.013 C 
ENDBRANCH   7   8
ENDBRANCH   1   7
TORSDOF 2
ENDMDL
