MODEL 1
REMARK minimizedAffinity 9.53375912
REMARK minimizedRMSD -1
REMARK  2 active torsions:
REMARK  status: ('A' for Active; 'I' for Inactive)
REMARK    1  A    between atoms: C2'_3  and  C1'_4 
REMARK    2  A    between atoms: C1'_4  and  C1_5 
ROOT
ATOM      1  C1  I4B d   1      -0.966  -0.357   2.268  0.00  0.00    -0.075 A 
ATOM      2  C2  I4B d   1      -1.725  -1.501   2.275  0.00  0.00     0.003 A 
ATOM      3  C3  I4B d   1      -2.635  -1.759   1.221  0.00  0.00     0.002 A 
ATOM      4  C4  I4B d   1      -2.789  -0.829   0.213  0.00  0.00    -0.004 A 
ATOM      5  C5  I4B d   1      -2.002   0.319   0.195  0.00  0.00     0.002 A 
ATOM      6  C6  I4B d   1      -1.076   0.551   1.223  0.00  0.00     0.003 A 
ENDROOT
BRANCH   1   7
ATOM      7  C1' I4B d   1      -0.039  -0.100   3.413  0.00  0.00     0.060 C 
BRANCH   7   8
ATOM      8  C2' I4B d   1       0.887   1.033   3.020  0.00  0.00    -0.013 C 
ATOM      9  C4' I4B d   1       0.984   2.063   4.114  0.00  0.00     0.013 C 
ATOM     10  C3' I4B d   1       2.231   0.446   2.708  0.00  0.00     0.013 C 
ENDBRANCH   7   8
ENDBRANCH   1   7
TORSDOF 2
ENDMDL
