MODEL 1
REMARK minimizedAffinity 11.7976856
REMARK minimizedRMSD -1
REMARK  2 active torsions:
REMARK  status: ('A' for Active; 'I' for Inactive)
REMARK    1  A    between atoms: C2'_3  and  C1'_4 
REMARK    2  A    between atoms: C1'_4  and  C1_5 
ROOT
ATOM      1  C1  I4B d   1      -1.507   0.001   1.633  0.00  0.00    -0.075 A 
ATOM      2  C2  I4B d   1      -1.541  -1.035   2.533  0.00  0.00     0.003 A 
ATOM      3  C3  I4B d   1      -0.583  -1.106   3.574  0.00  0.00     0.002 A 
ATOM      4  C4  I4B d   1       0.413  -0.155   3.647  0.00  0.00    -0.004 A 
ATOM      5  C5  I4B d   1       0.432   0.907   2.747  0.00  0.00     0.002 A 
ATOM      6  C6  I4B d   1      -0.542   0.993   1.741  0.00  0.00     0.003 A 
ENDROOT
BRANCH   1   7
ATOM      7  C1' I4B d   1      -2.514   0.027   0.527  0.00  0.00     0.060 C 
BRANCH   7   8
ATOM      8  C2' I4B d   1      -1.786   0.363  -0.759  0.00  0.00    -0.013 C 
ATOM      9  C4' I4B d   1      -1.318  -0.883  -1.463  0.00  0.00     0.013 C 
ATOM     10  C3' I4B d   1      -2.718   1.157  -1.625  0.00  0.00     0.013 C 
ENDBRANCH   7   8
ENDBRANCH   1   7
TORSDOF 2
ENDMDL
