MODEL 1
REMARK minimizedAffinity -0.393512964
REMARK minimizedRMSD -1
REMARK  2 active torsions:
REMARK  status: ('A' for Active; 'I' for Inactive)
REMARK    1  A    between atoms: C2'_3  and  C1'_4 
REMARK    2  A    between atoms: C1'_4  and  C1_5 
ROOT
ATOM      1  C1  I4B d   1      -0.410   0.044   1.793  0.00  0.00    -0.075 A 
ATOM      2  C2  I4B d   1       0.527   0.568   0.937  0.00  0.00     0.003 A 
ATOM      3  C3  I4B d   1       0.179   0.874  -0.401  0.00  0.00     0.002 A 
ATOM      4  C4  I4B d   1      -1.095   0.595  -0.852  0.00  0.00    -0.004 A 
ATOM      5  C5  I4B d   1      -2.050   0.086   0.023  0.00  0.00     0.002 A 
ATOM      6  C6  I4B d   1      -1.709  -0.180   1.357  0.00  0.00     0.003 A 
ENDROOT
BRANCH   1   7
ATOM      7  C1' I4B d   1       0.001  -0.298   3.190  0.00  0.00     0.060 C 
BRANCH   7   8
ATOM      8  C2' I4B d   1      -0.757  -1.541   3.608  0.00  0.00    -0.013 C 
ATOM      9  C4' I4B d   1      -2.148  -1.199   4.074  0.00  0.00     0.013 C 
ATOM     10  C3' I4B d   1      -0.793  -2.477   2.438  0.00  0.00     0.013 C 
ENDBRANCH   7   8
ENDBRANCH   1   7
TORSDOF 2
ENDMDL
