MODEL 1
REMARK minimizedAffinity 11.0954809
REMARK minimizedRMSD -1
REMARK  2 active torsions:
REMARK  status: ('A' for Active; 'I' for Inactive)
REMARK    1  A    between atoms: C2'_3  and  C1'_4 
REMARK    2  A    between atoms: C1'_4  and  C1_5 
ROOT
ATOM      1  C1  I4B d   1      -0.023   0.431   1.530  0.00  0.00    -0.075 A 
ATOM      2  C2  I4B d   1       1.000   0.810   0.697  0.00  0.00     0.003 A 
ATOM      3  C3  I4B d   1       2.329   0.404   0.970  0.00  0.00     0.002 A 
ATOM      4  C4  I4B d   1       2.595  -0.332   2.106  0.00  0.00    -0.004 A 
ATOM      5  C5  I4B d   1       1.553  -0.734   2.938  0.00  0.00     0.002 A 
ATOM      6  C6  I4B d   1       0.234  -0.361   2.642  0.00  0.00     0.003 A 
ENDROOT
BRANCH   1   7
ATOM      7  C1' I4B d   1      -1.410   0.905   1.230  0.00  0.00     0.060 C 
BRANCH   7   8
ATOM      8  C2' I4B d   1      -2.018  -0.043   0.216  0.00  0.00    -0.013 C 
ATOM      9  C4' I4B d   1      -3.476  -0.286   0.504  0.00  0.00     0.013 C 
ATOM     10  C3' I4B d   1      -1.826   0.552  -1.147  0.00  0.00     0.013 C 
ENDBRANCH   7   8
ENDBRANCH   1   7
TORSDOF 2
ENDMDL
