MODEL 1
REMARK minimizedAffinity 18.0596561
REMARK minimizedRMSD -1
REMARK  2 active torsions:
REMARK  status: ('A' for Active; 'I' for Inactive)
REMARK    1  A    between atoms: C2'_3  and  C1'_4 
REMARK    2  A    between atoms: C1'_4  and  C1_5 
ROOT
ATOM      1  C1  I4B d   1      -2.041  -0.469   0.575  0.00  0.00    -0.075 A 
ATOM      2  C2  I4B d   1      -2.830   0.283  -0.257  0.00  0.00     0.003 A 
ATOM      3  C3  I4B d   1      -3.006  -0.097  -1.610  0.00  0.00     0.002 A 
ATOM      4  C4  I4B d   1      -2.337  -1.201  -2.097  0.00  0.00    -0.004 A 
ATOM      5  C5  I4B d   1      -1.555  -1.976  -1.246  0.00  0.00     0.002 A 
ATOM      6  C6  I4B d   1      -1.415  -1.616   0.102  0.00  0.00     0.003 A 
ENDROOT
BRANCH   1   7
ATOM      7  C1' I4B d   1      -1.851  -0.020   1.990  0.00  0.00     0.060 C 
BRANCH   7   8
ATOM      8  C2' I4B d   1      -0.367   0.177   2.221  0.00  0.00    -0.013 C 
ATOM      9  C4' I4B d   1      -0.057   1.605   2.589  0.00  0.00     0.013 C 
ATOM     10  C3' I4B d   1       0.062  -0.766   3.306  0.00  0.00     0.013 C 
ENDBRANCH   7   8
ENDBRANCH   1   7
TORSDOF 2
ENDMDL
