MODEL 1
REMARK minimizedAffinity 7.19358444
REMARK minimizedRMSD -1
REMARK  2 active torsions:
REMARK  status: ('A' for Active; 'I' for Inactive)
REMARK    1  A    between atoms: C2'_3  and  C1'_4 
REMARK    2  A    between atoms: C1'_4  and  C1_5 
ROOT
ATOM      1  C1  I4B d   1      -1.913   0.250   0.462  0.00  0.00    -0.075 A 
ATOM      2  C2  I4B d   1      -1.012   0.224   1.498  0.00  0.00     0.003 A 
ATOM      3  C3  I4B d   1      -1.435   0.517   2.817  0.00  0.00     0.002 A 
ATOM      4  C4  I4B d   1      -2.747   0.879   3.046  0.00  0.00    -0.004 A 
ATOM      5  C5  I4B d   1      -3.663   0.883   1.998  0.00  0.00     0.002 A 
ATOM      6  C6  I4B d   1      -3.246   0.555   0.700  0.00  0.00     0.003 A 
ENDROOT
BRANCH   1   7
ATOM      7  C1' I4B d   1      -1.425  -0.032  -0.924  0.00  0.00     0.060 C 
BRANCH   7   8
ATOM      8  C2' I4B d   1      -2.208  -1.213  -1.462  0.00  0.00    -0.013 C 
ATOM      9  C4' I4B d   1      -2.592  -1.002  -2.903  0.00  0.00     0.013 C 
ATOM     10  C3' I4B d   1      -1.362  -2.441  -1.301  0.00  0.00     0.013 C 
ENDBRANCH   7   8
ENDBRANCH   1   7
TORSDOF 2
ENDMDL
