MODEL 1
REMARK minimizedAffinity 1.43399751
REMARK minimizedRMSD -1
REMARK  2 active torsions:
REMARK  status: ('A' for Active; 'I' for Inactive)
REMARK    1  A    between atoms: C2'_3  and  C1'_4 
REMARK    2  A    between atoms: C1'_4  and  C1_5 
ROOT
ATOM      1  C1  I4B d   1       3.529   3.359  -2.733  0.00  0.00    -0.075 A 
ATOM      2  C2  I4B d   1       4.669   3.109  -3.455  0.00  0.00     0.003 A 
ATOM      3  C3  I4B d   1       4.948   3.852  -4.627  0.00  0.00     0.002 A 
ATOM      4  C4  I4B d   1       4.041   4.794  -5.067  0.00  0.00    -0.004 A 
ATOM      5  C5  I4B d   1       2.896   5.062  -4.322  0.00  0.00     0.002 A 
ATOM      6  C6  I4B d   1       2.644   4.349  -3.141  0.00  0.00     0.003 A 
ENDROOT
BRANCH   1   7
ATOM      7  C1' I4B d   1       3.249   2.532  -1.518  0.00  0.00     0.060 C 
BRANCH   7   8
ATOM      8  C2' I4B d   1       2.004   3.084  -0.855  0.00  0.00    -0.013 C 
ATOM      9  C4' I4B d   1       0.846   2.131  -0.992  0.00  0.00     0.013 C 
ATOM     10  C3' I4B d   1       2.324   3.344   0.587  0.00  0.00     0.013 C 
ENDBRANCH   7   8
ENDBRANCH   1   7
TORSDOF 2
ENDMDL
