MODEL 1
REMARK minimizedAffinity 3.91761494
REMARK minimizedRMSD -1
REMARK  2 active torsions:
REMARK  status: ('A' for Active; 'I' for Inactive)
REMARK    1  A    between atoms: C2'_3  and  C1'_4 
REMARK    2  A    between atoms: C1'_4  and  C1_5 
ROOT
ATOM      1  C1  I4B d   1      -1.985  -0.427   0.743  0.00  0.00    -0.075 A 
ATOM      2  C2  I4B d   1      -2.912  -0.013  -0.181  0.00  0.00     0.003 A 
ATOM      3  C3  I4B d   1      -2.895  -0.541  -1.494  0.00  0.00     0.002 A 
ATOM      4  C4  I4B d   1      -1.909  -1.437  -1.854  0.00  0.00    -0.004 A 
ATOM      5  C5  I4B d   1      -0.983  -1.873  -0.910  0.00  0.00     0.002 A 
ATOM      6  C6  I4B d   1      -1.028  -1.374   0.400  0.00  0.00     0.003 A 
ENDROOT
BRANCH   1   7
ATOM      7  C1' I4B d   1      -2.012   0.177   2.111  0.00  0.00     0.060 C 
BRANCH   7   8
ATOM      8  C2' I4B d   1      -1.124  -0.662   3.009  0.00  0.00    -0.013 C 
ATOM      9  C4' I4B d   1       0.093   0.110   3.447  0.00  0.00     0.013 C 
ATOM     10  C3' I4B d   1      -1.940  -1.101   4.187  0.00  0.00     0.013 C 
ENDBRANCH   7   8
ENDBRANCH   1   7
TORSDOF 2
ENDMDL
