MODEL 1
REMARK minimizedAffinity 3.55840659
REMARK minimizedRMSD -1
REMARK  2 active torsions:
REMARK  status: ('A' for Active; 'I' for Inactive)
REMARK    1  A    between atoms: C2'_3  and  C1'_4 
REMARK    2  A    between atoms: C1'_4  and  C1_5 
ROOT
ATOM      1  C1  I4B d   1       5.839  -3.723   3.616  0.00  0.00    -0.075 A 
ATOM      2  C2  I4B d   1       5.616  -5.065   3.431  0.00  0.00     0.003 A 
ATOM      3  C3  I4B d   1       5.558  -5.938   4.545  0.00  0.00     0.002 A 
ATOM      4  C4  I4B d   1       5.778  -5.438   5.812  0.00  0.00    -0.004 A 
ATOM      5  C5  I4B d   1       5.981  -4.074   6.000  0.00  0.00     0.002 A 
ATOM      6  C6  I4B d   1       5.999  -3.208   4.896  0.00  0.00     0.003 A 
ENDROOT
BRANCH   1   7
ATOM      7  C1' I4B d   1       5.926  -2.835   2.416  0.00  0.00     0.060 C 
BRANCH   7   8
ATOM      8  C2' I4B d   1       5.032  -1.635   2.657  0.00  0.00    -0.013 C 
ATOM      9  C4' I4B d   1       5.428  -0.476   1.781  0.00  0.00     0.013 C 
ATOM     10  C3' I4B d   1       3.616  -2.053   2.395  0.00  0.00     0.013 C 
ENDBRANCH   7   8
ENDBRANCH   1   7
TORSDOF 2
ENDMDL
