MODEL 1
REMARK minimizedAffinity 9.77132034
REMARK minimizedRMSD -1
REMARK  2 active torsions:
REMARK  status: ('A' for Active; 'I' for Inactive)
REMARK    1  A    between atoms: C2'_3  and  C1'_4 
REMARK    2  A    between atoms: C1'_4  and  C1_5 
ROOT
ATOM      1  C1  I4B d   1      -1.494  -0.769   0.612  0.00  0.00    -0.075 A 
ATOM      2  C2  I4B d   1      -1.361   0.083  -0.456  0.00  0.00     0.003 A 
ATOM      3  C3  I4B d   1      -0.910  -0.406  -1.706  0.00  0.00     0.002 A 
ATOM      4  C4  I4B d   1      -0.556  -1.734  -1.829  0.00  0.00    -0.004 A 
ATOM      5  C5  I4B d   1      -0.713  -2.601  -0.751  0.00  0.00     0.002 A 
ATOM      6  C6  I4B d   1      -1.197  -2.118   0.474  0.00  0.00     0.003 A 
ENDROOT
BRANCH   1   7
ATOM      7  C1' I4B d   1      -1.942  -0.212   1.926  0.00  0.00     0.060 C 
BRANCH   7   8
ATOM      8  C2' I4B d   1      -1.054  -0.794   3.007  0.00  0.00    -0.013 C 
ATOM      9  C4' I4B d   1      -0.026   0.206   3.465  0.00  0.00     0.013 C 
ATOM     10  C3' I4B d   1      -1.931  -1.229   4.143  0.00  0.00     0.013 C 
ENDBRANCH   7   8
ENDBRANCH   1   7
TORSDOF 2
ENDMDL
