MODEL 1
REMARK minimizedAffinity 7.13378382
REMARK minimizedRMSD -1
REMARK  2 active torsions:
REMARK  status: ('A' for Active; 'I' for Inactive)
REMARK    1  A    between atoms: C2'_3  and  C1'_4 
REMARK    2  A    between atoms: C1'_4  and  C1_5 
ROOT
ATOM      1  C1  I4B d   1       0.710   0.097   1.004  0.00  0.00    -0.075 A 
ATOM      2  C2  I4B d   1      -0.421   0.569   0.384  0.00  0.00     0.003 A 
ATOM      3  C3  I4B d   1      -1.494   1.082   1.152  0.00  0.00     0.002 A 
ATOM      4  C4  I4B d   1      -1.416   1.058   2.530  0.00  0.00    -0.004 A 
ATOM      5  C5  I4B d   1      -0.260   0.601   3.156  0.00  0.00     0.002 A 
ATOM      6  C6  I4B d   1       0.815   0.129   2.389  0.00  0.00     0.003 A 
ENDROOT
BRANCH   1   7
ATOM      7  C1' I4B d   1       1.810  -0.468   0.164  0.00  0.00     0.060 C 
BRANCH   7   8
ATOM      8  C2' I4B d   1       1.706  -1.979   0.213  0.00  0.00    -0.013 C 
ATOM      9  C4' I4B d   1       0.526  -2.470  -0.583  0.00  0.00     0.013 C 
ATOM     10  C3' I4B d   1       2.989  -2.549  -0.314  0.00  0.00     0.013 C 
ENDBRANCH   7   8
ENDBRANCH   1   7
TORSDOF 2
ENDMDL
