MODEL 1
REMARK minimizedAffinity -0.112669565
REMARK minimizedRMSD -1
REMARK  1 active torsions:
REMARK  status: ('A' for Active; 'I' for Inactive)
REMARK    1  A    between atoms: N_2  and  C1_3 
ROOT
ATOM      1  C1  UNL d   1       0.513  -0.932  -0.148  0.00  0.00     0.143 A 
ATOM      2  C2  UNL d   1       1.870  -0.771   0.152  0.00  0.00    -0.057 A 
ATOM      3  C3  UNL d   1       2.443   0.501   0.264  0.00  0.00     0.033 A 
ATOM      4  C4  UNL d   1       1.672   1.639   0.049  0.00  0.00    -0.042 A 
ATOM      5  C5  UNL d   1       0.327   1.503  -0.274  0.00  0.00     0.033 A 
ATOM      6  C6  UNL d   1      -0.241   0.230  -0.379  0.00  0.00    -0.057 A 
ENDROOT
BRANCH   1   7
ATOM      7  N   UNL d   1      -0.094  -2.170  -0.371  0.00  0.00    -0.732 N 
ATOM      8  C   UNL d   1      -0.097  -2.763  -1.691  0.00  0.00     0.284 C 
ATOM      9  H3  UNL d   1       0.087  -2.832   0.381  0.00  0.00     0.395 HD
ENDBRANCH   1   7
TORSDOF 1
ENDMDL
