MODEL 1
REMARK minimizedAffinity -5.19471502
REMARK minimizedRMSD -1
REMARK  1 active torsions:
REMARK  status: ('A' for Active; 'I' for Inactive)
REMARK    1  A    between atoms: N_2  and  C1_3 
ROOT
ATOM      1  C1  UNL d   1       0.079   0.477  -0.084  0.00  0.00     0.143 A 
ATOM      2  C2  UNL d   1      -0.795   1.125   0.796  0.00  0.00    -0.057 A 
ATOM      3  C3  UNL d   1      -0.803   2.520   0.916  0.00  0.00     0.033 A 
ATOM      4  C4  UNL d   1       0.086   3.293   0.177  0.00  0.00    -0.042 A 
ATOM      5  C5  UNL d   1       0.981   2.669  -0.685  0.00  0.00     0.033 A 
ATOM      6  C6  UNL d   1       0.980   1.276  -0.806  0.00  0.00    -0.057 A 
ENDROOT
BRANCH   1   7
ATOM      7  N   UNL d   1       0.204  -0.911  -0.176  0.00  0.00    -0.732 N 
ATOM      8  C   UNL d   1      -0.144  -1.603  -1.399  0.00  0.00     0.284 C 
ATOM      9  H3  UNL d   1       1.051  -1.255   0.271  0.00  0.00     0.395 HD
ENDBRANCH   1   7
TORSDOF 1
ENDMDL
