MODEL 1
REMARK minimizedAffinity -0.0385143571
REMARK minimizedRMSD -1
REMARK  1 active torsions:
REMARK  status: ('A' for Active; 'I' for Inactive)
REMARK    1  A    between atoms: N_2  and  C1_3 
ROOT
ATOM      1  C1  UNL d   1       0.245  -2.397  -0.821  0.00  0.00     0.143 A 
ATOM      2  C2  UNL d   1      -1.005  -3.013  -0.702  0.00  0.00    -0.057 A 
ATOM      3  C3  UNL d   1      -1.465  -3.914  -1.669  0.00  0.00     0.033 A 
ATOM      4  C4  UNL d   1      -0.693  -4.194  -2.792  0.00  0.00    -0.042 A 
ATOM      5  C5  UNL d   1       0.542  -3.574  -2.944  0.00  0.00     0.033 A 
ATOM      6  C6  UNL d   1       0.999  -2.680  -1.971  0.00  0.00    -0.057 A 
ENDROOT
BRANCH   1   7
ATOM      7  N   UNL d   1       0.717  -1.417   0.057  0.00  0.00    -0.732 N 
ATOM      8  C   UNL d   1       0.246  -0.052  -0.041  0.00  0.00     0.284 C 
ATOM      9  H3  UNL d   1       0.804  -1.760   1.011  0.00  0.00     0.395 HD
ENDBRANCH   1   7
TORSDOF 1
ENDMDL
