MODEL 1
REMARK minimizedAffinity -1.63800287
REMARK minimizedRMSD -1
REMARK  1 active torsions:
REMARK  status: ('A' for Active; 'I' for Inactive)
REMARK    1  A    between atoms: N_2  and  C1_3 
ROOT
ATOM      1  C1  UNL d   1       0.453  -0.933  -0.499  0.00  0.00     0.143 A 
ATOM      2  C2  UNL d   1       0.135   0.121  -1.362  0.00  0.00    -0.057 A 
ATOM      3  C3  UNL d   1       0.955   1.251  -1.460  0.00  0.00     0.033 A 
ATOM      4  C4  UNL d   1       2.096   1.361  -0.672  0.00  0.00    -0.042 A 
ATOM      5  C5  UNL d   1       2.418   0.336   0.211  0.00  0.00     0.033 A 
ATOM      6  C6  UNL d   1       1.598  -0.793   0.299  0.00  0.00    -0.057 A 
ENDROOT
BRANCH   1   7
ATOM      7  N   UNL d   1      -0.374  -2.039  -0.285  0.00  0.00    -0.732 N 
ATOM      8  C   UNL d   1      -0.607  -3.001  -1.340  0.00  0.00     0.284 C 
ATOM      9  H3  UNL d   1      -0.236  -2.454   0.634  0.00  0.00     0.395 HD
ENDBRANCH   1   7
TORSDOF 1
ENDMDL
