MODEL 1
REMARK minimizedAffinity -5.0628891
REMARK minimizedRMSD -1
REMARK  1 active torsions:
REMARK  status: ('A' for Active; 'I' for Inactive)
REMARK    1  A    between atoms: N_2  and  C1_3 
ROOT
ATOM      1  C1  UNL d   1      -0.247  -0.136  -0.372  0.00  0.00     0.143 A 
ATOM      2  C2  UNL d   1      -1.333   0.655   0.018  0.00  0.00    -0.057 A 
ATOM      3  C3  UNL d   1      -1.149   1.963   0.483  0.00  0.00     0.033 A 
ATOM      4  C4  UNL d   1       0.132   2.494   0.594  0.00  0.00    -0.042 A 
ATOM      5  C5  UNL d   1       1.228   1.717   0.236  0.00  0.00     0.033 A 
ATOM      6  C6  UNL d   1       1.037   0.414  -0.235  0.00  0.00    -0.057 A 
ENDROOT
BRANCH   1   7
ATOM      7  N   UNL d   1      -0.357  -1.476  -0.750  0.00  0.00    -0.732 N 
ATOM      8  C   UNL d   1      -0.618  -1.835  -2.127  0.00  0.00     0.284 C 
ATOM      9  H3  UNL d   1       0.331  -2.067  -0.289  0.00  0.00     0.395 HD
ENDBRANCH   1   7
TORSDOF 1
ENDMDL
