MODEL 1
REMARK minimizedAffinity -0.389077067
REMARK minimizedRMSD -1
REMARK  1 active torsions:
REMARK  status: ('A' for Active; 'I' for Inactive)
REMARK    1  A    between atoms: N_2  and  C1_3 
ROOT
ATOM      1  C1  UNL d   1      -0.380  -2.013  -1.823  0.00  0.00     0.143 A 
ATOM      2  C2  UNL d   1      -0.525  -0.633  -2.000  0.00  0.00    -0.057 A 
ATOM      3  C3  UNL d   1      -0.559   0.239  -0.906  0.00  0.00     0.033 A 
ATOM      4  C4  UNL d   1      -0.478  -0.258   0.391  0.00  0.00    -0.042 A 
ATOM      5  C5  UNL d   1      -0.359  -1.629   0.591  0.00  0.00     0.033 A 
ATOM      6  C6  UNL d   1      -0.318  -2.494  -0.506  0.00  0.00    -0.057 A 
ENDROOT
BRANCH   1   7
ATOM      7  N   UNL d   1      -0.438  -2.941  -2.866  0.00  0.00    -0.732 N 
ATOM      8  C   UNL d   1      -0.982  -4.264  -2.646  0.00  0.00     0.284 C 
ATOM      9  H3  UNL d   1      -0.719  -2.518  -3.748  0.00  0.00     0.395 HD
ENDBRANCH   1   7
TORSDOF 1
ENDMDL
