MODEL 1
REMARK minimizedAffinity -5.19927883
REMARK minimizedRMSD -1
REMARK  1 active torsions:
REMARK  status: ('A' for Active; 'I' for Inactive)
REMARK    1  A    between atoms: N_2  and  C1_3 
ROOT
ATOM      1  C1  UNL d   1      -0.235  -0.206  -0.136  0.00  0.00     0.143 A 
ATOM      2  C2  UNL d   1      -1.373   0.432   0.367  0.00  0.00    -0.057 A 
ATOM      3  C3  UNL d   1      -1.411   1.822   0.538  0.00  0.00     0.033 A 
ATOM      4  C4  UNL d   1      -0.296   2.596   0.235  0.00  0.00    -0.042 A 
ATOM      5  C5  UNL d   1       0.855   1.980  -0.244  0.00  0.00     0.033 A 
ATOM      6  C6  UNL d   1       0.884   0.593  -0.418  0.00  0.00    -0.057 A 
ENDROOT
BRANCH   1   7
ATOM      7  N   UNL d   1      -0.102  -1.593  -0.236  0.00  0.00    -0.732 N 
ATOM      8  C   UNL d   1      -0.280  -2.261  -1.508  0.00  0.00     0.284 C 
ATOM      9  H3  UNL d   1       0.676  -1.949   0.315  0.00  0.00     0.395 HD
ENDBRANCH   1   7
TORSDOF 1
ENDMDL
