MODEL 1
REMARK minimizedAffinity -2.26532745
REMARK minimizedRMSD -1
REMARK  1 active torsions:
REMARK  status: ('A' for Active; 'I' for Inactive)
REMARK    1  A    between atoms: N_2  and  C1_3 
ROOT
ATOM      1  C1  UNL d   1      -0.503   0.219   0.254  0.00  0.00     0.143 A 
ATOM      2  C2  UNL d   1      -1.540   0.728   1.043  0.00  0.00    -0.057 A 
ATOM      3  C3  UNL d   1      -1.529   2.055   1.489  0.00  0.00     0.033 A 
ATOM      4  C4  UNL d   1      -0.462   2.891   1.178  0.00  0.00    -0.042 A 
ATOM      5  C5  UNL d   1       0.593   2.400   0.417  0.00  0.00     0.033 A 
ATOM      6  C6  UNL d   1       0.572   1.075  -0.032  0.00  0.00    -0.057 A 
ENDROOT
BRANCH   1   7
ATOM      7  N   UNL d   1      -0.408  -1.118  -0.138  0.00  0.00    -0.732 N 
ATOM      8  C   UNL d   1       0.384  -2.056   0.628  0.00  0.00     0.284 C 
ATOM      9  H3  UNL d   1      -1.297  -1.492  -0.462  0.00  0.00     0.395 HD
ENDBRANCH   1   7
TORSDOF 1
ENDMDL
