MODEL 1
REMARK minimizedAffinity -4.68969631
REMARK minimizedRMSD -1
REMARK  1 active torsions:
REMARK  status: ('A' for Active; 'I' for Inactive)
REMARK    1  A    between atoms: N_2  and  C1_3 
ROOT
ATOM      1  C1  UNL d   1      -0.601   0.589   0.246  0.00  0.00     0.143 A 
ATOM      2  C2  UNL d   1       0.534   1.034  -0.440  0.00  0.00    -0.057 A 
ATOM      3  C3  UNL d   1       0.891   2.388  -0.451  0.00  0.00     0.033 A 
ATOM      4  C4  UNL d   1       0.100   3.328   0.203  0.00  0.00    -0.042 A 
ATOM      5  C5  UNL d   1      -1.046   2.911   0.870  0.00  0.00     0.033 A 
ATOM      6  C6  UNL d   1      -1.394   1.556   0.883  0.00  0.00    -0.057 A 
ENDROOT
BRANCH   1   7
ATOM      7  N   UNL d   1      -1.062  -0.729   0.212  0.00  0.00    -0.732 N 
ATOM      8  C   UNL d   1      -0.340  -1.745  -0.523  0.00  0.00     0.284 C 
ATOM      9  H3  UNL d   1      -1.414  -1.041   1.115  0.00  0.00     0.395 HD
ENDBRANCH   1   7
TORSDOF 1
ENDMDL
