MODEL 1
REMARK minimizedAffinity -0.439032495
REMARK minimizedRMSD -1
REMARK  1 active torsions:
REMARK  status: ('A' for Active; 'I' for Inactive)
REMARK    1  A    between atoms: N_2  and  C1_3 
ROOT
ATOM      1  C1  UNL d   1      -2.173  -3.440  -1.342  0.00  0.00     0.143 A 
ATOM      2  C2  UNL d   1      -1.544  -3.220  -2.572  0.00  0.00    -0.057 A 
ATOM      3  C3  UNL d   1      -0.254  -2.682  -2.642  0.00  0.00     0.033 A 
ATOM      4  C4  UNL d   1       0.421  -2.325  -1.479  0.00  0.00    -0.042 A 
ATOM      5  C5  UNL d   1      -0.195  -2.510  -0.246  0.00  0.00     0.033 A 
ATOM      6  C6  UNL d   1      -1.481  -3.055  -0.183  0.00  0.00    -0.057 A 
ENDROOT
BRANCH   1   7
ATOM      7  N   UNL d   1      -3.493  -3.880  -1.211  0.00  0.00    -0.732 N 
ATOM      8  C   UNL d   1      -3.914  -4.607  -0.032  0.00  0.00     0.284 C 
ATOM      9  H3  UNL d   1      -4.166  -3.191  -1.537  0.00  0.00     0.395 HD
ENDBRANCH   1   7
TORSDOF 1
ENDMDL
