MODEL 1
REMARK minimizedAffinity -2.7528584
REMARK minimizedRMSD -1
REMARK  1 active torsions:
REMARK  status: ('A' for Active; 'I' for Inactive)
REMARK    1  A    between atoms: N_2  and  C1_3 
ROOT
ATOM      1  C1  UNL d   1      -1.008   2.144   1.583  0.00  0.00     0.143 A 
ATOM      2  C2  UNL d   1      -0.105   2.635   0.633  0.00  0.00    -0.057 A 
ATOM      3  C3  UNL d   1       0.373   1.823  -0.402  0.00  0.00     0.033 A 
ATOM      4  C4  UNL d   1      -0.022   0.492  -0.489  0.00  0.00    -0.042 A 
ATOM      5  C5  UNL d   1      -0.899  -0.024   0.458  0.00  0.00     0.033 A 
ATOM      6  C6  UNL d   1      -1.378   0.794   1.486  0.00  0.00    -0.057 A 
ENDROOT
BRANCH   1   7
ATOM      7  N   UNL d   1      -1.443   2.873   2.692  0.00  0.00    -0.732 N 
ATOM      8  C   UNL d   1      -0.490   3.518   3.570  0.00  0.00     0.284 C 
ATOM      9  H3  UNL d   1      -2.267   3.434   2.490  0.00  0.00     0.395 HD
ENDBRANCH   1   7
TORSDOF 1
ENDMDL
