MODEL 1
REMARK minimizedAffinity 1.7397939
REMARK minimizedRMSD -1
REMARK  0 active torsions:
REMARK  status: ('A' for Active; 'I' for Inactive)
ROOT
ATOM      1  C   UNL d   1       2.981   2.580  -5.705  0.00  0.00     0.020 A 
ATOM      2  C1  UNL d   1       2.342   3.626  -5.040  0.00  0.00     0.020 A 
ATOM      3  C2  UNL d   1       1.497   3.356  -3.962  0.00  0.00     0.034 A 
ATOM      4  C3  UNL d   1       1.288   2.037  -3.545  0.00  0.00     0.017 A 
ATOM      5  C4  UNL d   1       1.930   0.987  -4.213  0.00  0.00     0.017 A 
ATOM      6  C5  UNL d   1       2.775   1.263  -5.292  0.00  0.00     0.034 A 
ATOM      7 Cl   UNL d   1       1.721  -0.667  -3.756  0.00  0.00    -0.070 Cl
ATOM      8 Cl1  UNL d   1       0.231   1.776  -2.203  0.00  0.00    -0.070 Cl
ENDROOT
TORSDOF 0
ENDMDL
