MODEL 1
REMARK minimizedAffinity -0.854375184
REMARK minimizedRMSD -1
REMARK  0 active torsions:
REMARK  status: ('A' for Active; 'I' for Inactive)
ROOT
ATOM      1  C   UNL d   1      -0.099  -0.304  -1.550  0.00  0.00     0.020 A 
ATOM      2  C1  UNL d   1      -1.123  -0.859  -0.784  0.00  0.00     0.020 A 
ATOM      3  C2  UNL d   1      -1.115  -0.713   0.605  0.00  0.00     0.034 A 
ATOM      4  C3  UNL d   1      -0.079  -0.011   1.232  0.00  0.00     0.017 A 
ATOM      5  C4  UNL d   1       0.949   0.545   0.463  0.00  0.00     0.017 A 
ATOM      6  C5  UNL d   1       0.935   0.396  -0.927  0.00  0.00     0.034 A 
ATOM      7 Cl   UNL d   1       2.260   1.425   1.166  0.00  0.00    -0.070 Cl
ATOM      8 Cl1  UNL d   1      -0.132   0.130   2.953  0.00  0.00    -0.070 Cl
ENDROOT
TORSDOF 0
ENDMDL
