MODEL 1
REMARK minimizedAffinity 0.180014029
REMARK minimizedRMSD -1
REMARK  0 active torsions:
REMARK  status: ('A' for Active; 'I' for Inactive)
ROOT
ATOM      1  C   UNL d   1      -0.001   0.713  -1.768  0.00  0.00     0.020 A 
ATOM      2  C1  UNL d   1       0.956   0.191  -0.899  0.00  0.00     0.020 A 
ATOM      3  C2  UNL d   1       0.571  -0.300   0.350  0.00  0.00     0.034 A 
ATOM      4  C3  UNL d   1      -0.774  -0.268   0.735  0.00  0.00     0.017 A 
ATOM      5  C4  UNL d   1      -1.734   0.257  -0.138  0.00  0.00     0.017 A 
ATOM      6  C5  UNL d   1      -1.343   0.746  -1.388  0.00  0.00     0.034 A 
ATOM      7 Cl   UNL d   1      -3.413   0.330   0.267  0.00  0.00    -0.070 Cl
ATOM      8 Cl1  UNL d   1      -1.178  -0.891   2.295  0.00  0.00    -0.070 Cl
ENDROOT
TORSDOF 0
ENDMDL
