MODEL 1
REMARK minimizedAffinity -1.90107882
REMARK minimizedRMSD -1
REMARK  0 active torsions:
REMARK  status: ('A' for Active; 'I' for Inactive)
ROOT
ATOM      1  C   UNL d   1       0.110   0.587  -0.929  0.00  0.00     0.020 A 
ATOM      2  C1  UNL d   1       1.057   0.381   0.073  0.00  0.00     0.020 A 
ATOM      3  C2  UNL d   1       0.651  -0.032   1.343  0.00  0.00     0.034 A 
ATOM      4  C3  UNL d   1      -0.706  -0.242   1.615  0.00  0.00     0.017 A 
ATOM      5  C4  UNL d   1      -1.656  -0.036   0.608  0.00  0.00     0.017 A 
ATOM      6  C5  UNL d   1      -1.244   0.378  -0.662  0.00  0.00     0.034 A 
ATOM      7 Cl   UNL d   1      -3.348  -0.274   0.867  0.00  0.00    -0.070 Cl
ATOM      8 Cl1  UNL d   1      -1.137  -0.754   3.208  0.00  0.00    -0.070 Cl
ENDROOT
TORSDOF 0
ENDMDL
