MODEL 1
REMARK minimizedAffinity -2.95793939
REMARK minimizedRMSD -1
REMARK  0 active torsions:
REMARK  status: ('A' for Active; 'I' for Inactive)
ROOT
ATOM      1  C   UNL d   1       0.349  -0.559   2.621  0.00  0.00     0.020 A 
ATOM      2  C1  UNL d   1       1.254   0.016   1.730  0.00  0.00     0.020 A 
ATOM      3  C2  UNL d   1       0.820   0.441   0.472  0.00  0.00     0.034 A 
ATOM      4  C3  UNL d   1      -0.521   0.292   0.102  0.00  0.00     0.017 A 
ATOM      5  C4  UNL d   1      -1.429  -0.285   0.998  0.00  0.00     0.017 A 
ATOM      6  C5  UNL d   1      -0.990  -0.709   2.256  0.00  0.00     0.034 A 
ATOM      7 Cl   UNL d   1      -3.100  -0.503   0.612  0.00  0.00    -0.070 Cl
ATOM      8 Cl1  UNL d   1      -0.987   0.841  -1.468  0.00  0.00    -0.070 Cl
ENDROOT
TORSDOF 0
ENDMDL
