MODEL 1
REMARK minimizedAffinity -2.87749767
REMARK minimizedRMSD -1
REMARK  0 active torsions:
REMARK  status: ('A' for Active; 'I' for Inactive)
ROOT
ATOM      1  C   UNL d   1      -0.929  -0.808   2.672  0.00  0.00     0.020 A 
ATOM      2  C1  UNL d   1      -1.880  -1.002   1.671  0.00  0.00     0.020 A 
ATOM      3  C2  UNL d   1      -1.635  -0.540   0.376  0.00  0.00     0.034 A 
ATOM      4  C3  UNL d   1      -0.436   0.118   0.079  0.00  0.00     0.017 A 
ATOM      5  C4  UNL d   1       0.518   0.312   1.084  0.00  0.00     0.017 A 
ATOM      6  C5  UNL d   1       0.268  -0.152   2.379  0.00  0.00     0.034 A 
ATOM      7 Cl   UNL d   1       2.021   1.115   0.793  0.00  0.00    -0.070 Cl
ATOM      8 Cl1  UNL d   1      -0.200   0.663  -1.544  0.00  0.00    -0.070 Cl
ENDROOT
TORSDOF 0
ENDMDL
