MODEL 1
REMARK minimizedAffinity -1.95705569
REMARK minimizedRMSD -1
REMARK  0 active torsions:
REMARK  status: ('A' for Active; 'I' for Inactive)
ROOT
ATOM      1  C   UNL d   1      -2.301   0.167  -0.419  0.00  0.00     0.020 A 
ATOM      2  C1  UNL d   1      -1.895  -0.526   0.721  0.00  0.00     0.020 A 
ATOM      3  C2  UNL d   1      -0.567  -0.935   0.853  0.00  0.00     0.034 A 
ATOM      4  C3  UNL d   1       0.361  -0.651  -0.156  0.00  0.00     0.017 A 
ATOM      5  C4  UNL d   1      -0.048   0.044  -1.300  0.00  0.00     0.017 A 
ATOM      6  C5  UNL d   1      -1.379   0.451  -1.427  0.00  0.00     0.034 A 
ATOM      7 Cl   UNL d   1       1.039   0.431  -2.587  0.00  0.00    -0.070 Cl
ATOM      8 Cl1  UNL d   1       1.988  -1.186   0.074  0.00  0.00    -0.070 Cl
ENDROOT
TORSDOF 0
ENDMDL
