MODEL 1
REMARK minimizedAffinity 2.78818297
REMARK minimizedRMSD -1
REMARK  0 active torsions:
REMARK  status: ('A' for Active; 'I' for Inactive)
ROOT
ATOM      1  C   UNL d   1      -0.789  -1.993   0.290  0.00  0.00     0.020 A 
ATOM      2  C1  UNL d   1      -1.238  -0.782   0.814  0.00  0.00     0.020 A 
ATOM      3  C2  UNL d   1      -0.916   0.417   0.175  0.00  0.00     0.034 A 
ATOM      4  C3  UNL d   1      -0.141   0.408  -0.991  0.00  0.00     0.017 A 
ATOM      5  C4  UNL d   1       0.310  -0.809  -1.515  0.00  0.00     0.017 A 
ATOM      6  C5  UNL d   1      -0.016  -2.007  -0.872  0.00  0.00     0.034 A 
ATOM      7 Cl   UNL d   1       1.271  -0.901  -2.949  0.00  0.00    -0.070 Cl
ATOM      8 Cl1  UNL d   1       0.220   1.928  -1.728  0.00  0.00    -0.070 Cl
ENDROOT
TORSDOF 0
ENDMDL
