MODEL 1
REMARK minimizedAffinity -4.32869339
REMARK minimizedRMSD -1
REMARK  0 active torsions:
REMARK  status: ('A' for Active; 'I' for Inactive)
ROOT
ATOM      1  C   UNL d   1      -0.409  -0.479   3.136  0.00  0.00     0.020 A 
ATOM      2  C1  UNL d   1      -1.217  -1.210   2.266  0.00  0.00     0.020 A 
ATOM      3  C2  UNL d   1      -0.946  -1.212   0.897  0.00  0.00     0.034 A 
ATOM      4  C3  UNL d   1       0.136  -0.482   0.392  0.00  0.00     0.017 A 
ATOM      5  C4  UNL d   1       0.947   0.252   1.266  0.00  0.00     0.017 A 
ATOM      6  C5  UNL d   1       0.671   0.250   2.637  0.00  0.00     0.034 A 
ATOM      7 Cl   UNL d   1       2.300   1.177   0.718  0.00  0.00    -0.070 Cl
ATOM      8 Cl1  UNL d   1       0.413  -0.530  -1.313  0.00  0.00    -0.070 Cl
ENDROOT
TORSDOF 0
ENDMDL
