MODEL 1
REMARK minimizedAffinity -3.2720809
REMARK minimizedRMSD -1
REMARK  0 active torsions:
REMARK  status: ('A' for Active; 'I' for Inactive)
ROOT
ATOM      1  C   UNL d   1      -0.041   0.900  -0.845  0.00  0.00     0.020 A 
ATOM      2  C1  UNL d   1       0.878   0.893   0.204  0.00  0.00     0.020 A 
ATOM      3  C2  UNL d   1       0.527   0.338   1.436  0.00  0.00     0.034 A 
ATOM      4  C3  UNL d   1      -0.747  -0.211   1.624  0.00  0.00     0.017 A 
ATOM      5  C4  UNL d   1      -1.669  -0.203   0.571  0.00  0.00     0.017 A 
ATOM      6  C5  UNL d   1      -1.312   0.353  -0.661  0.00  0.00     0.034 A 
ATOM      7 Cl   UNL d   1      -3.259  -0.863   0.727  0.00  0.00    -0.070 Cl
ATOM      8 Cl1  UNL d   1      -1.113  -0.880   3.175  0.00  0.00    -0.070 Cl
ENDROOT
TORSDOF 0
ENDMDL
