MODEL 1
REMARK minimizedAffinity -4.0262804
REMARK minimizedRMSD -1
REMARK  0 active torsions:
REMARK  status: ('A' for Active; 'I' for Inactive)
ROOT
ATOM      1  C   UNL d   1       1.239   0.970  -0.059  0.00  0.00     0.020 A 
ATOM      2  C1  UNL d   1       0.279   1.054  -1.067  0.00  0.00     0.020 A 
ATOM      3  C2  UNL d   1      -0.966   0.444  -0.898  0.00  0.00     0.034 A 
ATOM      4  C3  UNL d   1      -1.254  -0.252   0.282  0.00  0.00     0.017 A 
ATOM      5  C4  UNL d   1      -0.290  -0.335   1.293  0.00  0.00     0.017 A 
ATOM      6  C5  UNL d   1       0.955   0.277   1.118  0.00  0.00     0.034 A 
ATOM      7 Cl   UNL d   1      -0.573  -1.177   2.776  0.00  0.00    -0.070 Cl
ATOM      8 Cl1  UNL d   1      -2.814  -0.980   0.424  0.00  0.00    -0.070 Cl
ENDROOT
TORSDOF 0
ENDMDL
