MODEL 1
REMARK minimizedAffinity -0.0157159362
REMARK minimizedRMSD -1
REMARK  0 active torsions:
REMARK  status: ('A' for Active; 'I' for Inactive)
ROOT
ATOM      1  C   UNL d   1       0.273   0.022  -1.551  0.00  0.00     0.020 A 
ATOM      2  C1  UNL d   1       1.297  -0.183  -0.627  0.00  0.00     0.020 A 
ATOM      3  C2  UNL d   1       0.989  -0.429   0.713  0.00  0.00     0.034 A 
ATOM      4  C3  UNL d   1      -0.345  -0.470   1.132  0.00  0.00     0.017 A 
ATOM      5  C4  UNL d   1      -1.372  -0.264   0.204  0.00  0.00     0.017 A 
ATOM      6  C5  UNL d   1      -1.059  -0.018  -1.136  0.00  0.00     0.034 A 
ATOM      7 Cl   UNL d   1      -3.043  -0.301   0.647  0.00  0.00    -0.070 Cl
ATOM      8 Cl1  UNL d   1      -0.652  -0.780   2.804  0.00  0.00    -0.070 Cl
ENDROOT
TORSDOF 0
ENDMDL
