MODEL 1
REMARK minimizedAffinity -5.06432581
REMARK minimizedRMSD -1
REMARK  0 active torsions:
REMARK  status: ('A' for Active; 'I' for Inactive)
ROOT
ATOM      1  C   UNL d   1      -1.847  -1.121   2.480  0.00  0.00     0.020 A 
ATOM      2  C1  UNL d   1      -1.123  -0.349   3.387  0.00  0.00     0.020 A 
ATOM      3  C2  UNL d   1      -0.040   0.415   2.945  0.00  0.00     0.034 A 
ATOM      4  C3  UNL d   1       0.322   0.407   1.593  0.00  0.00     0.017 A 
ATOM      5  C4  UNL d   1      -0.406  -0.368   0.683  0.00  0.00     0.017 A 
ATOM      6  C5  UNL d   1      -1.490  -1.131   1.131  0.00  0.00     0.034 A 
ATOM      7 Cl   UNL d   1      -0.020  -0.428  -1.000  0.00  0.00    -0.070 Cl
ATOM      8 Cl1  UNL d   1       1.671   1.376   1.117  0.00  0.00    -0.070 Cl
ENDROOT
TORSDOF 0
ENDMDL
