MODEL 1
REMARK minimizedAffinity -5.20787859
REMARK minimizedRMSD -1
REMARK  0 active torsions:
REMARK  status: ('A' for Active; 'I' for Inactive)
ROOT
ATOM      1  C   UNL d   1       1.265  -0.401   2.063  0.00  0.00     0.020 A 
ATOM      2  C1  UNL d   1       0.154  -0.796   2.806  0.00  0.00     0.020 A 
ATOM      3  C2  UNL d   1      -1.126  -0.697   2.256  0.00  0.00     0.034 A 
ATOM      4  C3  UNL d   1      -1.297  -0.201   0.959  0.00  0.00     0.017 A 
ATOM      5  C4  UNL d   1      -0.181   0.195   0.213  0.00  0.00     0.017 A 
ATOM      6  C5  UNL d   1       1.098   0.094   0.769  0.00  0.00     0.034 A 
ATOM      7 Cl   UNL d   1      -0.314   0.817  -1.395  0.00  0.00    -0.070 Cl
ATOM      8 Cl1  UNL d   1      -2.909  -0.106   0.341  0.00  0.00    -0.070 Cl
ENDROOT
TORSDOF 0
ENDMDL
