MODEL 1
REMARK minimizedAffinity -4.75488472
REMARK minimizedRMSD -1
REMARK  0 active torsions:
REMARK  status: ('A' for Active; 'I' for Inactive)
ROOT
ATOM      1  C   UNL d   1      -1.643  -0.753   2.174  0.00  0.00     0.020 A 
ATOM      2  C1  UNL d   1      -0.683  -0.501   3.153  0.00  0.00     0.020 A 
ATOM      3  C2  UNL d   1       0.559   0.027   2.793  0.00  0.00     0.034 A 
ATOM      4  C3  UNL d   1       0.844   0.305   1.452  0.00  0.00     0.017 A 
ATOM      5  C4  UNL d   1      -0.121   0.052   0.470  0.00  0.00     0.017 A 
ATOM      6  C5  UNL d   1      -1.363  -0.477   0.835  0.00  0.00     0.034 A 
ATOM      7 Cl   UNL d   1       0.158   0.369  -1.207  0.00  0.00    -0.070 Cl
ATOM      8 Cl1  UNL d   1       2.400   0.958   1.079  0.00  0.00    -0.070 Cl
ENDROOT
TORSDOF 0
ENDMDL
