MODEL 1
REMARK minimizedAffinity -4.1763854
REMARK minimizedRMSD -1
REMARK  0 active torsions:
REMARK  status: ('A' for Active; 'I' for Inactive)
ROOT
ATOM      1  C   UNL d   1       1.490  -0.313  -0.019  0.00  0.00     0.020 A 
ATOM      2  C1  UNL d   1       0.599  -0.008  -1.047  0.00  0.00     0.020 A 
ATOM      3  C2  UNL d   1      -0.768   0.096  -0.779  0.00  0.00     0.034 A 
ATOM      4  C3  UNL d   1      -1.247  -0.105   0.520  0.00  0.00     0.017 A 
ATOM      5  C4  UNL d   1      -0.352  -0.412   1.552  0.00  0.00     0.017 A 
ATOM      6  C5  UNL d   1       1.015  -0.514   1.277  0.00  0.00     0.034 A 
ATOM      7 Cl   UNL d   1      -0.869  -0.673   3.180  0.00  0.00    -0.070 Cl
ATOM      8 Cl1  UNL d   1      -2.950   0.039   0.780  0.00  0.00    -0.070 Cl
ENDROOT
TORSDOF 0
ENDMDL
