MODEL 1
REMARK minimizedAffinity -4.01408291
REMARK minimizedRMSD -1
REMARK  0 active torsions:
REMARK  status: ('A' for Active; 'I' for Inactive)
ROOT
ATOM      1  C   UNL d   1       0.721   0.506  -0.616  0.00  0.00     0.020 A 
ATOM      2  C1  UNL d   1       1.566   0.299   0.474  0.00  0.00     0.020 A 
ATOM      3  C2  UNL d   1       1.029  -0.027   1.721  0.00  0.00     0.034 A 
ATOM      4  C3  UNL d   1      -0.356  -0.148   1.882  0.00  0.00     0.017 A 
ATOM      5  C4  UNL d   1      -1.203   0.059   0.787  0.00  0.00     0.017 A 
ATOM      6  C5  UNL d   1      -0.661   0.386  -0.459  0.00  0.00     0.034 A 
ATOM      7 Cl   UNL d   1      -2.922  -0.072   0.908  0.00  0.00    -0.070 Cl
ATOM      8 Cl1  UNL d   1      -0.950  -0.555   3.453  0.00  0.00    -0.070 Cl
ENDROOT
TORSDOF 0
ENDMDL
