MODEL 1
REMARK minimizedAffinity -3.35709906
REMARK minimizedRMSD -1
REMARK  0 active torsions:
REMARK  status: ('A' for Active; 'I' for Inactive)
ROOT
ATOM      1  C   UNL d   1      -0.777   0.559  -1.169  0.00  0.00     0.020 A 
ATOM      2  C1  UNL d   1      -1.910   0.456  -0.362  0.00  0.00     0.020 A 
ATOM      3  C2  UNL d   1      -1.772   0.240   1.011  0.00  0.00     0.034 A 
ATOM      4  C3  UNL d   1      -0.498   0.128   1.581  0.00  0.00     0.017 A 
ATOM      5  C4  UNL d   1       0.638   0.231   0.770  0.00  0.00     0.017 A 
ATOM      6  C5  UNL d   1       0.494   0.447  -0.604  0.00  0.00     0.034 A 
ATOM      7 Cl   UNL d   1       2.242   0.103   1.401  0.00  0.00    -0.070 Cl
ATOM      8 Cl1  UNL d   1      -0.402  -0.138   3.286  0.00  0.00    -0.070 Cl
ENDROOT
TORSDOF 0
ENDMDL
