MODEL 1
REMARK minimizedAffinity -5.23250771
REMARK minimizedRMSD -1
REMARK  0 active torsions:
REMARK  status: ('A' for Active; 'I' for Inactive)
ROOT
ATOM      1  C2' OXE d   1       0.126  -1.881  -0.226  0.00  0.00     0.078 C 
ATOM      2  C1' OXE d   1      -0.662   0.805  -0.017  0.00  0.00     0.078 C 
ATOM      3  C1  OXE d   1       0.808   0.492   0.105  0.00  0.00    -0.078 A 
ATOM      4  C2  OXE d   1       1.179  -0.830   0.049  0.00  0.00    -0.078 A 
ATOM      5  C3  OXE d   1       2.528  -1.170   0.101  0.00  0.00     0.003 A 
ATOM      6  C4  OXE d   1       3.496  -0.192   0.365  0.00  0.00    -0.002 A 
ATOM      7  C5  OXE d   1       3.134   1.155   0.466  0.00  0.00    -0.002 A 
ATOM      8  C6  OXE d   1       1.803   1.518   0.297  0.00  0.00     0.003 A 
ENDROOT
TORSDOF 0
ENDMDL
