MODEL 1
REMARK minimizedAffinity -4.35336781
REMARK minimizedRMSD -1
REMARK  0 active torsions:
REMARK  status: ('A' for Active; 'I' for Inactive)
ROOT
ATOM      1  C2' OXE d   1      -1.495   0.666  -0.145  0.00  0.00     0.078 C 
ATOM      2  C1' OXE d   1      -0.905  -1.901  -1.115  0.00  0.00     0.078 C 
ATOM      3  C1  OXE d   1       0.173  -1.172  -0.352  0.00  0.00    -0.078 A 
ATOM      4  C2  OXE d   1      -0.109   0.102   0.078  0.00  0.00    -0.078 A 
ATOM      5  C3  OXE d   1       0.831   0.798   0.834  0.00  0.00     0.003 A 
ATOM      6  C4  OXE d   1       2.114   0.273   1.027  0.00  0.00    -0.002 A 
ATOM      7  C5  OXE d   1       2.436  -1.006   0.562  0.00  0.00    -0.002 A 
ATOM      8  C6  OXE d   1       1.465  -1.758  -0.091  0.00  0.00     0.003 A 
ENDROOT
TORSDOF 0
ENDMDL
