MODEL 1
REMARK minimizedAffinity -2.3259542
REMARK minimizedRMSD -1
REMARK  0 active torsions:
REMARK  status: ('A' for Active; 'I' for Inactive)
ROOT
ATOM      1  C2' OXE d   1       2.397  -0.977   0.958  0.00  0.00     0.078 C 
ATOM      2  C1' OXE d   1       1.968   1.797   0.963  0.00  0.00     0.078 C 
ATOM      3  C1  OXE d   1       0.846   0.912   0.479  0.00  0.00    -0.078 A 
ATOM      4  C2  OXE d   1       1.082  -0.441   0.436  0.00  0.00    -0.078 A 
ATOM      5  C3  OXE d   1       0.062  -1.306   0.050  0.00  0.00     0.003 A 
ATOM      6  C4  OXE d   1      -1.148  -0.801  -0.440  0.00  0.00    -0.002 A 
ATOM      7  C5  OXE d   1      -1.394   0.576  -0.442  0.00  0.00    -0.002 A 
ATOM      8  C6  OXE d   1      -0.425   1.442   0.053  0.00  0.00     0.003 A 
ENDROOT
TORSDOF 0
ENDMDL
