MODEL 1
REMARK minimizedAffinity -5.99693251
REMARK minimizedRMSD -1
REMARK  0 active torsions:
REMARK  status: ('A' for Active; 'I' for Inactive)
ROOT
ATOM      1  C2' OXE d   1      -0.007  -1.693  -0.699  0.00  0.00     0.078 C 
ATOM      2  C1' OXE d   1      -0.623   1.041  -0.547  0.00  0.00     0.078 C 
ATOM      3  C1  OXE d   1       0.747   0.603  -0.095  0.00  0.00    -0.078 A 
ATOM      4  C2  OXE d   1       1.024  -0.742  -0.129  0.00  0.00    -0.078 A 
ATOM      5  C3  OXE d   1       2.292  -1.195   0.225  0.00  0.00     0.003 A 
ATOM      6  C4  OXE d   1       3.236  -0.310   0.761  0.00  0.00    -0.002 A 
ATOM      7  C5  OXE d   1       2.960   1.059   0.841  0.00  0.00    -0.002 A 
ATOM      8  C6  OXE d   1       1.739   1.537   0.378  0.00  0.00     0.003 A 
ENDROOT
TORSDOF 0
ENDMDL
