MODEL 1
REMARK minimizedAffinity -5.57089996
REMARK minimizedRMSD -1
REMARK  0 active torsions:
REMARK  status: ('A' for Active; 'I' for Inactive)
ROOT
ATOM      1  C2' OXE d   1      -0.622   1.348  -0.645  0.00  0.00     0.078 C 
ATOM      2  C1' OXE d   1      -0.283  -1.435  -0.781  0.00  0.00     0.078 C 
ATOM      3  C1  OXE d   1       0.880  -0.608  -0.294  0.00  0.00    -0.078 A 
ATOM      4  C2  OXE d   1       0.721   0.757  -0.275  0.00  0.00    -0.078 A 
ATOM      5  C3  OXE d   1       1.744   1.563   0.217  0.00  0.00     0.003 A 
ATOM      6  C4  OXE d   1       2.987   1.009   0.547  0.00  0.00    -0.002 A 
ATOM      7  C5  OXE d   1       3.183  -0.375   0.497  0.00  0.00    -0.002 A 
ATOM      8  C6  OXE d   1       2.128  -1.199   0.120  0.00  0.00     0.003 A 
ENDROOT
TORSDOF 0
ENDMDL
