MODEL 1
REMARK minimizedAffinity -0.748678923
REMARK minimizedRMSD -1
REMARK  0 active torsions:
REMARK  status: ('A' for Active; 'I' for Inactive)
ROOT
ATOM      1  C2' OXE d   1       3.068   2.178   0.033  0.00  0.00     0.078 C 
ATOM      2  C1' OXE d   1       3.268  -0.622  -0.037  0.00  0.00     0.078 C 
ATOM      3  C1  OXE d   1       1.888  -0.013  -0.083  0.00  0.00    -0.078 A 
ATOM      4  C2  OXE d   1       1.798   1.355  -0.002  0.00  0.00    -0.078 A 
ATOM      5  C3  OXE d   1       0.552   1.970  -0.095  0.00  0.00     0.003 A 
ATOM      6  C4  OXE d   1      -0.618   1.202  -0.116  0.00  0.00    -0.002 A 
ATOM      7  C5  OXE d   1      -0.550  -0.194  -0.160  0.00  0.00    -0.002 A 
ATOM      8  C6  OXE d   1       0.694  -0.815  -0.187  0.00  0.00     0.003 A 
ENDROOT
TORSDOF 0
ENDMDL
