MODEL 1
REMARK minimizedAffinity -1.57496083
REMARK minimizedRMSD -1
REMARK  0 active torsions:
REMARK  status: ('A' for Active; 'I' for Inactive)
ROOT
ATOM      1  C2' OXE d   1       1.602  -2.577  -1.491  0.00  0.00     0.078 C 
ATOM      2  C1' OXE d   1      -0.782  -1.526  -0.447  0.00  0.00     0.078 C 
ATOM      3  C1  OXE d   1       0.518  -1.039   0.141  0.00  0.00    -0.078 A 
ATOM      4  C2  OXE d   1       1.679  -1.594  -0.344  0.00  0.00    -0.078 A 
ATOM      5  C3  OXE d   1       2.908  -1.140   0.126  0.00  0.00     0.003 A 
ATOM      6  C4  OXE d   1       2.970  -0.238   1.194  0.00  0.00    -0.002 A 
ATOM      7  C5  OXE d   1       1.799   0.310   1.730  0.00  0.00    -0.002 A 
ATOM      8  C6  OXE d   1       0.570  -0.048   1.187  0.00  0.00     0.003 A 
ENDROOT
TORSDOF 0
ENDMDL
