MODEL 1
REMARK minimizedAffinity -4.55553722
REMARK minimizedRMSD -1
REMARK  0 active torsions:
REMARK  status: ('A' for Active; 'I' for Inactive)
ROOT
ATOM      1  C2' OXE d   1       3.252  -1.339   0.825  0.00  0.00     0.078 C 
ATOM      2  C1' OXE d   1       2.835   1.433   0.690  0.00  0.00     0.078 C 
ATOM      3  C1  OXE d   1       1.681   0.530   0.333  0.00  0.00    -0.078 A 
ATOM      4  C2  OXE d   1       1.908  -0.825   0.357  0.00  0.00    -0.078 A 
ATOM      5  C3  OXE d   1       0.862  -1.703   0.089  0.00  0.00     0.003 A 
ATOM      6  C4  OXE d   1      -0.375  -1.219  -0.353  0.00  0.00    -0.002 A 
ATOM      7  C5  OXE d   1      -0.615   0.158  -0.423  0.00  0.00    -0.002 A 
ATOM      8  C6  OXE d   1       0.387   1.044  -0.043  0.00  0.00     0.003 A 
ENDROOT
TORSDOF 0
ENDMDL
