MODEL 1
REMARK minimizedAffinity -1.60771573
REMARK minimizedRMSD -1
REMARK  1 active torsions:
REMARK  status: ('A' for Active; 'I' for Inactive)
REMARK    1  A    between atoms: C1_2  and  C2_3 
ROOT
ATOM      1  C2  UNL d   1      -0.132   1.640   0.875  0.00  0.00    -0.081 A 
ATOM      2  C3  UNL d   1       1.056   0.911   0.738  0.00  0.00     0.006 A 
ATOM      3  C4  UNL d   1       2.234   1.357   1.341  0.00  0.00     0.002 A 
ATOM      4  C5  UNL d   1       2.243   2.535   2.096  0.00  0.00    -0.080 A 
ATOM      5  C6  UNL d   1       3.495   3.009   2.773  0.00  0.00     0.076 C 
ATOM      6  C7  UNL d   1       1.061   3.273   2.217  0.00  0.00     0.002 A 
ATOM      7  C8  UNL d   1      -0.117   2.828   1.614  0.00  0.00     0.006 A 
ENDROOT
BRANCH   1   8
ATOM      8  C1  UNL d   1      -1.419   1.128   0.280  0.00  0.00     0.054 C 
ATOM      9  C   UNL d   1      -1.882  -0.144   0.976  0.00  0.00     0.018 C 
ENDBRANCH   1   8
TORSDOF 1
ENDMDL
