MODEL 1
REMARK minimizedAffinity 0.422278732
REMARK minimizedRMSD -1
REMARK  1 active torsions:
REMARK  status: ('A' for Active; 'I' for Inactive)
REMARK    1  A    between atoms: C1_2  and  C2_3 
ROOT
ATOM      1  C2  UNL d   1       1.766   3.441   1.858  0.00  0.00    -0.081 A 
ATOM      2  C3  UNL d   1       2.271   2.173   1.544  0.00  0.00     0.006 A 
ATOM      3  C4  UNL d   1       1.419   1.163   1.091  0.00  0.00     0.002 A 
ATOM      4  C5  UNL d   1       0.050   1.406   0.938  0.00  0.00    -0.080 A 
ATOM      5  C6  UNL d   1      -0.871   0.340   0.424  0.00  0.00     0.076 C 
ATOM      6  C7  UNL d   1      -0.458   2.667   1.268  0.00  0.00     0.002 A 
ATOM      7  C8  UNL d   1       0.394   3.677   1.721  0.00  0.00     0.006 A 
ENDROOT
BRANCH   1   8
ATOM      8  C1  UNL d   1       2.693   4.551   2.284  0.00  0.00     0.054 C 
ATOM      9  C   UNL d   1       2.444   5.818   1.479  0.00  0.00     0.018 C 
ENDBRANCH   1   8
TORSDOF 1
ENDMDL
