MODEL 1
REMARK minimizedAffinity 1.82742763
REMARK minimizedRMSD -1
REMARK  1 active torsions:
REMARK  status: ('A' for Active; 'I' for Inactive)
REMARK    1  A    between atoms: C1_2  and  C2_3 
ROOT
ATOM      1  C2  UNL d   1       1.308   2.011   1.090  0.00  0.00    -0.081 A 
ATOM      2  C3  UNL d   1       0.264   2.915   1.322  0.00  0.00     0.006 A 
ATOM      3  C4  UNL d   1      -1.053   2.572   1.010  0.00  0.00     0.002 A 
ATOM      4  C5  UNL d   1      -1.350   1.317   0.467  0.00  0.00    -0.080 A 
ATOM      5  C6  UNL d   1      -2.763   0.924   0.155  0.00  0.00     0.076 C 
ATOM      6  C7  UNL d   1      -0.305   0.420   0.218  0.00  0.00     0.002 A 
ATOM      7  C8  UNL d   1       1.012   0.763   0.530  0.00  0.00     0.006 A 
ENDROOT
BRANCH   1   8
ATOM      8  C1  UNL d   1       2.721   2.354   1.486  0.00  0.00     0.054 C 
ATOM      9  C   UNL d   1       2.747   3.364   2.625  0.00  0.00     0.018 C 
ENDBRANCH   1   8
TORSDOF 1
ENDMDL
