MODEL 1
REMARK minimizedAffinity 3.09686589
REMARK minimizedRMSD -1
REMARK  1 active torsions:
REMARK  status: ('A' for Active; 'I' for Inactive)
REMARK    1  A    between atoms: C1_2  and  C2_3 
ROOT
ATOM      1  C2  UNL d   1       2.803   1.867   1.277  0.00  0.00    -0.081 A 
ATOM      2  C3  UNL d   1       4.073   1.880   0.687  0.00  0.00     0.006 A 
ATOM      3  C4  UNL d   1       5.106   2.634   1.248  0.00  0.00     0.002 A 
ATOM      4  C5  UNL d   1       4.891   3.380   2.412  0.00  0.00    -0.080 A 
ATOM      5  C6  UNL d   1       6.000   4.169   3.041  0.00  0.00     0.076 C 
ATOM      6  C7  UNL d   1       3.617   3.381   2.991  0.00  0.00     0.002 A 
ATOM      7  C8  UNL d   1       2.583   2.628   2.431  0.00  0.00     0.006 A 
ENDROOT
BRANCH   1   8
ATOM      8  C1  UNL d   1       1.704   1.005   0.712  0.00  0.00     0.054 C 
ATOM      9  C   UNL d   1       2.249   0.006  -0.299  0.00  0.00     0.018 C 
ENDBRANCH   1   8
TORSDOF 1
ENDMDL
