MODEL 1
REMARK minimizedAffinity -1.86601377
REMARK minimizedRMSD -1
REMARK  1 active torsions:
REMARK  status: ('A' for Active; 'I' for Inactive)
REMARK    1  A    between atoms: C1_2  and  C2_3 
ROOT
ATOM      1  C2  UNL d   1       1.114   2.179   1.767  0.00  0.00    -0.081 A 
ATOM      2  C3  UNL d   1       1.237   2.644   3.082  0.00  0.00     0.006 A 
ATOM      3  C4  UNL d   1       0.120   3.124   3.770  0.00  0.00     0.002 A 
ATOM      4  C5  UNL d   1      -1.138   3.141   3.158  0.00  0.00    -0.080 A 
ATOM      5  C6  UNL d   1      -2.350   3.626   3.896  0.00  0.00     0.076 C 
ATOM      6  C7  UNL d   1      -1.257   2.693   1.838  0.00  0.00     0.002 A 
ATOM      7  C8  UNL d   1      -0.141   2.213   1.149  0.00  0.00     0.006 A 
ENDROOT
BRANCH   1   8
ATOM      8  C1  UNL d   1       2.304   1.600   1.044  0.00  0.00     0.054 C 
ATOM      9  C   UNL d   1       1.898   0.433   0.156  0.00  0.00     0.018 C 
ENDBRANCH   1   8
TORSDOF 1
ENDMDL
