MODEL 1
REMARK minimizedAffinity 9.17169762
REMARK minimizedRMSD -1
REMARK  1 active torsions:
REMARK  status: ('A' for Active; 'I' for Inactive)
REMARK    1  A    between atoms: C1_2  and  C2_3 
ROOT
ATOM      1  C2  UNL d   1      -0.738   3.277   3.279  0.00  0.00    -0.081 A 
ATOM      2  C3  UNL d   1      -0.328   3.319   1.941  0.00  0.00     0.006 A 
ATOM      3  C4  UNL d   1       1.027   3.430   1.619  0.00  0.00     0.002 A 
ATOM      4  C5  UNL d   1       1.994   3.491   2.628  0.00  0.00    -0.080 A 
ATOM      5  C6  UNL d   1       3.453   3.580   2.295  0.00  0.00     0.076 C 
ATOM      6  C7  UNL d   1       1.583   3.466   3.965  0.00  0.00     0.002 A 
ATOM      7  C8  UNL d   1       0.228   3.357   4.288  0.00  0.00     0.006 A 
ENDROOT
BRANCH   1   8
ATOM      8  C1  UNL d   1      -2.193   3.092   3.629  0.00  0.00     0.054 C 
ATOM      9  C   UNL d   1      -2.783   4.362   4.226  0.00  0.00     0.018 C 
ENDBRANCH   1   8
TORSDOF 1
ENDMDL
