MODEL 1
REMARK minimizedAffinity 7.32529783
REMARK minimizedRMSD -1
REMARK  1 active torsions:
REMARK  status: ('A' for Active; 'I' for Inactive)
REMARK    1  A    between atoms: C1_2  and  C2_3 
ROOT
ATOM      1  C2  UNL d   1      -0.005   1.874   0.243  0.00  0.00    -0.081 A 
ATOM      2  C3  UNL d   1       0.772   2.631   1.129  0.00  0.00     0.006 A 
ATOM      3  C4  UNL d   1       0.175   3.301   2.199  0.00  0.00     0.002 A 
ATOM      4  C5  UNL d   1      -1.206   3.221   2.405  0.00  0.00    -0.080 A 
ATOM      5  C6  UNL d   1      -1.856   3.911   3.567  0.00  0.00     0.076 C 
ATOM      6  C7  UNL d   1      -1.985   2.479   1.510  0.00  0.00     0.002 A 
ATOM      7  C8  UNL d   1      -1.388   1.809   0.440  0.00  0.00     0.006 A 
ENDROOT
BRANCH   1   8
ATOM      8  C1  UNL d   1       0.644   1.097  -0.873  0.00  0.00     0.054 C 
ATOM      9  C   UNL d   1       1.883   0.358  -0.386  0.00  0.00     0.018 C 
ENDBRANCH   1   8
TORSDOF 1
ENDMDL
