MODEL 1
REMARK minimizedAffinity 5.09343576
REMARK minimizedRMSD -1
REMARK  1 active torsions:
REMARK  status: ('A' for Active; 'I' for Inactive)
REMARK    1  A    between atoms: C1_2  and  C2_3 
ROOT
ATOM      1  C2  UNL d   1      -3.980  -5.282   0.027  0.00  0.00    -0.081 A 
ATOM      2  C3  UNL d   1      -2.629  -5.242   0.392  0.00  0.00     0.006 A 
ATOM      3  C4  UNL d   1      -1.708  -4.528  -0.378  0.00  0.00     0.002 A 
ATOM      4  C5  UNL d   1      -2.123  -3.836  -1.521  0.00  0.00    -0.080 A 
ATOM      5  C6  UNL d   1      -1.150  -3.041  -2.339  0.00  0.00     0.076 C 
ATOM      6  C7  UNL d   1      -3.470  -3.890  -1.895  0.00  0.00     0.002 A 
ATOM      7  C8  UNL d   1      -4.391  -4.605  -1.126  0.00  0.00     0.006 A 
ENDROOT
BRANCH   1   8
ATOM      8  C1  UNL d   1      -4.987  -5.997   0.891  0.00  0.00     0.054 C 
ATOM      9  C   UNL d   1      -5.996  -5.025   1.486  0.00  0.00     0.018 C 
ENDBRANCH   1   8
TORSDOF 1
ENDMDL
