MODEL 1
REMARK minimizedAffinity 0.905182779
REMARK minimizedRMSD -1
REMARK  1 active torsions:
REMARK  status: ('A' for Active; 'I' for Inactive)
REMARK    1  A    between atoms: C1_2  and  C2_3 
ROOT
ATOM      1  C2  UNL d   1       0.048   1.052   0.871  0.00  0.00    -0.081 A 
ATOM      2  C3  UNL d   1      -0.616  -0.171   1.027  0.00  0.00     0.006 A 
ATOM      3  C4  UNL d   1      -2.008  -0.239   0.926  0.00  0.00     0.002 A 
ATOM      4  C5  UNL d   1      -2.757   0.912   0.659  0.00  0.00    -0.080 A 
ATOM      5  C6  UNL d   1      -4.249   0.847   0.517  0.00  0.00     0.076 C 
ATOM      6  C7  UNL d   1      -2.095   2.136   0.521  0.00  0.00     0.002 A 
ATOM      7  C8  UNL d   1      -0.704   2.205   0.623  0.00  0.00     0.006 A 
ENDROOT
BRANCH   1   8
ATOM      8  C1  UNL d   1       1.553   1.117   0.916  0.00  0.00     0.054 C 
ATOM      9  C   UNL d   1       2.031   2.292   1.757  0.00  0.00     0.018 C 
ENDBRANCH   1   8
TORSDOF 1
ENDMDL
