MODEL 1
REMARK minimizedAffinity 13.8151712
REMARK minimizedRMSD -1
REMARK  1 active torsions:
REMARK  status: ('A' for Active; 'I' for Inactive)
REMARK    1  A    between atoms: C1_2  and  C2_3 
ROOT
ATOM      1  C2  UNL d   1       2.242   0.044  -1.401  0.00  0.00    -0.081 A 
ATOM      2  C3  UNL d   1       1.765  -0.969  -0.561  0.00  0.00     0.006 A 
ATOM      3  C4  UNL d   1       1.262  -0.660   0.706  0.00  0.00     0.002 A 
ATOM      4  C5  UNL d   1       1.221   0.666   1.149  0.00  0.00    -0.080 A 
ATOM      5  C6  UNL d   1       0.657   1.014   2.494  0.00  0.00     0.076 C 
ATOM      6  C7  UNL d   1       1.715   1.676   0.317  0.00  0.00     0.002 A 
ATOM      7  C8  UNL d   1       2.218   1.368  -0.949  0.00  0.00     0.006 A 
ENDROOT
BRANCH   1   8
ATOM      8  C1  UNL d   1       2.725  -0.278  -2.792  0.00  0.00     0.054 C 
ATOM      9  C   UNL d   1       2.321   0.804  -3.783  0.00  0.00     0.018 C 
ENDBRANCH   1   8
TORSDOF 1
ENDMDL
