MODEL 1
REMARK minimizedAffinity 4.31606436
REMARK minimizedRMSD -1
REMARK  1 active torsions:
REMARK  status: ('A' for Active; 'I' for Inactive)
REMARK    1  A    between atoms: C1_2  and  C2_3 
ROOT
ATOM      1  C2  UNL d   1       0.617   0.476   0.736  0.00  0.00    -0.081 A 
ATOM      2  C3  UNL d   1      -0.153  -0.689   0.842  0.00  0.00     0.006 A 
ATOM      3  C4  UNL d   1      -1.520  -0.612   1.117  0.00  0.00     0.002 A 
ATOM      4  C5  UNL d   1      -2.142   0.630   1.283  0.00  0.00    -0.080 A 
ATOM      5  C6  UNL d   1      -3.615   0.728   1.548  0.00  0.00     0.076 C 
ATOM      6  C7  UNL d   1      -1.370   1.794   1.194  0.00  0.00     0.002 A 
ATOM      7  C8  UNL d   1      -0.002   1.717   0.920  0.00  0.00     0.006 A 
ENDROOT
BRANCH   1   8
ATOM      8  C1  UNL d   1       2.078   0.399   0.375  0.00  0.00     0.054 C 
ATOM      9  C   UNL d   1       2.268   0.080  -1.101  0.00  0.00     0.018 C 
ENDBRANCH   1   8
TORSDOF 1
ENDMDL
