MODEL 1
REMARK minimizedAffinity 9.57707119
REMARK minimizedRMSD -1
REMARK  0 active torsions:
REMARK  status: ('A' for Active; 'I' for Inactive)
ROOT
ATOM      1  C   UNL d   1      -4.818  -0.060   0.363  0.00  0.00     0.124 A 
ATOM      2  C1  UNL d   1      -3.997  -1.112  -0.017  0.00  0.00     0.062 A 
ATOM      3  C2  UNL d   1      -2.767  -1.302   0.607  0.00  0.00     0.162 A 
ATOM      4  C3  UNL d   1      -2.352  -0.438   1.620  0.00  0.00    -0.034 A 
ATOM      5  C4  UNL d   1      -3.182   0.619   1.997  0.00  0.00     0.162 A 
ATOM      6  C5  UNL d   1      -4.410   0.804   1.370  0.00  0.00     0.062 A 
ATOM      7  F   UNL d   1      -5.202   1.821   1.739  0.00  0.00    -0.097 F 
ATOM      8  F1  UNL d   1      -2.814   1.468   2.967  0.00  0.00    -0.096 F 
ATOM      9  I   UNL d   1      -0.514  -0.718   2.556  0.00  0.00    -0.060 I 
ATOM     10  F2  UNL d   1      -1.994  -2.327   0.219  0.00  0.00    -0.096 F 
ATOM     11  F3  UNL d   1      -4.388  -1.948  -0.990  0.00  0.00    -0.097 F 
ATOM     12  F4  UNL d   1      -6.000   0.121  -0.240  0.00  0.00    -0.092 F 
ENDROOT
TORSDOF 0
ENDMDL
