MODEL 1
REMARK minimizedAffinity 8.70475483
REMARK minimizedRMSD -1
REMARK  0 active torsions:
REMARK  status: ('A' for Active; 'I' for Inactive)
ROOT
ATOM      1  C   UNL d   1      -1.746  -0.931   1.604  0.00  0.00     0.124 A 
ATOM      2  C1  UNL d   1      -2.508  -1.489   0.587  0.00  0.00     0.062 A 
ATOM      3  C2  UNL d   1      -3.722  -0.914   0.226  0.00  0.00     0.162 A 
ATOM      4  C3  UNL d   1      -4.183   0.228   0.881  0.00  0.00    -0.034 A 
ATOM      5  C4  UNL d   1      -3.412   0.784   1.903  0.00  0.00     0.162 A 
ATOM      6  C5  UNL d   1      -2.198   0.205   2.261  0.00  0.00     0.062 A 
ATOM      7  F   UNL d   1      -1.464   0.746   3.244  0.00  0.00    -0.097 F 
ATOM      8  F1  UNL d   1      -3.825   1.881   2.554  0.00  0.00    -0.096 F 
ATOM      9  I   UNL d   1      -5.999   1.091   0.343  0.00  0.00    -0.060 I 
ATOM     10  F2  UNL d   1      -4.438  -1.475  -0.761  0.00  0.00    -0.096 F 
ATOM     11  F3  UNL d   1      -2.073  -2.587  -0.048  0.00  0.00    -0.097 F 
ATOM     12  F4  UNL d   1      -0.578  -1.487   1.951  0.00  0.00    -0.092 F 
ENDROOT
TORSDOF 0
ENDMDL
