MODEL 1
REMARK minimizedAffinity 5.25775051
REMARK minimizedRMSD -1
REMARK  0 active torsions:
REMARK  status: ('A' for Active; 'I' for Inactive)
ROOT
ATOM      1  C   UNL d   1      -1.332  -0.557   1.895  0.00  0.00     0.124 A 
ATOM      2  C1  UNL d   1      -1.801   0.562   2.569  0.00  0.00     0.062 A 
ATOM      3  C2  UNL d   1      -3.006   1.150   2.196  0.00  0.00     0.162 A 
ATOM      4  C3  UNL d   1      -3.752   0.619   1.144  0.00  0.00    -0.034 A 
ATOM      5  C4  UNL d   1      -3.273  -0.506   0.470  0.00  0.00     0.162 A 
ATOM      6  C5  UNL d   1      -2.068  -1.090   0.846  0.00  0.00     0.062 A 
ATOM      7  F   UNL d   1      -1.616  -2.170   0.194  0.00  0.00    -0.097 F 
ATOM      8  F1  UNL d   1      -3.965  -1.042  -0.547  0.00  0.00    -0.096 F 
ATOM      9  I   UNL d   1      -5.555   1.494   0.583  0.00  0.00    -0.060 I 
ATOM     10  F2  UNL d   1      -3.436   2.230   2.865  0.00  0.00    -0.096 F 
ATOM     11  F3  UNL d   1      -1.091   1.080   3.582  0.00  0.00    -0.097 F 
ATOM     12  F4  UNL d   1      -0.171  -1.119   2.255  0.00  0.00    -0.092 F 
ENDROOT
TORSDOF 0
ENDMDL
