MODEL 1
REMARK minimizedAffinity 2.45046711
REMARK minimizedRMSD -1
REMARK  0 active torsions:
REMARK  status: ('A' for Active; 'I' for Inactive)
ROOT
ATOM      1  C   UNL d   1      -1.259  -0.389   1.495  0.00  0.00     0.124 A 
ATOM      2  C1  UNL d   1      -2.008   0.378   2.377  0.00  0.00     0.062 A 
ATOM      3  C2  UNL d   1      -3.302   0.766   2.042  0.00  0.00     0.162 A 
ATOM      4  C3  UNL d   1      -3.856   0.387   0.820  0.00  0.00    -0.034 A 
ATOM      5  C4  UNL d   1      -3.097  -0.384  -0.062  0.00  0.00     0.162 A 
ATOM      6  C5  UNL d   1      -1.804  -0.769   0.277  0.00  0.00     0.062 A 
ATOM      7  F   UNL d   1      -1.082  -1.510  -0.577  0.00  0.00    -0.097 F 
ATOM      8  F1  UNL d   1      -3.599  -0.766  -1.246  0.00  0.00    -0.096 F 
ATOM      9  I   UNL d   1      -5.791   0.965   0.316  0.00  0.00    -0.060 I 
ATOM     10  F2  UNL d   1      -4.002   1.507   2.914  0.00  0.00    -0.096 F 
ATOM     11  F3  UNL d   1      -1.483   0.747   3.554  0.00  0.00    -0.097 F 
ATOM     12  F4  UNL d   1      -0.014  -0.760   1.819  0.00  0.00    -0.092 F 
ENDROOT
TORSDOF 0
ENDMDL
