MODEL 1
REMARK minimizedAffinity 7.23604345
REMARK minimizedRMSD -1
REMARK  0 active torsions:
REMARK  status: ('A' for Active; 'I' for Inactive)
ROOT
ATOM      1  C   UNL d   1      -1.370  -0.577   1.673  0.00  0.00     0.124 A 
ATOM      2  C1  UNL d   1      -1.984  -0.973   0.493  0.00  0.00     0.062 A 
ATOM      3  C2  UNL d   1      -3.216  -0.436   0.131  0.00  0.00     0.162 A 
ATOM      4  C3  UNL d   1      -3.842   0.505   0.949  0.00  0.00    -0.034 A 
ATOM      5  C4  UNL d   1      -3.219   0.897   2.135  0.00  0.00     0.162 A 
ATOM      6  C5  UNL d   1      -1.987   0.357   2.493  0.00  0.00     0.062 A 
ATOM      7  F   UNL d   1      -1.395   0.741   3.633  0.00  0.00    -0.097 F 
ATOM      8  F1  UNL d   1      -3.792   1.799   2.945  0.00  0.00    -0.096 F 
ATOM      9  I   UNL d   1      -5.684   1.310   0.411  0.00  0.00    -0.060 I 
ATOM     10  F2  UNL d   1      -3.787  -0.836  -1.015  0.00  0.00    -0.096 F 
ATOM     11  F3  UNL d   1      -1.390  -1.876  -0.301  0.00  0.00    -0.097 F 
ATOM     12  F4  UNL d   1      -0.185  -1.096   2.019  0.00  0.00    -0.092 F 
ENDROOT
TORSDOF 0
ENDMDL
