MODEL 1
REMARK minimizedAffinity 6.63945723
REMARK minimizedRMSD -1
REMARK  0 active torsions:
REMARK  status: ('A' for Active; 'I' for Inactive)
ROOT
ATOM      1  C   UNL d   1       1.359   0.503  -4.879  0.00  0.00     0.124 A 
ATOM      2  C1  UNL d   1       1.007  -0.714  -5.447  0.00  0.00     0.062 A 
ATOM      3  C2  UNL d   1      -0.321  -1.130  -5.444  0.00  0.00     0.162 A 
ATOM      4  C3  UNL d   1      -1.309  -0.328  -4.871  0.00  0.00    -0.034 A 
ATOM      5  C4  UNL d   1      -0.947   0.894  -4.301  0.00  0.00     0.162 A 
ATOM      6  C5  UNL d   1       0.382   1.305  -4.307  0.00  0.00     0.062 A 
ATOM      7  F   UNL d   1       0.721   2.481  -3.758  0.00  0.00    -0.097 F 
ATOM      8  F1  UNL d   1      -1.870   1.690  -3.742  0.00  0.00    -0.096 F 
ATOM      9  I   UNL d   1      -3.296  -0.946  -4.864  0.00  0.00    -0.060 I 
ATOM     10  F2  UNL d   1      -0.633  -2.310  -6.000  0.00  0.00    -0.096 F 
ATOM     11  F3  UNL d   1       1.949  -1.492  -6.000  0.00  0.00    -0.097 F 
ATOM     12  F4  UNL d   1       2.638   0.900  -4.883  0.00  0.00    -0.092 F 
ENDROOT
TORSDOF 0
ENDMDL
