MODEL 1
REMARK minimizedAffinity 3.66477919
REMARK minimizedRMSD -1
REMARK  0 active torsions:
REMARK  status: ('A' for Active; 'I' for Inactive)
ROOT
ATOM      1  C   UNL d   1      -0.264  -2.169  -2.404  0.00  0.00     0.124 A 
ATOM      2  C1  UNL d   1      -0.545  -0.839  -2.123  0.00  0.00     0.062 A 
ATOM      3  C2  UNL d   1      -0.574   0.102  -3.148  0.00  0.00     0.162 A 
ATOM      4  C3  UNL d   1      -0.323  -0.284  -4.465  0.00  0.00    -0.034 A 
ATOM      5  C4  UNL d   1      -0.040  -1.623  -4.740  0.00  0.00     0.162 A 
ATOM      6  C5  UNL d   1      -0.012  -2.560  -3.712  0.00  0.00     0.062 A 
ATOM      7  F   UNL d   1       0.259  -3.844  -3.985  0.00  0.00    -0.097 F 
ATOM      8  F1  UNL d   1       0.206  -2.028  -5.994  0.00  0.00    -0.096 F 
ATOM      9  I   UNL d   1      -0.365   1.121  -6.000  0.00  0.00    -0.060 I 
ATOM     10  F2  UNL d   1      -0.848   1.380  -2.847  0.00  0.00    -0.096 F 
ATOM     11  F3  UNL d   1      -0.787  -0.459  -0.860  0.00  0.00    -0.097 F 
ATOM     12  F4  UNL d   1      -0.236  -3.073  -1.416  0.00  0.00    -0.092 F 
ENDROOT
TORSDOF 0
ENDMDL
