MODEL 1
REMARK minimizedAffinity 6.78653717
REMARK minimizedRMSD -1
REMARK  0 active torsions:
REMARK  status: ('A' for Active; 'I' for Inactive)
ROOT
ATOM      1  C   UNL d   1       0.195  -2.446  -2.372  0.00  0.00     0.124 A 
ATOM      2  C1  UNL d   1       0.123  -2.900  -3.681  0.00  0.00     0.062 A 
ATOM      3  C2  UNL d   1      -0.132  -2.008  -4.719  0.00  0.00     0.162 A 
ATOM      4  C3  UNL d   1      -0.315  -0.652  -4.451  0.00  0.00    -0.034 A 
ATOM      5  C4  UNL d   1      -0.242  -0.202  -3.132  0.00  0.00     0.162 A 
ATOM      6  C5  UNL d   1       0.013  -1.098  -2.098  0.00  0.00     0.062 A 
ATOM      7  F   UNL d   1       0.082  -0.657  -0.834  0.00  0.00    -0.097 F 
ATOM      8  F1  UNL d   1      -0.414   1.096  -2.839  0.00  0.00    -0.096 F 
ATOM      9  I   UNL d   1      -0.696   0.686  -6.000  0.00  0.00    -0.060 I 
ATOM     10  F2  UNL d   1      -0.196  -2.475  -5.974  0.00  0.00    -0.096 F 
ATOM     11  F3  UNL d   1       0.298  -4.203  -3.948  0.00  0.00    -0.097 F 
ATOM     12  F4  UNL d   1       0.439  -3.307  -1.375  0.00  0.00    -0.092 F 
ENDROOT
TORSDOF 0
ENDMDL
