MODEL 1
REMARK minimizedAffinity 12.2230997
REMARK minimizedRMSD -1
REMARK  1 active torsions:
REMARK  status: ('A' for Active; 'I' for Inactive)
REMARK    1  A    between atoms: N_2  and  C1_3 
ROOT
ATOM      1  C1  UNL d   1       2.232  -0.884   2.541  0.00  0.00     0.143 A 
ATOM      2  C2  UNL d   1       2.115  -0.285   3.800  0.00  0.00    -0.057 A 
ATOM      3  C3  UNL d   1       0.899  -0.286   4.495  0.00  0.00     0.033 A 
ATOM      4  C4  UNL d   1      -0.233  -0.862   3.927  0.00  0.00    -0.042 A 
ATOM      5  C5  UNL d   1      -0.146  -1.441   2.666  0.00  0.00     0.033 A 
ATOM      6  C6  UNL d   1       1.073  -1.443   1.981  0.00  0.00    -0.057 A 
ENDROOT
BRANCH   1   7
ATOM      7  N   UNL d   1       3.387  -0.830   1.758  0.00  0.00    -0.732 N 
ATOM      8  C   UNL d   1       4.201   0.367   1.728  0.00  0.00     0.284 C 
ATOM      9  H3  UNL d   1       3.921  -1.695   1.794  0.00  0.00     0.395 HD
ENDBRANCH   1   7
TORSDOF 1
ENDMDL
