MODEL 1
REMARK minimizedAffinity 2.21553898
REMARK minimizedRMSD -1
REMARK  1 active torsions:
REMARK  status: ('A' for Active; 'I' for Inactive)
REMARK    1  A    between atoms: N_2  and  C1_3 
ROOT
ATOM      1  C1  UNL d   1       1.833  -3.845  -5.136  0.00  0.00     0.143 A 
ATOM      2  C2  UNL d   1       1.460  -4.883  -5.996  0.00  0.00    -0.057 A 
ATOM      3  C3  UNL d   1       0.662  -5.944  -5.550  0.00  0.00     0.033 A 
ATOM      4  C4  UNL d   1       0.246  -6.000  -4.224  0.00  0.00    -0.042 A 
ATOM      5  C5  UNL d   1       0.626  -4.991  -3.345  0.00  0.00     0.033 A 
ATOM      6  C6  UNL d   1       1.417  -3.931  -3.798  0.00  0.00    -0.057 A 
ENDROOT
BRANCH   1   7
ATOM      7  N   UNL d   1       2.705  -2.814  -5.494  0.00  0.00    -0.732 N 
ATOM      8  C   UNL d   1       3.421  -2.069  -4.481  0.00  0.00     0.284 C 
ATOM      9  H3  UNL d   1       3.264  -3.045  -6.313  0.00  0.00     0.395 HD
ENDBRANCH   1   7
TORSDOF 1
ENDMDL
