MODEL 1
REMARK minimizedAffinity 6.27861595
REMARK minimizedRMSD -1
REMARK  1 active torsions:
REMARK  status: ('A' for Active; 'I' for Inactive)
REMARK    1  A    between atoms: N_2  and  C1_3 
ROOT
ATOM      1  C1  UNL d   1      -0.267  -1.635   2.048  0.00  0.00     0.143 A 
ATOM      2  C2  UNL d   1      -1.520  -2.235   2.211  0.00  0.00    -0.057 A 
ATOM      3  C3  UNL d   1      -2.240  -2.101   3.404  0.00  0.00     0.033 A 
ATOM      4  C4  UNL d   1      -1.705  -1.384   4.469  0.00  0.00    -0.042 A 
ATOM      5  C5  UNL d   1      -0.450  -0.800   4.339  0.00  0.00     0.033 A 
ATOM      6  C6  UNL d   1       0.261  -0.932   3.142  0.00  0.00    -0.057 A 
ENDROOT
BRANCH   1   7
ATOM      7  N   UNL d   1       0.541  -1.814   0.922  0.00  0.00    -0.732 N 
ATOM      8  C   UNL d   1       1.942  -1.454   0.956  0.00  0.00     0.284 C 
ATOM      9  H3  UNL d   1       0.348  -2.689   0.441  0.00  0.00     0.395 HD
ENDBRANCH   1   7
TORSDOF 1
ENDMDL
