MODEL 1
REMARK minimizedAffinity 16.3441544
REMARK minimizedRMSD -1
REMARK  1 active torsions:
REMARK  status: ('A' for Active; 'I' for Inactive)
REMARK    1  A    between atoms: N_2  and  C1_3 
ROOT
ATOM      1  C1  UNL d   1      -1.432  -2.294   2.213  0.00  0.00     0.143 A 
ATOM      2  C2  UNL d   1      -1.124  -1.065   2.806  0.00  0.00    -0.057 A 
ATOM      3  C3  UNL d   1       0.149  -0.495   2.677  0.00  0.00     0.033 A 
ATOM      4  C4  UNL d   1       1.148  -1.161   1.975  0.00  0.00    -0.042 A 
ATOM      5  C5  UNL d   1       0.871  -2.395   1.398  0.00  0.00     0.033 A 
ATOM      6  C6  UNL d   1      -0.404  -2.956   1.525  0.00  0.00    -0.057 A 
ENDROOT
BRANCH   1   7
ATOM      7  N   UNL d   1      -2.648  -2.958   2.388  0.00  0.00    -0.732 N 
ATOM      8  C   UNL d   1      -3.473  -3.297   1.248  0.00  0.00     0.284 C 
ATOM      9  H3  UNL d   1      -2.594  -3.689   3.094  0.00  0.00     0.395 HD
ENDBRANCH   1   7
TORSDOF 1
ENDMDL
