MODEL 1
REMARK minimizedAffinity 13.4078922
REMARK minimizedRMSD -1
REMARK  1 active torsions:
REMARK  status: ('A' for Active; 'I' for Inactive)
REMARK    1  A    between atoms: N_2  and  C1_3 
ROOT
ATOM      1  C1  UNL d   1      -0.346  -0.651   3.344  0.00  0.00     0.143 A 
ATOM      2  C2  UNL d   1      -1.715  -0.732   3.617  0.00  0.00    -0.057 A 
ATOM      3  C3  UNL d   1      -2.198  -0.682   4.930  0.00  0.00     0.033 A 
ATOM      4  C4  UNL d   1      -1.314  -0.577   5.999  0.00  0.00    -0.042 A 
ATOM      5  C5  UNL d   1       0.053  -0.520   5.753  0.00  0.00     0.033 A 
ATOM      6  C6  UNL d   1       0.529  -0.564   4.439  0.00  0.00    -0.057 A 
ENDROOT
BRANCH   1   7
ATOM      7  N   UNL d   1       0.203  -0.794   2.067  0.00  0.00    -0.732 N 
ATOM      8  C   UNL d   1       0.081  -2.045   1.349  0.00  0.00     0.284 C 
ATOM      9  H3  UNL d   1       0.064   0.032   1.490  0.00  0.00     0.395 HD
ENDBRANCH   1   7
TORSDOF 1
ENDMDL
