MODEL 1
REMARK minimizedAffinity 15.1629944
REMARK minimizedRMSD -1
REMARK  1 active torsions:
REMARK  status: ('A' for Active; 'I' for Inactive)
REMARK    1  A    between atoms: N_2  and  C1_3 
ROOT
ATOM      1  C1  UNL d   1       2.038  -0.506   1.884  0.00  0.00     0.143 A 
ATOM      2  C2  UNL d   1       2.376  -1.724   1.287  0.00  0.00    -0.057 A 
ATOM      3  C3  UNL d   1       1.396  -2.664   0.947  0.00  0.00     0.033 A 
ATOM      4  C4  UNL d   1       0.056  -2.413   1.227  0.00  0.00    -0.042 A 
ATOM      5  C5  UNL d   1      -0.301  -1.219   1.843  0.00  0.00     0.033 A 
ATOM      6  C6  UNL d   1       0.682  -0.281   2.173  0.00  0.00    -0.057 A 
ENDROOT
BRANCH   1   7
ATOM      7  N   UNL d   1       2.975   0.427   2.335  0.00  0.00    -0.732 N 
ATOM      8  C   UNL d   1       3.774   1.183   1.394  0.00  0.00     0.284 C 
ATOM      9  H3  UNL d   1       2.632   0.973   3.122  0.00  0.00     0.395 HD
ENDBRANCH   1   7
TORSDOF 1
ENDMDL
