MODEL 1
REMARK minimizedAffinity 4.25057507
REMARK minimizedRMSD -1
REMARK  1 active torsions:
REMARK  status: ('A' for Active; 'I' for Inactive)
REMARK    1  A    between atoms: N_2  and  C1_3 
ROOT
ATOM      1  C1  UNL d   1      -4.649  -4.476   3.329  0.00  0.00     0.143 A 
ATOM      2  C2  UNL d   1      -5.309  -4.083   2.160  0.00  0.00    -0.057 A 
ATOM      3  C3  UNL d   1      -4.597  -3.726   1.009  0.00  0.00     0.033 A 
ATOM      4  C4  UNL d   1      -3.206  -3.729   1.016  0.00  0.00    -0.042 A 
ATOM      5  C5  UNL d   1      -2.529  -4.092   2.174  0.00  0.00     0.033 A 
ATOM      6  C6  UNL d   1      -3.246  -4.454   3.319  0.00  0.00    -0.057 A 
ENDROOT
BRANCH   1   7
ATOM      7  N   UNL d   1      -5.299  -4.747   4.536  0.00  0.00    -0.732 N 
ATOM      8  C   UNL d   1      -5.999  -5.999   4.731  0.00  0.00     0.284 C 
ATOM      9  H3  UNL d   1      -4.762  -4.441   5.344  0.00  0.00     0.395 HD
ENDBRANCH   1   7
TORSDOF 1
ENDMDL
