MODEL 1
REMARK minimizedAffinity -0.694999456
REMARK minimizedRMSD -1
REMARK  1 active torsions:
REMARK  status: ('A' for Active; 'I' for Inactive)
REMARK    1  A    between atoms: N_2  and  C1_3 
ROOT
ATOM      1  C1  UNL d   1      -4.572  -5.067   2.843  0.00  0.00     0.143 A 
ATOM      2  C2  UNL d   1      -4.229  -3.741   2.554  0.00  0.00    -0.057 A 
ATOM      3  C3  UNL d   1      -3.867  -3.351   1.260  0.00  0.00     0.033 A 
ATOM      4  C4  UNL d   1      -3.813  -4.288   0.233  0.00  0.00    -0.042 A 
ATOM      5  C5  UNL d   1      -4.125  -5.616   0.503  0.00  0.00     0.033 A 
ATOM      6  C6  UNL d   1      -4.493  -5.998   1.797  0.00  0.00    -0.057 A 
ENDROOT
BRANCH   1   7
ATOM      7  N   UNL d   1      -4.845  -5.537   4.130  0.00  0.00    -0.732 N 
ATOM      8  C   UNL d   1      -5.985  -5.040   4.870  0.00  0.00     0.284 C 
ATOM      9  H3  UNL d   1      -4.698  -6.540   4.217  0.00  0.00     0.395 HD
ENDBRANCH   1   7
TORSDOF 1
ENDMDL
