MODEL 1
REMARK minimizedAffinity -1.86636829
REMARK minimizedRMSD -1
REMARK  1 active torsions:
REMARK  status: ('A' for Active; 'I' for Inactive)
REMARK    1  A    between atoms: N_2  and  C1_3 
ROOT
ATOM      1  C1  UNL d   1      -5.462  -5.092   3.236  0.00  0.00     0.143 A 
ATOM      2  C2  UNL d   1      -5.997  -5.994   4.163  0.00  0.00    -0.057 A 
ATOM      3  C3  UNL d   1      -5.741  -5.864   5.533  0.00  0.00     0.033 A 
ATOM      4  C4  UNL d   1      -4.918  -4.843   5.999  0.00  0.00    -0.042 A 
ATOM      5  C5  UNL d   1      -4.355  -3.951   5.093  0.00  0.00     0.033 A 
ATOM      6  C6  UNL d   1      -4.620  -4.082   3.727  0.00  0.00    -0.057 A 
ENDROOT
BRANCH   1   7
ATOM      7  N   UNL d   1      -5.599  -5.226   1.852  0.00  0.00    -0.732 N 
ATOM      8  C   UNL d   1      -4.874  -4.357   0.951  0.00  0.00     0.284 C 
ATOM      9  H3  UNL d   1      -5.628  -6.200   1.557  0.00  0.00     0.395 HD
ENDBRANCH   1   7
TORSDOF 1
ENDMDL
