MODEL 1
REMARK minimizedAffinity 13.9236517
REMARK minimizedRMSD -1
REMARK  1 active torsions:
REMARK  status: ('A' for Active; 'I' for Inactive)
REMARK    1  A    between atoms: N_2  and  C1_3 
ROOT
ATOM      1  C1  UNL d   1      -0.105   2.855  -1.671  0.00  0.00     0.143 A 
ATOM      2  C2  UNL d   1       0.361   4.171  -1.765  0.00  0.00    -0.057 A 
ATOM      3  C3  UNL d   1       1.301   4.675  -0.858  0.00  0.00     0.033 A 
ATOM      4  C4  UNL d   1       1.771   3.878   0.181  0.00  0.00    -0.042 A 
ATOM      5  C5  UNL d   1       1.302   2.576   0.309  0.00  0.00     0.033 A 
ATOM      6  C6  UNL d   1       0.369   2.076  -0.604  0.00  0.00    -0.057 A 
ENDROOT
BRANCH   1   7
ATOM      7  N   UNL d   1      -1.113   2.327  -2.482  0.00  0.00    -0.732 N 
ATOM      8  C   UNL d   1      -2.055   3.199  -3.150  0.00  0.00     0.284 C 
ATOM      9  H3  UNL d   1      -0.784   1.553  -3.055  0.00  0.00     0.395 HD
ENDBRANCH   1   7
TORSDOF 1
ENDMDL
