MODEL 1
REMARK minimizedAffinity 16.0156021
REMARK minimizedRMSD -1
REMARK  0 active torsions:
REMARK  status: ('A' for Active; 'I' for Inactive)
ROOT
ATOM      1  C   UNL d   1       1.820   4.075   5.174  0.00  0.00    -0.002 A 
ATOM      2  C1  UNL d   1       2.054   5.440   5.266  0.00  0.00     0.010 A 
ATOM      3  C2  UNL d   1       3.216   5.999   4.730  0.00  0.00     0.041 A 
ATOM      4  C3  UNL d   1       4.146   5.155   4.092  0.00  0.00    -0.075 A 
ATOM      5  S   UNL d   1       5.638   5.618   3.362  0.00  0.00     0.015 SA
ATOM      6  C4  UNL d   1       6.000   4.015   2.910  0.00  0.00     0.022 A 
ATOM      7  C5  UNL d   1       5.017   3.135   3.299  0.00  0.00     0.026 A 
ATOM      8  C6  UNL d   1       3.933   3.778   3.986  0.00  0.00    -0.082 A 
ATOM      9  C7  UNL d   1       2.746   3.242   4.540  0.00  0.00     0.045 A 
ENDROOT
TORSDOF 0
ENDMDL
