MODEL 1
REMARK minimizedAffinity 3.98440123
REMARK minimizedRMSD -1
REMARK  0 active torsions:
REMARK  status: ('A' for Active; 'I' for Inactive)
ROOT
ATOM      1  C   UNL d   1       1.673   5.995   5.767  0.00  0.00    -0.002 A 
ATOM      2  C1  UNL d   1       0.772   5.992   4.712  0.00  0.00     0.010 A 
ATOM      3  C2  UNL d   1       1.225   5.993   3.391  0.00  0.00     0.041 A 
ATOM      4  C3  UNL d   1       2.613   5.995   3.147  0.00  0.00    -0.075 A 
ATOM      5  S   UNL d   1       3.398   5.996   1.612  0.00  0.00     0.015 SA
ATOM      6  C4  UNL d   1       4.948   5.999   2.321  0.00  0.00     0.022 A 
ATOM      7  C5  UNL d   1       4.886   6.000   3.694  0.00  0.00     0.026 A 
ATOM      8  C6  UNL d   1       3.540   5.997   4.193  0.00  0.00    -0.082 A 
ATOM      9  C7  UNL d   1       3.049   5.997   5.521  0.00  0.00     0.045 A 
ENDROOT
TORSDOF 0
ENDMDL
