MODEL 1
REMARK minimizedAffinity 9.46664906
REMARK minimizedRMSD -1
REMARK  0 active torsions:
REMARK  status: ('A' for Active; 'I' for Inactive)
ROOT
ATOM      1  C   UNL d   1       3.359   5.978   1.440  0.00  0.00    -0.002 A 
ATOM      2  C1  UNL d   1       4.568   5.985   2.121  0.00  0.00     0.010 A 
ATOM      3  C2  UNL d   1       4.596   5.993   3.517  0.00  0.00     0.041 A 
ATOM      4  C3  UNL d   1       3.377   5.991   4.224  0.00  0.00    -0.075 A 
ATOM      5  S   UNL d   1       3.168   5.997   5.935  0.00  0.00     0.015 SA
ATOM      6  C4  UNL d   1       1.469   5.990   5.802  0.00  0.00     0.022 A 
ATOM      7  C5  UNL d   1       1.054   5.983   4.491  0.00  0.00     0.026 A 
ATOM      8  C6  UNL d   1       2.147   5.983   3.560  0.00  0.00    -0.082 A 
ATOM      9  C7  UNL d   1       2.152   5.976   2.144  0.00  0.00     0.045 A 
ENDROOT
TORSDOF 0
ENDMDL
