MODEL 1
REMARK minimizedAffinity 15.3898687
REMARK minimizedRMSD -1
REMARK  0 active torsions:
REMARK  status: ('A' for Active; 'I' for Inactive)
ROOT
ATOM      1  C   UNL d   1       1.943  -0.770  -0.365  0.00  0.00    -0.002 A 
ATOM      2  C1  UNL d   1       0.843  -0.388  -1.118  0.00  0.00     0.010 A 
ATOM      3  C2  UNL d   1      -0.442  -0.438  -0.575  0.00  0.00     0.041 A 
ATOM      4  C3  UNL d   1      -0.604  -0.882   0.752  0.00  0.00    -0.075 A 
ATOM      5  S   UNL d   1      -2.082  -1.026   1.628  0.00  0.00     0.015 SA
ATOM      6  C4  UNL d   1      -1.288  -1.598   3.023  0.00  0.00     0.022 A 
ATOM      7  C5  UNL d   1       0.073  -1.683   2.843  0.00  0.00     0.026 A 
ATOM      8  C6  UNL d   1       0.489  -1.272   1.532  0.00  0.00    -0.082 A 
ATOM      9  C7  UNL d   1       1.779  -1.210   0.951  0.00  0.00     0.045 A 
ENDROOT
TORSDOF 0
ENDMDL
