MODEL 1
REMARK minimizedAffinity -0.736911237
REMARK minimizedRMSD -1
REMARK  0 active torsions:
REMARK  status: ('A' for Active; 'I' for Inactive)
ROOT
ATOM      1  C   UNL d   1      -3.094   2.764  -3.346  0.00  0.00    -0.002 A 
ATOM      2  C1  UNL d   1      -1.931   3.474  -3.607  0.00  0.00     0.010 A 
ATOM      3  C2  UNL d   1      -0.680   2.905  -3.359  0.00  0.00     0.041 A 
ATOM      4  C3  UNL d   1      -0.618   1.596  -2.840  0.00  0.00    -0.075 A 
ATOM      5  S   UNL d   1       0.802   0.696  -2.459  0.00  0.00     0.015 SA
ATOM      6  C4  UNL d   1      -0.102  -0.653  -1.941  0.00  0.00     0.022 A 
ATOM      7  C5  UNL d   1      -1.455  -0.439  -2.050  0.00  0.00     0.026 A 
ATOM      8  C6  UNL d   1      -1.775   0.861  -2.570  0.00  0.00    -0.082 A 
ATOM      9  C7  UNL d   1      -3.028   1.466  -2.832  0.00  0.00     0.045 A 
ENDROOT
TORSDOF 0
ENDMDL
