MODEL 1
REMARK minimizedAffinity 6.88465166
REMARK minimizedRMSD -1
REMARK  0 active torsions:
REMARK  status: ('A' for Active; 'I' for Inactive)
ROOT
ATOM      1  C   UNL d   1       0.714   5.968   5.087  0.00  0.00    -0.002 A 
ATOM      2  C1  UNL d   1       1.771   5.968   5.987  0.00  0.00     0.010 A 
ATOM      3  C2  UNL d   1       3.091   5.974   5.531  0.00  0.00     0.041 A 
ATOM      4  C3  UNL d   1       3.333   5.983   4.144  0.00  0.00    -0.075 A 
ATOM      5  S   UNL d   1       4.867   5.993   3.356  0.00  0.00     0.015 SA
ATOM      6  C4  UNL d   1       4.156   5.999   1.808  0.00  0.00     0.022 A 
ATOM      7  C5  UNL d   1       2.782   5.993   1.871  0.00  0.00     0.026 A 
ATOM      8  C6  UNL d   1       2.286   5.985   3.218  0.00  0.00    -0.082 A 
ATOM      9  C7  UNL d   1       0.959   5.977   3.711  0.00  0.00     0.045 A 
ENDROOT
TORSDOF 0
ENDMDL
