MODEL 1
REMARK minimizedAffinity -5.76066875
REMARK minimizedRMSD -1
REMARK  0 active torsions:
REMARK  status: ('A' for Active; 'I' for Inactive)
ROOT
ATOM      1  O1  BZF d   1       1.369  -1.125   0.792  0.00  0.00    -0.204 OA
ATOM      2  C2  BZF d   1       0.598  -1.151  -0.354  0.00  0.00     0.174 A 
ATOM      3  C3  BZF d   1      -0.453  -0.314  -0.242  0.00  0.00    -0.012 A 
ATOM      4  C3A BZF d   1      -0.280   0.342   1.018  0.00  0.00    -0.107 A 
ATOM      5  C4  BZF d   1      -0.992   1.297   1.685  0.00  0.00     0.055 A 
ATOM      6  C5  BZF d   1      -0.594   1.668   2.930  0.00  0.00    -0.016 A 
ATOM      7  C6  BZF d   1       0.506   1.103   3.539  0.00  0.00     0.022 A 
ATOM      8  C7  BZF d   1       1.247   0.155   2.915  0.00  0.00     0.029 A 
ATOM      9  C7A BZF d   1       0.867  -0.199   1.644  0.00  0.00     0.058 A 
ENDROOT
TORSDOF 0
ENDMDL
