MODEL 1
REMARK minimizedAffinity -5.14600992
REMARK minimizedRMSD -1
REMARK  0 active torsions:
REMARK  status: ('A' for Active; 'I' for Inactive)
ROOT
ATOM      1  O1  BZF d   1      -0.337  -1.359  -0.392  0.00  0.00    -0.204 OA
ATOM      2  C2  BZF d   1      -1.698  -1.253  -0.601  0.00  0.00     0.174 A 
ATOM      3  C3  BZF d   1      -2.233  -0.309   0.199  0.00  0.00    -0.012 A 
ATOM      4  C3A BZF d   1      -1.123   0.272   0.890  0.00  0.00    -0.107 A 
ATOM      5  C4  BZF d   1      -1.010   1.273   1.811  0.00  0.00     0.055 A 
ATOM      6  C5  BZF d   1       0.210   1.548   2.343  0.00  0.00    -0.016 A 
ATOM      7  C6  BZF d   1       1.336   0.839   1.979  0.00  0.00     0.022 A 
ATOM      8  C7  BZF d   1       1.275  -0.160   1.065  0.00  0.00     0.029 A 
ATOM      9  C7A BZF d   1       0.049  -0.418   0.502  0.00  0.00     0.058 A 
ENDROOT
TORSDOF 0
ENDMDL
