MODEL 1
REMARK minimizedAffinity -1.02208495
REMARK minimizedRMSD -1
REMARK  0 active torsions:
REMARK  status: ('A' for Active; 'I' for Inactive)
ROOT
ATOM      1  O1  BZF d   1       1.725  -1.440  -0.988  0.00  0.00    -0.204 OA
ATOM      2  C2  BZF d   1       0.517  -1.154  -0.383  0.00  0.00     0.174 A 
ATOM      3  C3  BZF d   1      -0.158  -0.217  -1.079  0.00  0.00    -0.012 A 
ATOM      4  C3A BZF d   1       0.640   0.036  -2.240  0.00  0.00    -0.107 A 
ATOM      5  C4  BZF d   1       0.492   0.857  -3.321  0.00  0.00     0.055 A 
ATOM      6  C5  BZF d   1       1.488   0.922  -4.243  0.00  0.00    -0.016 A 
ATOM      7  C6  BZF d   1       2.646   0.185  -4.113  0.00  0.00     0.022 A 
ATOM      8  C7  BZF d   1       2.837  -0.648  -3.061  0.00  0.00     0.029 A 
ATOM      9  C7A BZF d   1       1.818  -0.741  -2.145  0.00  0.00     0.058 A 
ENDROOT
TORSDOF 0
ENDMDL
