MODEL 1
REMARK minimizedAffinity -5.33389664
REMARK minimizedRMSD -1
REMARK  0 active torsions:
REMARK  status: ('A' for Active; 'I' for Inactive)
ROOT
ATOM      1  O1  BZF d   1      -0.273  -1.248  -0.640  0.00  0.00    -0.204 OA
ATOM      2  C2  BZF d   1      -0.723  -0.025  -0.181  0.00  0.00     0.174 A 
ATOM      3  C3  BZF d   1      -2.069   0.038  -0.226  0.00  0.00    -0.012 A 
ATOM      4  C3A BZF d   1      -2.492  -1.259  -0.659  0.00  0.00    -0.107 A 
ATOM      5  C4  BZF d   1      -3.716  -1.822  -0.882  0.00  0.00     0.055 A 
ATOM      6  C5  BZF d   1      -3.782  -3.088  -1.371  0.00  0.00    -0.016 A 
ATOM      7  C6  BZF d   1      -2.646  -3.817  -1.653  0.00  0.00     0.022 A 
ATOM      8  C7  BZF d   1      -1.409  -3.303  -1.444  0.00  0.00     0.029 A 
ATOM      9  C7A BZF d   1      -1.339  -2.036  -0.918  0.00  0.00     0.058 A 
ENDROOT
TORSDOF 0
ENDMDL
