MODEL 1
REMARK minimizedAffinity -4.75096178
REMARK minimizedRMSD -1
REMARK  0 active torsions:
REMARK  status: ('A' for Active; 'I' for Inactive)
ROOT
ATOM      1  O1  BZF d   1       0.126  -0.177  -0.350  0.00  0.00    -0.204 OA
ATOM      2  C2  BZF d   1      -1.074  -0.792  -0.650  0.00  0.00     0.174 A 
ATOM      3  C3  BZF d   1      -1.916  -0.735   0.401  0.00  0.00    -0.012 A 
ATOM      4  C3A BZF d   1      -1.232   0.040   1.390  0.00  0.00    -0.107 A 
ATOM      5  C4  BZF d   1      -1.561   0.458   2.648  0.00  0.00     0.055 A 
ATOM      6  C5  BZF d   1      -0.640   1.139   3.380  0.00  0.00    -0.016 A 
ATOM      7  C6  BZF d   1       0.619   1.414   2.887  0.00  0.00     0.022 A 
ATOM      8  C7  BZF d   1       0.989   1.024   1.643  0.00  0.00     0.029 A 
ATOM      9  C7A BZF d   1       0.049   0.365   0.889  0.00  0.00     0.058 A 
ENDROOT
TORSDOF 0
ENDMDL
