MODEL 1
REMARK minimizedAffinity -3.07927823
REMARK minimizedRMSD -1
REMARK  0 active torsions:
REMARK  status: ('A' for Active; 'I' for Inactive)
ROOT
ATOM      1  O1  BZF d   1       0.440   1.499   3.404  0.00  0.00    -0.204 OA
ATOM      2  C2  BZF d   1      -0.912   1.718   3.586  0.00  0.00     0.174 A 
ATOM      3  C3  BZF d   1      -1.613   1.303   2.510  0.00  0.00    -0.012 A 
ATOM      4  C3A BZF d   1      -0.647   0.709   1.638  0.00  0.00    -0.107 A 
ATOM      5  C4  BZF d   1      -0.732   0.102   0.418  0.00  0.00     0.055 A 
ATOM      6  C5  BZF d   1       0.409  -0.305  -0.198  0.00  0.00    -0.016 A 
ATOM      7  C6  BZF d   1       1.650  -0.117   0.374  0.00  0.00     0.022 A 
ATOM      8  C7  BZF d   1       1.784   0.475   1.586  0.00  0.00     0.029 A 
ATOM      9  C7A BZF d   1       0.631   0.858   2.226  0.00  0.00     0.058 A 
ENDROOT
TORSDOF 0
ENDMDL
