MODEL 1
REMARK minimizedAffinity -4.71748447
REMARK minimizedRMSD -1
REMARK  2 active torsions:
REMARK  status: ('A' for Active; 'I' for Inactive)
REMARK    1  A    between atoms: C2'_3  and  C1'_4 
REMARK    2  A    between atoms: C1'_4  and  C1_5 
ROOT
ATOM      1  C1  I4B d   1       0.405  -1.265  -0.464  0.00  0.00    -0.075 A 
ATOM      2  C2  I4B d   1      -0.811  -1.863  -0.682  0.00  0.00     0.003 A 
ATOM      3  C3  I4B d   1      -0.936  -2.894  -1.645  0.00  0.00     0.002 A 
ATOM      4  C4  I4B d   1       0.162  -3.257  -2.398  0.00  0.00    -0.004 A 
ATOM      5  C5  I4B d   1       1.399  -2.665  -2.160  0.00  0.00     0.002 A 
ATOM      6  C6  I4B d   1       1.524  -1.671  -1.179  0.00  0.00     0.003 A 
ENDROOT
BRANCH   1   7
ATOM      7  C1' I4B d   1       0.494  -0.157   0.537  0.00  0.00     0.060 C 
BRANCH   7   8
ATOM      8  C2' I4B d   1      -0.677  -0.293   1.489  0.00  0.00    -0.013 C 
ATOM      9  C4' I4B d   1      -0.372  -1.272   2.591  0.00  0.00     0.013 C 
ATOM     10  C3' I4B d   1      -0.984   1.067   2.042  0.00  0.00     0.013 C 
ENDBRANCH   7   8
ENDBRANCH   1   7
TORSDOF 2
ENDMDL
