MODEL 1
REMARK minimizedAffinity -1.69462383
REMARK minimizedRMSD -1
REMARK  2 active torsions:
REMARK  status: ('A' for Active; 'I' for Inactive)
REMARK    1  A    between atoms: C2'_3  and  C1'_4 
REMARK    2  A    between atoms: C1'_4  and  C1_5 
ROOT
ATOM      1  C1  I4B d   1      -0.234  -1.314  -0.429  0.00  0.00    -0.075 A 
ATOM      2  C2  I4B d   1      -0.379  -2.614  -0.844  0.00  0.00     0.003 A 
ATOM      3  C3  I4B d   1       0.498  -3.155  -1.816  0.00  0.00     0.002 A 
ATOM      4  C4  I4B d   1       1.468  -2.350  -2.379  0.00  0.00    -0.004 A 
ATOM      5  C5  I4B d   1       1.628  -1.039  -1.940  0.00  0.00     0.002 A 
ATOM      6  C6  I4B d   1       0.781  -0.521  -0.950  0.00  0.00     0.003 A 
ENDROOT
BRANCH   1   7
ATOM      7  C1' I4B d   1      -1.198  -0.766   0.574  0.00  0.00     0.060 C 
BRANCH   7   8
ATOM      8  C2' I4B d   1      -0.398  -0.107   1.679  0.00  0.00    -0.013 C 
ATOM      9  C4' I4B d   1      -1.173   1.013   2.321  0.00  0.00     0.013 C 
ATOM     10  C3' I4B d   1      -0.039  -1.162   2.683  0.00  0.00     0.013 C 
ENDBRANCH   7   8
ENDBRANCH   1   7
TORSDOF 2
ENDMDL
