MODEL 1
REMARK minimizedAffinity -2.91159725
REMARK minimizedRMSD -1
REMARK  2 active torsions:
REMARK  status: ('A' for Active; 'I' for Inactive)
REMARK    1  A    between atoms: C2'_3  and  C1'_4 
REMARK    2  A    between atoms: C1'_4  and  C1_5 
ROOT
ATOM      1  C1  I4B d   1       0.659  -0.920  -0.098  0.00  0.00    -0.075 A 
ATOM      2  C2  I4B d   1       0.632   0.382  -0.532  0.00  0.00     0.003 A 
ATOM      3  C3  I4B d   1       0.077   1.395   0.287  0.00  0.00     0.002 A 
ATOM      4  C4  I4B d   1      -0.481   1.055   1.503  0.00  0.00    -0.004 A 
ATOM      5  C5  I4B d   1      -0.432  -0.261   1.951  0.00  0.00     0.002 A 
ATOM      6  C6  I4B d   1       0.153  -1.254   1.151  0.00  0.00     0.003 A 
ENDROOT
BRANCH   1   7
ATOM      7  C1' I4B d   1       1.223  -1.969  -1.003  0.00  0.00     0.060 C 
BRANCH   7   8
ATOM      8  C2' I4B d   1       0.134  -2.385  -1.971  0.00  0.00    -0.013 C 
ATOM      9  C4' I4B d   1       0.605  -2.284  -3.398  0.00  0.00     0.013 C 
ATOM     10  C3' I4B d   1      -0.274  -3.788  -1.634  0.00  0.00     0.013 C 
ENDBRANCH   7   8
ENDBRANCH   1   7
TORSDOF 2
ENDMDL
