MODEL 1
REMARK minimizedAffinity -0.989344716
REMARK minimizedRMSD -1
REMARK  2 active torsions:
REMARK  status: ('A' for Active; 'I' for Inactive)
REMARK    1  A    between atoms: C2'_3  and  C1'_4 
REMARK    2  A    between atoms: C1'_4  and  C1_5 
ROOT
ATOM      1  C1  I4B d   1       0.027  -0.475   0.147  0.00  0.00    -0.075 A 
ATOM      2  C2  I4B d   1       0.362   0.494   1.061  0.00  0.00     0.003 A 
ATOM      3  C3  I4B d   1      -0.592   0.946   2.003  0.00  0.00     0.002 A 
ATOM      4  C4  I4B d   1      -1.877   0.443   1.964  0.00  0.00    -0.004 A 
ATOM      5  C5  I4B d   1      -2.209  -0.555   1.053  0.00  0.00     0.002 A 
ATOM      6  C6  I4B d   1      -1.248  -1.026   0.146  0.00  0.00     0.003 A 
ENDROOT
BRANCH   1   7
ATOM      7  C1' I4B d   1       1.050  -0.905  -0.855  0.00  0.00     0.060 C 
BRANCH   7   8
ATOM      8  C2' I4B d   1       0.783  -2.356  -1.201  0.00  0.00    -0.013 C 
ATOM      9  C4' I4B d   1       0.336  -2.503  -2.631  0.00  0.00     0.013 C 
ATOM     10  C3' I4B d   1       2.040  -3.132  -0.944  0.00  0.00     0.013 C 
ENDBRANCH   7   8
ENDBRANCH   1   7
TORSDOF 2
ENDMDL
