MODEL 1
REMARK minimizedAffinity -0.536044419
REMARK minimizedRMSD -1
REMARK  2 active torsions:
REMARK  status: ('A' for Active; 'I' for Inactive)
REMARK    1  A    between atoms: C2'_3  and  C1'_4 
REMARK    2  A    between atoms: C1'_4  and  C1_5 
ROOT
ATOM      1  C1  I4B d   1       0.246  -0.560  -0.046  0.00  0.00    -0.075 A 
ATOM      2  C2  I4B d   1      -0.526  -1.436   0.676  0.00  0.00     0.003 A 
ATOM      3  C3  I4B d   1      -1.293  -0.973   1.772  0.00  0.00     0.002 A 
ATOM      4  C4  I4B d   1      -1.219   0.355   2.141  0.00  0.00    -0.004 A 
ATOM      5  C5  I4B d   1      -0.454   1.245   1.394  0.00  0.00     0.002 A 
ATOM      6  C6  I4B d   1       0.274   0.788   0.286  0.00  0.00     0.003 A 
ENDROOT
BRANCH   1   7
ATOM      7  C1' I4B d   1       1.070  -1.089  -1.177  0.00  0.00     0.060 C 
BRANCH   7   8
ATOM      8  C2' I4B d   1       0.512  -2.443  -1.567  0.00  0.00    -0.013 C 
ATOM      9  C4' I4B d   1       0.535  -2.632  -3.061  0.00  0.00     0.013 C 
ATOM     10  C3' I4B d   1       1.326  -3.496  -0.876  0.00  0.00     0.013 C 
ENDBRANCH   7   8
ENDBRANCH   1   7
TORSDOF 2
ENDMDL
