MODEL 1
REMARK minimizedAffinity -2.33469319
REMARK minimizedRMSD -1
REMARK  2 active torsions:
REMARK  status: ('A' for Active; 'I' for Inactive)
REMARK    1  A    between atoms: C2'_3  and  C1'_4 
REMARK    2  A    between atoms: C1'_4  and  C1_5 
ROOT
ATOM      1  C1  I4B d   1       0.939  -1.448  -0.347  0.00  0.00    -0.075 A 
ATOM      2  C2  I4B d   1      -0.421  -1.553  -0.194  0.00  0.00     0.003 A 
ATOM      3  C3  I4B d   1      -1.088  -0.789   0.794  0.00  0.00     0.002 A 
ATOM      4  C4  I4B d   1      -0.356   0.023   1.635  0.00  0.00    -0.004 A 
ATOM      5  C5  I4B d   1       1.020   0.146   1.463  0.00  0.00     0.002 A 
ATOM      6  C6  I4B d   1       1.670  -0.584   0.458  0.00  0.00     0.003 A 
ENDROOT
BRANCH   1   7
ATOM      7  C1' I4B d   1       1.616  -2.293  -1.379  0.00  0.00     0.060 C 
BRANCH   7   8
ATOM      8  C2' I4B d   1       0.602  -2.613  -2.459  0.00  0.00    -0.013 C 
ATOM      9  C4' I4B d   1       1.063  -2.115  -3.803  0.00  0.00     0.013 C 
ATOM     10  C3' I4B d   1       0.393  -4.098  -2.473  0.00  0.00     0.013 C 
ENDBRANCH   7   8
ENDBRANCH   1   7
TORSDOF 2
ENDMDL
