MODEL 1
REMARK minimizedAffinity -4.93960905
REMARK minimizedRMSD -1
REMARK  2 active torsions:
REMARK  status: ('A' for Active; 'I' for Inactive)
REMARK    1  A    between atoms: C2'_3  and  C1'_4 
REMARK    2  A    between atoms: C1'_4  and  C1_5 
ROOT
ATOM      1  C1  I4B d   1       0.447  -0.597   0.357  0.00  0.00    -0.075 A 
ATOM      2  C2  I4B d   1       0.032   0.709   0.288  0.00  0.00     0.003 A 
ATOM      3  C3  I4B d   1      -0.840   1.234   1.273  0.00  0.00     0.002 A 
ATOM      4  C4  I4B d   1      -1.309   0.408   2.275  0.00  0.00    -0.004 A 
ATOM      5  C5  I4B d   1      -0.869  -0.910   2.357  0.00  0.00     0.002 A 
ATOM      6  C6  I4B d   1       0.024  -1.413   1.399  0.00  0.00     0.003 A 
ENDROOT
BRANCH   1   7
ATOM      7  C1' I4B d   1       1.341  -1.127  -0.718  0.00  0.00     0.060 C 
BRANCH   7   8
ATOM      8  C2' I4B d   1       0.722  -2.403  -1.253  0.00  0.00    -0.013 C 
ATOM      9  C4' I4B d   1      -0.444  -2.105  -2.159  0.00  0.00     0.013 C 
ATOM     10  C3' I4B d   1       1.790  -3.167  -1.978  0.00  0.00     0.013 C 
ENDBRANCH   7   8
ENDBRANCH   1   7
TORSDOF 2
ENDMDL
