MODEL 1
REMARK minimizedAffinity -4.06502962
REMARK minimizedRMSD -1
REMARK  2 active torsions:
REMARK  status: ('A' for Active; 'I' for Inactive)
REMARK    1  A    between atoms: C2'_3  and  C1'_4 
REMARK    2  A    between atoms: C1'_4  and  C1_5 
ROOT
ATOM      1  C1  I4B d   1       0.418  -0.994  -0.506  0.00  0.00    -0.075 A 
ATOM      2  C2  I4B d   1       1.696  -1.342  -0.869  0.00  0.00     0.003 A 
ATOM      3  C3  I4B d   1       1.943  -2.583  -1.505  0.00  0.00     0.002 A 
ATOM      4  C4  I4B d   1       0.899  -3.461  -1.710  0.00  0.00    -0.004 A 
ATOM      5  C5  I4B d   1      -0.398  -3.098  -1.362  0.00  0.00     0.002 A 
ATOM      6  C6  I4B d   1      -0.643  -1.852  -0.767  0.00  0.00     0.003 A 
ENDROOT
BRANCH   1   7
ATOM      7  C1' I4B d   1       0.197   0.309   0.193  0.00  0.00     0.060 C 
BRANCH   7   8
ATOM      8  C2' I4B d   1      -0.463   0.019   1.526  0.00  0.00    -0.013 C 
ATOM      9  C4' I4B d   1       0.517  -0.581   2.500  0.00  0.00     0.013 C 
ATOM     10  C3' I4B d   1      -1.031   1.303   2.051  0.00  0.00     0.013 C 
ENDBRANCH   7   8
ENDBRANCH   1   7
TORSDOF 2
ENDMDL
