MODEL 1
REMARK minimizedAffinity -4.7641778
REMARK minimizedRMSD -1
REMARK  2 active torsions:
REMARK  status: ('A' for Active; 'I' for Inactive)
REMARK    1  A    between atoms: C2'_3  and  C1'_4 
REMARK    2  A    between atoms: C1'_4  and  C1_5 
ROOT
ATOM      1  C1  I4B d   1      -0.156   0.210   0.455  0.00  0.00    -0.075 A 
ATOM      2  C2  I4B d   1      -0.253  -0.481   1.637  0.00  0.00     0.003 A 
ATOM      3  C3  I4B d   1      -0.885   0.109   2.758  0.00  0.00     0.002 A 
ATOM      4  C4  I4B d   1      -1.357   1.402   2.670  0.00  0.00    -0.004 A 
ATOM      5  C5  I4B d   1      -1.278   2.094   1.464  0.00  0.00     0.002 A 
ATOM      6  C6  I4B d   1      -0.686   1.490   0.346  0.00  0.00     0.003 A 
ENDROOT
BRANCH   1   7
ATOM      7  C1' I4B d   1       0.546  -0.430  -0.700  0.00  0.00     0.060 C 
BRANCH   7   8
ATOM      8  C2' I4B d   1       0.231   0.375  -1.943  0.00  0.00    -0.013 C 
ATOM      9  C4' I4B d   1       1.273   1.434  -2.186  0.00  0.00     0.013 C 
ATOM     10  C3' I4B d   1       0.144  -0.574  -3.101  0.00  0.00     0.013 C 
ENDBRANCH   7   8
ENDBRANCH   1   7
TORSDOF 2
ENDMDL
