MODEL 1
REMARK minimizedAffinity -0.640743375
REMARK minimizedRMSD -1
REMARK  2 active torsions:
REMARK  status: ('A' for Active; 'I' for Inactive)
REMARK    1  A    between atoms: C2'_3  and  C1'_4 
REMARK    2  A    between atoms: C1'_4  and  C1_5 
ROOT
ATOM      1  C1  I4B d   1      -0.286   0.064   1.000  0.00  0.00    -0.075 A 
ATOM      2  C2  I4B d   1      -0.234  -1.306   1.051  0.00  0.00     0.003 A 
ATOM      3  C3  I4B d   1       0.546  -2.025   0.113  0.00  0.00     0.002 A 
ATOM      4  C4  I4B d   1       1.212  -1.341  -0.883  0.00  0.00    -0.004 A 
ATOM      5  C5  I4B d   1       1.177   0.049  -0.919  0.00  0.00     0.002 A 
ATOM      6  C6  I4B d   1       0.434   0.758   0.036  0.00  0.00     0.003 A 
ENDROOT
BRANCH   1   7
ATOM      7  C1' I4B d   1      -1.145   0.790   1.986  0.00  0.00     0.060 C 
BRANCH   7   8
ATOM      8  C2' I4B d   1      -0.459   2.096   2.332  0.00  0.00    -0.013 C 
ATOM      9  C4' I4B d   1      -1.265   3.277   1.859  0.00  0.00     0.013 C 
ATOM     10  C3' I4B d   1      -0.259   2.135   3.817  0.00  0.00     0.013 C 
ENDBRANCH   7   8
ENDBRANCH   1   7
TORSDOF 2
ENDMDL
