MODEL 1
REMARK minimizedAffinity -2.78632307
REMARK minimizedRMSD -1
REMARK  2 active torsions:
REMARK  status: ('A' for Active; 'I' for Inactive)
REMARK    1  A    between atoms: C2'_3  and  C1'_4 
REMARK    2  A    between atoms: C1'_4  and  C1_5 
ROOT
ATOM      1  C1  I4B d   1       0.276   1.139   0.252  0.00  0.00    -0.075 A 
ATOM      2  C2  I4B d   1      -0.403   1.336   1.429  0.00  0.00     0.003 A 
ATOM      3  C3  I4B d   1      -0.803   2.640   1.811  0.00  0.00     0.002 A 
ATOM      4  C4  I4B d   1      -0.461   3.715   1.017  0.00  0.00    -0.004 A 
ATOM      5  C5  I4B d   1       0.207   3.511  -0.187  0.00  0.00     0.002 A 
ATOM      6  C6  I4B d   1       0.567   2.213  -0.578  0.00  0.00     0.003 A 
ENDROOT
BRANCH   1   7
ATOM      7  C1' I4B d   1       0.711  -0.247  -0.104  0.00  0.00     0.060 C 
BRANCH   7   8
ATOM      8  C2' I4B d   1      -0.434  -0.925  -0.829  0.00  0.00    -0.013 C 
ATOM      9  C4' I4B d   1       0.066  -2.017  -1.738  0.00  0.00     0.013 C 
ATOM     10  C3' I4B d   1      -1.378  -1.468   0.202  0.00  0.00     0.013 C 
ENDBRANCH   7   8
ENDBRANCH   1   7
TORSDOF 2
ENDMDL
