MODEL 1
REMARK minimizedAffinity 10.4993286
REMARK minimizedRMSD -1
REMARK  1 active torsions:
REMARK  status: ('A' for Active; 'I' for Inactive)
REMARK    1  A    between atoms: C1_2  and  C2_3 
ROOT
ATOM      1  C2  UNL d   1       0.581   1.563  -1.048  0.00  0.00    -0.076 A 
ATOM      2  C3  UNL d   1       0.021   0.307  -0.756  0.00  0.00     0.004 A 
ATOM      3  C4  UNL d   1      -0.498   0.030   0.508  0.00  0.00    -0.003 A 
ATOM      4  C5  UNL d   1      -0.466   1.004   1.500  0.00  0.00     0.000 A 
ATOM      5  C6  UNL d   1       0.070   2.261   1.222  0.00  0.00     0.000 A 
ATOM      6  C7  UNL d   1       0.583   2.562  -0.051  0.00  0.00    -0.073 A 
ATOM      7  C8  UNL d   1       1.155   3.932  -0.293  0.00  0.00     0.078 C 
ENDROOT
BRANCH   1   8
ATOM      8  C1  UNL d   1       1.153   1.797  -2.428  0.00  0.00     0.053 C 
ATOM      9  C   UNL d   1       2.598   1.337  -2.546  0.00  0.00     0.018 C 
ENDBRANCH   1   8
TORSDOF 1
ENDMDL
