MODEL 1
REMARK minimizedAffinity 8.62196827
REMARK minimizedRMSD -1
REMARK  1 active torsions:
REMARK  status: ('A' for Active; 'I' for Inactive)
REMARK    1  A    between atoms: C1_2  and  C2_3 
ROOT
ATOM      1  C2  UNL d   1       3.097   3.679  -5.894  0.00  0.00    -0.076 A 
ATOM      2  C3  UNL d   1       1.883   2.971  -5.932  0.00  0.00     0.004 A 
ATOM      3  C4  UNL d   1       0.662   3.642  -5.984  0.00  0.00    -0.003 A 
ATOM      4  C5  UNL d   1       0.635   5.032  -5.999  0.00  0.00     0.000 A 
ATOM      5  C6  UNL d   1       1.830   5.751  -5.980  0.00  0.00     0.000 A 
ATOM      6  C7  UNL d   1       3.070   5.090  -5.944  0.00  0.00    -0.073 A 
ATOM      7  C8  UNL d   1       4.328   5.915  -5.918  0.00  0.00     0.078 C 
ENDROOT
BRANCH   1   8
ATOM      8  C1  UNL d   1       4.389   2.898  -5.811  0.00  0.00     0.053 C 
ATOM      9  C   UNL d   1       5.549   3.743  -5.306  0.00  0.00     0.018 C 
ENDBRANCH   1   8
TORSDOF 1
ENDMDL
