MODEL 1
REMARK minimizedAffinity 10.3692589
REMARK minimizedRMSD -1
REMARK  1 active torsions:
REMARK  status: ('A' for Active; 'I' for Inactive)
REMARK    1  A    between atoms: C1_2  and  C2_3 
ROOT
ATOM      1  C2  UNL d   1       4.992   4.764   1.902  0.00  0.00    -0.076 A 
ATOM      2  C3  UNL d   1       5.468   3.612   1.252  0.00  0.00     0.004 A 
ATOM      3  C4  UNL d   1       5.961   2.530   1.980  0.00  0.00    -0.003 A 
ATOM      4  C5  UNL d   1       5.986   2.583   3.369  0.00  0.00     0.000 A 
ATOM      5  C6  UNL d   1       5.502   3.711   4.031  0.00  0.00     0.000 A 
ATOM      6  C7  UNL d   1       4.986   4.803   3.313  0.00  0.00    -0.073 A 
ATOM      7  C8  UNL d   1       4.483   5.997   4.078  0.00  0.00     0.078 C 
ENDROOT
BRANCH   1   8
ATOM      8  C1  UNL d   1       4.495   5.917   1.060  0.00  0.00     0.053 C 
ATOM      9  C   UNL d   1       4.859   5.766  -0.409  0.00  0.00     0.018 C 
ENDBRANCH   1   8
TORSDOF 1
ENDMDL
