MODEL 1
REMARK minimizedAffinity 11.2361088
REMARK minimizedRMSD -1
REMARK  1 active torsions:
REMARK  status: ('A' for Active; 'I' for Inactive)
REMARK    1  A    between atoms: C1_2  and  C2_3 
ROOT
ATOM      1  C2  UNL d   1      -3.701  -3.489  -0.104  0.00  0.00    -0.076 A 
ATOM      2  C3  UNL d   1      -2.443  -3.652  -0.710  0.00  0.00     0.004 A 
ATOM      3  C4  UNL d   1      -2.029  -4.897  -1.180  0.00  0.00    -0.003 A 
ATOM      4  C5  UNL d   1      -2.866  -6.000  -1.051  0.00  0.00     0.000 A 
ATOM      5  C6  UNL d   1      -4.124  -5.853  -0.467  0.00  0.00     0.000 A 
ATOM      6  C7  UNL d   1      -4.563  -4.602  -0.004  0.00  0.00    -0.073 A 
ATOM      7  C8  UNL d   1      -5.927  -4.502   0.623  0.00  0.00     0.078 C 
ENDROOT
BRANCH   1   8
ATOM      8  C1  UNL d   1      -4.085  -2.120   0.411  0.00  0.00     0.053 C 
ATOM      9  C   UNL d   1      -2.998  -1.496   1.272  0.00  0.00     0.018 C 
ENDBRANCH   1   8
TORSDOF 1
ENDMDL
