MODEL 1
REMARK minimizedAffinity 14.780467
REMARK minimizedRMSD -1
REMARK  1 active torsions:
REMARK  status: ('A' for Active; 'I' for Inactive)
REMARK    1  A    between atoms: C1_2  and  C2_3 
ROOT
ATOM      1  C2  UNL d   1      -1.938   2.690  -0.526  0.00  0.00    -0.076 A 
ATOM      2  C3  UNL d   1      -3.287   2.783  -0.910  0.00  0.00     0.004 A 
ATOM      3  C4  UNL d   1      -4.282   2.108  -0.204  0.00  0.00    -0.003 A 
ATOM      4  C5  UNL d   1      -3.943   1.330   0.897  0.00  0.00     0.000 A 
ATOM      5  C6  UNL d   1      -2.612   1.240   1.302  0.00  0.00     0.000 A 
ATOM      6  C7  UNL d   1      -1.599   1.927   0.612  0.00  0.00    -0.073 A 
ATOM      7  C8  UNL d   1      -0.179   1.790   1.089  0.00  0.00     0.078 C 
ENDROOT
BRANCH   1   8
ATOM      8  C1  UNL d   1      -0.900   3.422  -1.346  0.00  0.00     0.053 C 
ATOM      9  C   UNL d   1       0.516   2.957  -1.043  0.00  0.00     0.018 C 
ENDBRANCH   1   8
TORSDOF 1
ENDMDL
