MODEL 1
REMARK minimizedAffinity 8.80540276
REMARK minimizedRMSD -1
REMARK  1 active torsions:
REMARK  status: ('A' for Active; 'I' for Inactive)
REMARK    1  A    between atoms: C1_2  and  C2_3 
ROOT
ATOM      1  C2  UNL d   1      -2.227  -3.259   4.507  0.00  0.00    -0.076 A 
ATOM      2  C3  UNL d   1      -1.408  -4.338   4.881  0.00  0.00     0.004 A 
ATOM      3  C4  UNL d   1      -0.276  -4.670   4.138  0.00  0.00    -0.003 A 
ATOM      4  C5  UNL d   1       0.055  -3.928   3.010  0.00  0.00     0.000 A 
ATOM      5  C6  UNL d   1      -0.736  -2.843   2.635  0.00  0.00     0.000 A 
ATOM      6  C7  UNL d   1      -1.871  -2.485   3.382  0.00  0.00    -0.073 A 
ATOM      7  C8  UNL d   1      -2.692  -1.309   2.928  0.00  0.00     0.078 C 
ENDROOT
BRANCH   1   8
ATOM      8  C1  UNL d   1      -3.456  -2.962   5.336  0.00  0.00     0.053 C 
ATOM      9  C   UNL d   1      -4.026  -4.206   6.000  0.00  0.00     0.018 C 
ENDBRANCH   1   8
TORSDOF 1
ENDMDL
