MODEL 1
REMARK minimizedAffinity 8.01079273
REMARK minimizedRMSD -1
REMARK  1 active torsions:
REMARK  status: ('A' for Active; 'I' for Inactive)
REMARK    1  A    between atoms: C1_2  and  C2_3 
ROOT
ATOM      1  C2  UNL d   1      -4.399   3.571  -4.923  0.00  0.00    -0.076 A 
ATOM      2  C3  UNL d   1      -4.515   4.586  -5.888  0.00  0.00     0.004 A 
ATOM      3  C4  UNL d   1      -5.309   5.708  -5.658  0.00  0.00    -0.003 A 
ATOM      4  C5  UNL d   1      -6.000   5.834  -4.458  0.00  0.00     0.000 A 
ATOM      5  C6  UNL d   1      -5.883   4.845  -3.482  0.00  0.00     0.000 A 
ATOM      6  C7  UNL d   1      -5.074   3.715  -3.692  0.00  0.00    -0.073 A 
ATOM      7  C8  UNL d   1      -4.989   2.677  -2.607  0.00  0.00     0.078 C 
ENDROOT
BRANCH   1   8
ATOM      8  C1  UNL d   1      -3.545   2.364  -5.240  0.00  0.00     0.053 C 
ATOM      9  C   UNL d   1      -2.173   2.745  -5.772  0.00  0.00     0.018 C 
ENDBRANCH   1   8
TORSDOF 1
ENDMDL
