MODEL 1
REMARK minimizedAffinity 0.528486371
REMARK minimizedRMSD -1
REMARK  1 active torsions:
REMARK  status: ('A' for Active; 'I' for Inactive)
REMARK    1  A    between atoms: C1_2  and  C2_3 
ROOT
ATOM      1  C2  UNL d   1       1.743   4.110  -4.493  0.00  0.00    -0.076 A 
ATOM      2  C3  UNL d   1       3.015   4.596  -4.145  0.00  0.00     0.004 A 
ATOM      3  C4  UNL d   1       3.638   4.195  -2.965  0.00  0.00    -0.003 A 
ATOM      4  C5  UNL d   1       3.000   3.300  -2.114  0.00  0.00     0.000 A 
ATOM      5  C6  UNL d   1       1.746   2.793  -2.451  0.00  0.00     0.000 A 
ATOM      6  C7  UNL d   1       1.110   3.175  -3.645  0.00  0.00    -0.073 A 
ATOM      7  C8  UNL d   1      -0.245   2.602  -3.957  0.00  0.00     0.078 C 
ENDROOT
BRANCH   1   8
ATOM      8  C1  UNL d   1       1.104   4.601  -5.772  0.00  0.00     0.053 C 
ATOM      9  C   UNL d   1      -0.001   5.615  -5.519  0.00  0.00     0.018 C 
ENDBRANCH   1   8
TORSDOF 1
ENDMDL
