MODEL 1
REMARK minimizedAffinity 9.24438667
REMARK minimizedRMSD -1
REMARK  1 active torsions:
REMARK  status: ('A' for Active; 'I' for Inactive)
REMARK    1  A    between atoms: C1_2  and  C2_3 
ROOT
ATOM      1  C2  UNL d   1      -0.820   3.517  -4.964  0.00  0.00    -0.076 A 
ATOM      2  C3  UNL d   1       0.007   4.653  -4.909  0.00  0.00     0.004 A 
ATOM      3  C4  UNL d   1      -0.429   5.883  -5.396  0.00  0.00    -0.003 A 
ATOM      4  C5  UNL d   1      -1.701   5.998  -5.947  0.00  0.00     0.000 A 
ATOM      5  C6  UNL d   1      -2.542   4.887  -5.994  0.00  0.00     0.000 A 
ATOM      6  C7  UNL d   1      -2.123   3.643  -5.492  0.00  0.00    -0.073 A 
ATOM      7  C8  UNL d   1      -3.068   2.476  -5.574  0.00  0.00     0.078 C 
ENDROOT
BRANCH   1   8
ATOM      8  C1  UNL d   1      -0.282   2.203  -4.445  0.00  0.00     0.053 C 
ATOM      9  C   UNL d   1       1.037   2.365  -3.705  0.00  0.00     0.018 C 
ENDBRANCH   1   8
TORSDOF 1
ENDMDL
