MODEL 1
REMARK minimizedAffinity 7.79303217
REMARK minimizedRMSD -1
REMARK  1 active torsions:
REMARK  status: ('A' for Active; 'I' for Inactive)
REMARK    1  A    between atoms: C1_2  and  C2_3 
ROOT
ATOM      1  C2  UNL d   1       0.096   3.708  -5.311  0.00  0.00    -0.076 A 
ATOM      2  C3  UNL d   1      -1.203   3.188  -5.179  0.00  0.00     0.004 A 
ATOM      3  C4  UNL d   1      -2.322   3.977  -5.442  0.00  0.00    -0.003 A 
ATOM      4  C5  UNL d   1      -2.159   5.298  -5.843  0.00  0.00     0.000 A 
ATOM      5  C6  UNL d   1      -0.878   5.826  -5.996  0.00  0.00     0.000 A 
ATOM      6  C7  UNL d   1       0.261   5.039  -5.750  0.00  0.00    -0.073 A 
ATOM      7  C8  UNL d   1       1.619   5.661  -5.925  0.00  0.00     0.078 C 
ENDROOT
BRANCH   1   8
ATOM      8  C1  UNL d   1       1.271   2.814  -4.985  0.00  0.00     0.053 C 
ATOM      9  C   UNL d   1       1.111   2.106  -3.649  0.00  0.00     0.018 C 
ENDBRANCH   1   8
TORSDOF 1
ENDMDL
