MODEL 1
REMARK minimizedAffinity 7.26212454
REMARK minimizedRMSD -1
REMARK  1 active torsions:
REMARK  status: ('A' for Active; 'I' for Inactive)
REMARK    1  A    between atoms: C1_2  and  C2_3 
ROOT
ATOM      1  C2  UNL d   1       0.368   3.618  -5.242  0.00  0.00    -0.076 A 
ATOM      2  C3  UNL d   1       1.076   4.821  -5.403  0.00  0.00     0.004 A 
ATOM      3  C4  UNL d   1       0.421   5.994  -5.776  0.00  0.00    -0.003 A 
ATOM      4  C5  UNL d   1      -0.952   5.983  -5.993  0.00  0.00     0.000 A 
ATOM      5  C6  UNL d   1      -1.673   4.802  -5.820  0.00  0.00     0.000 A 
ATOM      6  C7  UNL d   1      -1.031   3.614  -5.429  0.00  0.00    -0.073 A 
ATOM      7  C8  UNL d   1      -1.857   2.368  -5.263  0.00  0.00     0.078 C 
ENDROOT
BRANCH   1   8
ATOM      8  C1  UNL d   1       1.135   2.371  -4.863  0.00  0.00     0.053 C 
ATOM      9  C   UNL d   1       1.568   2.374  -3.405  0.00  0.00     0.018 C 
ENDBRANCH   1   8
TORSDOF 1
ENDMDL
