MODEL 1
REMARK minimizedAffinity 13.8885574
REMARK minimizedRMSD -1
REMARK  1 active torsions:
REMARK  status: ('A' for Active; 'I' for Inactive)
REMARK    1  A    between atoms: C1_2  and  C2_3 
ROOT
ATOM      1  C2  UNL d   1       0.400   2.892  -5.143  0.00  0.00    -0.076 A 
ATOM      2  C3  UNL d   1       1.408   3.796  -5.519  0.00  0.00     0.004 A 
ATOM      3  C4  UNL d   1       1.093   5.085  -5.944  0.00  0.00    -0.003 A 
ATOM      4  C5  UNL d   1      -0.235   5.492  -6.000  0.00  0.00     0.000 A 
ATOM      5  C6  UNL d   1      -1.247   4.614  -5.614  0.00  0.00     0.000 A 
ATOM      6  C7  UNL d   1      -0.946   3.316  -5.167  0.00  0.00    -0.073 A 
ATOM      7  C8  UNL d   1      -2.078   2.408  -4.769  0.00  0.00     0.078 C 
ENDROOT
BRANCH   1   8
ATOM      8  C1  UNL d   1       0.800   1.497  -4.716  0.00  0.00     0.053 C 
ATOM      9  C   UNL d   1       1.748   1.502  -3.527  0.00  0.00     0.018 C 
ENDBRANCH   1   8
TORSDOF 1
ENDMDL
