MODEL 1
REMARK minimizedAffinity -1.678442
REMARK minimizedRMSD -1
REMARK  0 active torsions:
REMARK  status: ('A' for Active; 'I' for Inactive)
ROOT
ATOM      1  C   UNL d   1       1.039  -0.347   0.793  0.00  0.00     0.172 C 
ATOM      2  N   UNL d   1       1.876   0.828   0.848  0.00  0.00    -0.070 N 
ATOM      3  C1  UNL d   1       2.159   1.555   1.974  0.00  0.00    -0.004 A 
ATOM      4  C2  UNL d   1       2.988   2.593   1.609  0.00  0.00    -0.047 A 
ATOM      5  C3  UNL d   1       3.211   2.488   0.215  0.00  0.00    -0.047 A 
ATOM      6  C4  UNL d   1       2.511   1.386  -0.230  0.00  0.00    -0.004 A 
ENDROOT
TORSDOF 0
ENDMDL
