MODEL 1
REMARK minimizedAffinity -2.89832187
REMARK minimizedRMSD -1
REMARK  0 active torsions:
REMARK  status: ('A' for Active; 'I' for Inactive)
ROOT
ATOM      1  C   UNL d   1       1.149   0.118  -0.085  0.00  0.00     0.172 C 
ATOM      2  N   UNL d   1      -0.260  -0.127  -0.282  0.00  0.00    -0.070 N 
ATOM      3  C1  UNL d   1      -1.040  -0.958   0.477  0.00  0.00    -0.004 A 
ATOM      4  C2  UNL d   1      -2.320  -0.917  -0.032  0.00  0.00    -0.047 A 
ATOM      5  C3  UNL d   1      -2.309  -0.031  -1.136  0.00  0.00    -0.047 A 
ATOM      6  C4  UNL d   1      -1.021   0.443  -1.268  0.00  0.00    -0.004 A 
ENDROOT
TORSDOF 0
ENDMDL
