MODEL 1
REMARK minimizedAffinity -2.39603543
REMARK minimizedRMSD -1
REMARK  0 active torsions:
REMARK  status: ('A' for Active; 'I' for Inactive)
ROOT
ATOM      1  C   UNL d   1      -3.100  -0.750  -1.125  0.00  0.00     0.172 C 
ATOM      2  N   UNL d   1      -1.764  -0.386  -0.716  0.00  0.00    -0.070 N 
ATOM      3  C1  UNL d   1      -0.750  -0.000  -1.552  0.00  0.00    -0.004 A 
ATOM      4  C2  UNL d   1       0.359   0.262  -0.777  0.00  0.00    -0.047 A 
ATOM      5  C3  UNL d   1       0.000   0.025   0.571  0.00  0.00    -0.047 A 
ATOM      6  C4  UNL d   1      -1.319  -0.375   0.580  0.00  0.00    -0.004 A 
ENDROOT
TORSDOF 0
ENDMDL
