MODEL 1
REMARK minimizedAffinity -3.92621398
REMARK minimizedRMSD -1
REMARK  0 active torsions:
REMARK  status: ('A' for Active; 'I' for Inactive)
ROOT
ATOM      1  C   UNL d   1       0.116  -0.117  -0.155  0.00  0.00     0.172 C 
ATOM      2  N   UNL d   1      -1.036  -0.836   0.336  0.00  0.00    -0.070 N 
ATOM      3  C1  UNL d   1      -1.003  -1.944   1.140  0.00  0.00    -0.004 A 
ATOM      4  C2  UNL d   1      -2.304  -2.327   1.385  0.00  0.00    -0.047 A 
ATOM      5  C3  UNL d   1      -3.148  -1.419   0.703  0.00  0.00    -0.047 A 
ATOM      6  C4  UNL d   1      -2.337  -0.506   0.062  0.00  0.00    -0.004 A 
ENDROOT
TORSDOF 0
ENDMDL
