MODEL 1
REMARK minimizedAffinity -3.430089
REMARK minimizedRMSD -1
REMARK  0 active torsions:
REMARK  status: ('A' for Active; 'I' for Inactive)
ROOT
ATOM      1  C   UNL d   1       0.630  -0.112  -0.177  0.00  0.00     0.172 C 
ATOM      2  N   UNL d   1      -0.755  -0.417  -0.451  0.00  0.00    -0.070 N 
ATOM      3  C1  UNL d   1      -1.577   0.289  -1.288  0.00  0.00    -0.004 A 
ATOM      4  C2  UNL d   1      -2.814  -0.320  -1.277  0.00  0.00    -0.047 A 
ATOM      5  C3  UNL d   1      -2.732  -1.428  -0.401  0.00  0.00    -0.047 A 
ATOM      6  C4  UNL d   1      -1.447  -1.465   0.096  0.00  0.00    -0.004 A 
ENDROOT
TORSDOF 0
ENDMDL
