MODEL 1
REMARK minimizedAffinity -3.73985004
REMARK minimizedRMSD -1
REMARK  0 active torsions:
REMARK  status: ('A' for Active; 'I' for Inactive)
ROOT
ATOM      1  C   UNL d   1      -0.010   0.605  -1.321  0.00  0.00     0.172 C 
ATOM      2  N   UNL d   1      -0.784  -0.140  -0.355  0.00  0.00    -0.070 N 
ATOM      3  C1  UNL d   1      -2.114  -0.448  -0.465  0.00  0.00    -0.004 A 
ATOM      4  C2  UNL d   1      -2.474  -1.164   0.656  0.00  0.00    -0.047 A 
ATOM      5  C3  UNL d   1      -1.322  -1.291   1.467  0.00  0.00    -0.047 A 
ATOM      6  C4  UNL d   1      -0.290  -0.647   0.817  0.00  0.00    -0.004 A 
ENDROOT
TORSDOF 0
ENDMDL
