MODEL 1
REMARK minimizedAffinity -3.68257904
REMARK minimizedRMSD -1
REMARK  0 active torsions:
REMARK  status: ('A' for Active; 'I' for Inactive)
ROOT
ATOM      1  C   UNL d   1      -2.064   0.201   0.648  0.00  0.00     0.172 C 
ATOM      2  N   UNL d   1      -0.923   0.100  -0.231  0.00  0.00    -0.070 N 
ATOM      3  C1  UNL d   1       0.328   0.596   0.024  0.00  0.00    -0.004 A 
ATOM      4  C2  UNL d   1       1.130   0.295  -1.056  0.00  0.00    -0.047 A 
ATOM      5  C3  UNL d   1       0.333  -0.406  -1.992  0.00  0.00    -0.047 A 
ATOM      6  C4  UNL d   1      -0.933  -0.512  -1.456  0.00  0.00    -0.004 A 
ENDROOT
TORSDOF 0
ENDMDL
