MODEL 1
REMARK minimizedAffinity 0.503916323
REMARK minimizedRMSD -1
REMARK  0 active torsions:
REMARK  status: ('A' for Active; 'I' for Inactive)
ROOT
ATOM      1  C   UNL d   1       1.594  -0.249   1.028  0.00  0.00     0.172 C 
ATOM      2  N   UNL d   1       2.196   1.057   1.161  0.00  0.00    -0.070 N 
ATOM      3  C1  UNL d   1       2.375   1.737   2.335  0.00  0.00    -0.004 A 
ATOM      4  C2  UNL d   1       2.981   2.939   2.039  0.00  0.00    -0.047 A 
ATOM      5  C3  UNL d   1       3.173   2.982   0.637  0.00  0.00    -0.047 A 
ATOM      6  C4  UNL d   1       2.678   1.804   0.119  0.00  0.00    -0.004 A 
ENDROOT
TORSDOF 0
ENDMDL
