MODEL 1
REMARK minimizedAffinity -4.26538849
REMARK minimizedRMSD -1
REMARK  0 active torsions:
REMARK  status: ('A' for Active; 'I' for Inactive)
ROOT
ATOM      1  C   UNL d   1       1.049  -0.042   0.070  0.00  0.00     0.172 C 
ATOM      2  N   UNL d   1      -0.362  -0.145  -0.223  0.00  0.00    -0.070 N 
ATOM      3  C1  UNL d   1      -0.959   0.195  -1.407  0.00  0.00    -0.004 A 
ATOM      4  C2  UNL d   1      -2.309  -0.050  -1.285  0.00  0.00    -0.047 A 
ATOM      5  C3  UNL d   1      -2.532  -0.553   0.019  0.00  0.00    -0.047 A 
ATOM      6  C4  UNL d   1      -1.310  -0.601   0.655  0.00  0.00    -0.004 A 
ENDROOT
TORSDOF 0
ENDMDL
