MODEL 1
REMARK minimizedAffinity -0.946221411
REMARK minimizedRMSD -1
REMARK  0 active torsions:
REMARK  status: ('A' for Active; 'I' for Inactive)
ROOT
ATOM      1  C   UNL d   1       1.903  -0.240  -0.661  0.00  0.00     0.172 C 
ATOM      2  N   UNL d   1       0.766  -0.310   0.226  0.00  0.00    -0.070 N 
ATOM      3  C1  UNL d   1      -0.011   0.749   0.614  0.00  0.00    -0.004 A 
ATOM      4  C2  UNL d   1      -0.988   0.268   1.458  0.00  0.00    -0.047 A 
ATOM      5  C3  UNL d   1      -0.792  -1.128   1.582  0.00  0.00    -0.047 A 
ATOM      6  C4  UNL d   1       0.300  -1.459   0.809  0.00  0.00    -0.004 A 
ENDROOT
TORSDOF 0
ENDMDL
