MODEL 1
REMARK minimizedAffinity -4.00895071
REMARK minimizedRMSD -1
REMARK  0 active torsions:
REMARK  status: ('A' for Active; 'I' for Inactive)
ROOT
ATOM      1  C   UNL d   1       0.026  -0.167   0.178  0.00  0.00     0.172 C 
ATOM      2  N   UNL d   1      -1.184  -0.953   0.110  0.00  0.00    -0.070 N 
ATOM      3  C1  UNL d   1      -2.257  -0.699  -0.701  0.00  0.00    -0.004 A 
ATOM      4  C2  UNL d   1      -3.202  -1.674  -0.469  0.00  0.00    -0.047 A 
ATOM      5  C3  UNL d   1      -2.679  -2.545   0.517  0.00  0.00    -0.047 A 
ATOM      6  C4  UNL d   1      -1.428  -2.075   0.858  0.00  0.00    -0.004 A 
ENDROOT
TORSDOF 0
ENDMDL
