MODEL 1
REMARK minimizedAffinity -3.02537751
REMARK minimizedRMSD -1
REMARK  0 active torsions:
REMARK  status: ('A' for Active; 'I' for Inactive)
ROOT
ATOM      1  C   UNL d   1       0.669   0.056   0.388  0.00  0.00     0.172 C 
ATOM      2  N   UNL d   1      -0.682  -0.156  -0.077  0.00  0.00    -0.070 N 
ATOM      3  C1  UNL d   1      -1.750  -0.506   0.706  0.00  0.00    -0.004 A 
ATOM      4  C2  UNL d   1      -2.855  -0.610  -0.111  0.00  0.00    -0.047 A 
ATOM      5  C3  UNL d   1      -2.437  -0.313  -1.430  0.00  0.00    -0.047 A 
ATOM      6  C4  UNL d   1      -1.087  -0.036  -1.380  0.00  0.00    -0.004 A 
ENDROOT
TORSDOF 0
ENDMDL
