MODEL 1
REMARK minimizedAffinity -2.97960424
REMARK minimizedRMSD -1
REMARK  0 active torsions:
REMARK  status: ('A' for Active; 'I' for Inactive)
ROOT
ATOM      1  C   UNL d   1      -2.805  -0.720  -0.385  0.00  0.00     0.172 C 
ATOM      2  N   UNL d   1      -1.396  -0.412  -0.314  0.00  0.00    -0.070 N 
ATOM      3  C1  UNL d   1      -0.652   0.157  -1.313  0.00  0.00    -0.004 A 
ATOM      4  C2  UNL d   1       0.641   0.287  -0.855  0.00  0.00    -0.047 A 
ATOM      5  C3  UNL d   1       0.675  -0.222   0.465  0.00  0.00    -0.047 A 
ATOM      6  C4  UNL d   1      -0.599  -0.648   0.774  0.00  0.00    -0.004 A 
ENDROOT
TORSDOF 0
ENDMDL
