MODEL 1
REMARK minimizedAffinity -3.52726078
REMARK minimizedRMSD -1
REMARK  0 active torsions:
REMARK  status: ('A' for Active; 'I' for Inactive)
ROOT
ATOM      1  C   UNL d   1      -0.755   0.680  -1.472  0.00  0.00     0.172 C 
ATOM      2  N   UNL d   1      -1.664  -0.312  -0.947  0.00  0.00    -0.070 N 
ATOM      3  C1  UNL d   1      -2.825  -0.726  -1.544  0.00  0.00    -0.004 A 
ATOM      4  C2  UNL d   1      -3.401  -1.678  -0.731  0.00  0.00    -0.047 A 
ATOM      5  C3  UNL d   1      -2.558  -1.841   0.394  0.00  0.00    -0.047 A 
ATOM      6  C4  UNL d   1      -1.490  -0.983   0.234  0.00  0.00    -0.004 A 
ENDROOT
TORSDOF 0
ENDMDL
