MODEL 1
REMARK minimizedAffinity -3.5671854
REMARK minimizedRMSD -1
REMARK  0 active torsions:
REMARK  status: ('A' for Active; 'I' for Inactive)
ROOT
ATOM      1  C   UNL d   1       1.130  -0.236   0.860  0.00  0.00     0.172 C 
ATOM      2  N   UNL d   1      -0.253  -0.401   0.482  0.00  0.00    -0.070 N 
ATOM      3  C1  UNL d   1      -1.250  -0.879   1.290  0.00  0.00    -0.004 A 
ATOM      4  C2  UNL d   1      -2.420  -0.882   0.561  0.00  0.00    -0.047 A 
ATOM      5  C3  UNL d   1      -2.115  -0.389  -0.730  0.00  0.00    -0.047 A 
ATOM      6  C4  UNL d   1      -0.767  -0.099  -0.751  0.00  0.00    -0.004 A 
ENDROOT
TORSDOF 0
ENDMDL
