MODEL 1
REMARK minimizedAffinity -3.50591922
REMARK minimizedRMSD -1
REMARK  0 active torsions:
REMARK  status: ('A' for Active; 'I' for Inactive)
ROOT
ATOM      1  C   UNL d   1       0.528   0.256   0.015  0.00  0.00     0.172 C 
ATOM      2  N   UNL d   1      -0.806  -0.282  -0.101  0.00  0.00    -0.070 N 
ATOM      3  C1  UNL d   1      -1.471  -0.985   0.868  0.00  0.00    -0.004 A 
ATOM      4  C2  UNL d   1      -2.712  -1.320   0.370  0.00  0.00    -0.047 A 
ATOM      5  C3  UNL d   1      -2.795  -0.802  -0.944  0.00  0.00    -0.047 A 
ATOM      6  C4  UNL d   1      -1.602  -0.165  -1.210  0.00  0.00    -0.004 A 
ENDROOT
TORSDOF 0
ENDMDL
