MODEL 1
REMARK minimizedAffinity 7.43534899
REMARK minimizedRMSD -1
REMARK  0 active torsions:
REMARK  status: ('A' for Active; 'I' for Inactive)
ROOT
ATOM      1  C1  BNZ d   1       4.862  -1.716  -0.040  0.00  0.00     0.000 A 
ATOM      2  C2  BNZ d   1       3.539  -1.397  -0.191  0.00  0.00     0.000 A 
ATOM      3  C3  BNZ d   1       2.571  -2.354  -0.074  0.00  0.00     0.000 A 
ATOM      4  C4  BNZ d   1       2.928  -3.635   0.153  0.00  0.00     0.000 A 
ATOM      5  C5  BNZ d   1       4.259  -3.974   0.298  0.00  0.00     0.000 A 
ATOM      6  C6  BNZ d   1       5.228  -3.001   0.218  0.00  0.00     0.000 A 
ENDROOT
TORSDOF 0
ENDMDL
