MODEL 1
REMARK minimizedAffinity 3.69652033
REMARK minimizedRMSD -1
REMARK  0 active torsions:
REMARK  status: ('A' for Active; 'I' for Inactive)
ROOT
ATOM      1  C1  BNZ d   1      -5.999   1.627  -5.381  0.00  0.00     0.000 A 
ATOM      2  C2  BNZ d   1      -5.999   2.245  -4.159  0.00  0.00     0.000 A 
ATOM      3  C3  BNZ d   1      -4.880   2.246  -3.376  0.00  0.00     0.000 A 
ATOM      4  C4  BNZ d   1      -3.775   1.595  -3.796  0.00  0.00     0.000 A 
ATOM      5  C5  BNZ d   1      -3.763   0.960  -5.022  0.00  0.00     0.000 A 
ATOM      6  C6  BNZ d   1      -4.879   0.994  -5.825  0.00  0.00     0.000 A 
ENDROOT
TORSDOF 0
ENDMDL
