MODEL 1
REMARK minimizedAffinity 0.784282029
REMARK minimizedRMSD -1
REMARK  0 active torsions:
REMARK  status: ('A' for Active; 'I' for Inactive)
ROOT
ATOM      1  C1  BNZ d   1       4.228  -4.263   1.523  0.00  0.00     0.000 A 
ATOM      2  C2  BNZ d   1       3.036  -4.015   0.899  0.00  0.00     0.000 A 
ATOM      3  C3  BNZ d   1       1.906  -3.754   1.624  0.00  0.00     0.000 A 
ATOM      4  C4  BNZ d   1       1.963  -3.783   2.971  0.00  0.00     0.000 A 
ATOM      5  C5  BNZ d   1       3.156  -4.041   3.616  0.00  0.00     0.000 A 
ATOM      6  C6  BNZ d   1       4.299  -4.264   2.883  0.00  0.00     0.000 A 
ENDROOT
TORSDOF 0
ENDMDL
