MODEL 1
REMARK minimizedAffinity 1.70930445
REMARK minimizedRMSD -1
REMARK  0 active torsions:
REMARK  status: ('A' for Active; 'I' for Inactive)
ROOT
ATOM      1  C1  BNZ d   1       3.776   1.919   0.561  0.00  0.00     0.000 A 
ATOM      2  C2  BNZ d   1       3.789   2.911   1.505  0.00  0.00     0.000 A 
ATOM      3  C3  BNZ d   1       4.909   3.154   2.250  0.00  0.00     0.000 A 
ATOM      4  C4  BNZ d   1       6.000   2.380   2.078  0.00  0.00     0.000 A 
ATOM      5  C5  BNZ d   1       6.000   1.370   1.137  0.00  0.00     0.000 A 
ATOM      6  C6  BNZ d   1       4.884   1.153   0.362  0.00  0.00     0.000 A 
ENDROOT
TORSDOF 0
ENDMDL
