MODEL 1
REMARK minimizedAffinity -0.300945789
REMARK minimizedRMSD -1
REMARK  0 active torsions:
REMARK  status: ('A' for Active; 'I' for Inactive)
ROOT
ATOM      1  C1  BNZ d   1       3.837  -5.174  -0.761  0.00  0.00     0.000 A 
ATOM      2  C2  BNZ d   1       3.848  -4.501   0.432  0.00  0.00     0.000 A 
ATOM      3  C3  BNZ d   1       4.939  -4.552   1.254  0.00  0.00     0.000 A 
ATOM      4  C4  BNZ d   1       5.999  -5.307   0.903  0.00  0.00     0.000 A 
ATOM      5  C5  BNZ d   1       5.999  -6.000  -0.292  0.00  0.00     0.000 A 
ATOM      6  C6  BNZ d   1       4.916  -5.915  -1.135  0.00  0.00     0.000 A 
ENDROOT
TORSDOF 0
ENDMDL
