MODEL 1
REMARK minimizedAffinity -2.91055655
REMARK minimizedRMSD -1
REMARK  0 active torsions:
REMARK  status: ('A' for Active; 'I' for Inactive)
ROOT
ATOM      1  C1  BNZ d   1       2.988  -1.939   3.475  0.00  0.00     0.000 A 
ATOM      2  C2  BNZ d   1       2.190  -1.630   2.406  0.00  0.00     0.000 A 
ATOM      3  C3  BNZ d   1       2.454  -2.139   1.165  0.00  0.00     0.000 A 
ATOM      4  C4  BNZ d   1       3.537  -2.923   0.986  0.00  0.00     0.000 A 
ATOM      5  C5  BNZ d   1       4.357  -3.236   2.052  0.00  0.00     0.000 A 
ATOM      6  C6  BNZ d   1       4.066  -2.754   3.307  0.00  0.00     0.000 A 
ENDROOT
TORSDOF 0
ENDMDL
