MODEL 1
REMARK minimizedAffinity 0.69164741
REMARK minimizedRMSD -1
REMARK  0 active torsions:
REMARK  status: ('A' for Active; 'I' for Inactive)
ROOT
ATOM      1  C1  BNZ d   1       4.896   2.615   1.269  0.00  0.00     0.000 A 
ATOM      2  C2  BNZ d   1       5.985   3.402   1.536  0.00  0.00     0.000 A 
ATOM      3  C3  BNZ d   1       5.997   4.723   1.186  0.00  0.00     0.000 A 
ATOM      4  C4  BNZ d   1       4.938   5.245   0.534  0.00  0.00     0.000 A 
ATOM      5  C5  BNZ d   1       3.837   4.463   0.249  0.00  0.00     0.000 A 
ATOM      6  C6  BNZ d   1       3.813   3.144   0.638  0.00  0.00     0.000 A 
ENDROOT
TORSDOF 0
ENDMDL
