MODEL 1
REMARK minimizedAffinity -3.75040793
REMARK minimizedRMSD -1
REMARK  0 active torsions:
REMARK  status: ('A' for Active; 'I' for Inactive)
ROOT
ATOM      1  C1  BNZ d   1       3.852  -3.966   3.275  0.00  0.00     0.000 A 
ATOM      2  C2  BNZ d   1       3.409  -2.728   3.655  0.00  0.00     0.000 A 
ATOM      3  C3  BNZ d   1       2.376  -2.122   2.996  0.00  0.00     0.000 A 
ATOM      4  C4  BNZ d   1       1.815  -2.737   1.934  0.00  0.00     0.000 A 
ATOM      5  C5  BNZ d   1       2.258  -3.982   1.534  0.00  0.00     0.000 A 
ATOM      6  C6  BNZ d   1       3.272  -4.606   2.224  0.00  0.00     0.000 A 
ENDROOT
TORSDOF 0
ENDMDL
