MODEL 1
REMARK minimizedAffinity -4.46613693
REMARK minimizedRMSD -1
REMARK  0 active torsions:
REMARK  status: ('A' for Active; 'I' for Inactive)
ROOT
ATOM      1  C1  BNZ d   1       3.859   0.844  -5.470  0.00  0.00     0.000 A 
ATOM      2  C2  BNZ d   1       3.503   2.056  -5.998  0.00  0.00     0.000 A 
ATOM      3  C3  BNZ d   1       4.335   3.136  -5.895  0.00  0.00     0.000 A 
ATOM      4  C4  BNZ d   1       5.502   3.012  -5.231  0.00  0.00     0.000 A 
ATOM      5  C5  BNZ d   1       5.870   1.799  -4.684  0.00  0.00     0.000 A 
ATOM      6  C6  BNZ d   1       5.048   0.705  -4.823  0.00  0.00     0.000 A 
ENDROOT
TORSDOF 0
ENDMDL
