MODEL 1
REMARK minimizedAffinity -2.76958466
REMARK minimizedRMSD -1
REMARK  0 active torsions:
REMARK  status: ('A' for Active; 'I' for Inactive)
ROOT
ATOM      1  C1  BNZ d   1      -4.678   0.443  -5.240  0.00  0.00     0.000 A 
ATOM      2  C2  BNZ d   1      -3.542   0.525  -5.999  0.00  0.00     0.000 A 
ATOM      3  C3  BNZ d   1      -2.442  -0.230  -5.699  0.00  0.00     0.000 A 
ATOM      4  C4  BNZ d   1      -2.467  -1.035  -4.617  0.00  0.00     0.000 A 
ATOM      5  C5  BNZ d   1      -3.601  -1.122  -3.836  0.00  0.00     0.000 A 
ATOM      6  C6  BNZ d   1      -4.719  -0.390  -4.164  0.00  0.00     0.000 A 
ENDROOT
TORSDOF 0
ENDMDL
