MODEL 1
REMARK minimizedAffinity 3.41133499
REMARK minimizedRMSD -1
REMARK  0 active torsions:
REMARK  status: ('A' for Active; 'I' for Inactive)
ROOT
ATOM      1  C1  BNZ d   1       3.578   3.822  -5.998  0.00  0.00     0.000 A 
ATOM      2  C2  BNZ d   1       3.563   5.191  -5.992  0.00  0.00     0.000 A 
ATOM      3  C3  BNZ d   1       4.729   5.904  -5.998  0.00  0.00     0.000 A 
ATOM      4  C4  BNZ d   1       5.907   5.248  -5.969  0.00  0.00     0.000 A 
ATOM      5  C5  BNZ d   1       5.939   3.868  -5.965  0.00  0.00     0.000 A 
ATOM      6  C6  BNZ d   1       4.763   3.153  -5.999  0.00  0.00     0.000 A 
ENDROOT
TORSDOF 0
ENDMDL
