MODEL 1
REMARK minimizedAffinity 9.15085983
REMARK minimizedRMSD -1
REMARK  0 active torsions:
REMARK  status: ('A' for Active; 'I' for Inactive)
ROOT
ATOM      1  C4' PXY d   1      -5.913  -1.911  -5.947  0.00  0.00     0.077 C 
ATOM      2  C1' PXY d   1      -0.239  -3.016  -5.979  0.00  0.00     0.077 C 
ATOM      3  C1  PXY d   1      -1.729  -2.738  -5.976  0.00  0.00    -0.082 A 
ATOM      4  C2  PXY d   1      -2.161  -1.487  -5.952  0.00  0.00     0.003 A 
ATOM      5  C3  PXY d   1      -3.505  -1.218  -5.917  0.00  0.00     0.003 A 
ATOM      6  C4  PXY d   1      -4.417  -2.239  -5.960  0.00  0.00    -0.082 A 
ATOM      7  C5  PXY d   1      -3.984  -3.517  -5.995  0.00  0.00     0.003 A 
ATOM      8  C6  PXY d   1      -2.615  -3.770  -5.989  0.00  0.00     0.003 A 
ENDROOT
TORSDOF 0
ENDMDL
