MODEL 1
REMARK minimizedAffinity 20.1397438
REMARK minimizedRMSD -1
REMARK  0 active torsions:
REMARK  status: ('A' for Active; 'I' for Inactive)
ROOT
ATOM      1  C4' PXY d   1       4.851   4.574  -4.591  0.00  0.00     0.077 C 
ATOM      2  C1' PXY d   1       1.383   1.680  -0.984  0.00  0.00     0.077 C 
ATOM      3  C1  PXY d   1       2.282   2.446  -1.934  0.00  0.00    -0.082 A 
ATOM      4  C2  PXY d   1       3.413   1.899  -2.348  0.00  0.00     0.003 A 
ATOM      5  C3  PXY d   1       4.254   2.590  -3.182  0.00  0.00     0.003 A 
ATOM      6  C4  PXY d   1       3.907   3.833  -3.639  0.00  0.00    -0.082 A 
ATOM      7  C5  PXY d   1       2.749   4.394  -3.230  0.00  0.00     0.003 A 
ATOM      8  C6  PXY d   1       1.930   3.692  -2.351  0.00  0.00     0.003 A 
ENDROOT
TORSDOF 0
ENDMDL
