MODEL 1
REMARK minimizedAffinity 10.7505646
REMARK minimizedRMSD -1
REMARK  0 active torsions:
REMARK  status: ('A' for Active; 'I' for Inactive)
ROOT
ATOM      1  C4' PXY d   1      -6.000   1.351   2.845  0.00  0.00     0.077 C 
ATOM      2  C1' PXY d   1      -0.682   0.189   0.898  0.00  0.00     0.077 C 
ATOM      3  C1  PXY d   1      -2.080   0.497   1.397  0.00  0.00    -0.082 A 
ATOM      4  C2  PXY d   1      -2.269   0.794   2.672  0.00  0.00     0.003 A 
ATOM      5  C3  PXY d   1      -3.531   1.044   3.147  0.00  0.00     0.003 A 
ATOM      6  C4  PXY d   1      -4.604   1.042   2.296  0.00  0.00    -0.082 A 
ATOM      7  C5  PXY d   1      -4.418   0.751   0.991  0.00  0.00     0.003 A 
ATOM      8  C6  PXY d   1      -3.135   0.459   0.538  0.00  0.00     0.003 A 
ENDROOT
TORSDOF 0
ENDMDL
