MODEL 1
REMARK minimizedAffinity -0.767024696
REMARK minimizedRMSD -1
REMARK  0 active torsions:
REMARK  status: ('A' for Active; 'I' for Inactive)
ROOT
ATOM      1  C4' PXY d   1       1.448   0.171   2.961  0.00  0.00     0.077 C 
ATOM      2  C1' PXY d   1      -3.948   1.074   1.092  0.00  0.00     0.077 C 
ATOM      3  C1  PXY d   1      -2.531   0.828   1.574  0.00  0.00    -0.082 A 
ATOM      4  C2  PXY d   1      -2.177   1.212   2.789  0.00  0.00     0.003 A 
ATOM      5  C3  PXY d   1      -0.892   1.025   3.229  0.00  0.00     0.003 A 
ATOM      6  C4  PXY d   1       0.026   0.391   2.436  0.00  0.00    -0.082 A 
ATOM      7  C5  PXY d   1      -0.330  -0.014   1.199  0.00  0.00     0.003 A 
ATOM      8  C6  PXY d   1      -1.628   0.222   0.756  0.00  0.00     0.003 A 
ENDROOT
TORSDOF 0
ENDMDL
