MODEL 1
REMARK minimizedAffinity 12.0270262
REMARK minimizedRMSD -1
REMARK  0 active torsions:
REMARK  status: ('A' for Active; 'I' for Inactive)
ROOT
ATOM      1  C4' PXY d   1       5.999  -4.126   5.999  0.00  0.00     0.077 C 
ATOM      2  C1' PXY d   1       5.452   0.117   2.112  0.00  0.00     0.077 C 
ATOM      3  C1  PXY d   1       5.590  -1.004   3.123  0.00  0.00    -0.082 A 
ATOM      4  C2  PXY d   1       5.697  -0.715   4.409  0.00  0.00     0.003 A 
ATOM      5  C3  PXY d   1       5.854  -1.715   5.334  0.00  0.00     0.003 A 
ATOM      6  C4  PXY d   1       5.848  -3.027   4.944  0.00  0.00    -0.082 A 
ATOM      7  C5  PXY d   1       5.728  -3.331   3.634  0.00  0.00     0.003 A 
ATOM      8  C6  PXY d   1       5.611  -2.299   2.707  0.00  0.00     0.003 A 
ENDROOT
TORSDOF 0
ENDMDL
