MODEL 1
REMARK minimizedAffinity 6.63547802
REMARK minimizedRMSD -1
REMARK  0 active torsions:
REMARK  status: ('A' for Active; 'I' for Inactive)
ROOT
ATOM      1  C4' PXY d   1      -0.331   1.308   3.279  0.00  0.00     0.077 C 
ATOM      2  C1' PXY d   1      -5.951   0.591   2.131  0.00  0.00     0.077 C 
ATOM      3  C1  PXY d   1      -4.475   0.784   2.420  0.00  0.00    -0.082 A 
ATOM      4  C2  PXY d   1      -3.881   0.024   3.327  0.00  0.00     0.003 A 
ATOM      5  C3  PXY d   1      -2.555   0.207   3.623  0.00  0.00     0.003 A 
ATOM      6  C4  PXY d   1      -1.816   1.141   2.948  0.00  0.00    -0.082 A 
ATOM      7  C5  PXY d   1      -2.412   1.913   2.014  0.00  0.00     0.003 A 
ATOM      8  C6  PXY d   1      -3.769   1.739   1.757  0.00  0.00     0.003 A 
ENDROOT
TORSDOF 0
ENDMDL
