MODEL 1
REMARK minimizedAffinity 8.98731327
REMARK minimizedRMSD -1
REMARK  0 active torsions:
REMARK  status: ('A' for Active; 'I' for Inactive)
ROOT
ATOM      1  C4' PXY d   1      -4.644  -4.330  -6.000  0.00  0.00     0.077 C 
ATOM      2  C1' PXY d   1      -0.766  -0.043  -5.961  0.00  0.00     0.077 C 
ATOM      3  C1  PXY d   1      -1.792  -1.159  -5.966  0.00  0.00    -0.082 A 
ATOM      4  C2  PXY d   1      -1.388  -2.419  -5.962  0.00  0.00     0.003 A 
ATOM      5  C3  PXY d   1      -2.302  -3.441  -5.999  0.00  0.00     0.003 A 
ATOM      6  C4  PXY d   1      -3.644  -3.171  -5.986  0.00  0.00    -0.082 A 
ATOM      7  C5  PXY d   1      -4.064  -1.888  -5.979  0.00  0.00     0.003 A 
ATOM      8  C6  PXY d   1      -3.120  -0.865  -5.983  0.00  0.00     0.003 A 
ENDROOT
TORSDOF 0
ENDMDL
