MODEL 1
REMARK minimizedAffinity 1.01499021
REMARK minimizedRMSD -1
REMARK  0 active torsions:
REMARK  status: ('A' for Active; 'I' for Inactive)
ROOT
ATOM      1  C4' PXY d   1      -0.780  -4.109   0.759  0.00  0.00     0.077 C 
ATOM      2  C1' PXY d   1      -3.992   0.692   0.974  0.00  0.00     0.077 C 
ATOM      3  C1  PXY d   1      -3.161  -0.575   0.920  0.00  0.00    -0.082 A 
ATOM      4  C2  PXY d   1      -1.863  -0.516   1.170  0.00  0.00     0.003 A 
ATOM      5  C3  PXY d   1      -1.090  -1.646   1.094  0.00  0.00     0.003 A 
ATOM      6  C4  PXY d   1      -1.660  -2.858   0.811  0.00  0.00    -0.082 A 
ATOM      7  C5  PXY d   1      -2.986  -2.928   0.565  0.00  0.00     0.003 A 
ATOM      8  C6  PXY d   1      -3.746  -1.763   0.607  0.00  0.00     0.003 A 
ENDROOT
TORSDOF 0
ENDMDL
