MODEL 1
REMARK minimizedAffinity -0.636502624
REMARK minimizedRMSD -1
REMARK  0 active torsions:
REMARK  status: ('A' for Active; 'I' for Inactive)
ROOT
ATOM      1  C4' PXY d   1      -5.352   1.229   1.000  0.00  0.00     0.077 C 
ATOM      2  C1' PXY d   1       0.016   0.956   3.127  0.00  0.00     0.077 C 
ATOM      3  C1  PXY d   1      -1.387   1.026   2.557  0.00  0.00    -0.082 A 
ATOM      4  C2  PXY d   1      -2.338   1.649   3.234  0.00  0.00     0.003 A 
ATOM      5  C3  PXY d   1      -3.619   1.694   2.749  0.00  0.00     0.003 A 
ATOM      6  C4  PXY d   1      -3.919   1.142   1.533  0.00  0.00    -0.082 A 
ATOM      7  C5  PXY d   1      -2.952   0.513   0.830  0.00  0.00     0.003 A 
ATOM      8  C6  PXY d   1      -1.667   0.443   1.360  0.00  0.00     0.003 A 
ENDROOT
TORSDOF 0
ENDMDL
