MODEL 1
REMARK minimizedAffinity 7.67251158
REMARK minimizedRMSD -1
REMARK  0 active torsions:
REMARK  status: ('A' for Active; 'I' for Inactive)
ROOT
ATOM      1  C4' PXY d   1      -4.471   0.390   0.584  0.00  0.00     0.077 C 
ATOM      2  C1' PXY d   1       0.384   1.500   3.520  0.00  0.00     0.077 C 
ATOM      3  C1  PXY d   1      -0.897   1.212   2.760  0.00  0.00    -0.082 A 
ATOM      4  C2  PXY d   1      -0.874   0.381   1.731  0.00  0.00     0.003 A 
ATOM      5  C3  PXY d   1      -2.016   0.134   1.014  0.00  0.00     0.003 A 
ATOM      6  C4  PXY d   1      -3.204   0.703   1.385  0.00  0.00    -0.082 A 
ATOM      7  C5  PXY d   1      -3.238   1.544   2.441  0.00  0.00     0.003 A 
ATOM      8  C6  PXY d   1      -2.059   1.814   3.131  0.00  0.00     0.003 A 
ENDROOT
TORSDOF 0
ENDMDL
