MODEL 1
REMARK minimizedAffinity 4.25397635
REMARK minimizedRMSD -1
REMARK  0 active torsions:
REMARK  status: ('A' for Active; 'I' for Inactive)
ROOT
ATOM      1  C4' PXY d   1      -4.485  -2.247  -0.249  0.00  0.00     0.077 C 
ATOM      2  C1' PXY d   1      -2.026   1.963   2.856  0.00  0.00     0.077 C 
ATOM      3  C1  PXY d   1      -2.682   0.861   2.048  0.00  0.00    -0.082 A 
ATOM      4  C2  PXY d   1      -1.943  -0.124   1.564  0.00  0.00     0.003 A 
ATOM      5  C3  PXY d   1      -2.516  -1.111   0.803  0.00  0.00     0.003 A 
ATOM      6  C4  PXY d   1      -3.866  -1.119   0.581  0.00  0.00    -0.082 A 
ATOM      7  C5  PXY d   1      -4.629  -0.123   1.080  0.00  0.00     0.003 A 
ATOM      8  C6  PXY d   1      -4.022   0.892   1.815  0.00  0.00     0.003 A 
ENDROOT
TORSDOF 0
ENDMDL
