MODEL 1
REMARK minimizedAffinity 14.0038157
REMARK minimizedRMSD -1
REMARK  0 active torsions:
REMARK  status: ('A' for Active; 'I' for Inactive)
ROOT
ATOM      1  C4' PXY d   1       6.000   0.376   1.506  0.00  0.00     0.077 C 
ATOM      2  C1' PXY d   1       0.562   0.514   3.462  0.00  0.00     0.077 C 
ATOM      3  C1  PXY d   1       1.992   0.473   2.961  0.00  0.00    -0.082 A 
ATOM      4  C2  PXY d   1       2.344   1.221   1.927  0.00  0.00     0.003 A 
ATOM      5  C3  PXY d   1       3.626   1.173   1.441  0.00  0.00     0.003 A 
ATOM      6  C4  PXY d   1       4.570   0.392   2.052  0.00  0.00    -0.082 A 
ATOM      7  C5  PXY d   1       4.221  -0.366   3.113  0.00  0.00     0.003 A 
ATOM      8  C6  PXY d   1       2.905  -0.334   3.566  0.00  0.00     0.003 A 
ENDROOT
TORSDOF 0
ENDMDL
