MODEL 1
REMARK minimizedAffinity 10.2124271
REMARK minimizedRMSD -1
REMARK  0 active torsions:
REMARK  status: ('A' for Active; 'I' for Inactive)
ROOT
ATOM      1  C4' PXY d   1      -5.826   0.889   4.003  0.00  0.00     0.077 C 
ATOM      2  C1' PXY d   1      -1.080   0.060   0.808  0.00  0.00     0.077 C 
ATOM      3  C1  PXY d   1      -2.321   0.269   1.655  0.00  0.00    -0.082 A 
ATOM      4  C2  PXY d   1      -3.434   0.703   1.088  0.00  0.00     0.003 A 
ATOM      5  C3  PXY d   1      -4.556   0.928   1.844  0.00  0.00     0.003 A 
ATOM      6  C4  PXY d   1      -4.553   0.655   3.186  0.00  0.00    -0.082 A 
ATOM      7  C5  PXY d   1      -3.423   0.202   3.770  0.00  0.00     0.003 A 
ATOM      8  C6  PXY d   1      -2.284   0.019   2.992  0.00  0.00     0.003 A 
ENDROOT
TORSDOF 0
ENDMDL
