MODEL 1
REMARK minimizedAffinity -0.843274117
REMARK minimizedRMSD -1
REMARK  0 active torsions:
REMARK  status: ('A' for Active; 'I' for Inactive)
ROOT
ATOM      1  C4' PXY d   1      -5.995   2.952   5.278  0.00  0.00     0.077 C 
ATOM      2  C1' PXY d   1      -3.384   0.228   0.899  0.00  0.00     0.077 C 
ATOM      3  C1  PXY d   1      -4.072   0.952   2.040  0.00  0.00    -0.082 A 
ATOM      4  C2  PXY d   1      -3.738   0.671   3.289  0.00  0.00     0.003 A 
ATOM      5  C3  PXY d   1      -4.372   1.294   4.333  0.00  0.00     0.003 A 
ATOM      6  C4  PXY d   1      -5.320   2.252   4.095  0.00  0.00    -0.082 A 
ATOM      7  C5  PXY d   1      -5.659   2.552   2.823  0.00  0.00     0.003 A 
ATOM      8  C6  PXY d   1      -5.032   1.879   1.778  0.00  0.00     0.003 A 
ENDROOT
TORSDOF 0
ENDMDL
