MODEL 1
REMARK minimizedAffinity 4.20998764
REMARK minimizedRMSD -1
REMARK  0 active torsions:
REMARK  status: ('A' for Active; 'I' for Inactive)
ROOT
ATOM      1  C4' PXY d   1      -6.000  -3.326   4.126  0.00  0.00     0.077 C 
ATOM      2  C1' PXY d   1      -4.188   1.301   1.173  0.00  0.00     0.077 C 
ATOM      3  C1  PXY d   1      -4.669   0.082   1.936  0.00  0.00    -0.082 A 
ATOM      4  C2  PXY d   1      -4.854   0.161   3.244  0.00  0.00     0.003 A 
ATOM      5  C3  PXY d   1      -5.257  -0.940   3.955  0.00  0.00     0.003 A 
ATOM      6  C4  PXY d   1      -5.525  -2.119   3.313  0.00  0.00    -0.082 A 
ATOM      7  C5  PXY d   1      -5.349  -2.205   1.977  0.00  0.00     0.003 A 
ATOM      8  C6  PXY d   1      -4.899  -1.087   1.280  0.00  0.00     0.003 A 
ENDROOT
TORSDOF 0
ENDMDL
