MODEL 1
REMARK minimizedAffinity 7.46976471
REMARK minimizedRMSD -1
REMARK  0 active torsions:
REMARK  status: ('A' for Active; 'I' for Inactive)
ROOT
ATOM      1  C4' PXY d   1      -4.166  -0.616   0.676  0.00  0.00     0.077 C 
ATOM      2  C1' PXY d   1       0.463   1.192   3.628  0.00  0.00     0.077 C 
ATOM      3  C1  PXY d   1      -0.758   0.718   2.865  0.00  0.00    -0.082 A 
ATOM      4  C2  PXY d   1      -0.605   0.099   1.705  0.00  0.00     0.003 A 
ATOM      5  C3  PXY d   1      -1.699  -0.308   0.987  0.00  0.00     0.003 A 
ATOM      6  C4  PXY d   1      -2.962  -0.128   1.486  0.00  0.00    -0.082 A 
ATOM      7  C5  PXY d   1      -3.126   0.493   2.673  0.00  0.00     0.003 A 
ATOM      8  C6  PXY d   1      -2.003   0.935   3.368  0.00  0.00     0.003 A 
ENDROOT
TORSDOF 0
ENDMDL
