MODEL 1
REMARK minimizedAffinity 3.71146321
REMARK minimizedRMSD -1
REMARK  0 active torsions:
REMARK  status: ('A' for Active; 'I' for Inactive)
ROOT
ATOM      1  C4' PXY d   1       0.662   2.180   3.173  0.00  0.00     0.077 C 
ATOM      2  C1' PXY d   1      -4.098  -0.370   1.109  0.00  0.00     0.077 C 
ATOM      3  C1  PXY d   1      -2.846   0.288   1.655  0.00  0.00    -0.082 A 
ATOM      4  C2  PXY d   1      -2.833   1.593   1.870  0.00  0.00     0.003 A 
ATOM      5  C3  PXY d   1      -1.699   2.209   2.334  0.00  0.00     0.003 A 
ATOM      6  C4  PXY d   1      -0.583   1.473   2.631  0.00  0.00    -0.082 A 
ATOM      7  C5  PXY d   1      -0.592   0.139   2.425  0.00  0.00     0.003 A 
ATOM      8  C6  PXY d   1      -1.740  -0.461   1.915  0.00  0.00     0.003 A 
ENDROOT
TORSDOF 0
ENDMDL
