MODEL 1
REMARK minimizedAffinity 8.19047737
REMARK minimizedRMSD -1
REMARK  0 active torsions:
REMARK  status: ('A' for Active; 'I' for Inactive)
ROOT
ATOM      1  C4' PXY d   1       0.918   1.489   3.536  0.00  0.00     0.077 C 
ATOM      2  C1' PXY d   1      -4.120   0.221   1.001  0.00  0.00     0.077 C 
ATOM      3  C1  PXY d   1      -2.793   0.543   1.661  0.00  0.00    -0.082 A 
ATOM      4  C2  PXY d   1      -2.771   1.283   2.757  0.00  0.00     0.003 A 
ATOM      5  C3  PXY d   1      -1.577   1.610   3.349  0.00  0.00     0.003 A 
ATOM      6  C4  PXY d   1      -0.399   1.131   2.842  0.00  0.00    -0.082 A 
ATOM      7  C5  PXY d   1      -0.415   0.367   1.729  0.00  0.00     0.003 A 
ATOM      8  C6  PXY d   1      -1.633   0.080   1.121  0.00  0.00     0.003 A 
ENDROOT
TORSDOF 0
ENDMDL
