MODEL 1
REMARK minimizedAffinity 3.53887439
REMARK minimizedRMSD -1
REMARK  0 active torsions:
REMARK  status: ('A' for Active; 'I' for Inactive)
ROOT
ATOM      1  C4' PXY d   1      -4.079  -2.216   0.128  0.00  0.00     0.077 C 
ATOM      2  C1' PXY d   1      -2.152   2.503   2.853  0.00  0.00     0.077 C 
ATOM      3  C1  PXY d   1      -2.669   1.269   2.142  0.00  0.00    -0.082 A 
ATOM      4  C2  PXY d   1      -1.849   0.257   1.907  0.00  0.00     0.003 A 
ATOM      5  C3  PXY d   1      -2.292  -0.854   1.238  0.00  0.00     0.003 A 
ATOM      6  C4  PXY d   1      -3.602  -0.953   0.851  0.00  0.00    -0.082 A 
ATOM      7  C5  PXY d   1      -4.448   0.070   1.097  0.00  0.00     0.003 A 
ATOM      8  C6  PXY d   1      -3.968   1.206   1.741  0.00  0.00     0.003 A 
ENDROOT
TORSDOF 0
ENDMDL
