MODEL 1
REMARK minimizedAffinity -0.855589509
REMARK minimizedRMSD -1
REMARK  0 active torsions:
REMARK  status: ('A' for Active; 'I' for Inactive)
ROOT
ATOM      1  C   UNL d   1      -4.937   5.938  -4.843  0.00  0.00    -0.002 A 
ATOM      2  C1  UNL d   1      -4.029   5.779  -5.880  0.00  0.00     0.010 A 
ATOM      3  C2  UNL d   1      -2.661   5.681  -5.617  0.00  0.00     0.041 A 
ATOM      4  C3  UNL d   1      -2.217   5.744  -4.281  0.00  0.00    -0.075 A 
ATOM      5  S   UNL d   1      -0.590   5.646  -3.721  0.00  0.00     0.015 SA
ATOM      6  C4  UNL d   1      -1.062   5.811  -2.092  0.00  0.00     0.022 A 
ATOM      7  C5  UNL d   1      -2.425   5.939  -1.960  0.00  0.00     0.026 A 
ATOM      8  C6  UNL d   1      -3.113   5.903  -3.220  0.00  0.00    -0.082 A 
ATOM      9  C7  UNL d   1      -4.493   6.000  -3.519  0.00  0.00     0.045 A 
ENDROOT
TORSDOF 0
ENDMDL
