MODEL 1
REMARK minimizedAffinity 13.3483877
REMARK minimizedRMSD -1
REMARK  0 active torsions:
REMARK  status: ('A' for Active; 'I' for Inactive)
ROOT
ATOM      1  C   UNL d   1      -4.903  -0.296   5.235  0.00  0.00    -0.002 A 
ATOM      2  C1  UNL d   1      -3.813   0.471   5.623  0.00  0.00     0.010 A 
ATOM      3  C2  UNL d   1      -2.687   0.570   4.804  0.00  0.00     0.041 A 
ATOM      4  C3  UNL d   1      -2.675  -0.120   3.575  0.00  0.00    -0.075 A 
ATOM      5  S   UNL d   1      -1.404  -0.145   2.410  0.00  0.00     0.015 SA
ATOM      6  C4  UNL d   1      -2.279  -1.173   1.369  0.00  0.00     0.022 A 
ATOM      7  C5  UNL d   1      -3.511  -1.500   1.883  0.00  0.00     0.026 A 
ATOM      8  C6  UNL d   1      -3.760  -0.898   3.163  0.00  0.00    -0.082 A 
ATOM      9  C7  UNL d   1      -4.887  -0.979   4.016  0.00  0.00     0.045 A 
ENDROOT
TORSDOF 0
ENDMDL
