MODEL 1
REMARK minimizedAffinity 17.8021793
REMARK minimizedRMSD -1
REMARK  0 active torsions:
REMARK  status: ('A' for Active; 'I' for Inactive)
ROOT
ATOM      1  C   UNL d   1       0.671  -4.522  -3.971  0.00  0.00    -0.002 A 
ATOM      2  C1  UNL d   1      -0.054  -3.543  -3.307  0.00  0.00     0.010 A 
ATOM      3  C2  UNL d   1      -1.423  -3.395  -3.533  0.00  0.00     0.041 A 
ATOM      4  C3  UNL d   1      -2.060  -4.258  -4.447  0.00  0.00    -0.075 A 
ATOM      5  S   UNL d   1      -3.728  -4.264  -4.882  0.00  0.00     0.015 SA
ATOM      6  C4  UNL d   1      -3.519  -5.568  -5.960  0.00  0.00     0.022 A 
ATOM      7  C5  UNL d   1      -2.214  -6.000  -6.000  0.00  0.00     0.026 A 
ATOM      8  C6  UNL d   1      -1.352  -5.253  -5.128  0.00  0.00    -0.082 A 
ATOM      9  C7  UNL d   1       0.036  -5.377  -4.877  0.00  0.00     0.045 A 
ENDROOT
TORSDOF 0
ENDMDL
