MODEL 1
REMARK minimizedAffinity 17.7618179
REMARK minimizedRMSD -1
REMARK  0 active torsions:
REMARK  status: ('A' for Active; 'I' for Inactive)
ROOT
ATOM      1  C   UNL d   1       5.067   3.071  -5.328  0.00  0.00    -0.002 A 
ATOM      2  C1  UNL d   1       3.703   2.910  -5.132  0.00  0.00     0.010 A 
ATOM      3  C2  UNL d   1       3.049   3.585  -4.100  0.00  0.00     0.041 A 
ATOM      4  C3  UNL d   1       3.796   4.436  -3.261  0.00  0.00    -0.075 A 
ATOM      5  S   UNL d   1       3.208   5.365  -1.934  0.00  0.00     0.015 SA
ATOM      6  C4  UNL d   1       4.753   5.999  -1.596  0.00  0.00     0.022 A 
ATOM      7  C5  UNL d   1       5.707   5.524  -2.465  0.00  0.00     0.026 A 
ATOM      8  C6  UNL d   1       5.171   4.615  -3.439  0.00  0.00    -0.082 A 
ATOM      9  C7  UNL d   1       5.805   3.915  -4.494  0.00  0.00     0.045 A 
ENDROOT
TORSDOF 0
ENDMDL
