MODEL 1
REMARK minimizedAffinity 14.495738
REMARK minimizedRMSD -1
REMARK  0 active torsions:
REMARK  status: ('A' for Active; 'I' for Inactive)
ROOT
ATOM      1  C   UNL d   1       2.368   2.871  -3.022  0.00  0.00    -0.002 A 
ATOM      2  C1  UNL d   1       2.879   2.571  -4.277  0.00  0.00     0.010 A 
ATOM      3  C2  UNL d   1       4.004   3.241  -4.764  0.00  0.00     0.041 A 
ATOM      4  C3  UNL d   1       4.613   4.224  -3.960  0.00  0.00    -0.075 A 
ATOM      5  S   UNL d   1       6.000   5.172  -4.348  0.00  0.00     0.015 SA
ATOM      6  C4  UNL d   1       5.947   5.996  -2.858  0.00  0.00     0.022 A 
ATOM      7  C5  UNL d   1       4.903   5.571  -2.070  0.00  0.00     0.026 A 
ATOM      8  C6  UNL d   1       4.117   4.543  -2.692  0.00  0.00    -0.082 A 
ATOM      9  C7  UNL d   1       2.975   3.847  -2.227  0.00  0.00     0.045 A 
ENDROOT
TORSDOF 0
ENDMDL
