MODEL 1
REMARK minimizedAffinity 8.73736477
REMARK minimizedRMSD -1
REMARK  0 active torsions:
REMARK  status: ('A' for Active; 'I' for Inactive)
ROOT
ATOM      1  C   UNL d   1      -1.716   5.942  -1.489  0.00  0.00    -0.002 A 
ATOM      2  C1  UNL d   1      -0.520   5.923  -2.194  0.00  0.00     0.010 A 
ATOM      3  C2  UNL d   1      -0.518   5.928  -3.590  0.00  0.00     0.041 A 
ATOM      4  C3  UNL d   1      -1.750   5.955  -4.273  0.00  0.00    -0.075 A 
ATOM      5  S   UNL d   1      -1.992   5.966  -5.980  0.00  0.00     0.015 SA
ATOM      6  C4  UNL d   1      -3.688   5.998  -5.815  0.00  0.00     0.022 A 
ATOM      7  C5  UNL d   1      -4.077   6.000  -4.497  0.00  0.00     0.026 A 
ATOM      8  C6  UNL d   1      -2.967   5.975  -3.586  0.00  0.00    -0.082 A 
ATOM      9  C7  UNL d   1      -2.936   5.968  -2.171  0.00  0.00     0.045 A 
ENDROOT
TORSDOF 0
ENDMDL
