MODEL 1
REMARK minimizedAffinity 9.51474762
REMARK minimizedRMSD -1
REMARK  0 active torsions:
REMARK  status: ('A' for Active; 'I' for Inactive)
ROOT
ATOM      1  C   UNL d   1      -3.905   5.679  -1.511  0.00  0.00    -0.002 A 
ATOM      2  C1  UNL d   1      -5.132   5.888  -2.124  0.00  0.00     0.010 A 
ATOM      3  C2  UNL d   1      -5.223   6.000  -3.513  0.00  0.00     0.041 A 
ATOM      4  C3  UNL d   1      -4.048   5.894  -4.283  0.00  0.00    -0.075 A 
ATOM      5  S   UNL d   1      -3.917   5.998  -5.999  0.00  0.00     0.015 SA
ATOM      6  C4  UNL d   1      -2.229   5.766  -5.959  0.00  0.00     0.022 A 
ATOM      7  C5  UNL d   1      -1.760   5.612  -4.676  0.00  0.00     0.026 A 
ATOM      8  C6  UNL d   1      -2.800   5.683  -3.689  0.00  0.00    -0.082 A 
ATOM      9  C7  UNL d   1      -2.742   5.575  -2.278  0.00  0.00     0.045 A 
ENDROOT
TORSDOF 0
ENDMDL
