MODEL 1
REMARK minimizedAffinity 16.8626938
REMARK minimizedRMSD -1
REMARK  0 active torsions:
REMARK  status: ('A' for Active; 'I' for Inactive)
ROOT
ATOM      1  C   UNL d   1      -1.899  -0.553   1.906  0.00  0.00    -0.002 A 
ATOM      2  C1  UNL d   1      -2.070   0.333   2.960  0.00  0.00     0.010 A 
ATOM      3  C2  UNL d   1      -3.096   1.280   2.932  0.00  0.00     0.041 A 
ATOM      4  C3  UNL d   1      -3.956   1.320   1.818  0.00  0.00    -0.075 A 
ATOM      5  S   UNL d   1      -5.282   2.393   1.567  0.00  0.00     0.015 SA
ATOM      6  C4  UNL d   1      -5.654   1.700   0.055  0.00  0.00     0.022 A 
ATOM      7  C5  UNL d   1      -4.797   0.673  -0.266  0.00  0.00     0.026 A 
ATOM      8  C6  UNL d   1      -3.805   0.437   0.745  0.00  0.00    -0.082 A 
ATOM      9  C7  UNL d   1      -2.755  -0.510   0.802  0.00  0.00     0.045 A 
ENDROOT
TORSDOF 0
ENDMDL
