MODEL 1
REMARK minimizedAffinity 16.1279716
REMARK minimizedRMSD -1
REMARK  0 active torsions:
REMARK  status: ('A' for Active; 'I' for Inactive)
ROOT
ATOM      1  C   UNL d   1       5.499   3.888  -5.777  0.00  0.00    -0.002 A 
ATOM      2  C1  UNL d   1       5.999   4.886  -4.954  0.00  0.00     0.010 A 
ATOM      3  C2  UNL d   1       5.293   5.293  -3.820  0.00  0.00     0.041 A 
ATOM      4  C3  UNL d   1       4.064   4.672  -3.524  0.00  0.00    -0.075 A 
ATOM      5  S   UNL d   1       3.025   5.006  -2.189  0.00  0.00     0.015 SA
ATOM      6  C4  UNL d   1       1.893   3.830  -2.679  0.00  0.00     0.022 A 
ATOM      7  C5  UNL d   1       2.282   3.189  -3.832  0.00  0.00     0.026 A 
ATOM      8  C6  UNL d   1       3.539   3.663  -4.337  0.00  0.00    -0.082 A 
ATOM      9  C7  UNL d   1       4.279   3.274  -5.480  0.00  0.00     0.045 A 
ENDROOT
TORSDOF 0
ENDMDL
