MODEL 1
REMARK minimizedAffinity 11.7362709
REMARK minimizedRMSD -1
REMARK  0 active torsions:
REMARK  status: ('A' for Active; 'I' for Inactive)
ROOT
ATOM      1  C   UNL d   1      -0.646  -1.511   2.533  0.00  0.00    -0.002 A 
ATOM      2  C1  UNL d   1      -1.398  -2.106   1.530  0.00  0.00     0.010 A 
ATOM      3  C2  UNL d   1      -2.664  -1.616   1.206  0.00  0.00     0.041 A 
ATOM      4  C3  UNL d   1      -3.167  -0.506   1.912  0.00  0.00    -0.075 A 
ATOM      5  S   UNL d   1      -4.692   0.266   1.687  0.00  0.00     0.015 SA
ATOM      6  C4  UNL d   1      -4.382   1.404   2.917  0.00  0.00     0.022 A 
ATOM      7  C5  UNL d   1      -3.150   1.215   3.496  0.00  0.00     0.026 A 
ATOM      8  C6  UNL d   1      -2.429   0.111   2.926  0.00  0.00    -0.082 A 
ATOM      9  C7  UNL d   1      -1.149  -0.410   3.232  0.00  0.00     0.045 A 
ENDROOT
TORSDOF 0
ENDMDL
