MODEL 1
REMARK minimizedAffinity 9.32605648
REMARK minimizedRMSD -1
REMARK  0 active torsions:
REMARK  status: ('A' for Active; 'I' for Inactive)
ROOT
ATOM      1  C   UNL d   1       2.180   1.362   0.483  0.00  0.00    -0.002 A 
ATOM      2  C1  UNL d   1       3.162   0.906  -0.386  0.00  0.00     0.010 A 
ATOM      3  C2  UNL d   1       3.391   1.553  -1.602  0.00  0.00     0.041 A 
ATOM      4  C3  UNL d   1       2.610   2.679  -1.932  0.00  0.00    -0.075 A 
ATOM      5  S   UNL d   1       2.714   3.631  -3.366  0.00  0.00     0.015 SA
ATOM      6  C4  UNL d   1       1.459   4.666  -2.859  0.00  0.00     0.022 A 
ATOM      7  C5  UNL d   1       0.961   4.308  -1.628  0.00  0.00     0.026 A 
ATOM      8  C6  UNL d   1       1.617   3.158  -1.074  0.00  0.00    -0.082 A 
ATOM      9  C7  UNL d   1       1.408   2.479   0.151  0.00  0.00     0.045 A 
ENDROOT
TORSDOF 0
ENDMDL
