MODEL 1
REMARK minimizedAffinity -3.33976316
REMARK minimizedRMSD -1
REMARK  0 active torsions:
REMARK  status: ('A' for Active; 'I' for Inactive)
ROOT
ATOM      1  C   UNL d   1       3.006   2.029  -0.959  0.00  0.00    -0.002 A 
ATOM      2  C1  UNL d   1       2.556   2.132  -2.268  0.00  0.00     0.010 A 
ATOM      3  C2  UNL d   1       1.495   2.981  -2.589  0.00  0.00     0.041 A 
ATOM      4  C3  UNL d   1       0.889   3.733  -1.564  0.00  0.00    -0.075 A 
ATOM      5  S   UNL d   1      -0.425   4.838  -1.723  0.00  0.00     0.015 SA
ATOM      6  C4  UNL d   1      -0.419   5.200  -0.057  0.00  0.00     0.022 A 
ATOM      7  C5  UNL d   1       0.555   4.504   0.618  0.00  0.00     0.026 A 
ATOM      8  C6  UNL d   1       1.325   3.647  -0.239  0.00  0.00    -0.082 A 
ATOM      9  C7  UNL d   1       2.403   2.777   0.055  0.00  0.00     0.045 A 
ENDROOT
TORSDOF 0
ENDMDL
