MODEL 1
REMARK minimizedAffinity 2.83692837
REMARK minimizedRMSD -1
REMARK  3 active torsions:
REMARK  status: ('A' for Active; 'I' for Inactive)
REMARK    1  A    between atoms: C3'_2  and  C2'_3 
REMARK    2  A    between atoms: C2'_3  and  C1'_4 
REMARK    3  A    between atoms: C1'_4  and  C1_5 
ROOT
ATOM      1  C1  N4B d   1       1.162  -3.058   0.177  0.00  0.00    -0.075 A 
ATOM      2  C2  N4B d   1       2.034  -1.975   0.426  0.00  0.00     0.002 A 
ATOM      3  C3  N4B d   1       1.521  -0.728   0.686  0.00  0.00     0.002 A 
ATOM      4  C4  N4B d   1       0.148  -0.536   0.683  0.00  0.00    -0.004 A 
ATOM      5  C5  N4B d   1      -0.687  -1.593   0.466  0.00  0.00     0.002 A 
ATOM      6  C6  N4B d   1      -0.186  -2.853   0.208  0.00  0.00     0.002 A 
ENDROOT
BRANCH   1   7
ATOM      7  C1' N4B d   1       1.677  -4.421  -0.197  0.00  0.00     0.057 C 
BRANCH   7   8
ATOM      8  C2' N4B d   1       3.193  -4.447  -0.031  0.00  0.00     0.009 C 
BRANCH   8   9
ATOM      9  C3' N4B d   1       3.736  -5.865   0.018  0.00  0.00     0.004 C 
ATOM     10  C4' N4B d   1       5.224  -5.924  -0.159  0.00  0.00     0.003 C 
ENDBRANCH   8   9
ENDBRANCH   7   8
ENDBRANCH   1   7
TORSDOF 3
ENDMDL
