MODEL 1
REMARK minimizedAffinity -3.77537107
REMARK minimizedRMSD -1
REMARK  3 active torsions:
REMARK  status: ('A' for Active; 'I' for Inactive)
REMARK    1  A    between atoms: C3'_2  and  C2'_3 
REMARK    2  A    between atoms: C2'_3  and  C1'_4 
REMARK    3  A    between atoms: C1'_4  and  C1_5 
ROOT
ATOM      1  C1  N4B d   1       1.760  -2.205   0.222  0.00  0.00    -0.075 A 
ATOM      2  C2  N4B d   1       0.693  -3.070   0.553  0.00  0.00     0.002 A 
ATOM      3  C3  N4B d   1      -0.550  -2.554   0.825  0.00  0.00     0.002 A 
ATOM      4  C4  N4B d   1      -0.745  -1.181   0.791  0.00  0.00    -0.004 A 
ATOM      5  C5  N4B d   1       0.283  -0.354   0.446  0.00  0.00     0.002 A 
ATOM      6  C6  N4B d   1       1.537  -0.859   0.166  0.00  0.00     0.002 A 
ENDROOT
BRANCH   1   7
ATOM      7  C1' N4B d   1       3.157  -2.716   0.001  0.00  0.00     0.057 C 
BRANCH   7   8
ATOM      8  C2' N4B d   1       3.217  -4.192   0.383  0.00  0.00     0.009 C 
BRANCH   8   9
ATOM      9  C3' N4B d   1       4.461  -4.870  -0.165  0.00  0.00     0.004 C 
ATOM     10  C4' N4B d   1       4.936  -5.998   0.701  0.00  0.00     0.003 C 
ENDBRANCH   8   9
ENDBRANCH   7   8
ENDBRANCH   1   7
TORSDOF 3
ENDMDL
