MODEL 1
REMARK minimizedAffinity -3.2270062
REMARK minimizedRMSD -1
REMARK  3 active torsions:
REMARK  status: ('A' for Active; 'I' for Inactive)
REMARK    1  A    between atoms: C3'_2  and  C2'_3 
REMARK    2  A    between atoms: C2'_3  and  C1'_4 
REMARK    3  A    between atoms: C1'_4  and  C1_5 
ROOT
ATOM      1  C1  N4B d   1       1.004  -1.501   0.352  0.00  0.00    -0.075 A 
ATOM      2  C2  N4B d   1       2.394  -1.492   0.104  0.00  0.00     0.002 A 
ATOM      3  C3  N4B d   1       3.030  -2.646  -0.284  0.00  0.00     0.002 A 
ATOM      4  C4  N4B d   1       2.303  -3.820  -0.411  0.00  0.00    -0.004 A 
ATOM      5  C5  N4B d   1       0.956  -3.815  -0.194  0.00  0.00     0.002 A 
ATOM      6  C6  N4B d   1       0.303  -2.662   0.193  0.00  0.00     0.002 A 
ENDROOT
BRANCH   1   7
ATOM      7  C1' N4B d   1       0.279  -0.285   0.861  0.00  0.00     0.057 C 
BRANCH   7   8
ATOM      8  C2' N4B d   1      -1.181  -0.643   1.118  0.00  0.00     0.009 C 
BRANCH   8   9
ATOM      9  C3' N4B d   1      -1.907   0.448   1.887  0.00  0.00     0.004 C 
ATOM     10  C4' N4B d   1      -3.109   0.971   1.159  0.00  0.00     0.003 C 
ENDBRANCH   8   9
ENDBRANCH   7   8
ENDBRANCH   1   7
TORSDOF 3
ENDMDL
