MODEL 1
REMARK minimizedAffinity -1.80684507
REMARK minimizedRMSD -1
REMARK  3 active torsions:
REMARK  status: ('A' for Active; 'I' for Inactive)
REMARK    1  A    between atoms: C3'_2  and  C2'_3 
REMARK    2  A    between atoms: C2'_3  and  C1'_4 
REMARK    3  A    between atoms: C1'_4  and  C1_5 
ROOT
ATOM      1  C1  N4B d   1       2.353  -3.163   0.023  0.00  0.00    -0.075 A 
ATOM      2  C2  N4B d   1       1.083  -3.755   0.196  0.00  0.00     0.002 A 
ATOM      3  C3  N4B d   1       0.053  -3.024   0.735  0.00  0.00     0.002 A 
ATOM      4  C4  N4B d   1       0.273  -1.711   1.124  0.00  0.00    -0.004 A 
ATOM      5  C5  N4B d   1       1.496  -1.139   0.930  0.00  0.00     0.002 A 
ATOM      6  C6  N4B d   1       2.540  -1.860   0.385  0.00  0.00     0.002 A 
ENDROOT
BRANCH   1   7
ATOM      7  C1' N4B d   1       3.533  -3.947  -0.483  0.00  0.00     0.057 C 
BRANCH   7   8
ATOM      8  C2' N4B d   1       3.589  -5.289   0.241  0.00  0.00     0.009 C 
BRANCH   8   9
ATOM      9  C3' N4B d   1       4.914  -5.999   0.021  0.00  0.00     0.004 C 
ATOM     10  C4' N4B d   1       5.783  -5.999   1.244  0.00  0.00     0.003 C 
ENDBRANCH   8   9
ENDBRANCH   7   8
ENDBRANCH   1   7
TORSDOF 3
ENDMDL
