MODEL 1
REMARK minimizedAffinity 2.41328907
REMARK minimizedRMSD -1
REMARK  3 active torsions:
REMARK  status: ('A' for Active; 'I' for Inactive)
REMARK    1  A    between atoms: C3'_2  and  C2'_3 
REMARK    2  A    between atoms: C2'_3  and  C1'_4 
REMARK    3  A    between atoms: C1'_4  and  C1_5 
ROOT
ATOM      1  C1  N4B d   1      -1.954  -0.832   1.168  0.00  0.00    -0.075 A 
ATOM      2  C2  N4B d   1      -1.274  -0.063   2.138  0.00  0.00     0.002 A 
ATOM      3  C3  N4B d   1      -1.659   1.233   2.379  0.00  0.00     0.002 A 
ATOM      4  C4  N4B d   1      -2.704   1.785   1.653  0.00  0.00    -0.004 A 
ATOM      5  C5  N4B d   1      -3.372   1.027   0.737  0.00  0.00     0.002 A 
ATOM      6  C6  N4B d   1      -2.999  -0.278   0.486  0.00  0.00     0.002 A 
ENDROOT
BRANCH   1   7
ATOM      7  C1' N4B d   1      -1.515  -2.225   0.808  0.00  0.00     0.057 C 
BRANCH   7   8
ATOM      8  C2' N4B d   1      -0.244  -2.148  -0.032  0.00  0.00     0.009 C 
BRANCH   8   9
ATOM      9  C3' N4B d   1       0.981  -2.594   0.747  0.00  0.00     0.004 C 
ATOM     10  C4' N4B d   1       2.111  -1.611   0.666  0.00  0.00     0.003 C 
ENDBRANCH   8   9
ENDBRANCH   7   8
ENDBRANCH   1   7
TORSDOF 3
ENDMDL
