MODEL 1
REMARK minimizedAffinity 1.38713527
REMARK minimizedRMSD -1
REMARK  3 active torsions:
REMARK  status: ('A' for Active; 'I' for Inactive)
REMARK    1  A    between atoms: C3'_2  and  C2'_3 
REMARK    2  A    between atoms: C2'_3  and  C1'_4 
REMARK    3  A    between atoms: C1'_4  and  C1_5 
ROOT
ATOM      1  C1  N4B d   1       1.249  -2.874   0.287  0.00  0.00    -0.075 A 
ATOM      2  C2  N4B d   1       2.027  -1.708   0.113  0.00  0.00     0.002 A 
ATOM      3  C3  N4B d   1       1.493  -0.477   0.406  0.00  0.00     0.002 A 
ATOM      4  C4  N4B d   1       0.183  -0.386   0.853  0.00  0.00    -0.004 A 
ATOM      5  C5  N4B d   1      -0.553  -1.519   1.042  0.00  0.00     0.002 A 
ATOM      6  C6  N4B d   1      -0.028  -2.763   0.756  0.00  0.00     0.002 A 
ENDROOT
BRANCH   1   7
ATOM      7  C1' N4B d   1       1.760  -4.235  -0.101  0.00  0.00     0.057 C 
BRANCH   7   8
ATOM      8  C2' N4B d   1       3.280  -4.256   0.034  0.00  0.00     0.009 C 
BRANCH   8   9
ATOM      9  C3' N4B d   1       3.879  -5.549  -0.492  0.00  0.00     0.004 C 
ATOM     10  C4' N4B d   1       5.072  -5.999   0.297  0.00  0.00     0.003 C 
ENDBRANCH   8   9
ENDBRANCH   7   8
ENDBRANCH   1   7
TORSDOF 3
ENDMDL
