MODEL 1
REMARK minimizedAffinity -3.98249769
REMARK minimizedRMSD -1
REMARK  3 active torsions:
REMARK  status: ('A' for Active; 'I' for Inactive)
REMARK    1  A    between atoms: C3'_2  and  C2'_3 
REMARK    2  A    between atoms: C2'_3  and  C1'_4 
REMARK    3  A    between atoms: C1'_4  and  C1_5 
ROOT
ATOM      1  C1  N4B d   1       0.863  -1.337   0.774  0.00  0.00    -0.075 A 
ATOM      2  C2  N4B d   1       2.225  -1.212   0.423  0.00  0.00     0.002 A 
ATOM      3  C3  N4B d   1       2.953  -2.328   0.091  0.00  0.00     0.002 A 
ATOM      4  C4  N4B d   1       2.349  -3.576   0.121  0.00  0.00    -0.004 A 
ATOM      5  C5  N4B d   1       1.026  -3.685   0.436  0.00  0.00     0.002 A 
ATOM      6  C6  N4B d   1       0.280  -2.572   0.768  0.00  0.00     0.002 A 
ENDROOT
BRANCH   1   7
ATOM      7  C1' N4B d   1       0.048  -0.156   1.227  0.00  0.00     0.057 C 
BRANCH   7   8
ATOM      8  C2' N4B d   1      -1.430  -0.441   0.974  0.00  0.00     0.009 C 
BRANCH   8   9
ATOM      9  C3' N4B d   1      -2.329   0.562   1.675  0.00  0.00     0.004 C 
ATOM     10  C4' N4B d   1      -3.347   1.171   0.757  0.00  0.00     0.003 C 
ENDBRANCH   8   9
ENDBRANCH   7   8
ENDBRANCH   1   7
TORSDOF 3
ENDMDL
