MODEL 1
REMARK minimizedAffinity 10.1402197
REMARK minimizedRMSD -1
REMARK  0 active torsions:
REMARK  status: ('A' for Active; 'I' for Inactive)
ROOT
ATOM      1  O1  BZF d   1       3.287   0.670  -5.955  0.00  0.00    -0.204 OA
ATOM      2  C2  BZF d   1       4.622   0.315  -5.918  0.00  0.00     0.174 A 
ATOM      3  C3  BZF d   1       4.759  -1.025  -5.858  0.00  0.00    -0.012 A 
ATOM      4  C3A BZF d   1       3.429  -1.544  -5.950  0.00  0.00    -0.107 A 
ATOM      5  C4  BZF d   1       2.914  -2.809  -5.962  0.00  0.00     0.055 A 
ATOM      6  C5  BZF d   1       1.565  -2.972  -5.990  0.00  0.00    -0.016 A 
ATOM      7  C6  BZF d   1       0.703  -1.894  -6.000  0.00  0.00     0.022 A 
ATOM      8  C7  BZF d   1       1.168  -0.621  -5.994  0.00  0.00     0.029 A 
ATOM      9  C7A BZF d   1       2.531  -0.453  -6.000  0.00  0.00     0.058 A 
ENDROOT
TORSDOF 0
ENDMDL
