MODEL 1
REMARK minimizedAffinity 15.5454769
REMARK minimizedRMSD -1
REMARK  0 active torsions:
REMARK  status: ('A' for Active; 'I' for Inactive)
ROOT
ATOM      1  O1  BZF d   1       0.398  -2.332   4.160  0.00  0.00    -0.204 OA
ATOM      2  C2  BZF d   1       1.570  -1.604   4.085  0.00  0.00     0.174 A 
ATOM      3  C3  BZF d   1       1.393  -0.488   3.350  0.00  0.00    -0.012 A 
ATOM      4  C3A BZF d   1       0.002  -0.474   3.016  0.00  0.00    -0.107 A 
ATOM      5  C4  BZF d   1      -0.786   0.391   2.312  0.00  0.00     0.055 A 
ATOM      6  C5  BZF d   1      -2.092   0.078   2.107  0.00  0.00    -0.016 A 
ATOM      7  C6  BZF d   1      -2.642  -1.093   2.586  0.00  0.00     0.022 A 
ATOM      8  C7  BZF d   1      -1.901  -1.980   3.295  0.00  0.00     0.029 A 
ATOM      9  C7A BZF d   1      -0.589  -1.650   3.532  0.00  0.00     0.058 A 
ENDROOT
TORSDOF 0
ENDMDL
