MODEL 1
REMARK minimizedAffinity 11.5485592
REMARK minimizedRMSD -1
REMARK  0 active torsions:
REMARK  status: ('A' for Active; 'I' for Inactive)
ROOT
ATOM      1  O1  BZF d   1       1.490  -1.953   3.729  0.00  0.00    -0.204 OA
ATOM      2  C2  BZF d   1       2.163  -1.570   4.873  0.00  0.00     0.174 A 
ATOM      3  C3  BZF d   1       2.018  -0.247   5.092  0.00  0.00    -0.012 A 
ATOM      4  C3A BZF d   1       1.127   0.209   4.069  0.00  0.00    -0.107 A 
ATOM      5  C4  BZF d   1       0.589   1.427   3.767  0.00  0.00     0.055 A 
ATOM      6  C5  BZF d   1      -0.187   1.550   2.658  0.00  0.00    -0.016 A 
ATOM      7  C6  BZF d   1      -0.440   0.478   1.827  0.00  0.00     0.022 A 
ATOM      8  C7  BZF d   1       0.068  -0.751   2.088  0.00  0.00     0.029 A 
ATOM      9  C7A BZF d   1       0.825  -0.886   3.226  0.00  0.00     0.058 A 
ENDROOT
TORSDOF 0
ENDMDL
