MODEL 1
REMARK minimizedAffinity 21.5799675
REMARK minimizedRMSD -1
REMARK  0 active torsions:
REMARK  status: ('A' for Active; 'I' for Inactive)
ROOT
ATOM      1  O1  BZF d   1       0.604  -2.459   3.589  0.00  0.00    -0.204 OA
ATOM      2  C2  BZF d   1       1.539  -2.022   4.507  0.00  0.00     0.174 A 
ATOM      3  C3  BZF d   1       1.761  -0.698   4.372  0.00  0.00    -0.012 A 
ATOM      4  C3A BZF d   1       0.843  -0.264   3.364  0.00  0.00    -0.107 A 
ATOM      5  C4  BZF d   1       0.572   0.950   2.800  0.00  0.00     0.055 A 
ATOM      6  C5  BZF d   1      -0.332   1.021   1.789  0.00  0.00    -0.016 A 
ATOM      7  C6  BZF d   1      -0.980  -0.100   1.313  0.00  0.00     0.022 A 
ATOM      8  C7  BZF d   1      -0.748  -1.325   1.844  0.00  0.00     0.029 A 
ATOM      9  C7A BZF d   1       0.141  -1.396   2.888  0.00  0.00     0.058 A 
ENDROOT
TORSDOF 0
ENDMDL
