MODEL 1
REMARK minimizedAffinity 6.6095767
REMARK minimizedRMSD -1
REMARK  0 active torsions:
REMARK  status: ('A' for Active; 'I' for Inactive)
ROOT
ATOM      1  O1  BZF d   1      -2.557   0.247   2.331  0.00  0.00    -0.204 OA
ATOM      2  C2  BZF d   1      -3.318  -0.898   2.470  0.00  0.00     0.174 A 
ATOM      3  C3  BZF d   1      -2.563  -1.923   2.914  0.00  0.00    -0.012 A 
ATOM      4  C3A BZF d   1      -1.268  -1.362   3.150  0.00  0.00    -0.107 A 
ATOM      5  C4  BZF d   1      -0.091  -1.878   3.612  0.00  0.00     0.055 A 
ATOM      6  C5  BZF d   1       1.008  -1.081   3.655  0.00  0.00    -0.016 A 
ATOM      7  C6  BZF d   1       0.969   0.233   3.238  0.00  0.00     0.022 A 
ATOM      8  C7  BZF d   1      -0.177   0.791   2.777  0.00  0.00     0.029 A 
ATOM      9  C7A BZF d   1      -1.298  -0.002   2.764  0.00  0.00     0.058 A 
ENDROOT
TORSDOF 0
ENDMDL
