MODEL 1
REMARK minimizedAffinity 12.9883327
REMARK minimizedRMSD -1
REMARK  0 active torsions:
REMARK  status: ('A' for Active; 'I' for Inactive)
ROOT
ATOM      1  O1  BZF d   1       3.019   1.367  -5.710  0.00  0.00    -0.204 OA
ATOM      2  C2  BZF d   1       4.383   1.164  -5.634  0.00  0.00     0.174 A 
ATOM      3  C3  BZF d   1       4.661  -0.134  -5.395  0.00  0.00    -0.012 A 
ATOM      4  C3A BZF d   1       3.393  -0.798  -5.408  0.00  0.00    -0.107 A 
ATOM      5  C4  BZF d   1       3.014  -2.100  -5.246  0.00  0.00     0.055 A 
ATOM      6  C5  BZF d   1       1.690  -2.407  -5.241  0.00  0.00    -0.016 A 
ATOM      7  C6  BZF d   1       0.720  -1.437  -5.391  0.00  0.00     0.022 A 
ATOM      8  C7  BZF d   1       1.048  -0.133  -5.560  0.00  0.00     0.029 A 
ATOM      9  C7A BZF d   1       2.385   0.175  -5.597  0.00  0.00     0.058 A 
ENDROOT
TORSDOF 0
ENDMDL
