MODEL 1
REMARK minimizedAffinity 13.9082232
REMARK minimizedRMSD -1
REMARK  0 active torsions:
REMARK  status: ('A' for Active; 'I' for Inactive)
ROOT
ATOM      1  O1  BZF d   1      -2.238  -3.913  -4.095  0.00  0.00    -0.204 OA
ATOM      2  C2  BZF d   1      -2.184  -4.854  -5.105  0.00  0.00     0.174 A 
ATOM      3  C3  BZF d   1      -1.225  -4.541  -6.000  0.00  0.00    -0.012 A 
ATOM      4  C3A BZF d   1      -0.581  -3.378  -5.470  0.00  0.00    -0.107 A 
ATOM      5  C4  BZF d   1       0.460  -2.604  -5.897  0.00  0.00     0.055 A 
ATOM      6  C5  BZF d   1       0.795  -1.496  -5.186  0.00  0.00    -0.016 A 
ATOM      7  C6  BZF d   1       0.107  -1.129  -4.048  0.00  0.00     0.022 A 
ATOM      8  C7  BZF d   1      -0.929  -1.867  -3.582  0.00  0.00     0.029 A 
ATOM      9  C7A BZF d   1      -1.249  -3.006  -4.280  0.00  0.00     0.058 A 
ENDROOT
TORSDOF 0
ENDMDL
