MODEL 1
REMARK minimizedAffinity 13.6894741
REMARK minimizedRMSD -1
REMARK  0 active torsions:
REMARK  status: ('A' for Active; 'I' for Inactive)
ROOT
ATOM      1  O1  BZF d   1       1.242  -1.854   3.815  0.00  0.00    -0.204 OA
ATOM      2  C2  BZF d   1       0.937  -0.736   3.062  0.00  0.00     0.174 A 
ATOM      3  C3  BZF d   1       1.813   0.260   3.309  0.00  0.00    -0.012 A 
ATOM      4  C3A BZF d   1       2.776  -0.300   4.207  0.00  0.00    -0.107 A 
ATOM      5  C4  BZF d   1       3.901   0.193   4.804  0.00  0.00     0.055 A 
ATOM      6  C5  BZF d   1       4.578  -0.589   5.685  0.00  0.00    -0.016 A 
ATOM      7  C6  BZF d   1       4.156  -1.865   5.996  0.00  0.00     0.022 A 
ATOM      8  C7  BZF d   1       3.049  -2.399   5.426  0.00  0.00     0.029 A 
ATOM      9  C7A BZF d   1       2.381  -1.623   4.511  0.00  0.00     0.058 A 
ENDROOT
TORSDOF 0
ENDMDL
