MODEL 1
REMARK minimizedAffinity 10.481267
REMARK minimizedRMSD -1
REMARK  0 active torsions:
REMARK  status: ('A' for Active; 'I' for Inactive)
ROOT
ATOM      1  O1  BZF d   1       3.029   3.749   1.055  0.00  0.00    -0.204 OA
ATOM      2  C2  BZF d   1       2.710   2.406   1.101  0.00  0.00     0.174 A 
ATOM      3  C3  BZF d   1       3.417   1.779   2.064  0.00  0.00    -0.012 A 
ATOM      4  C3A BZF d   1       4.161   2.812   2.717  0.00  0.00    -0.107 A 
ATOM      5  C4  BZF d   1       5.036   2.819   3.765  0.00  0.00     0.055 A 
ATOM      6  C5  BZF d   1       5.646   3.984   4.109  0.00  0.00    -0.016 A 
ATOM      7  C6  BZF d   1       5.408   5.157   3.424  0.00  0.00     0.022 A 
ATOM      8  C7  BZF d   1       4.544   5.201   2.380  0.00  0.00     0.029 A 
ATOM      9  C7A BZF d   1       3.901   4.032   2.052  0.00  0.00     0.058 A 
ENDROOT
TORSDOF 0
ENDMDL
