MODEL 1
REMARK minimizedAffinity 2.84156346
REMARK minimizedRMSD -1
REMARK  0 active torsions:
REMARK  status: ('A' for Active; 'I' for Inactive)
ROOT
ATOM      1  O1  BZF d   1       2.867  -0.769   4.117  0.00  0.00    -0.204 OA
ATOM      2  C2  BZF d   1       2.272  -1.911   4.618  0.00  0.00     0.174 A 
ATOM      3  C3  BZF d   1       0.939  -1.886   4.413  0.00  0.00    -0.012 A 
ATOM      4  C3A BZF d   1       0.697  -0.694   3.660  0.00  0.00    -0.107 A 
ATOM      5  C4  BZF d   1      -0.430  -0.125   3.139  0.00  0.00     0.055 A 
ATOM      6  C5  BZF d   1      -0.336   1.081   2.520  0.00  0.00    -0.016 A 
ATOM      7  C6  BZF d   1       0.867   1.747   2.408  0.00  0.00     0.022 A 
ATOM      8  C7  BZF d   1       2.013   1.221   2.904  0.00  0.00     0.029 A 
ATOM      9  C7A BZF d   1       1.926  -0.013   3.502  0.00  0.00     0.058 A 
ENDROOT
TORSDOF 0
ENDMDL
