MODEL 1
REMARK minimizedAffinity 20.3332367
REMARK minimizedRMSD -1
REMARK  0 active torsions:
REMARK  status: ('A' for Active; 'I' for Inactive)
ROOT
ATOM      1  O1  BZF d   1       2.773   0.462  -4.227  0.00  0.00    -0.204 OA
ATOM      2  C2  BZF d   1       3.662   0.021  -5.189  0.00  0.00     0.174 A 
ATOM      3  C3  BZF d   1       3.079  -0.885  -6.000  0.00  0.00    -0.012 A 
ATOM      4  C3A BZF d   1       1.715  -0.951  -5.572  0.00  0.00    -0.107 A 
ATOM      5  C4  BZF d   1       0.630  -1.661  -6.000  0.00  0.00     0.055 A 
ATOM      6  C5  BZF d   1      -0.541  -1.551  -5.320  0.00  0.00    -0.016 A 
ATOM      7  C6  BZF d   1      -0.662  -0.745  -4.207  0.00  0.00     0.022 A 
ATOM      8  C7  BZF d   1       0.385  -0.017  -3.748  0.00  0.00     0.029 A 
ATOM      9  C7A BZF d   1       1.561  -0.101  -4.452  0.00  0.00     0.058 A 
ENDROOT
TORSDOF 0
ENDMDL
