MODEL 1
REMARK minimizedAffinity 17.6424274
REMARK minimizedRMSD -1
REMARK  0 active torsions:
REMARK  status: ('A' for Active; 'I' for Inactive)
ROOT
ATOM      1  O1  BZF d   1       1.005  -1.521  -4.872  0.00  0.00    -0.204 OA
ATOM      2  C2  BZF d   1      -0.001  -0.690  -4.420  0.00  0.00     0.174 A 
ATOM      3  C3  BZF d   1      -1.202  -1.296  -4.517  0.00  0.00    -0.012 A 
ATOM      4  C3A BZF d   1      -0.919  -2.621  -4.977  0.00  0.00    -0.107 A 
ATOM      5  C4  BZF d   1      -1.701  -3.706  -5.252  0.00  0.00     0.055 A 
ATOM      6  C5  BZF d   1      -1.121  -4.827  -5.755  0.00  0.00    -0.016 A 
ATOM      7  C6  BZF d   1       0.235  -4.896  -6.000  0.00  0.00     0.022 A 
ATOM      8  C7  BZF d   1       1.052  -3.847  -5.738  0.00  0.00     0.029 A 
ATOM      9  C7A BZF d   1       0.473  -2.724  -5.199  0.00  0.00     0.058 A 
ENDROOT
TORSDOF 0
ENDMDL
