MODEL 1
REMARK minimizedAffinity 7.17453909
REMARK minimizedRMSD -1
REMARK  0 active torsions:
REMARK  status: ('A' for Active; 'I' for Inactive)
ROOT
ATOM      1  C1  DEN d   1       0.982  -0.183  -5.981  0.00  0.00     0.130 A 
ATOM      2  C2  DEN d   1       0.117  -0.923  -5.066  0.00  0.00    -0.031 A 
ATOM      3  C3  DEN d   1       0.960  -1.470  -3.984  0.00  0.00     0.027 A 
ATOM      4  C4  DEN d   1       3.505  -1.241  -3.636  0.00  0.00     0.027 A 
ATOM      5  C5  DEN d   1       4.667  -0.715  -4.157  0.00  0.00    -0.003 A 
ATOM      6  C6  DEN d   1       4.686  -0.009  -5.331  0.00  0.00     0.001 A 
ATOM      7  C7  DEN d   1       3.514   0.228  -6.000  0.00  0.00     0.017 A 
ATOM      8  C8  DEN d   1       2.340  -0.305  -5.484  0.00  0.00    -0.094 A 
ATOM      9  C9  DEN d   1       2.340  -1.005  -4.290  0.00  0.00    -0.072 A 
ENDROOT
TORSDOF 0
ENDMDL
