MODEL 1
REMARK minimizedAffinity 2.26134753
REMARK minimizedRMSD -1
REMARK  0 active torsions:
REMARK  status: ('A' for Active; 'I' for Inactive)
ROOT
ATOM      1  C1  DEN d   1       0.712  -2.978  -2.878  0.00  0.00     0.130 A 
ATOM      2  C2  DEN d   1       1.990  -2.847  -2.182  0.00  0.00    -0.031 A 
ATOM      3  C3  DEN d   1       2.806  -1.856  -2.910  0.00  0.00     0.027 A 
ATOM      4  C4  DEN d   1       2.219  -0.513  -5.033  0.00  0.00     0.027 A 
ATOM      5  C5  DEN d   1       1.253  -0.292  -5.990  0.00  0.00    -0.003 A 
ATOM      6  C6  DEN d   1       0.063  -0.971  -5.996  0.00  0.00     0.001 A 
ATOM      7  C7  DEN d   1      -0.211  -1.870  -5.000  0.00  0.00     0.017 A 
ATOM      8  C8  DEN d   1       0.761  -2.103  -4.036  0.00  0.00    -0.094 A 
ATOM      9  C9  DEN d   1       1.952  -1.399  -4.040  0.00  0.00    -0.072 A 
ENDROOT
TORSDOF 0
ENDMDL
