MODEL 1
REMARK minimizedAffinity -3.65723205
REMARK minimizedRMSD -1
REMARK  0 active torsions:
REMARK  status: ('A' for Active; 'I' for Inactive)
ROOT
ATOM      1  C1  DEN d   1       1.885  -0.358   2.233  0.00  0.00     0.130 A 
ATOM      2  C2  DEN d   1       1.889  -1.404   3.251  0.00  0.00    -0.031 A 
ATOM      3  C3  DEN d   1       0.503  -1.885   3.418  0.00  0.00     0.027 A 
ATOM      4  C4  DEN d   1      -1.638  -1.119   2.202  0.00  0.00     0.027 A 
ATOM      5  C5  DEN d   1      -2.144  -0.249   1.261  0.00  0.00    -0.003 A 
ATOM      6  C6  DEN d   1      -1.356   0.661   0.609  0.00  0.00     0.001 A 
ATOM      7  C7  DEN d   1      -0.009   0.692   0.855  0.00  0.00     0.017 A 
ATOM      8  C8  DEN d   1       0.508  -0.177   1.807  0.00  0.00    -0.094 A 
ATOM      9  C9  DEN d   1      -0.303  -1.098   2.447  0.00  0.00    -0.072 A 
ENDROOT
TORSDOF 0
ENDMDL
