MODEL 1
REMARK minimizedAffinity 12.3185682
REMARK minimizedRMSD -1
REMARK  0 active torsions:
REMARK  status: ('A' for Active; 'I' for Inactive)
ROOT
ATOM      1  C1  DEN d   1      -1.489  -3.071   2.429  0.00  0.00     0.130 A 
ATOM      2  C2  DEN d   1      -2.533  -2.160   1.966  0.00  0.00    -0.031 A 
ATOM      3  C3  DEN d   1      -2.039  -0.778   2.132  0.00  0.00     0.027 A 
ATOM      4  C4  DEN d   1       0.230   0.035   3.051  0.00  0.00     0.027 A 
ATOM      5  C5  DEN d   1       1.436  -0.368   3.579  0.00  0.00    -0.003 A 
ATOM      6  C6  DEN d   1       1.737  -1.688   3.791  0.00  0.00     0.001 A 
ATOM      7  C7  DEN d   1       0.836  -2.655   3.431  0.00  0.00     0.017 A 
ATOM      8  C8  DEN d   1      -0.386  -2.256   2.905  0.00  0.00    -0.094 A 
ATOM      9  C9  DEN d   1      -0.665  -0.918   2.687  0.00  0.00    -0.072 A 
ENDROOT
TORSDOF 0
ENDMDL
