MODEL 1
REMARK minimizedAffinity -0.177748457
REMARK minimizedRMSD -1
REMARK  0 active torsions:
REMARK  status: ('A' for Active; 'I' for Inactive)
ROOT
ATOM      1  C1  DEN d   1      -0.325  -1.340  -3.812  0.00  0.00     0.130 A 
ATOM      2  C2  DEN d   1      -1.138  -0.888  -4.938  0.00  0.00    -0.031 A 
ATOM      3  C3  DEN d   1      -0.226  -0.406  -5.995  0.00  0.00     0.027 A 
ATOM      4  C4  DEN d   1       2.352  -0.322  -6.000  0.00  0.00     0.027 A 
ATOM      5  C5  DEN d   1       3.485  -0.586  -5.262  0.00  0.00    -0.003 A 
ATOM      6  C6  DEN d   1       3.427  -1.084  -3.988  0.00  0.00     0.001 A 
ATOM      7  C7  DEN d   1       2.211  -1.376  -3.428  0.00  0.00     0.017 A 
ATOM      8  C8  DEN d   1       1.064  -1.106  -4.162  0.00  0.00    -0.094 A 
ATOM      9  C9  DEN d   1       1.144  -0.614  -5.454  0.00  0.00    -0.072 A 
ENDROOT
TORSDOF 0
ENDMDL
