MODEL 1
REMARK minimizedAffinity 12.7877254
REMARK minimizedRMSD -1
REMARK  0 active torsions:
REMARK  status: ('A' for Active; 'I' for Inactive)
ROOT
ATOM      1  C1  DEN d   1       1.819   1.487  -5.857  0.00  0.00     0.130 A 
ATOM      2  C2  DEN d   1       3.051   0.715  -6.000  0.00  0.00    -0.031 A 
ATOM      3  C3  DEN d   1       2.694  -0.718  -6.000  0.00  0.00     0.027 A 
ATOM      4  C4  DEN d   1       0.366  -1.810  -5.799  0.00  0.00     0.027 A 
ATOM      5  C5  DEN d   1      -0.981  -1.563  -5.647  0.00  0.00    -0.003 A 
ATOM      6  C6  DEN d   1      -1.481  -0.294  -5.521  0.00  0.00     0.001 A 
ATOM      7  C7  DEN d   1      -0.633   0.780  -5.591  0.00  0.00     0.017 A 
ATOM      8  C8  DEN d   1       0.727   0.538  -5.736  0.00  0.00    -0.094 A 
ATOM      9  C9  DEN d   1       1.212  -0.752  -5.874  0.00  0.00    -0.072 A 
ENDROOT
TORSDOF 0
ENDMDL
