MODEL 1
REMARK minimizedAffinity 3.32282495
REMARK minimizedRMSD -1
REMARK  0 active torsions:
REMARK  status: ('A' for Active; 'I' for Inactive)
ROOT
ATOM      1  C1  DEN d   1      -0.018  -1.470  -3.777  0.00  0.00     0.130 A 
ATOM      2  C2  DEN d   1      -0.857  -1.140  -4.926  0.00  0.00    -0.031 A 
ATOM      3  C3  DEN d   1       0.019  -0.628  -5.999  0.00  0.00     0.027 A 
ATOM      4  C4  DEN d   1       2.579  -0.320  -5.996  0.00  0.00     0.027 A 
ATOM      5  C5  DEN d   1       3.725  -0.451  -5.242  0.00  0.00    -0.003 A 
ATOM      6  C6  DEN d   1       3.699  -0.896  -3.946  0.00  0.00     0.001 A 
ATOM      7  C7  DEN d   1       2.509  -1.268  -3.380  0.00  0.00     0.017 A 
ATOM      8  C8  DEN d   1       1.349  -1.131  -4.131  0.00  0.00    -0.094 A 
ATOM      9  C9  DEN d   1       1.397  -0.692  -5.443  0.00  0.00    -0.072 A 
ENDROOT
TORSDOF 0
ENDMDL
