MODEL 1
REMARK minimizedAffinity 5.85223532
REMARK minimizedRMSD -1
REMARK  0 active torsions:
REMARK  status: ('A' for Active; 'I' for Inactive)
ROOT
ATOM      1  C1  DEN d   1      -0.250  -0.768  -5.941  0.00  0.00     0.130 A 
ATOM      2  C2  DEN d   1      -1.139  -1.260  -4.893  0.00  0.00    -0.031 A 
ATOM      3  C3  DEN d   1      -0.326  -1.523  -3.689  0.00  0.00     0.027 A 
ATOM      4  C4  DEN d   1       2.212  -1.212  -3.347  0.00  0.00     0.027 A 
ATOM      5  C5  DEN d   1       3.388  -0.830  -3.953  0.00  0.00    -0.003 A 
ATOM      6  C6  DEN d   1       3.439  -0.436  -5.264  0.00  0.00     0.001 A 
ATOM      7  C7  DEN d   1       2.285  -0.372  -5.999  0.00  0.00     0.017 A 
ATOM      8  C8  DEN d   1       1.096  -0.763  -5.397  0.00  0.00    -0.094 A 
ATOM      9  C9  DEN d   1       1.063  -1.146  -4.067  0.00  0.00    -0.072 A 
ENDROOT
TORSDOF 0
ENDMDL
