MODEL 1
REMARK minimizedAffinity 8.12927914
REMARK minimizedRMSD -1
REMARK  0 active torsions:
REMARK  status: ('A' for Active; 'I' for Inactive)
ROOT
ATOM      1  C1  DEN d   1      -0.369  -1.769  -3.986  0.00  0.00     0.130 A 
ATOM      2  C2  DEN d   1      -1.181  -1.103  -5.000  0.00  0.00    -0.031 A 
ATOM      3  C3  DEN d   1      -0.268  -0.464  -5.969  0.00  0.00     0.027 A 
ATOM      4  C4  DEN d   1       2.311  -0.446  -5.999  0.00  0.00     0.027 A 
ATOM      5  C5  DEN d   1       3.444  -0.866  -5.339  0.00  0.00    -0.003 A 
ATOM      6  C6  DEN d   1       3.387  -1.581  -4.172  0.00  0.00     0.001 A 
ATOM      7  C7  DEN d   1       2.170  -1.938  -3.654  0.00  0.00     0.017 A 
ATOM      8  C8  DEN d   1       1.023  -1.512  -4.310  0.00  0.00    -0.094 A 
ATOM      9  C9  DEN d   1       1.102  -0.800  -5.495  0.00  0.00    -0.072 A 
ENDROOT
TORSDOF 0
ENDMDL
