MODEL 1
REMARK minimizedAffinity 7.79449844
REMARK minimizedRMSD -1
REMARK  0 active torsions:
REMARK  status: ('A' for Active; 'I' for Inactive)
ROOT
ATOM      1  C1  DEN d   1       3.519  -1.220  -3.921  0.00  0.00     0.130 A 
ATOM      2  C2  DEN d   1       4.105  -0.553  -5.080  0.00  0.00    -0.031 A 
ATOM      3  C3  DEN d   1       3.006  -0.179  -5.994  0.00  0.00     0.027 A 
ATOM      4  C4  DEN d   1       0.470  -0.562  -5.725  0.00  0.00     0.027 A 
ATOM      5  C5  DEN d   1      -0.504  -1.098  -4.912  0.00  0.00    -0.003 A 
ATOM      6  C6  DEN d   1      -0.205  -1.737  -3.738  0.00  0.00     0.001 A 
ATOM      7  C7  DEN d   1       1.097  -1.816  -3.321  0.00  0.00     0.017 A 
ATOM      8  C8  DEN d   1       2.086  -1.285  -4.139  0.00  0.00    -0.094 A 
ATOM      9  C9  DEN d   1       1.762  -0.633  -5.316  0.00  0.00    -0.072 A 
ENDROOT
TORSDOF 0
ENDMDL
