MODEL 1
REMARK minimizedAffinity 13.8836203
REMARK minimizedRMSD -1
REMARK  0 active torsions:
REMARK  status: ('A' for Active; 'I' for Inactive)
ROOT
ATOM      1  C1  DEN d   1       1.236  -0.600   5.788  0.00  0.00     0.130 A 
ATOM      2  C2  DEN d   1       2.690  -0.474   5.732  0.00  0.00    -0.031 A 
ATOM      3  C3  DEN d   1       3.136  -0.920   4.396  0.00  0.00     0.027 A 
ATOM      4  C4  DEN d   1       1.723  -1.785   2.420  0.00  0.00     0.027 A 
ATOM      5  C5  DEN d   1       0.446  -2.082   1.998  0.00  0.00    -0.003 A 
ATOM      6  C6  DEN d   1      -0.645  -1.938   2.814  0.00  0.00     0.001 A 
ATOM      7  C7  DEN d   1      -0.484  -1.443   4.081  0.00  0.00     0.017 A 
ATOM      8  C8  DEN d   1       0.802  -1.149   4.516  0.00  0.00    -0.094 A 
ATOM      9  C9  DEN d   1       1.890  -1.290   3.672  0.00  0.00    -0.072 A 
ENDROOT
TORSDOF 0
ENDMDL
