MODEL 1
REMARK minimizedAffinity 5.61174822
REMARK minimizedRMSD -1
REMARK  0 active torsions:
REMARK  status: ('A' for Active; 'I' for Inactive)
ROOT
ATOM      1  C1  DEN d   1       2.870  -1.433  -4.161  0.00  0.00     0.130 A 
ATOM      2  C2  DEN d   1       3.336  -0.478  -5.163  0.00  0.00    -0.031 A 
ATOM      3  C3  DEN d   1       2.181  -0.091  -5.997  0.00  0.00     0.027 A 
ATOM      4  C4  DEN d   1      -0.273  -0.870  -5.832  0.00  0.00     0.027 A 
ATOM      5  C5  DEN d   1      -1.149  -1.684  -5.149  0.00  0.00    -0.003 A 
ATOM      6  C6  DEN d   1      -0.743  -2.490  -4.118  0.00  0.00     0.001 A 
ATOM      7  C7  DEN d   1       0.565  -2.466  -3.712  0.00  0.00     0.017 A 
ATOM      8  C8  DEN d   1       1.455  -1.654  -4.401  0.00  0.00    -0.094 A 
ATOM      9  C9  DEN d   1       1.024  -0.837  -5.432  0.00  0.00    -0.072 A 
ENDROOT
TORSDOF 0
ENDMDL
