MODEL 1
REMARK minimizedAffinity -3.64046121
REMARK minimizedRMSD -1
REMARK  2 active torsions:
REMARK  status: ('A' for Active; 'I' for Inactive)
REMARK    1  A    between atoms: C1_2  and  C2_3 
REMARK    2  A    between atoms: C2_3  and  C3_4 
ROOT
ATOM      1  C3  UNL d   1       1.058  -0.479   0.829  0.00  0.00    -0.075 A 
ATOM      2  C4  UNL d   1       0.110  -0.094  -0.130  0.00  0.00     0.002 A 
ATOM      3  C5  UNL d   1      -1.254  -0.233   0.127  0.00  0.00     0.002 A 
ATOM      4  C6  UNL d   1      -1.687  -0.767   1.339  0.00  0.00    -0.004 A 
ATOM      5  C7  UNL d   1      -0.753  -1.169   2.292  0.00  0.00     0.002 A 
ATOM      6  C8  UNL d   1       0.612  -1.026   2.040  0.00  0.00     0.002 A 
ENDROOT
BRANCH   1   7
ATOM      7  C2  UNL d   1       2.535  -0.303   0.569  0.00  0.00     0.056 C 
BRANCH   7   8
ATOM      8  C1  UNL d   1       3.176  -1.465  -0.198  0.00  0.00     0.007 C 
ATOM      9  C   UNL d   1       2.333  -1.947  -1.371  0.00  0.00     0.009 C 
ENDBRANCH   7   8
ENDBRANCH   1   7
TORSDOF 2
ENDMDL
