MODEL 1
REMARK minimizedAffinity -5.57160521
REMARK minimizedRMSD -1
REMARK  2 active torsions:
REMARK  status: ('A' for Active; 'I' for Inactive)
REMARK    1  A    between atoms: C1_2  and  C2_3 
REMARK    2  A    between atoms: C2_3  and  C3_4 
ROOT
ATOM      1  C3  UNL d   1       0.026   0.027  -0.359  0.00  0.00    -0.075 A 
ATOM      2  C4  UNL d   1      -1.036   0.115   0.552  0.00  0.00     0.002 A 
ATOM      3  C5  UNL d   1      -0.834  -0.160   1.905  0.00  0.00     0.002 A 
ATOM      4  C6  UNL d   1       0.428  -0.536   2.361  0.00  0.00    -0.004 A 
ATOM      5  C7  UNL d   1       1.487  -0.642   1.462  0.00  0.00     0.002 A 
ATOM      6  C8  UNL d   1       1.288  -0.364   0.109  0.00  0.00     0.002 A 
ENDROOT
BRANCH   1   7
ATOM      7  C2  UNL d   1      -0.179   0.351  -1.820  0.00  0.00     0.056 C 
BRANCH   7   8
ATOM      8  C1  UNL d   1      -0.679   1.777  -2.077  0.00  0.00     0.007 C 
ATOM      9  C   UNL d   1       0.386   2.687  -2.676  0.00  0.00     0.009 C 
ENDBRANCH   7   8
ENDBRANCH   1   7
TORSDOF 2
ENDMDL
