MODEL 1
REMARK minimizedAffinity -6.39258289
REMARK minimizedRMSD -1
REMARK  2 active torsions:
REMARK  status: ('A' for Active; 'I' for Inactive)
REMARK    1  A    between atoms: C1_2  and  C2_3 
REMARK    2  A    between atoms: C2_3  and  C3_4 
ROOT
ATOM      1  C3  UNL d   1       0.093  -0.320  -0.181  0.00  0.00    -0.075 A 
ATOM      2  C4  UNL d   1       1.393  -0.683   0.200  0.00  0.00     0.002 A 
ATOM      3  C5  UNL d   1       1.728  -0.806   1.548  0.00  0.00     0.002 A 
ATOM      4  C6  UNL d   1       0.772  -0.558   2.532  0.00  0.00    -0.004 A 
ATOM      5  C7  UNL d   1      -0.518  -0.181   2.165  0.00  0.00     0.002 A 
ATOM      6  C8  UNL d   1      -0.857  -0.061   0.816  0.00  0.00     0.002 A 
ENDROOT
BRANCH   1   7
ATOM      7  C2  UNL d   1      -0.284  -0.214  -1.640  0.00  0.00     0.056 C 
BRANCH   7   8
ATOM      8  C1  UNL d   1      -1.173   0.990  -1.968  0.00  0.00     0.007 C 
ATOM      9  C   UNL d   1      -0.383   2.241  -2.326  0.00  0.00     0.009 C 
ENDBRANCH   7   8
ENDBRANCH   1   7
TORSDOF 2
ENDMDL
