MODEL 1
REMARK minimizedAffinity 4.96605825
REMARK minimizedRMSD -1
REMARK  0 active torsions:
REMARK  status: ('A' for Active; 'I' for Inactive)
ROOT
ATOM      1  C2' OXE d   1       3.098   2.176   0.189  0.00  0.00     0.078 C 
ATOM      2  C1' OXE d   1       1.641   4.285  -0.956  0.00  0.00     0.078 C 
ATOM      3  C1  OXE d   1       1.395   2.893  -1.483  0.00  0.00    -0.078 A 
ATOM      4  C2  OXE d   1       2.146   1.874  -0.949  0.00  0.00    -0.078 A 
ATOM      5  C3  OXE d   1       1.921   0.563  -1.360  0.00  0.00     0.003 A 
ATOM      6  C4  OXE d   1       1.046   0.293  -2.420  0.00  0.00    -0.002 A 
ATOM      7  C5  OXE d   1       0.301   1.322  -3.005  0.00  0.00    -0.002 A 
ATOM      8  C6  OXE d   1       0.432   2.619  -2.520  0.00  0.00     0.003 A 
ENDROOT
TORSDOF 0
ENDMDL
