MODEL 1
REMARK minimizedAffinity 1.9902724
REMARK minimizedRMSD -1
REMARK  0 active torsions:
REMARK  status: ('A' for Active; 'I' for Inactive)
ROOT
ATOM      1  C2' OXE d   1      -4.211   3.664   5.261  0.00  0.00     0.078 C 
ATOM      2  C1' OXE d   1      -4.783   3.008   2.593  0.00  0.00     0.078 C 
ATOM      3  C1  OXE d   1      -4.913   1.919   3.628  0.00  0.00    -0.078 A 
ATOM      4  C2  OXE d   1      -4.586   2.237   4.924  0.00  0.00    -0.078 A 
ATOM      5  C3  OXE d   1      -4.741   1.285   5.928  0.00  0.00     0.003 A 
ATOM      6  C4  OXE d   1      -5.079  -0.035   5.606  0.00  0.00    -0.002 A 
ATOM      7  C5  OXE d   1      -5.378  -0.390   4.287  0.00  0.00    -0.002 A 
ATOM      8  C6  OXE d   1      -5.341   0.583   3.294  0.00  0.00     0.003 A 
ENDROOT
TORSDOF 0
ENDMDL
