MODEL 1
REMARK minimizedAffinity 14.8700962
REMARK minimizedRMSD -1
REMARK  0 active torsions:
REMARK  status: ('A' for Active; 'I' for Inactive)
ROOT
ATOM      1  C2' OXE d   1       0.846   3.846  -4.118  0.00  0.00     0.078 C 
ATOM      2  C1' OXE d   1       3.247   3.914  -2.665  0.00  0.00     0.078 C 
ATOM      3  C1  OXE d   1       2.413   2.659  -2.588  0.00  0.00    -0.078 A 
ATOM      4  C2  OXE d   1       1.218   2.652  -3.265  0.00  0.00    -0.078 A 
ATOM      5  C3  OXE d   1       0.436   1.500  -3.272  0.00  0.00     0.003 A 
ATOM      6  C4  OXE d   1       0.782   0.404  -2.472  0.00  0.00    -0.002 A 
ATOM      7  C5  OXE d   1       1.976   0.406  -1.743  0.00  0.00    -0.002 A 
ATOM      8  C6  OXE d   1       2.822   1.506  -1.824  0.00  0.00     0.003 A 
ENDROOT
TORSDOF 0
ENDMDL
