MODEL 1
REMARK minimizedAffinity 4.21080399
REMARK minimizedRMSD -1
REMARK  0 active torsions:
REMARK  status: ('A' for Active; 'I' for Inactive)
ROOT
ATOM      1  C2' OXE d   1      -5.820   5.908   2.584  0.00  0.00     0.078 C 
ATOM      2  C1' OXE d   1      -3.119   5.837   1.825  0.00  0.00     0.078 C 
ATOM      3  C1  OXE d   1      -3.435   5.877   3.299  0.00  0.00    -0.078 A 
ATOM      4  C2  OXE d   1      -4.758   5.959   3.660  0.00  0.00    -0.078 A 
ATOM      5  C3  OXE d   1      -5.107   5.943   5.008  0.00  0.00     0.003 A 
ATOM      6  C4  OXE d   1      -4.118   6.000   5.997  0.00  0.00    -0.002 A 
ATOM      7  C5  OXE d   1      -2.764   5.957   5.650  0.00  0.00    -0.002 A 
ATOM      8  C6  OXE d   1      -2.406   5.853   4.310  0.00  0.00     0.003 A 
ENDROOT
TORSDOF 0
ENDMDL
