MODEL 1
REMARK minimizedAffinity 8.70508385
REMARK minimizedRMSD -1
REMARK  0 active torsions:
REMARK  status: ('A' for Active; 'I' for Inactive)
ROOT
ATOM      1  C2' OXE d   1      -4.753   5.998   2.208  0.00  0.00     0.078 C 
ATOM      2  C1' OXE d   1      -4.515   3.202   2.143  0.00  0.00     0.078 C 
ATOM      3  C1  OXE d   1      -4.038   3.920   3.380  0.00  0.00    -0.078 A 
ATOM      4  C2  OXE d   1      -4.116   5.292   3.385  0.00  0.00    -0.078 A 
ATOM      5  C3  OXE d   1      -3.740   6.000   4.523  0.00  0.00     0.003 A 
ATOM      6  C4  OXE d   1      -3.142   5.340   5.603  0.00  0.00    -0.002 A 
ATOM      7  C5  OXE d   1      -3.017   3.946   5.603  0.00  0.00    -0.002 A 
ATOM      8  C6  OXE d   1      -3.499   3.219   4.520  0.00  0.00     0.003 A 
ENDROOT
TORSDOF 0
ENDMDL
