MODEL 1
REMARK minimizedAffinity -1.37596452
REMARK minimizedRMSD -1
REMARK  0 active torsions:
REMARK  status: ('A' for Active; 'I' for Inactive)
ROOT
ATOM      1  C2' OXE d   1      -2.637   6.000   1.972  0.00  0.00     0.078 C 
ATOM      2  C1' OXE d   1      -5.404   5.636   2.274  0.00  0.00     0.078 C 
ATOM      3  C1  OXE d   1      -4.566   5.726   3.525  0.00  0.00    -0.078 A 
ATOM      4  C2  OXE d   1      -3.207   5.857   3.367  0.00  0.00    -0.078 A 
ATOM      5  C3  OXE d   1      -2.394   6.000   4.488  0.00  0.00     0.003 A 
ATOM      6  C4  OXE d   1      -2.928   5.857   5.774  0.00  0.00    -0.002 A 
ATOM      7  C5  OXE d   1      -4.304   5.682   5.956  0.00  0.00    -0.002 A 
ATOM      8  C6  OXE d   1      -5.140   5.658   4.846  0.00  0.00     0.003 A 
ENDROOT
TORSDOF 0
ENDMDL
