MODEL 1
REMARK minimizedAffinity 7.72035122
REMARK minimizedRMSD -1
REMARK  0 active torsions:
REMARK  status: ('A' for Active; 'I' for Inactive)
ROOT
ATOM      1  C2' OXE d   1       1.008   3.530  -5.102  0.00  0.00     0.078 C 
ATOM      2  C1' OXE d   1       0.519   0.857  -5.804  0.00  0.00     0.078 C 
ATOM      3  C1  OXE d   1       0.862   1.155  -4.366  0.00  0.00    -0.078 A 
ATOM      4  C2  OXE d   1       1.146   2.460  -4.041  0.00  0.00    -0.078 A 
ATOM      5  C3  OXE d   1       1.415   2.798  -2.718  0.00  0.00     0.003 A 
ATOM      6  C4  OXE d   1       1.550   1.800  -1.745  0.00  0.00    -0.002 A 
ATOM      7  C5  OXE d   1       1.304   0.460  -2.063  0.00  0.00    -0.002 A 
ATOM      8  C6  OXE d   1       0.918   0.127  -3.357  0.00  0.00     0.003 A 
ENDROOT
TORSDOF 0
ENDMDL
