MODEL 1
REMARK minimizedAffinity -2.55912924
REMARK minimizedRMSD -1
REMARK  0 active torsions:
REMARK  status: ('A' for Active; 'I' for Inactive)
ROOT
ATOM      1  C2' OXE d   1      -2.625   5.999   1.113  0.00  0.00     0.078 C 
ATOM      2  C1' OXE d   1      -5.396   5.862   1.541  0.00  0.00     0.078 C 
ATOM      3  C1  OXE d   1      -4.497   5.886   2.752  0.00  0.00    -0.078 A 
ATOM      4  C2  OXE d   1      -3.141   5.906   2.533  0.00  0.00    -0.078 A 
ATOM      5  C3  OXE d   1      -2.268   5.985   3.614  0.00  0.00     0.003 A 
ATOM      6  C4  OXE d   1      -2.753   5.888   4.924  0.00  0.00    -0.002 A 
ATOM      7  C5  OXE d   1      -4.129   5.827   5.169  0.00  0.00    -0.002 A 
ATOM      8  C6  OXE d   1      -5.014   5.868   4.098  0.00  0.00     0.003 A 
ENDROOT
TORSDOF 0
ENDMDL
