MODEL 1
REMARK minimizedAffinity -1.33117652
REMARK minimizedRMSD -1
REMARK  0 active torsions:
REMARK  status: ('A' for Active; 'I' for Inactive)
ROOT
ATOM      1  C2' OXE d   1      -2.994   6.000   1.719  0.00  0.00     0.078 C 
ATOM      2  C1' OXE d   1      -5.637   5.980   2.663  0.00  0.00     0.078 C 
ATOM      3  C1  OXE d   1      -4.527   5.982   3.683  0.00  0.00    -0.078 A 
ATOM      4  C2  OXE d   1      -3.236   5.944   3.212  0.00  0.00    -0.078 A 
ATOM      5  C3  OXE d   1      -2.173   6.000   4.109  0.00  0.00     0.003 A 
ATOM      6  C4  OXE d   1      -2.406   5.938   5.489  0.00  0.00    -0.002 A 
ATOM      7  C5  OXE d   1      -3.713   5.935   5.989  0.00  0.00    -0.002 A 
ATOM      8  C6  OXE d   1      -4.782   6.000   5.102  0.00  0.00     0.003 A 
ENDROOT
TORSDOF 0
ENDMDL
