MODEL 1
REMARK minimizedAffinity 0.799944997
REMARK minimizedRMSD -1
REMARK  0 active torsions:
REMARK  status: ('A' for Active; 'I' for Inactive)
ROOT
ATOM      1  C2' OXE d   1      -2.767   5.995   1.605  0.00  0.00     0.078 C 
ATOM      2  C1' OXE d   1      -5.493   5.975   2.277  0.00  0.00     0.078 C 
ATOM      3  C1  OXE d   1      -4.490   5.979   3.404  0.00  0.00    -0.078 A 
ATOM      4  C2  OXE d   1      -3.159   5.942   3.066  0.00  0.00    -0.078 A 
ATOM      5  C3  OXE d   1      -2.192   5.999   4.066  0.00  0.00     0.003 A 
ATOM      6  C4  OXE d   1      -2.563   5.940   5.415  0.00  0.00    -0.002 A 
ATOM      7  C5  OXE d   1      -3.913   5.937   5.780  0.00  0.00    -0.002 A 
ATOM      8  C6  OXE d   1      -4.888   6.000   4.790  0.00  0.00     0.003 A 
ENDROOT
TORSDOF 0
ENDMDL
