MODEL 1
REMARK minimizedAffinity 8.84870529
REMARK minimizedRMSD -1
REMARK  0 active torsions:
REMARK  status: ('A' for Active; 'I' for Inactive)
ROOT
ATOM      1  C2' OXE d   1      -0.874   5.999   3.623  0.00  0.00     0.078 C 
ATOM      2  C1' OXE d   1      -2.551   5.995   5.874  0.00  0.00     0.078 C 
ATOM      3  C1  OXE d   1      -3.200   5.942   4.513  0.00  0.00    -0.078 A 
ATOM      4  C2  OXE d   1      -2.373   5.991   3.416  0.00  0.00    -0.078 A 
ATOM      5  C3  OXE d   1      -2.917   5.890   2.139  0.00  0.00     0.003 A 
ATOM      6  C4  OXE d   1      -4.305   5.893   1.957  0.00  0.00    -0.002 A 
ATOM      7  C5  OXE d   1      -5.166   5.882   3.059  0.00  0.00    -0.002 A 
ATOM      8  C6  OXE d   1      -4.630   5.863   4.342  0.00  0.00     0.003 A 
ENDROOT
TORSDOF 0
ENDMDL
