MODEL 1
REMARK minimizedAffinity 0.738894105
REMARK minimizedRMSD -1
REMARK  0 active torsions:
REMARK  status: ('A' for Active; 'I' for Inactive)
ROOT
ATOM      1  C2' OXE d   1      -5.622   5.618   2.364  0.00  0.00     0.078 C 
ATOM      2  C1' OXE d   1      -2.863   5.968   1.984  0.00  0.00     0.078 C 
ATOM      3  C1  OXE d   1      -3.376   5.908   3.401  0.00  0.00    -0.078 A 
ATOM      4  C2  OXE d   1      -4.733   5.783   3.578  0.00  0.00    -0.078 A 
ATOM      5  C3  OXE d   1      -5.253   5.668   4.864  0.00  0.00     0.003 A 
ATOM      6  C4  OXE d   1      -4.425   5.832   5.981  0.00  0.00    -0.002 A 
ATOM      7  C5  OXE d   1      -3.045   6.000   5.823  0.00  0.00    -0.002 A 
ATOM      8  C6  OXE d   1      -2.500   5.997   4.544  0.00  0.00     0.003 A 
ENDROOT
TORSDOF 0
ENDMDL
