MODEL 1
REMARK minimizedAffinity 11.0071325
REMARK minimizedRMSD -1
REMARK  0 active torsions:
REMARK  status: ('A' for Active; 'I' for Inactive)
ROOT
ATOM      1  C2' OXE d   1       0.747   1.265  -2.573  0.00  0.00     0.078 C 
ATOM      2  C1' OXE d   1       2.290   3.562  -2.102  0.00  0.00     0.078 C 
ATOM      3  C1  OXE d   1       2.321   2.966  -3.487  0.00  0.00    -0.078 A 
ATOM      4  C2  OXE d   1       1.599   1.815  -3.696  0.00  0.00    -0.078 A 
ATOM      5  C3  OXE d   1       1.549   1.255  -4.969  0.00  0.00     0.003 A 
ATOM      6  C4  OXE d   1       2.349   1.764  -6.000  0.00  0.00    -0.002 A 
ATOM      7  C5  OXE d   1       3.122   2.912  -5.797  0.00  0.00    -0.002 A 
ATOM      8  C6  OXE d   1       3.086   3.549  -4.561  0.00  0.00     0.003 A 
ENDROOT
TORSDOF 0
ENDMDL
