MODEL 1
REMARK minimizedAffinity -0.114262484
REMARK minimizedRMSD -1
REMARK  0 active torsions:
REMARK  status: ('A' for Active; 'I' for Inactive)
ROOT
ATOM      1  C2' OXE d   1      -2.927   5.969   1.353  0.00  0.00     0.078 C 
ATOM      2  C1' OXE d   1      -5.624   5.952   2.131  0.00  0.00     0.078 C 
ATOM      3  C1  OXE d   1      -4.579   5.967   3.218  0.00  0.00    -0.078 A 
ATOM      4  C2  OXE d   1      -3.261   5.928   2.828  0.00  0.00    -0.078 A 
ATOM      5  C3  OXE d   1      -2.256   5.996   3.789  0.00  0.00     0.003 A 
ATOM      6  C4  OXE d   1      -2.574   5.948   5.152  0.00  0.00    -0.002 A 
ATOM      7  C5  OXE d   1      -3.909   5.948   5.570  0.00  0.00    -0.002 A 
ATOM      8  C6  OXE d   1      -4.921   6.000   4.618  0.00  0.00     0.003 A 
ENDROOT
TORSDOF 0
ENDMDL
