MODEL 1
REMARK minimizedAffinity 3.25177598
REMARK minimizedRMSD -1
REMARK  0 active torsions:
REMARK  status: ('A' for Active; 'I' for Inactive)
ROOT
ATOM      1  C2' OXE d   1      -2.648   5.785   1.506  0.00  0.00     0.078 C 
ATOM      2  C1' OXE d   1      -5.395   5.605   2.057  0.00  0.00     0.078 C 
ATOM      3  C1  OXE d   1      -4.452   5.760   3.224  0.00  0.00    -0.078 A 
ATOM      4  C2  OXE d   1      -3.107   5.800   2.949  0.00  0.00    -0.078 A 
ATOM      5  C3  OXE d   1      -2.197   5.996   3.984  0.00  0.00     0.003 A 
ATOM      6  C4  OXE d   1      -2.629   5.999   5.316  0.00  0.00    -0.002 A 
ATOM      7  C5  OXE d   1      -3.992   5.920   5.621  0.00  0.00    -0.002 A 
ATOM      8  C6  OXE d   1      -4.918   5.842   4.586  0.00  0.00     0.003 A 
ENDROOT
TORSDOF 0
ENDMDL
