MODEL 1
REMARK minimizedAffinity -1.25533831
REMARK minimizedRMSD -1
REMARK  0 active torsions:
REMARK  status: ('A' for Active; 'I' for Inactive)
ROOT
ATOM      1  C2' OXE d   1      -3.030   5.973   1.671  0.00  0.00     0.078 C 
ATOM      2  C1' OXE d   1      -5.516   5.953   2.974  0.00  0.00     0.078 C 
ATOM      3  C1  OXE d   1      -4.274   5.968   3.829  0.00  0.00    -0.078 A 
ATOM      4  C2  OXE d   1      -3.061   5.930   3.183  0.00  0.00    -0.078 A 
ATOM      5  C3  OXE d   1      -1.884   5.997   3.923  0.00  0.00     0.003 A 
ATOM      6  C4  OXE d   1      -1.921   5.947   5.321  0.00  0.00    -0.002 A 
ATOM      7  C5  OXE d   1      -3.145   5.945   5.999  0.00  0.00    -0.002 A 
ATOM      8  C6  OXE d   1      -4.328   5.998   5.270  0.00  0.00     0.003 A 
ENDROOT
TORSDOF 0
ENDMDL
