MODEL 1
REMARK minimizedAffinity -1.28634548
REMARK minimizedRMSD -1
REMARK  0 active torsions:
REMARK  status: ('A' for Active; 'I' for Inactive)
ROOT
ATOM      1  C2' OXE d   1       3.019   2.459  -5.860  0.00  0.00     0.078 C 
ATOM      2  C1' OXE d   1       0.483   3.414  -5.125  0.00  0.00     0.078 C 
ATOM      3  C1  OXE d   1       1.130   2.380  -4.238  0.00  0.00    -0.078 A 
ATOM      4  C2  OXE d   1       2.350   1.884  -4.630  0.00  0.00    -0.078 A 
ATOM      5  C3  OXE d   1       3.014   0.968  -3.820  0.00  0.00     0.003 A 
ATOM      6  C4  OXE d   1       2.384   0.433  -2.690  0.00  0.00    -0.002 A 
ATOM      7  C5  OXE d   1       1.125   0.896  -2.294  0.00  0.00    -0.002 A 
ATOM      8  C6  OXE d   1       0.504   1.897  -3.032  0.00  0.00     0.003 A 
ENDROOT
TORSDOF 0
ENDMDL
