MODEL 1
REMARK minimizedAffinity 9.84506321
REMARK minimizedRMSD -1
REMARK  0 active torsions:
REMARK  status: ('A' for Active; 'I' for Inactive)
ROOT
ATOM      1  C2' OXE d   1      -2.956   4.502   1.071  0.00  0.00     0.078 C 
ATOM      2  C1' OXE d   1      -5.627   5.251   1.500  0.00  0.00     0.078 C 
ATOM      3  C1  OXE d   1      -4.660   5.405   2.648  0.00  0.00    -0.078 A 
ATOM      4  C2  OXE d   1      -3.366   4.993   2.443  0.00  0.00    -0.078 A 
ATOM      5  C3  OXE d   1      -2.420   5.164   3.450  0.00  0.00     0.003 A 
ATOM      6  C4  OXE d   1      -2.810   5.609   4.720  0.00  0.00    -0.002 A 
ATOM      7  C5  OXE d   1      -4.132   5.997   4.961  0.00  0.00    -0.002 A 
ATOM      8  C6  OXE d   1      -5.058   5.942   3.926  0.00  0.00     0.003 A 
ENDROOT
TORSDOF 0
ENDMDL
