MODEL 1
REMARK minimizedAffinity -4.49527645
REMARK minimizedRMSD -1
REMARK  0 active torsions:
REMARK  status: ('A' for Active; 'I' for Inactive)
ROOT
ATOM      1  C1  BNZ d   1      -0.182  -0.987   0.783  0.00  0.00     0.000 A 
ATOM      2  C2  BNZ d   1       0.371   0.081   0.127  0.00  0.00     0.000 A 
ATOM      3  C3  BNZ d   1       0.995  -0.085  -1.077  0.00  0.00     0.000 A 
ATOM      4  C4  BNZ d   1       1.101  -1.322  -1.604  0.00  0.00     0.000 A 
ATOM      5  C5  BNZ d   1       0.557  -2.410  -0.951  0.00  0.00     0.000 A 
ATOM      6  C6  BNZ d   1      -0.105  -2.233   0.243  0.00  0.00     0.000 A 
ENDROOT
TORSDOF 0
ENDMDL
