MODEL 1
REMARK minimizedAffinity 2.21485925
REMARK minimizedRMSD -1
REMARK  0 active torsions:
REMARK  status: ('A' for Active; 'I' for Inactive)
ROOT
ATOM      1  C1  BNZ d   1      -1.104  -3.549  -3.767  0.00  0.00     0.000 A 
ATOM      2  C2  BNZ d   1      -1.062  -2.448  -2.954  0.00  0.00     0.000 A 
ATOM      3  C3  BNZ d   1      -1.820  -2.387  -1.818  0.00  0.00     0.000 A 
ATOM      4  C4  BNZ d   1      -2.648  -3.408  -1.518  0.00  0.00     0.000 A 
ATOM      5  C5  BNZ d   1      -2.709  -4.522  -2.333  0.00  0.00     0.000 A 
ATOM      6  C6  BNZ d   1      -1.915  -4.596  -3.454  0.00  0.00     0.000 A 
ENDROOT
TORSDOF 0
ENDMDL
