MODEL 1
REMARK minimizedAffinity -1.03869593
REMARK minimizedRMSD -1
REMARK  0 active torsions:
REMARK  status: ('A' for Active; 'I' for Inactive)
ROOT
ATOM      1  C1  BNZ d   1       0.448   0.011  -1.888  0.00  0.00     0.000 A 
ATOM      2  C2  BNZ d   1      -0.416  -0.789  -1.188  0.00  0.00     0.000 A 
ATOM      3  C3  BNZ d   1      -0.826  -0.443   0.069  0.00  0.00     0.000 A 
ATOM      4  C4  BNZ d   1      -0.341   0.679   0.640  0.00  0.00     0.000 A 
ATOM      5  C5  BNZ d   1       0.537   1.490  -0.050  0.00  0.00     0.000 A 
ATOM      6  C6  BNZ d   1       0.918   1.160  -1.330  0.00  0.00     0.000 A 
ENDROOT
TORSDOF 0
ENDMDL
