MODEL 1
REMARK minimizedAffinity -0.948708177
REMARK minimizedRMSD -1
REMARK  0 active torsions:
REMARK  status: ('A' for Active; 'I' for Inactive)
ROOT
ATOM      1  C1  BNZ d   1      -0.142   3.022   0.700  0.00  0.00     0.000 A 
ATOM      2  C2  BNZ d   1       0.626   4.093   1.073  0.00  0.00     0.000 A 
ATOM      3  C3  BNZ d   1       1.991   4.029   1.013  0.00  0.00     0.000 A 
ATOM      4  C4  BNZ d   1       2.585   2.884   0.621  0.00  0.00     0.000 A 
ATOM      5  C5  BNZ d   1       1.824   1.793   0.251  0.00  0.00     0.000 A 
ATOM      6  C6  BNZ d   1       0.450   1.873   0.275  0.00  0.00     0.000 A 
ENDROOT
TORSDOF 0
ENDMDL
