MODEL 1
REMARK minimizedAffinity -5.31378746
REMARK minimizedRMSD -1
REMARK  0 active torsions:
REMARK  status: ('A' for Active; 'I' for Inactive)
ROOT
ATOM      1  C1  BNZ d   1      -0.601  -2.283   0.745  0.00  0.00     0.000 A 
ATOM      2  C2  BNZ d   1      -0.605  -0.914   0.792  0.00  0.00     0.000 A 
ATOM      3  C3  BNZ d   1      -0.121  -0.177  -0.252  0.00  0.00     0.000 A 
ATOM      4  C4  BNZ d   1       0.403  -0.807  -1.323  0.00  0.00     0.000 A 
ATOM      5  C5  BNZ d   1       0.423  -2.187  -1.381  0.00  0.00     0.000 A 
ATOM      6  C6  BNZ d   1      -0.101  -2.926  -0.345  0.00  0.00     0.000 A 
ENDROOT
TORSDOF 0
ENDMDL
