MODEL 1
REMARK minimizedAffinity -5.06721401
REMARK minimizedRMSD -1
REMARK  0 active torsions:
REMARK  status: ('A' for Active; 'I' for Inactive)
ROOT
ATOM      1  C1  BNZ d   1      -0.076  -2.227   0.333  0.00  0.00     0.000 A 
ATOM      2  C2  BNZ d   1      -0.329  -1.559  -0.836  0.00  0.00     0.000 A 
ATOM      3  C3  BNZ d   1      -0.050  -2.133  -2.045  0.00  0.00     0.000 A 
ATOM      4  C4  BNZ d   1       0.519  -3.355  -2.082  0.00  0.00     0.000 A 
ATOM      5  C5  BNZ d   1       0.788  -4.037  -0.913  0.00  0.00     0.000 A 
ATOM      6  C6  BNZ d   1       0.470  -3.473   0.301  0.00  0.00     0.000 A 
ENDROOT
TORSDOF 0
ENDMDL
