MODEL 1
REMARK minimizedAffinity -4.64689207
REMARK minimizedRMSD -1
REMARK  0 active torsions:
REMARK  status: ('A' for Active; 'I' for Inactive)
ROOT
ATOM      1  C1  BNZ d   1       0.371  -4.119  -1.132  0.00  0.00     0.000 A 
ATOM      2  C2  BNZ d   1      -0.174  -4.041   0.122  0.00  0.00     0.000 A 
ATOM      3  C3  BNZ d   1      -0.552  -2.837   0.647  0.00  0.00     0.000 A 
ATOM      4  C4  BNZ d   1      -0.349  -1.710  -0.065  0.00  0.00     0.000 A 
ATOM      5  C5  BNZ d   1       0.208  -1.771  -1.327  0.00  0.00     0.000 A 
ATOM      6  C6  BNZ d   1       0.551  -2.989  -1.868  0.00  0.00     0.000 A 
ENDROOT
TORSDOF 0
ENDMDL
