MODEL 1
REMARK minimizedAffinity -4.36440134
REMARK minimizedRMSD -1
REMARK  0 active torsions:
REMARK  status: ('A' for Active; 'I' for Inactive)
ROOT
ATOM      1  C1  BNZ d   1       0.969  -2.258  -1.263  0.00  0.00     0.000 A 
ATOM      2  C2  BNZ d   1       0.803  -1.499  -2.390  0.00  0.00     0.000 A 
ATOM      3  C3  BNZ d   1       0.427  -0.188  -2.303  0.00  0.00     0.000 A 
ATOM      4  C4  BNZ d   1       0.178   0.350  -1.092  0.00  0.00     0.000 A 
ATOM      5  C5  BNZ d   1       0.331  -0.404   0.054  0.00  0.00     0.000 A 
ATOM      6  C6  BNZ d   1       0.747  -1.713  -0.036  0.00  0.00     0.000 A 
ENDROOT
TORSDOF 0
ENDMDL
