MODEL 1
REMARK minimizedAffinity -5.24945068
REMARK minimizedRMSD -1
REMARK  0 active torsions:
REMARK  status: ('A' for Active; 'I' for Inactive)
ROOT
ATOM      1  C1  BNZ d   1       0.341  -3.993  -0.822  0.00  0.00     0.000 A 
ATOM      2  C2  BNZ d   1       0.353  -3.088  -1.849  0.00  0.00     0.000 A 
ATOM      3  C3  BNZ d   1       0.382  -1.745  -1.599  0.00  0.00     0.000 A 
ATOM      4  C4  BNZ d   1       0.358  -1.308  -0.323  0.00  0.00     0.000 A 
ATOM      5  C5  BNZ d   1       0.336  -2.207   0.724  0.00  0.00     0.000 A 
ATOM      6  C6  BNZ d   1       0.347  -3.559   0.468  0.00  0.00     0.000 A 
ENDROOT
TORSDOF 0
ENDMDL
