MODEL 1
REMARK minimizedAffinity -5.0343523
REMARK minimizedRMSD -1
REMARK  0 active torsions:
REMARK  status: ('A' for Active; 'I' for Inactive)
ROOT
ATOM      1  C1  BNZ d   1      -1.054  -0.495   1.023  0.00  0.00     0.000 A 
ATOM      2  C2  BNZ d   1      -1.180  -1.843   0.819  0.00  0.00     0.000 A 
ATOM      3  C3  BNZ d   1      -0.242  -2.534   0.103  0.00  0.00     0.000 A 
ATOM      4  C4  BNZ d   1       0.798  -1.869  -0.441  0.00  0.00     0.000 A 
ATOM      5  C5  BNZ d   1       0.934  -0.508  -0.251  0.00  0.00     0.000 A 
ATOM      6  C6  BNZ d   1       0.009   0.176   0.503  0.00  0.00     0.000 A 
ENDROOT
TORSDOF 0
ENDMDL
