MODEL 1
REMARK minimizedAffinity -4.01138163
REMARK minimizedRMSD -1
REMARK  0 active torsions:
REMARK  status: ('A' for Active; 'I' for Inactive)
ROOT
ATOM      1  C1  BNZ d   1      -0.082  -1.699   0.050  0.00  0.00     0.000 A 
ATOM      2  C2  BNZ d   1       0.401  -1.121  -1.094  0.00  0.00     0.000 A 
ATOM      3  C3  BNZ d   1       0.557  -1.855  -2.237  0.00  0.00     0.000 A 
ATOM      4  C4  BNZ d   1       0.269  -3.172  -2.224  0.00  0.00     0.000 A 
ATOM      5  C5  BNZ d   1      -0.210  -3.772  -1.076  0.00  0.00     0.000 A 
ATOM      6  C6  BNZ d   1      -0.403  -3.022   0.062  0.00  0.00     0.000 A 
ENDROOT
TORSDOF 0
ENDMDL
