MODEL 1
REMARK minimizedAffinity -4.42148304
REMARK minimizedRMSD -1
REMARK  0 active torsions:
REMARK  status: ('A' for Active; 'I' for Inactive)
ROOT
ATOM      1  C1  BNZ d   1      -0.466  -3.566  -1.287  0.00  0.00     0.000 A 
ATOM      2  C2  BNZ d   1      -0.545  -2.871  -0.110  0.00  0.00     0.000 A 
ATOM      3  C3  BNZ d   1      -0.116  -1.575  -0.031  0.00  0.00     0.000 A 
ATOM      4  C4  BNZ d   1       0.427  -0.990  -1.118  0.00  0.00     0.000 A 
ATOM      5  C5  BNZ d   1       0.522  -1.680  -2.310  0.00  0.00     0.000 A 
ATOM      6  C6  BNZ d   1       0.054  -2.971  -2.396  0.00  0.00     0.000 A 
ENDROOT
TORSDOF 0
ENDMDL
