MODEL 1
REMARK minimizedAffinity -3.12025595
REMARK minimizedRMSD -1
REMARK  0 active torsions:
REMARK  status: ('A' for Active; 'I' for Inactive)
ROOT
ATOM      1  C1  BNZ d   1      -0.066  -2.126   0.288  0.00  0.00     0.000 A 
ATOM      2  C2  BNZ d   1      -0.333  -3.368  -0.224  0.00  0.00     0.000 A 
ATOM      3  C3  BNZ d   1       0.141  -3.735  -1.452  0.00  0.00     0.000 A 
ATOM      4  C4  BNZ d   1       0.846  -2.848  -2.183  0.00  0.00     0.000 A 
ATOM      5  C5  BNZ d   1       1.116  -1.589  -1.685  0.00  0.00     0.000 A 
ATOM      6  C6  BNZ d   1       0.671  -1.236  -0.432  0.00  0.00     0.000 A 
ENDROOT
TORSDOF 0
ENDMDL
