MODEL 1
REMARK minimizedAffinity 10.1378555
REMARK minimizedRMSD -1
REMARK  0 active torsions:
REMARK  status: ('A' for Active; 'I' for Inactive)
ROOT
ATOM      1  N1  IND d   1      -5.869   3.896   0.438  0.00  0.00    -0.196 N 
ATOM      2  C2  IND d   1      -5.912   2.530   0.480  0.00  0.00     0.054 A 
ATOM      3  C3  IND d   1      -6.000   2.024  -0.770  0.00  0.00    -0.031 A 
ATOM      4  C4  IND d   1      -5.985   3.247  -3.035  0.00  0.00     0.051 A 
ATOM      5  C5  IND d   1      -5.997   4.499  -3.583  0.00  0.00    -0.031 A 
ATOM      6  C6  IND d   1      -5.963   5.637  -2.803  0.00  0.00     0.015 A 
ATOM      7  C7  IND d   1      -5.904   5.565  -1.440  0.00  0.00    -0.016 A 
ATOM      8  C8  IND d   1      -5.900   4.295  -0.880  0.00  0.00    -0.047 A 
ATOM      9  C9  IND d   1      -5.977   3.137  -1.665  0.00  0.00    -0.096 A 
ATOM     10  HN1 IND d   1      -5.829   4.418   1.120  0.00  0.00     0.298 HD
ENDROOT
TORSDOF 0
ENDMDL
