MODEL 1
REMARK minimizedAffinity 7.59542608
REMARK minimizedRMSD -1
REMARK  0 active torsions:
REMARK  status: ('A' for Active; 'I' for Inactive)
ROOT
ATOM      1  N1  IND d   1      -0.800  -0.004   1.565  0.00  0.00    -0.196 N 
ATOM      2  C2  IND d   1      -0.544   1.320   1.338  0.00  0.00     0.054 A 
ATOM      3  C3  IND d   1      -1.338   1.789   0.349  0.00  0.00    -0.031 A 
ATOM      4  C4  IND d   1      -3.197   0.587  -0.965  0.00  0.00     0.051 A 
ATOM      5  C5  IND d   1      -3.774  -0.640  -1.137  0.00  0.00    -0.031 A 
ATOM      6  C6  IND d   1      -3.383  -1.739  -0.400  0.00  0.00     0.015 A 
ATOM      7  C7  IND d   1      -2.404  -1.649   0.549  0.00  0.00    -0.016 A 
ATOM      8  C8  IND d   1      -1.811  -0.406   0.721  0.00  0.00    -0.047 A 
ATOM      9  C9  IND d   1      -2.174   0.703  -0.054  0.00  0.00    -0.096 A 
ATOM     10  HN1 IND d   1      -0.397  -0.501   2.139  0.00  0.00     0.298 HD
ENDROOT
TORSDOF 0
ENDMDL
