MODEL 1
REMARK minimizedAffinity 9.00844479
REMARK minimizedRMSD -1
REMARK  0 active torsions:
REMARK  status: ('A' for Active; 'I' for Inactive)
ROOT
ATOM      1  N1  IND d   1      -3.030  -1.572  -4.033  0.00  0.00    -0.196 N 
ATOM      2  C2  IND d   1      -3.510  -0.389  -3.542  0.00  0.00     0.054 A 
ATOM      3  C3  IND d   1      -3.411  -0.365  -2.194  0.00  0.00    -0.031 A 
ATOM      4  C4  IND d   1      -2.399  -2.112  -0.596  0.00  0.00     0.051 A 
ATOM      5  C5  IND d   1      -1.868  -3.371  -0.574  0.00  0.00    -0.031 A 
ATOM      6  C6  IND d   1      -1.691  -4.108  -1.726  0.00  0.00     0.015 A 
ATOM      7  C7  IND d   1      -2.029  -3.607  -2.952  0.00  0.00    -0.016 A 
ATOM      8  C8  IND d   1      -2.576  -2.332  -2.978  0.00  0.00    -0.047 A 
ATOM      9  C9  IND d   1      -2.797  -1.595  -1.807  0.00  0.00    -0.096 A 
ATOM     10  HN1 IND d   1      -3.015  -1.802  -4.861  0.00  0.00     0.298 HD
ENDROOT
TORSDOF 0
ENDMDL
