MODEL 1
REMARK minimizedAffinity 8.79245377
REMARK minimizedRMSD -1
REMARK  0 active torsions:
REMARK  status: ('A' for Active; 'I' for Inactive)
ROOT
ATOM      1  N1  IND d   1       0.852  -0.781   3.119  0.00  0.00    -0.196 N 
ATOM      2  C2  IND d   1       1.468  -0.865   1.902  0.00  0.00     0.054 A 
ATOM      3  C3  IND d   1       2.231  -1.979   1.836  0.00  0.00    -0.031 A 
ATOM      4  C4  IND d   1       2.535  -3.857   3.571  0.00  0.00     0.051 A 
ATOM      5  C5  IND d   1       2.204  -4.206   4.850  0.00  0.00    -0.031 A 
ATOM      6  C6  IND d   1       1.386  -3.417   5.632  0.00  0.00     0.015 A 
ATOM      7  C7  IND d   1       0.858  -2.249   5.159  0.00  0.00    -0.016 A 
ATOM      8  C8  IND d   1       1.198  -1.888   3.863  0.00  0.00    -0.047 A 
ATOM      9  C9  IND d   1       2.062  -2.664   3.079  0.00  0.00    -0.096 A 
ATOM     10  HN1 IND d   1       0.335  -0.144   3.377  0.00  0.00     0.298 HD
ENDROOT
TORSDOF 0
ENDMDL
