MODEL 1
REMARK minimizedAffinity 14.0332088
REMARK minimizedRMSD -1
REMARK  0 active torsions:
REMARK  status: ('A' for Active; 'I' for Inactive)
ROOT
ATOM      1  N1  IND d   1       0.396   3.024   1.270  0.00  0.00    -0.196 N 
ATOM      2  C2  IND d   1      -0.556   3.717   0.576  0.00  0.00     0.054 A 
ATOM      3  C3  IND d   1      -1.571   2.897   0.222  0.00  0.00    -0.031 A 
ATOM      4  C4  IND d   1      -1.925   0.405   0.764  0.00  0.00     0.051 A 
ATOM      5  C5  IND d   1      -1.310  -0.669   1.342  0.00  0.00    -0.031 A 
ATOM      6  C6  IND d   1      -0.070  -0.565   1.940  0.00  0.00     0.015 A 
ATOM      7  C7  IND d   1       0.598   0.625   1.992  0.00  0.00    -0.016 A 
ATOM      8  C8  IND d   1      -0.021   1.717   1.400  0.00  0.00    -0.047 A 
ATOM      9  C9  IND d   1      -1.260   1.608   0.755  0.00  0.00    -0.096 A 
ATOM     10  HN1 IND d   1       1.132   3.349   1.574  0.00  0.00     0.298 HD
ENDROOT
TORSDOF 0
ENDMDL
