MODEL 1
REMARK minimizedAffinity 4.67913675
REMARK minimizedRMSD -1
REMARK  0 active torsions:
REMARK  status: ('A' for Active; 'I' for Inactive)
ROOT
ATOM      1  N1  IND d   1       0.171  -5.622  -1.922  0.00  0.00    -0.196 N 
ATOM      2  C2  IND d   1       0.740  -4.655  -2.702  0.00  0.00     0.054 A 
ATOM      3  C3  IND d   1       0.027  -3.508  -2.625  0.00  0.00    -0.031 A 
ATOM      4  C4  IND d   1      -2.049  -2.966  -1.202  0.00  0.00     0.051 A 
ATOM      5  C5  IND d   1      -2.956  -3.542  -0.357  0.00  0.00    -0.031 A 
ATOM      6  C6  IND d   1      -2.863  -4.866   0.020  0.00  0.00     0.015 A 
ATOM      7  C7  IND d   1      -1.850  -5.665  -0.428  0.00  0.00    -0.016 A 
ATOM      8  C8  IND d   1      -0.931  -5.086  -1.292  0.00  0.00    -0.047 A 
ATOM      9  C9  IND d   1      -1.043  -3.754  -1.711  0.00  0.00    -0.096 A 
ATOM     10  HN1 IND d   1       0.453  -6.430  -1.839  0.00  0.00     0.298 HD
ENDROOT
TORSDOF 0
ENDMDL
