MODEL 1
REMARK minimizedAffinity 1.97064114
REMARK minimizedRMSD -1
REMARK  0 active torsions:
REMARK  status: ('A' for Active; 'I' for Inactive)
ROOT
ATOM      1  N1  IND d   1      -2.701  -1.879   0.343  0.00  0.00    -0.196 N 
ATOM      2  C2  IND d   1      -3.643  -1.325  -0.478  0.00  0.00     0.054 A 
ATOM      3  C3  IND d   1      -3.456   0.011  -0.574  0.00  0.00    -0.031 A 
ATOM      4  C4  IND d   1      -1.607   1.481   0.450  0.00  0.00     0.051 A 
ATOM      5  C5  IND d   1      -0.541   1.432   1.303  0.00  0.00    -0.031 A 
ATOM      6  C6  IND d   1      -0.131   0.253   1.890  0.00  0.00     0.015 A 
ATOM      7  C7  IND d   1      -0.767  -0.929   1.636  0.00  0.00    -0.016 A 
ATOM      8  C8  IND d   1      -1.854  -0.882   0.775  0.00  0.00    -0.047 A 
ATOM      9  C9  IND d   1      -2.302   0.319   0.209  0.00  0.00    -0.096 A 
ATOM     10  HN1 IND d   1      -2.647  -2.711   0.555  0.00  0.00     0.298 HD
ENDROOT
TORSDOF 0
ENDMDL
