MODEL 1
REMARK minimizedAffinity 8.96583939
REMARK minimizedRMSD -1
REMARK  0 active torsions:
REMARK  status: ('A' for Active; 'I' for Inactive)
ROOT
ATOM      1  N1  IND d   1      -4.658   3.194  -4.946  0.00  0.00    -0.196 N 
ATOM      2  C2  IND d   1      -4.171   2.086  -4.310  0.00  0.00     0.054 A 
ATOM      3  C3  IND d   1      -4.265   2.234  -2.970  0.00  0.00    -0.031 A 
ATOM      4  C4  IND d   1      -5.278   4.167  -1.604  0.00  0.00     0.051 A 
ATOM      5  C5  IND d   1      -5.815   5.417  -1.741  0.00  0.00    -0.031 A 
ATOM      6  C6  IND d   1      -6.000   6.000  -2.978  0.00  0.00     0.015 A 
ATOM      7  C7  IND d   1      -5.663   5.348  -4.130  0.00  0.00    -0.016 A 
ATOM      8  C8  IND d   1      -5.112   4.082  -3.995  0.00  0.00    -0.047 A 
ATOM      9  C9  IND d   1      -4.883   3.502  -2.741  0.00  0.00    -0.096 A 
ATOM     10  HN1 IND d   1      -4.677   3.316  -5.797  0.00  0.00     0.298 HD
ENDROOT
TORSDOF 0
ENDMDL
