MODEL 1
REMARK minimizedAffinity 1.91877973
REMARK minimizedRMSD -1
REMARK  0 active torsions:
REMARK  status: ('A' for Active; 'I' for Inactive)
ROOT
ATOM      1  N1  IND d   1      -0.197  -0.948   1.942  0.00  0.00    -0.196 N 
ATOM      2  C2  IND d   1      -1.497  -1.186   1.589  0.00  0.00     0.054 A 
ATOM      3  C3  IND d   1      -1.549  -1.939   0.467  0.00  0.00    -0.031 A 
ATOM      4  C4  IND d   1       0.372  -2.978  -0.896  0.00  0.00     0.051 A 
ATOM      5  C5  IND d   1       1.735  -3.010  -0.985  0.00  0.00    -0.031 A 
ATOM      6  C6  IND d   1       2.541  -2.346  -0.082  0.00  0.00     0.015 A 
ATOM      7  C7  IND d   1       2.010  -1.630   0.954  0.00  0.00    -0.016 A 
ATOM      8  C8  IND d   1       0.626  -1.589   1.042  0.00  0.00    -0.047 A 
ATOM      9  C9  IND d   1      -0.197  -2.226   0.105  0.00  0.00    -0.096 A 
ATOM     10  HN1 IND d   1       0.062  -0.477   2.613  0.00  0.00     0.298 HD
ENDROOT
TORSDOF 0
ENDMDL
