MODEL 1
REMARK minimizedAffinity 0.925993204
REMARK minimizedRMSD -1
REMARK  1 active torsions:
REMARK  status: ('A' for Active; 'I' for Inactive)
REMARK    1  A    between atoms: C1_2  and  C2_3 
ROOT
ATOM      1  C2  UNL d   1      -0.848   2.174  -1.752  0.00  0.00    -0.073 A 
ATOM      2  C3  UNL d   1      -0.428   2.069  -0.421  0.00  0.00    -0.002 A 
ATOM      3  C4  UNL d   1       0.055   3.190   0.256  0.00  0.00     0.004 A 
ATOM      4  C5  UNL d   1       0.116   4.426  -0.387  0.00  0.00    -0.004 A 
ATOM      5  C6  UNL d   1      -0.310   4.553  -1.713  0.00  0.00    -0.075 A 
ATOM      6  C7  UNL d   1      -0.249   5.876  -2.420  0.00  0.00     0.076 C 
ATOM      7  C8  UNL d   1      -0.791   3.423  -2.387  0.00  0.00     0.001 A 
ENDROOT
BRANCH   1   8
ATOM      8  C1  UNL d   1      -1.376   0.968  -2.485  0.00  0.00     0.053 C 
ATOM      9  C   UNL d   1      -0.501  -0.257  -2.273  0.00  0.00     0.018 C 
ENDBRANCH   1   8
TORSDOF 1
ENDMDL
