MODEL 1
REMARK minimizedAffinity 3.39215636
REMARK minimizedRMSD -1
REMARK  1 active torsions:
REMARK  status: ('A' for Active; 'I' for Inactive)
REMARK    1  A    between atoms: C1_2  and  C2_3 
ROOT
ATOM      1  C2  UNL d   1      -0.921   2.342   1.372  0.00  0.00    -0.073 A 
ATOM      2  C3  UNL d   1      -0.504   1.754   0.172  0.00  0.00    -0.002 A 
ATOM      3  C4  UNL d   1      -0.316   2.536  -0.968  0.00  0.00     0.004 A 
ATOM      4  C5  UNL d   1      -0.535   3.913  -0.919  0.00  0.00    -0.004 A 
ATOM      5  C6  UNL d   1      -0.941   4.520   0.274  0.00  0.00    -0.075 A 
ATOM      6  C7  UNL d   1      -1.184   5.999   0.342  0.00  0.00     0.076 C 
ATOM      7  C8  UNL d   1      -1.130   3.728   1.414  0.00  0.00     0.001 A 
ENDROOT
BRANCH   1   8
ATOM      8  C1  UNL d   1      -1.119   1.502   2.607  0.00  0.00     0.053 C 
ATOM      9  C   UNL d   1       0.200   0.999   3.172  0.00  0.00     0.018 C 
ENDBRANCH   1   8
TORSDOF 1
ENDMDL
