MODEL 1
REMARK minimizedAffinity -4.17178869
REMARK minimizedRMSD -1
REMARK  1 active torsions:
REMARK  status: ('A' for Active; 'I' for Inactive)
REMARK    1  A    between atoms: C1_2  and  C2_3 
ROOT
ATOM      1  C2  UNL d   1       0.368   3.078   0.472  0.00  0.00    -0.073 A 
ATOM      2  C3  UNL d   1      -0.044   2.841  -0.844  0.00  0.00    -0.002 A 
ATOM      3  C4  UNL d   1      -0.351   1.547  -1.265  0.00  0.00     0.004 A 
ATOM      4  C5  UNL d   1      -0.256   0.478  -0.374  0.00  0.00    -0.004 A 
ATOM      5  C6  UNL d   1       0.143   0.696   0.949  0.00  0.00    -0.075 A 
ATOM      6  C7  UNL d   1       0.253  -0.444   1.919  0.00  0.00     0.076 C 
ATOM      7  C8  UNL d   1       0.452   1.998   1.363  0.00  0.00     0.001 A 
ENDROOT
BRANCH   1   8
ATOM      8  C1  UNL d   1       0.694   4.475   0.933  0.00  0.00     0.053 C 
ATOM      9  C   UNL d   1       2.136   4.600   1.399  0.00  0.00     0.018 C 
ENDBRANCH   1   8
TORSDOF 1
ENDMDL
