MODEL 1
REMARK minimizedAffinity -3.73501492
REMARK minimizedRMSD -1
REMARK  2 active torsions:
REMARK  status: ('A' for Active; 'I' for Inactive)
REMARK    1  A    between atoms: C2'_3  and  C1'_4 
REMARK    2  A    between atoms: C1'_4  and  C1_5 
ROOT
ATOM      1  C1  I4B d   1       0.340   0.247  -0.828  0.00  0.00    -0.075 A 
ATOM      2  C2  I4B d   1       0.971  -0.844  -0.283  0.00  0.00     0.003 A 
ATOM      3  C3  I4B d   1       2.227  -1.264  -0.783  0.00  0.00     0.002 A 
ATOM      4  C4  I4B d   1       2.789  -0.601  -1.854  0.00  0.00    -0.004 A 
ATOM      5  C5  I4B d   1       2.159   0.518  -2.391  0.00  0.00     0.002 A 
ATOM      6  C6  I4B d   1       0.932   0.953  -1.867  0.00  0.00     0.003 A 
ENDROOT
BRANCH   1   7
ATOM      7  C1' I4B d   1      -1.001   0.643  -0.298  0.00  0.00     0.060 C 
BRANCH   7   8
ATOM      8  C2' I4B d   1      -0.934   0.609   1.215  0.00  0.00    -0.013 C 
ATOM      9  C4' I4B d   1      -0.501   1.940   1.772  0.00  0.00     0.013 C 
ATOM     10  C3' I4B d   1      -2.287   0.221   1.731  0.00  0.00     0.013 C 
ENDBRANCH   7   8
ENDBRANCH   1   7
TORSDOF 2
ENDMDL
