MODEL 1
REMARK minimizedAffinity -5.33126879
REMARK minimizedRMSD -1
REMARK  2 active torsions:
REMARK  status: ('A' for Active; 'I' for Inactive)
REMARK    1  A    between atoms: C2'_3  and  C1'_4 
REMARK    2  A    between atoms: C1'_4  and  C1_5 
ROOT
ATOM      1  C1  I4B d   1      -1.079   0.375   0.394  0.00  0.00    -0.075 A 
ATOM      2  C2  I4B d   1      -1.242   1.285  -0.620  0.00  0.00     0.003 A 
ATOM      3  C3  I4B d   1      -0.162   1.591  -1.484  0.00  0.00     0.002 A 
ATOM      4  C4  I4B d   1       1.068   1.005  -1.267  0.00  0.00    -0.004 A 
ATOM      5  C5  I4B d   1       1.225   0.066  -0.252  0.00  0.00     0.002 A 
ATOM      6  C6  I4B d   1       0.142  -0.261   0.576  0.00  0.00     0.003 A 
ENDROOT
BRANCH   1   7
ATOM      7  C1' I4B d   1      -2.231   0.099   1.308  0.00  0.00     0.060 C 
BRANCH   7   8
ATOM      8  C2' I4B d   1      -1.808   0.464   2.716  0.00  0.00    -0.013 C 
ATOM      9  C4' I4B d   1      -2.054   1.923   2.999  0.00  0.00     0.013 C 
ATOM     10  C3' I4B d   1      -2.569  -0.408   3.669  0.00  0.00     0.013 C 
ENDBRANCH   7   8
ENDBRANCH   1   7
TORSDOF 2
ENDMDL
