MODEL 1
REMARK minimizedAffinity -5.75431538
REMARK minimizedRMSD -1
REMARK  2 active torsions:
REMARK  status: ('A' for Active; 'I' for Inactive)
REMARK    1  A    between atoms: C2'_3  and  C1'_4 
REMARK    2  A    between atoms: C1'_4  and  C1_5 
ROOT
ATOM      1  C1  I4B d   1       0.240  -0.666   0.120  0.00  0.00    -0.075 A 
ATOM      2  C2  I4B d   1       0.426  -1.713  -0.748  0.00  0.00     0.003 A 
ATOM      3  C3  I4B d   1       1.611  -1.800  -1.518  0.00  0.00     0.002 A 
ATOM      4  C4  I4B d   1       2.556  -0.799  -1.425  0.00  0.00    -0.004 A 
ATOM      5  C5  I4B d   1       2.377   0.250  -0.528  0.00  0.00     0.002 A 
ATOM      6  C6  I4B d   1       1.218   0.311   0.259  0.00  0.00     0.003 A 
ENDROOT
BRANCH   1   7
ATOM      7  C1' I4B d   1      -1.038  -0.589   0.892  0.00  0.00     0.060 C 
BRANCH   7   8
ATOM      8  C2' I4B d   1      -1.306   0.869   1.206  0.00  0.00    -0.013 C 
ATOM      9  C4' I4B d   1      -1.819   1.602  -0.006  0.00  0.00     0.013 C 
ATOM     10  C3' I4B d   1      -2.295   0.927   2.332  0.00  0.00     0.013 C 
ENDBRANCH   7   8
ENDBRANCH   1   7
TORSDOF 2
ENDMDL
