MODEL 1
REMARK minimizedAffinity -4.25177622
REMARK minimizedRMSD -1
REMARK  2 active torsions:
REMARK  status: ('A' for Active; 'I' for Inactive)
REMARK    1  A    between atoms: C2'_3  and  C1'_4 
REMARK    2  A    between atoms: C1'_4  and  C1_5 
ROOT
ATOM      1  C1  I4B d   1       0.360  -0.017  -0.280  0.00  0.00    -0.075 A 
ATOM      2  C2  I4B d   1       0.499  -1.064  -1.157  0.00  0.00     0.003 A 
ATOM      3  C3  I4B d   1       1.786  -1.473  -1.580  0.00  0.00     0.002 A 
ATOM      4  C4  I4B d   1       2.897  -0.780  -1.145  0.00  0.00    -0.004 A 
ATOM      5  C5  I4B d   1       2.756   0.267  -0.239  0.00  0.00     0.002 A 
ATOM      6  C6  I4B d   1       1.480   0.644   0.206  0.00  0.00     0.003 A 
ENDROOT
BRANCH   1   7
ATOM      7  C1' I4B d   1      -1.017   0.410   0.120  0.00  0.00     0.060 C 
BRANCH   7   8
ATOM      8  C2' I4B d   1      -1.186   0.113   1.596  0.00  0.00    -0.013 C 
ATOM      9  C4' I4B d   1      -1.025   1.360   2.425  0.00  0.00     0.013 C 
ATOM     10  C3' I4B d   1      -2.542  -0.497   1.793  0.00  0.00     0.013 C 
ENDBRANCH   7   8
ENDBRANCH   1   7
TORSDOF 2
ENDMDL
