MODEL 1
REMARK minimizedAffinity 0.0267671701
REMARK minimizedRMSD -1
REMARK  2 active torsions:
REMARK  status: ('A' for Active; 'I' for Inactive)
REMARK    1  A    between atoms: C2'_3  and  C1'_4 
REMARK    2  A    between atoms: C1'_4  and  C1_5 
ROOT
ATOM      1  C1  I4B d   1      -0.189   0.188   0.058  0.00  0.00    -0.075 A 
ATOM      2  C2  I4B d   1      -0.243  -1.021  -0.589  0.00  0.00     0.003 A 
ATOM      3  C3  I4B d   1       0.920  -1.562  -1.189  0.00  0.00     0.002 A 
ATOM      4  C4  I4B d   1       2.096  -0.841  -1.162  0.00  0.00    -0.004 A 
ATOM      5  C5  I4B d   1       2.155   0.374  -0.486  0.00  0.00     0.002 A 
ATOM      6  C6  I4B d   1       1.009   0.887   0.139  0.00  0.00     0.003 A 
ENDROOT
BRANCH   1   7
ATOM      7  C1' I4B d   1      -1.443   0.745   0.652  0.00  0.00     0.060 C 
BRANCH   7   8
ATOM      8  C2' I4B d   1      -1.449   0.410   2.130  0.00  0.00    -0.013 C 
ATOM      9  C4' I4B d   1      -1.386   1.657   2.972  0.00  0.00     0.013 C 
ATOM     10  C3' I4B d   1      -2.691  -0.378   2.421  0.00  0.00     0.013 C 
ENDBRANCH   7   8
ENDBRANCH   1   7
TORSDOF 2
ENDMDL
