MODEL 1
REMARK minimizedAffinity -4.73166847
REMARK minimizedRMSD -1
REMARK  2 active torsions:
REMARK  status: ('A' for Active; 'I' for Inactive)
REMARK    1  A    between atoms: C2'_3  and  C1'_4 
REMARK    2  A    between atoms: C1'_4  and  C1_5 
ROOT
ATOM      1  C1  I4B d   1      -0.679   0.526   0.276  0.00  0.00    -0.075 A 
ATOM      2  C2  I4B d   1      -0.501   1.507  -0.667  0.00  0.00     0.003 A 
ATOM      3  C3  I4B d   1       0.644   1.495  -1.500  0.00  0.00     0.002 A 
ATOM      4  C4  I4B d   1       1.603   0.519  -1.324  0.00  0.00    -0.004 A 
ATOM      5  C5  I4B d   1       1.409  -0.489  -0.383  0.00  0.00     0.002 A 
ATOM      6  C6  I4B d   1       0.255  -0.493   0.414  0.00  0.00     0.003 A 
ENDROOT
BRANCH   1   7
ATOM      7  C1' I4B d   1      -1.883   0.587   1.162  0.00  0.00     0.060 C 
BRANCH   7   8
ATOM      8  C2' I4B d   1      -1.409   0.851   2.577  0.00  0.00    -0.013 C 
ATOM      9  C4' I4B d   1      -1.507   2.313   2.921  0.00  0.00     0.013 C 
ATOM     10  C3' I4B d   1      -2.241   0.019   3.506  0.00  0.00     0.013 C 
ENDBRANCH   7   8
ENDBRANCH   1   7
TORSDOF 2
ENDMDL
