MODEL 1
REMARK minimizedAffinity 2.32580948
REMARK minimizedRMSD -1
REMARK  2 active torsions:
REMARK  status: ('A' for Active; 'I' for Inactive)
REMARK    1  A    between atoms: C2'_3  and  C1'_4 
REMARK    2  A    between atoms: C1'_4  and  C1_5 
ROOT
ATOM      1  C1  I4B d   1      -1.004   0.512   0.624  0.00  0.00    -0.075 A 
ATOM      2  C2  I4B d   1      -1.300   1.168  -0.545  0.00  0.00     0.003 A 
ATOM      3  C3  I4B d   1      -0.277   1.455  -1.481  0.00  0.00     0.002 A 
ATOM      4  C4  I4B d   1       1.028   1.116  -1.186  0.00  0.00    -0.004 A 
ATOM      5  C5  I4B d   1       1.323   0.430  -0.012  0.00  0.00     0.002 A 
ATOM      6  C6  I4B d   1       0.300   0.115   0.894  0.00  0.00     0.003 A 
ENDROOT
BRANCH   1   7
ATOM      7  C1' I4B d   1      -2.103   0.254   1.604  0.00  0.00     0.060 C 
BRANCH   7   8
ATOM      8  C2' I4B d   1      -1.631   0.716   2.968  0.00  0.00    -0.013 C 
ATOM      9  C4' I4B d   1      -1.739   2.212   3.105  0.00  0.00     0.013 C 
ATOM     10  C3' I4B d   1      -2.456   0.016   4.006  0.00  0.00     0.013 C 
ENDBRANCH   7   8
ENDBRANCH   1   7
TORSDOF 2
ENDMDL
