MODEL 1
REMARK minimizedAffinity -5.07006788
REMARK minimizedRMSD -1
REMARK  2 active torsions:
REMARK  status: ('A' for Active; 'I' for Inactive)
REMARK    1  A    between atoms: C2'_3  and  C1'_4 
REMARK    2  A    between atoms: C1'_4  and  C1_5 
ROOT
ATOM      1  C1  I4B d   1       0.640  -0.551  -0.204  0.00  0.00    -0.075 A 
ATOM      2  C2  I4B d   1       1.564   0.461  -0.145  0.00  0.00     0.003 A 
ATOM      3  C3  I4B d   1       2.635   0.504  -1.071  0.00  0.00     0.002 A 
ATOM      4  C4  I4B d   1       2.770  -0.507  -2.001  0.00  0.00    -0.004 A 
ATOM      5  C5  I4B d   1       1.819  -1.520  -2.074  0.00  0.00     0.002 A 
ATOM      6  C6  I4B d   1       0.740  -1.537  -1.178  0.00  0.00     0.003 A 
ENDROOT
BRANCH   1   7
ATOM      7  C1' I4B d   1      -0.459  -0.584   0.810  0.00  0.00     0.060 C 
BRANCH   7   8
ATOM      8  C2' I4B d   1      -1.093   0.792   0.855  0.00  0.00    -0.013 C 
ATOM      9  C4' I4B d   1      -1.938   1.044  -0.365  0.00  0.00     0.013 C 
ATOM     10  C3' I4B d   1      -1.911   0.883   2.109  0.00  0.00     0.013 C 
ENDBRANCH   7   8
ENDBRANCH   1   7
TORSDOF 2
ENDMDL
