MODEL 1
REMARK minimizedAffinity -5.39008713
REMARK minimizedRMSD -1
REMARK  2 active torsions:
REMARK  status: ('A' for Active; 'I' for Inactive)
REMARK    1  A    between atoms: C2'_3  and  C1'_4 
REMARK    2  A    between atoms: C1'_4  and  C1_5 
ROOT
ATOM      1  C1  I4B d   1      -0.079   0.079  -0.261  0.00  0.00    -0.075 A 
ATOM      2  C2  I4B d   1       0.832   0.934  -0.828  0.00  0.00     0.003 A 
ATOM      3  C3  I4B d   1       2.125   0.470  -1.174  0.00  0.00     0.002 A 
ATOM      4  C4  I4B d   1       2.478  -0.833  -0.891  0.00  0.00    -0.004 A 
ATOM      5  C5  I4B d   1       1.544  -1.705  -0.337  0.00  0.00     0.002 A 
ATOM      6  C6  I4B d   1       0.254  -1.250  -0.031  0.00  0.00     0.003 A 
ENDROOT
BRANCH   1   7
ATOM      7  C1' I4B d   1      -1.424   0.610   0.122  0.00  0.00     0.060 C 
BRANCH   7   8
ATOM      8  C2' I4B d   1      -1.587   0.434   1.618  0.00  0.00    -0.013 C 
ATOM      9  C4' I4B d   1      -1.283   1.712   2.353  0.00  0.00     0.013 C 
ATOM     10  C3' I4B d   1      -2.992  -0.021   1.880  0.00  0.00     0.013 C 
ENDBRANCH   7   8
ENDBRANCH   1   7
TORSDOF 2
ENDMDL
