MODEL 1
REMARK minimizedAffinity -2.65177894
REMARK minimizedRMSD -1
REMARK  2 active torsions:
REMARK  status: ('A' for Active; 'I' for Inactive)
REMARK    1  A    between atoms: C2'_3  and  C1'_4 
REMARK    2  A    between atoms: C1'_4  and  C1_5 
ROOT
ATOM      1  C1  I4B d   1      -0.907   0.163   1.112  0.00  0.00    -0.075 A 
ATOM      2  C2  I4B d   1      -0.426   0.504   2.352  0.00  0.00     0.003 A 
ATOM      3  C3  I4B d   1      -1.316   0.916   3.373  0.00  0.00     0.002 A 
ATOM      4  C4  I4B d   1      -2.664   1.020   3.098  0.00  0.00    -0.004 A 
ATOM      5  C5  I4B d   1      -3.153   0.652   1.848  0.00  0.00     0.002 A 
ATOM      6  C6  I4B d   1      -2.270   0.208   0.852  0.00  0.00     0.003 A 
ENDROOT
BRANCH   1   7
ATOM      7  C1' I4B d   1       0.065  -0.236   0.047  0.00  0.00     0.060 C 
BRANCH   7   8
ATOM      8  C2' I4B d   1       1.117   0.849  -0.056  0.00  0.00    -0.013 C 
ATOM      9  C4' I4B d   1       2.405   0.309  -0.619  0.00  0.00     0.013 C 
ATOM     10  C3' I4B d   1       0.567   1.947  -0.918  0.00  0.00     0.013 C 
ENDBRANCH   7   8
ENDBRANCH   1   7
TORSDOF 2
ENDMDL
