MODEL 1
REMARK minimizedAffinity -3.91017222
REMARK minimizedRMSD -1
REMARK  2 active torsions:
REMARK  status: ('A' for Active; 'I' for Inactive)
REMARK    1  A    between atoms: C2'_3  and  C1'_4 
REMARK    2  A    between atoms: C1'_4  and  C1_5 
ROOT
ATOM      1  C1  I4B d   1       0.993   1.016  -0.722  0.00  0.00    -0.075 A 
ATOM      2  C2  I4B d   1       2.015   0.372  -1.375  0.00  0.00     0.003 A 
ATOM      3  C3  I4B d   1       2.474   0.850  -2.626  0.00  0.00     0.002 A 
ATOM      4  C4  I4B d   1       1.854   1.936  -3.208  0.00  0.00    -0.004 A 
ATOM      5  C5  I4B d   1       0.833   2.601  -2.534  0.00  0.00     0.002 A 
ATOM      6  C6  I4B d   1       0.408   2.146  -1.278  0.00  0.00     0.003 A 
ENDROOT
BRANCH   1   7
ATOM      7  C1' I4B d   1       0.511   0.465   0.582  0.00  0.00     0.060 C 
BRANCH   7   8
ATOM      8  C2' I4B d   1      -0.804  -0.246   0.332  0.00  0.00    -0.013 C 
ATOM      9  C4' I4B d   1      -0.579  -1.651  -0.163  0.00  0.00     0.013 C 
ATOM     10  C3' I4B d   1      -1.584  -0.241   1.612  0.00  0.00     0.013 C 
ENDBRANCH   7   8
ENDBRANCH   1   7
TORSDOF 2
ENDMDL
