MODEL 1
REMARK minimizedAffinity -5.18558693
REMARK minimizedRMSD -1
REMARK  2 active torsions:
REMARK  status: ('A' for Active; 'I' for Inactive)
REMARK    1  A    between atoms: C2'_3  and  C1'_4 
REMARK    2  A    between atoms: C1'_4  and  C1_5 
ROOT
ATOM      1  C1  I4B d   1       0.523  -0.899   0.317  0.00  0.00    -0.075 A 
ATOM      2  C2  I4B d   1       0.365  -1.927  -0.579  0.00  0.00     0.003 A 
ATOM      3  C3  I4B d   1       1.278  -2.085  -1.650  0.00  0.00     0.002 A 
ATOM      4  C4  I4B d   1       2.297  -1.169  -1.816  0.00  0.00    -0.004 A 
ATOM      5  C5  I4B d   1       2.468  -0.141  -0.894  0.00  0.00     0.002 A 
ATOM      6  C6  I4B d   1       1.583  -0.012   0.187  0.00  0.00     0.003 A 
ENDROOT
BRANCH   1   7
ATOM      7  C1' I4B d   1      -0.479  -0.742   1.417  0.00  0.00     0.060 C 
BRANCH   7   8
ATOM      8  C2' I4B d   1      -0.969   0.691   1.401  0.00  0.00    -0.013 C 
ATOM      9  C4' I4B d   1      -1.448   1.088   0.029  0.00  0.00     0.013 C 
ATOM     10  C3' I4B d   1      -2.067   0.816   2.414  0.00  0.00     0.013 C 
ENDBRANCH   7   8
ENDBRANCH   1   7
TORSDOF 2
ENDMDL
