MODEL 1
REMARK minimizedAffinity 3.15720034
REMARK minimizedRMSD -1
REMARK  2 active torsions:
REMARK  status: ('A' for Active; 'I' for Inactive)
REMARK    1  A    between atoms: C2'_3  and  C1'_4 
REMARK    2  A    between atoms: C1'_4  and  C1_5 
ROOT
ATOM      1  C1  I4B d   1      -0.374   0.434   0.362  0.00  0.00    -0.075 A 
ATOM      2  C2  I4B d   1      -0.697   1.143  -0.768  0.00  0.00     0.003 A 
ATOM      3  C3  I4B d   1       0.313   1.518  -1.687  0.00  0.00     0.002 A 
ATOM      4  C4  I4B d   1       1.629   1.208  -1.414  0.00  0.00    -0.004 A 
ATOM      5  C5  I4B d   1       1.952   0.470  -0.279  0.00  0.00     0.002 A 
ATOM      6  C6  I4B d   1       0.943   0.069   0.609  0.00  0.00     0.003 A 
ENDROOT
BRANCH   1   7
ATOM      7  C1' I4B d   1      -1.461   0.084   1.328  0.00  0.00     0.060 C 
BRANCH   7   8
ATOM      8  C2' I4B d   1      -1.185   0.814   2.627  0.00  0.00    -0.013 C 
ATOM      9  C4' I4B d   1      -1.130   2.304   2.414  0.00  0.00     0.013 C 
ATOM     10  C3' I4B d   1      -2.261   0.446   3.603  0.00  0.00     0.013 C 
ENDBRANCH   7   8
ENDBRANCH   1   7
TORSDOF 2
ENDMDL
