MODEL 1
REMARK minimizedAffinity -2.7049365
REMARK minimizedRMSD -1
REMARK  2 active torsions:
REMARK  status: ('A' for Active; 'I' for Inactive)
REMARK    1  A    between atoms: C2'_3  and  C1'_4 
REMARK    2  A    between atoms: C1'_4  and  C1_5 
ROOT
ATOM      1  C1  I4B d   1       1.893  -0.001  -1.076  0.00  0.00    -0.075 A 
ATOM      2  C2  I4B d   1       0.978   0.246  -0.083  0.00  0.00     0.003 A 
ATOM      3  C3  I4B d   1       0.095  -0.775   0.343  0.00  0.00     0.002 A 
ATOM      4  C4  I4B d   1       0.127  -2.006  -0.281  0.00  0.00    -0.004 A 
ATOM      5  C5  I4B d   1       1.071  -2.262  -1.271  0.00  0.00     0.002 A 
ATOM      6  C6  I4B d   1       1.968  -1.258  -1.663  0.00  0.00     0.003 A 
ENDROOT
BRANCH   1   7
ATOM      7  C1' I4B d   1       2.788   1.110  -1.525  0.00  0.00     0.060 C 
BRANCH   7   8
ATOM      8  C2' I4B d   1       1.980   2.392  -1.518  0.00  0.00    -0.013 C 
ATOM      9  C4' I4B d   1       2.784   3.546  -2.056  0.00  0.00     0.013 C 
ATOM     10  C3' I4B d   1       0.744   2.164  -2.338  0.00  0.00     0.013 C 
ENDBRANCH   7   8
ENDBRANCH   1   7
TORSDOF 2
ENDMDL
