MODEL 1
REMARK minimizedAffinity 8.06887817
REMARK minimizedRMSD -1
REMARK  1 active torsions:
REMARK  status: ('A' for Active; 'I' for Inactive)
REMARK    1  A    between atoms: C1_2  and  C2_3 
ROOT
ATOM      1  C2  UNL d   1      -0.936   0.689  -1.369  0.00  0.00    -0.076 A 
ATOM      2  C3  UNL d   1       0.224  -0.081  -1.561  0.00  0.00     0.004 A 
ATOM      3  C4  UNL d   1       0.146  -1.458  -1.763  0.00  0.00    -0.003 A 
ATOM      4  C5  UNL d   1      -1.094  -2.087  -1.778  0.00  0.00     0.000 A 
ATOM      5  C6  UNL d   1      -2.257  -1.336  -1.607  0.00  0.00     0.000 A 
ATOM      6  C7  UNL d   1      -2.196   0.056  -1.419  0.00  0.00    -0.073 A 
ATOM      7  C8  UNL d   1      -3.481   0.816  -1.234  0.00  0.00     0.078 C 
ENDROOT
BRANCH   1   8
ATOM      8  C1  UNL d   1      -0.788   2.175  -1.128  0.00  0.00     0.053 C 
ATOM      9  C   UNL d   1      -0.273   2.489   0.268  0.00  0.00     0.018 C 
ENDBRANCH   1   8
TORSDOF 1
ENDMDL
