MODEL 1
REMARK minimizedAffinity 5.07427645
REMARK minimizedRMSD -1
REMARK  1 active torsions:
REMARK  status: ('A' for Active; 'I' for Inactive)
REMARK    1  A    between atoms: C1_2  and  C2_3 
ROOT
ATOM      1  C2  UNL d   1       3.635  -3.765  -2.211  0.00  0.00    -0.076 A 
ATOM      2  C3  UNL d   1       3.477  -3.229  -0.921  0.00  0.00     0.004 A 
ATOM      3  C4  UNL d   1       4.383  -2.299  -0.415  0.00  0.00    -0.003 A 
ATOM      4  C5  UNL d   1       5.462  -1.890  -1.190  0.00  0.00     0.000 A 
ATOM      5  C6  UNL d   1       5.625  -2.398  -2.479  0.00  0.00     0.000 A 
ATOM      6  C7  UNL d   1       4.711  -3.324  -3.010  0.00  0.00    -0.073 A 
ATOM      7  C8  UNL d   1       4.939  -3.845  -4.403  0.00  0.00     0.078 C 
ENDROOT
BRANCH   1   8
ATOM      8  C1  UNL d   1       2.636  -4.791  -2.696  0.00  0.00     0.053 C 
ATOM      9  C   UNL d   1       2.548  -6.000  -1.778  0.00  0.00     0.018 C 
ENDBRANCH   1   8
TORSDOF 1
ENDMDL
