MODEL 1
REMARK minimizedAffinity 25.8105316
REMARK minimizedRMSD -1
REMARK  0 active torsions:
REMARK  status: ('A' for Active; 'I' for Inactive)
ROOT
ATOM      1  C   UNL d   1      -0.223   5.110  -2.476  0.00  0.00     0.124 A 
ATOM      2  C1  UNL d   1      -0.113   5.029  -3.857  0.00  0.00     0.062 A 
ATOM      3  C2  UNL d   1      -1.223   5.262  -4.663  0.00  0.00     0.162 A 
ATOM      4  C3  UNL d   1      -2.454   5.581  -4.090  0.00  0.00    -0.034 A 
ATOM      5  C4  UNL d   1      -2.558   5.660  -2.700  0.00  0.00     0.162 A 
ATOM      6  C5  UNL d   1      -1.445   5.426  -1.899  0.00  0.00     0.062 A 
ATOM      7  F   UNL d   1      -1.554   5.505  -0.565  0.00  0.00    -0.097 F 
ATOM      8  F1  UNL d   1      -3.727   5.965  -2.117  0.00  0.00    -0.096 F 
ATOM      9  I   UNL d   1      -4.117   5.931  -5.292  0.00  0.00    -0.060 I 
ATOM     10  F2  UNL d   1      -1.087   5.177  -5.995  0.00  0.00    -0.096 F 
ATOM     11  F3  UNL d   1       1.066   4.723  -4.417  0.00  0.00    -0.097 F 
ATOM     12  F4  UNL d   1       0.846   4.884  -1.703  0.00  0.00    -0.092 F 
ENDROOT
TORSDOF 0
ENDMDL
