MODEL 1
REMARK minimizedAffinity 15.3427544
REMARK minimizedRMSD -1
REMARK  0 active torsions:
REMARK  status: ('A' for Active; 'I' for Inactive)
ROOT
ATOM      1  C   UNL d   1      -2.521   0.680   2.278  0.00  0.00     0.124 A 
ATOM      2  C1  UNL d   1      -1.910  -0.353   1.582  0.00  0.00     0.062 A 
ATOM      3  C2  UNL d   1      -0.953  -1.148   2.207  0.00  0.00     0.162 A 
ATOM      4  C3  UNL d   1      -0.603  -0.913   3.537  0.00  0.00    -0.034 A 
ATOM      5  C4  UNL d   1      -1.222   0.129   4.230  0.00  0.00     0.162 A 
ATOM      6  C5  UNL d   1      -2.177   0.920   3.601  0.00  0.00     0.062 A 
ATOM      7  F   UNL d   1      -2.767   1.919   4.274  0.00  0.00    -0.097 F 
ATOM      8  F1  UNL d   1      -0.909   0.382   5.509  0.00  0.00    -0.096 F 
ATOM      9  I   UNL d   1       0.827  -2.099   4.476  0.00  0.00    -0.060 I 
ATOM     10  F2  UNL d   1      -0.379  -2.140   1.511  0.00  0.00    -0.096 F 
ATOM     11  F3  UNL d   1      -2.240  -0.587   0.304  0.00  0.00    -0.097 F 
ATOM     12  F4  UNL d   1      -3.441   1.444   1.674  0.00  0.00    -0.092 F 
ENDROOT
TORSDOF 0
ENDMDL
