MODEL 1
REMARK minimizedAffinity 13.4155064
REMARK minimizedRMSD -1
REMARK  0 active torsions:
REMARK  status: ('A' for Active; 'I' for Inactive)
ROOT
ATOM      1  C   UNL d   1      -3.904   0.541   4.245  0.00  0.00     0.124 A 
ATOM      2  C1  UNL d   1      -2.570   0.675   3.886  0.00  0.00     0.062 A 
ATOM      3  C2  UNL d   1      -2.040  -0.103   2.861  0.00  0.00     0.162 A 
ATOM      4  C3  UNL d   1      -2.844  -1.021   2.186  0.00  0.00    -0.034 A 
ATOM      5  C4  UNL d   1      -4.185  -1.150   2.553  0.00  0.00     0.162 A 
ATOM      6  C5  UNL d   1      -4.710  -0.371   3.579  0.00  0.00     0.062 A 
ATOM      7  F   UNL d   1      -5.999  -0.502   3.924  0.00  0.00    -0.097 F 
ATOM      8  F1  UNL d   1      -4.986  -2.023   1.924  0.00  0.00    -0.096 F 
ATOM      9  I   UNL d   1      -2.055  -2.185   0.651  0.00  0.00    -0.060 I 
ATOM     10  F2  UNL d   1      -0.747   0.048   2.535  0.00  0.00    -0.096 F 
ATOM     11  F3  UNL d   1      -1.789   1.554   4.530  0.00  0.00    -0.097 F 
ATOM     12  F4  UNL d   1      -4.412   1.289   5.233  0.00  0.00    -0.092 F 
ENDROOT
TORSDOF 0
ENDMDL
