MODEL 1
REMARK minimizedAffinity 11.9124622
REMARK minimizedRMSD -1
REMARK  0 active torsions:
REMARK  status: ('A' for Active; 'I' for Inactive)
ROOT
ATOM      1  C   UNL d   1       2.448   3.125  -3.230  0.00  0.00     0.124 A 
ATOM      2  C1  UNL d   1       3.746   3.057  -3.717  0.00  0.00     0.062 A 
ATOM      3  C2  UNL d   1       4.737   3.877  -3.186  0.00  0.00     0.162 A 
ATOM      4  C3  UNL d   1       4.434   4.772  -2.160  0.00  0.00    -0.034 A 
ATOM      5  C4  UNL d   1       3.127   4.835  -1.675  0.00  0.00     0.162 A 
ATOM      6  C5  UNL d   1       2.140   4.014  -2.210  0.00  0.00     0.062 A 
ATOM      7  F   UNL d   1       0.886   4.081  -1.738  0.00  0.00    -0.097 F 
ATOM      8  F1  UNL d   1       2.801   5.685  -0.689  0.00  0.00    -0.096 F 
ATOM      9  I   UNL d   1       5.914   6.000  -1.362  0.00  0.00    -0.060 I 
ATOM     10  F2  UNL d   1       5.982   3.790  -3.676  0.00  0.00    -0.096 F 
ATOM     11  F3  UNL d   1       4.046   2.200  -4.703  0.00  0.00    -0.097 F 
ATOM     12  F4  UNL d   1       1.496   2.335  -3.744  0.00  0.00    -0.092 F 
ENDROOT
TORSDOF 0
ENDMDL
