MODEL 1
REMARK minimizedAffinity 38.1808472
REMARK minimizedRMSD -1
REMARK  0 active torsions:
REMARK  status: ('A' for Active; 'I' for Inactive)
ROOT
ATOM      1  C   UNL d   1       0.412  -0.950   3.571  0.00  0.00     0.124 A 
ATOM      2  C1  UNL d   1      -0.778  -0.652   2.923  0.00  0.00     0.062 A 
ATOM      3  C2  UNL d   1      -1.268  -1.501   1.935  0.00  0.00     0.162 A 
ATOM      4  C3  UNL d   1      -0.569  -2.657   1.590  0.00  0.00    -0.034 A 
ATOM      5  C4  UNL d   1       0.628  -2.950   2.246  0.00  0.00     0.162 A 
ATOM      6  C5  UNL d   1       1.114  -2.098   3.233  0.00  0.00     0.062 A 
ATOM      7  F   UNL d   1       2.264  -2.388   3.858  0.00  0.00    -0.097 F 
ATOM      8  F1  UNL d   1       1.326  -4.053   1.939  0.00  0.00    -0.096 F 
ATOM      9  I   UNL d   1      -1.299  -3.929   0.113  0.00  0.00    -0.060 I 
ATOM     10  F2  UNL d   1      -2.421  -1.188   1.324  0.00  0.00    -0.096 F 
ATOM     11  F3  UNL d   1      -1.457   0.458   3.247  0.00  0.00    -0.097 F 
ATOM     12  F4  UNL d   1       0.883  -0.131   4.521  0.00  0.00    -0.092 F 
ENDROOT
TORSDOF 0
ENDMDL
