MODEL 1
REMARK minimizedAffinity 24.3888779
REMARK minimizedRMSD -1
REMARK  0 active torsions:
REMARK  status: ('A' for Active; 'I' for Inactive)
ROOT
ATOM      1  C   UNL d   1      -1.006  -2.395   1.433  0.00  0.00     0.124 A 
ATOM      2  C1  UNL d   1      -2.270  -2.673   0.931  0.00  0.00     0.062 A 
ATOM      3  C2  UNL d   1      -3.212  -1.656   0.807  0.00  0.00     0.162 A 
ATOM      4  C3  UNL d   1      -2.894  -0.352   1.184  0.00  0.00    -0.034 A 
ATOM      5  C4  UNL d   1      -1.621  -0.080   1.688  0.00  0.00     0.162 A 
ATOM      6  C5  UNL d   1      -0.682  -1.100   1.810  0.00  0.00     0.062 A 
ATOM      7  F   UNL d   1       0.539  -0.830   2.295  0.00  0.00    -0.097 F 
ATOM      8  F1  UNL d   1      -1.281   1.163   2.059  0.00  0.00    -0.096 F 
ATOM      9  I   UNL d   1      -4.300   1.171   0.999  0.00  0.00    -0.060 I 
ATOM     10  F2  UNL d   1      -4.426  -1.953   0.320  0.00  0.00    -0.096 F 
ATOM     11  F3  UNL d   1      -2.585  -3.924   0.567  0.00  0.00    -0.097 F 
ATOM     12  F4  UNL d   1      -0.101  -3.376   1.552  0.00  0.00    -0.092 F 
ENDROOT
TORSDOF 0
ENDMDL
