MODEL 1
REMARK minimizedAffinity 26.0168133
REMARK minimizedRMSD -1
REMARK  0 active torsions:
REMARK  status: ('A' for Active; 'I' for Inactive)
ROOT
ATOM      1  C   UNL d   1      -2.508  -3.391  -0.441  0.00  0.00     0.124 A 
ATOM      2  C1  UNL d   1      -2.348  -2.605  -1.574  0.00  0.00     0.062 A 
ATOM      3  C2  UNL d   1      -3.136  -1.473  -1.758  0.00  0.00     0.162 A 
ATOM      4  C3  UNL d   1      -4.091  -1.118  -0.806  0.00  0.00    -0.034 A 
ATOM      5  C4  UNL d   1      -4.248  -1.914   0.331  0.00  0.00     0.162 A 
ATOM      6  C5  UNL d   1      -3.457  -3.044   0.510  0.00  0.00     0.062 A 
ATOM      7  F   UNL d   1      -3.614  -3.802   1.605  0.00  0.00    -0.097 F 
ATOM      8  F1  UNL d   1      -5.157  -1.601   1.266  0.00  0.00    -0.096 F 
ATOM      9  I   UNL d   1      -5.272   0.574  -1.077  0.00  0.00    -0.060 I 
ATOM     10  F2  UNL d   1      -2.959  -0.732  -2.862  0.00  0.00    -0.096 F 
ATOM     11  F3  UNL d   1      -1.432  -2.938  -2.495  0.00  0.00    -0.097 F 
ATOM     12  F4  UNL d   1      -1.749  -4.480  -0.267  0.00  0.00    -0.092 F 
ENDROOT
TORSDOF 0
ENDMDL
