MODEL 1
REMARK minimizedAffinity 35.4025002
REMARK minimizedRMSD -1
REMARK  0 active torsions:
REMARK  status: ('A' for Active; 'I' for Inactive)
ROOT
ATOM      1  C   UNL d   1       3.015  -4.678   0.311  0.00  0.00     0.124 A 
ATOM      2  C1  UNL d   1       2.110  -4.185   1.241  0.00  0.00     0.062 A 
ATOM      3  C2  UNL d   1       1.998  -2.813   1.448  0.00  0.00     0.162 A 
ATOM      4  C3  UNL d   1       2.792  -1.924   0.724  0.00  0.00    -0.034 A 
ATOM      5  C4  UNL d   1       3.700  -2.428  -0.208  0.00  0.00     0.162 A 
ATOM      6  C5  UNL d   1       3.809  -3.800  -0.413  0.00  0.00     0.062 A 
ATOM      7  F   UNL d   1       4.684  -4.274  -1.311  0.00  0.00    -0.097 F 
ATOM      8  F1  UNL d   1       4.479  -1.601  -0.922  0.00  0.00    -0.096 F 
ATOM      9  I   UNL d   1       2.627   0.127   1.032  0.00  0.00    -0.060 I 
ATOM     10  F2  UNL d   1       1.115  -2.365   2.353  0.00  0.00    -0.096 F 
ATOM     11  F3  UNL d   1       1.342  -5.032   1.941  0.00  0.00    -0.097 F 
ATOM     12  F4  UNL d   1       3.121  -5.998   0.113  0.00  0.00    -0.092 F 
ENDROOT
TORSDOF 0
ENDMDL
