MODEL 1
REMARK minimizedAffinity 30.9877796
REMARK minimizedRMSD -1
REMARK  0 active torsions:
REMARK  status: ('A' for Active; 'I' for Inactive)
ROOT
ATOM      1  C   UNL d   1       4.635   4.660  -4.618  0.00  0.00     0.124 A 
ATOM      2  C1  UNL d   1       3.759   3.593  -4.758  0.00  0.00     0.062 A 
ATOM      3  C2  UNL d   1       3.399   2.833  -3.649  0.00  0.00     0.162 A 
ATOM      4  C3  UNL d   1       3.914   3.138  -2.389  0.00  0.00    -0.034 A 
ATOM      5  C4  UNL d   1       4.796   4.212  -2.256  0.00  0.00     0.162 A 
ATOM      6  C5  UNL d   1       5.153   4.969  -3.368  0.00  0.00     0.062 A 
ATOM      7  F   UNL d   1       5.999   6.000  -3.230  0.00  0.00    -0.097 F 
ATOM      8  F1  UNL d   1       5.310   4.533  -1.060  0.00  0.00    -0.096 F 
ATOM      9  I   UNL d   1       3.378   2.003  -0.729  0.00  0.00    -0.060 I 
ATOM     10  F2  UNL d   1       2.550   1.807  -3.814  0.00  0.00    -0.096 F 
ATOM     11  F3  UNL d   1       3.258   3.292  -5.965  0.00  0.00    -0.097 F 
ATOM     12  F4  UNL d   1       4.981   5.390  -5.687  0.00  0.00    -0.092 F 
ENDROOT
TORSDOF 0
ENDMDL
