MODEL 1
REMARK minimizedAffinity 27.6048241
REMARK minimizedRMSD -1
REMARK  0 active torsions:
REMARK  status: ('A' for Active; 'I' for Inactive)
ROOT
ATOM      1  C   UNL d   1       1.444  -2.335   3.264  0.00  0.00     0.124 A 
ATOM      2  C1  UNL d   1       2.679  -1.710   3.368  0.00  0.00     0.062 A 
ATOM      3  C2  UNL d   1       2.981  -0.618   2.560  0.00  0.00     0.162 A 
ATOM      4  C3  UNL d   1       2.046  -0.141   1.642  0.00  0.00    -0.034 A 
ATOM      5  C4  UNL d   1       0.806  -0.775   1.543  0.00  0.00     0.162 A 
ATOM      6  C5  UNL d   1       0.509  -1.867   2.352  0.00  0.00     0.062 A 
ATOM      7  F   UNL d   1      -0.685  -2.469   2.250  0.00  0.00    -0.097 F 
ATOM      8  F1  UNL d   1      -0.117  -0.343   0.670  0.00  0.00    -0.096 F 
ATOM      9  I   UNL d   1       2.493   1.492   0.433  0.00  0.00    -0.060 I 
ATOM     10  F2  UNL d   1       4.182  -0.034   2.682  0.00  0.00    -0.096 F 
ATOM     11  F3  UNL d   1       3.585  -2.161   4.248  0.00  0.00    -0.097 F 
ATOM     12  F4  UNL d   1       1.156  -3.387   4.042  0.00  0.00    -0.092 F 
ENDROOT
TORSDOF 0
ENDMDL
