MODEL 1
REMARK minimizedAffinity 26.8235931
REMARK minimizedRMSD -1
REMARK  0 active torsions:
REMARK  status: ('A' for Active; 'I' for Inactive)
ROOT
ATOM      1  C   UNL d   1       2.246   1.837  -1.950  0.00  0.00     0.124 A 
ATOM      2  C1  UNL d   1       2.485   1.386  -0.660  0.00  0.00     0.062 A 
ATOM      3  C2  UNL d   1       3.555   1.893   0.072  0.00  0.00     0.162 A 
ATOM      4  C3  UNL d   1       4.395   2.857  -0.486  0.00  0.00    -0.034 A 
ATOM      5  C4  UNL d   1       4.149   3.305  -1.785  0.00  0.00     0.162 A 
ATOM      6  C5  UNL d   1       3.078   2.795  -2.512  0.00  0.00     0.062 A 
ATOM      7  F   UNL d   1       2.848   3.232  -3.759  0.00  0.00    -0.097 F 
ATOM      8  F1  UNL d   1       4.936   4.231  -2.352  0.00  0.00    -0.096 F 
ATOM      9  I   UNL d   1       5.997   3.617   0.604  0.00  0.00    -0.060 I 
ATOM     10  F2  UNL d   1       3.763   1.439   1.317  0.00  0.00    -0.096 F 
ATOM     11  F3  UNL d   1       1.683   0.459  -0.115  0.00  0.00    -0.097 F 
ATOM     12  F4  UNL d   1       1.216   1.347  -2.652  0.00  0.00    -0.092 F 
ENDROOT
TORSDOF 0
ENDMDL
