MODEL 1
REMARK minimizedAffinity 18.8149185
REMARK minimizedRMSD -1
REMARK  0 active torsions:
REMARK  status: ('A' for Active; 'I' for Inactive)
ROOT
ATOM      1  C   UNL d   1      -2.692   0.374   2.328  0.00  0.00     0.124 A 
ATOM      2  C1  UNL d   1      -2.451  -0.675   1.453  0.00  0.00     0.062 A 
ATOM      3  C2  UNL d   1      -1.406  -1.563   1.695  0.00  0.00     0.162 A 
ATOM      4  C3  UNL d   1      -0.596  -1.405   2.819  0.00  0.00    -0.034 A 
ATOM      5  C4  UNL d   1      -0.844  -0.346   3.695  0.00  0.00     0.162 A 
ATOM      6  C5  UNL d   1      -1.889   0.538   3.448  0.00  0.00     0.062 A 
ATOM      7  F   UNL d   1      -2.121   1.551   4.295  0.00  0.00    -0.097 F 
ATOM      8  F1  UNL d   1      -0.084  -0.166   4.785  0.00  0.00    -0.096 F 
ATOM      9  I   UNL d   1       0.967  -2.730   3.186  0.00  0.00    -0.060 I 
ATOM     10  F2  UNL d   1      -1.196  -2.568   0.833  0.00  0.00    -0.096 F 
ATOM     11  F3  UNL d   1      -3.225  -0.835   0.370  0.00  0.00    -0.097 F 
ATOM     12  F4  UNL d   1      -3.697   1.227   2.092  0.00  0.00    -0.092 F 
ENDROOT
TORSDOF 0
ENDMDL
