MODEL 1
REMARK minimizedAffinity 23.2301559
REMARK minimizedRMSD -1
REMARK  0 active torsions:
REMARK  status: ('A' for Active; 'I' for Inactive)
ROOT
ATOM      1  C   UNL d   1      -0.220  -1.380   2.510  0.00  0.00     0.124 A 
ATOM      2  C1  UNL d   1      -0.208  -1.125   3.874  0.00  0.00     0.062 A 
ATOM      3  C2  UNL d   1      -1.137  -0.251   4.431  0.00  0.00     0.162 A 
ATOM      4  C3  UNL d   1      -2.087   0.374   3.624  0.00  0.00    -0.034 A 
ATOM      5  C4  UNL d   1      -2.093   0.113   2.252  0.00  0.00     0.162 A 
ATOM      6  C5  UNL d   1      -1.162  -0.761   1.701  0.00  0.00     0.062 A 
ATOM      7  F   UNL d   1      -1.176  -1.006   0.382  0.00  0.00    -0.097 F 
ATOM      8  F1  UNL d   1      -2.993   0.697   1.447  0.00  0.00    -0.096 F 
ATOM      9  I   UNL d   1      -3.478   1.682   4.453  0.00  0.00    -0.060 I 
ATOM     10  F2  UNL d   1      -1.102  -0.023   5.753  0.00  0.00    -0.096 F 
ATOM     11  F3  UNL d   1       0.702  -1.721   4.658  0.00  0.00    -0.097 F 
ATOM     12  F4  UNL d   1       0.675  -2.221   1.977  0.00  0.00    -0.092 F 
ENDROOT
TORSDOF 0
ENDMDL
