MODEL 1
REMARK minimizedAffinity 20.476244
REMARK minimizedRMSD -1
REMARK  0 active torsions:
REMARK  status: ('A' for Active; 'I' for Inactive)
ROOT
ATOM      1  C   UNL d   1      -0.624  -0.916   3.147  0.00  0.00     0.124 A 
ATOM      2  C1  UNL d   1      -0.830  -1.346   1.844  0.00  0.00     0.062 A 
ATOM      3  C2  UNL d   1      -1.901  -0.853   1.105  0.00  0.00     0.162 A 
ATOM      4  C3  UNL d   1      -2.776   0.076   1.667  0.00  0.00    -0.034 A 
ATOM      5  C4  UNL d   1      -2.564   0.503   2.979  0.00  0.00     0.162 A 
ATOM      6  C5  UNL d   1      -1.491   0.008   3.714  0.00  0.00     0.062 A 
ATOM      7  F   UNL d   1      -1.295   0.425   4.973  0.00  0.00    -0.097 F 
ATOM      8  F1  UNL d   1      -3.386   1.396   3.551  0.00  0.00    -0.096 F 
ATOM      9  I   UNL d   1      -4.379   0.815   0.565  0.00  0.00    -0.060 I 
ATOM     10  F2  UNL d   1      -2.075  -1.287  -0.153  0.00  0.00    -0.096 F 
ATOM     11  F3  UNL d   1       0.006  -2.239   1.295  0.00  0.00    -0.097 F 
ATOM     12  F4  UNL d   1       0.407  -1.392   3.857  0.00  0.00    -0.092 F 
ENDROOT
TORSDOF 0
ENDMDL
