MODEL 1
REMARK minimizedAffinity 29.1500721
REMARK minimizedRMSD -1
REMARK  0 active torsions:
REMARK  status: ('A' for Active; 'I' for Inactive)
ROOT
ATOM      1  C   UNL d   1       3.557   3.486  -4.661  0.00  0.00     0.124 A 
ATOM      2  C1  UNL d   1       3.206   2.991  -3.413  0.00  0.00     0.062 A 
ATOM      3  C2  UNL d   1       3.796   3.508  -2.263  0.00  0.00     0.162 A 
ATOM      4  C3  UNL d   1       4.743   4.528  -2.356  0.00  0.00    -0.034 A 
ATOM      5  C4  UNL d   1       5.092   5.020  -3.615  0.00  0.00     0.162 A 
ATOM      6  C5  UNL d   1       4.499   4.500  -4.761  0.00  0.00     0.062 A 
ATOM      7  F   UNL d   1       4.840   4.979  -5.966  0.00  0.00    -0.097 F 
ATOM      8  F1  UNL d   1       5.999   6.000  -3.741  0.00  0.00    -0.096 F 
ATOM      9  I   UNL d   1       5.628   5.304  -0.640  0.00  0.00    -0.060 I 
ATOM     10  F2  UNL d   1       3.437   3.011  -1.070  0.00  0.00    -0.096 F 
ATOM     11  F3  UNL d   1       2.296   2.011  -3.314  0.00  0.00    -0.097 F 
ATOM     12  F4  UNL d   1       2.988   2.986  -5.766  0.00  0.00    -0.092 F 
ENDROOT
TORSDOF 0
ENDMDL
