MODEL 1
REMARK minimizedAffinity 8.65467167
REMARK minimizedRMSD -1
REMARK  0 active torsions:
REMARK  status: ('A' for Active; 'I' for Inactive)
ROOT
ATOM      1  C   UNL d   1      -4.105  -0.792   0.606  0.00  0.00    -0.002 A 
ATOM      2  C1  UNL d   1      -3.259  -1.890   0.672  0.00  0.00     0.010 A 
ATOM      3  C2  UNL d   1      -1.896  -1.754   0.399  0.00  0.00     0.041 A 
ATOM      4  C3  UNL d   1      -1.393  -0.483   0.058  0.00  0.00    -0.075 A 
ATOM      5  S   UNL d   1       0.241  -0.077  -0.315  0.00  0.00     0.015 SA
ATOM      6  C4  UNL d   1      -0.146   1.563  -0.570  0.00  0.00     0.022 A 
ATOM      7  C5  UNL d   1      -1.484   1.813  -0.379  0.00  0.00     0.026 A 
ATOM      8  C6  UNL d   1      -2.225   0.638  -0.013  0.00  0.00    -0.082 A 
ATOM      9  C7  UNL d   1      -3.602   0.467   0.267  0.00  0.00     0.045 A 
ENDROOT
TORSDOF 0
ENDMDL
