MODEL 1
REMARK minimizedAffinity 4.8616991
REMARK minimizedRMSD -1
REMARK  0 active torsions:
REMARK  status: ('A' for Active; 'I' for Inactive)
ROOT
ATOM      1  C   UNL d   1      -5.852   1.885  -2.651  0.00  0.00    -0.002 A 
ATOM      2  C1  UNL d   1      -5.863   2.960  -1.773  0.00  0.00     0.010 A 
ATOM      3  C2  UNL d   1      -5.902   4.270  -2.256  0.00  0.00     0.041 A 
ATOM      4  C3  UNL d   1      -5.931   4.483  -3.648  0.00  0.00    -0.075 A 
ATOM      5  S   UNL d   1      -5.982   5.999  -4.466  0.00  0.00     0.015 SA
ATOM      6  C4  UNL d   1      -5.991   5.256  -6.000  0.00  0.00     0.022 A 
ATOM      7  C5  UNL d   1      -5.956   3.884  -5.908  0.00  0.00     0.026 A 
ATOM      8  C6  UNL d   1      -5.922   3.416  -4.551  0.00  0.00    -0.082 A 
ATOM      9  C7  UNL d   1      -5.881   2.100  -4.031  0.00  0.00     0.045 A 
ENDROOT
TORSDOF 0
ENDMDL
