MODEL 1
REMARK minimizedAffinity 11.9776993
REMARK minimizedRMSD -1
REMARK  0 active torsions:
REMARK  status: ('A' for Active; 'I' for Inactive)
ROOT
ATOM      1  C   UNL d   1       2.025  -0.965   0.612  0.00  0.00    -0.002 A 
ATOM      2  C1  UNL d   1       1.612  -0.792  -0.702  0.00  0.00     0.010 A 
ATOM      3  C2  UNL d   1       0.474  -0.038  -0.995  0.00  0.00     0.041 A 
ATOM      4  C3  UNL d   1      -0.248   0.545   0.065  0.00  0.00    -0.075 A 
ATOM      5  S   UNL d   1      -1.672   1.510  -0.055  0.00  0.00     0.015 SA
ATOM      6  C4  UNL d   1      -1.765   1.716   1.634  0.00  0.00     0.022 A 
ATOM      7  C5  UNL d   1      -0.743   1.070   2.289  0.00  0.00     0.026 A 
ATOM      8  C6  UNL d   1       0.148   0.386   1.396  0.00  0.00    -0.082 A 
ATOM      9  C7  UNL d   1       1.306  -0.385   1.660  0.00  0.00     0.045 A 
ENDROOT
TORSDOF 0
ENDMDL
