MODEL 1
REMARK minimizedAffinity 10.1579952
REMARK minimizedRMSD -1
REMARK  0 active torsions:
REMARK  status: ('A' for Active; 'I' for Inactive)
ROOT
ATOM      1  C   UNL d   1      -0.957  -2.779   0.780  0.00  0.00    -0.002 A 
ATOM      2  C1  UNL d   1      -2.243  -2.300   0.987  0.00  0.00     0.010 A 
ATOM      3  C2  UNL d   1      -2.572  -0.983   0.659  0.00  0.00     0.041 A 
ATOM      4  C3  UNL d   1      -1.577  -0.148   0.113  0.00  0.00    -0.075 A 
ATOM      5  S   UNL d   1      -1.750   1.499  -0.365  0.00  0.00     0.015 SA
ATOM      6  C4  UNL d   1      -0.121   1.605  -0.856  0.00  0.00     0.022 A 
ATOM      7  C5  UNL d   1       0.553   0.422  -0.667  0.00  0.00     0.026 A 
ATOM      8  C6  UNL d   1      -0.275  -0.608  -0.106  0.00  0.00    -0.082 A 
ATOM      9  C7  UNL d   1       0.027  -1.948   0.238  0.00  0.00     0.045 A 
ENDROOT
TORSDOF 0
ENDMDL
