MODEL 1
REMARK minimizedAffinity 4.92790985
REMARK minimizedRMSD -1
REMARK  0 active torsions:
REMARK  status: ('A' for Active; 'I' for Inactive)
ROOT
ATOM      1  C   UNL d   1      -2.370  -2.852   0.368  0.00  0.00    -0.002 A 
ATOM      2  C1  UNL d   1      -3.006  -1.923  -0.442  0.00  0.00     0.010 A 
ATOM      3  C2  UNL d   1      -2.387  -0.711  -0.755  0.00  0.00     0.041 A 
ATOM      4  C3  UNL d   1      -1.105  -0.447  -0.235  0.00  0.00    -0.075 A 
ATOM      5  S   UNL d   1      -0.153   0.969  -0.484  0.00  0.00     0.015 SA
ATOM      6  C4  UNL d   1       1.120   0.374   0.480  0.00  0.00     0.022 A 
ATOM      7  C5  UNL d   1       0.843  -0.874   0.987  0.00  0.00     0.026 A 
ATOM      8  C6  UNL d   1      -0.443  -1.368   0.583  0.00  0.00    -0.082 A 
ATOM      9  C7  UNL d   1      -1.098  -2.587   0.882  0.00  0.00     0.045 A 
ENDROOT
TORSDOF 0
ENDMDL
