MODEL 1
REMARK minimizedAffinity -3.71253443
REMARK minimizedRMSD -1
REMARK  2 active torsions:
REMARK  status: ('A' for Active; 'I' for Inactive)
REMARK    1  A    between atoms: C1_2  and  C2_3 
REMARK    2  A    between atoms: C2_3  and  C3_4 
ROOT
ATOM      1  C3  UNL d   1       0.615  -0.657  -0.108  0.00  0.00    -0.075 A 
ATOM      2  C4  UNL d   1       1.479   0.446  -0.053  0.00  0.00     0.002 A 
ATOM      3  C5  UNL d   1       2.672   0.448  -0.775  0.00  0.00     0.002 A 
ATOM      4  C6  UNL d   1       3.022  -0.654  -1.551  0.00  0.00    -0.004 A 
ATOM      5  C7  UNL d   1       2.179  -1.762  -1.600  0.00  0.00     0.002 A 
ATOM      6  C8  UNL d   1       0.982  -1.765  -0.882  0.00  0.00     0.002 A 
ENDROOT
BRANCH   1   7
ATOM      7  C2  UNL d   1      -0.692  -0.653   0.648  0.00  0.00     0.056 C 
BRANCH   7   8
ATOM      8  C1  UNL d   1      -1.377   0.716   0.704  0.00  0.00     0.007 C 
ATOM      9  C   UNL d   1      -2.379   0.841   1.843  0.00  0.00     0.009 C 
ENDBRANCH   7   8
ENDBRANCH   1   7
TORSDOF 2
ENDMDL
