MODEL 1
REMARK minimizedAffinity 5.99846745
REMARK minimizedRMSD -1
REMARK  2 active torsions:
REMARK  status: ('A' for Active; 'I' for Inactive)
REMARK    1  A    between atoms: C1_2  and  C2_3 
REMARK    2  A    between atoms: C2_3  and  C3_4 
ROOT
ATOM      1  C3  UNL d   1       0.029  -1.291   0.231  0.00  0.00    -0.075 A 
ATOM      2  C4  UNL d   1      -1.195  -0.681   0.542  0.00  0.00     0.002 A 
ATOM      3  C5  UNL d   1      -1.554   0.530  -0.051  0.00  0.00     0.002 A 
ATOM      4  C6  UNL d   1      -0.692   1.150  -0.953  0.00  0.00    -0.004 A 
ATOM      5  C7  UNL d   1       0.533   0.562  -1.257  0.00  0.00     0.002 A 
ATOM      6  C8  UNL d   1       0.894  -0.652  -0.668  0.00  0.00     0.002 A 
ENDROOT
BRANCH   1   7
ATOM      7  C2  UNL d   1       0.411  -2.615   0.847  0.00  0.00     0.056 C 
BRANCH   7   8
ATOM      8  C1  UNL d   1       0.080  -3.829  -0.029  0.00  0.00     0.007 C 
ATOM      9  C   UNL d   1       1.040  -4.993   0.171  0.00  0.00     0.009 C 
ENDBRANCH   7   8
ENDBRANCH   1   7
TORSDOF 2
ENDMDL
