MODEL 1
REMARK minimizedAffinity 0.361703098
REMARK minimizedRMSD -1
REMARK  2 active torsions:
REMARK  status: ('A' for Active; 'I' for Inactive)
REMARK    1  A    between atoms: C1_2  and  C2_3 
REMARK    2  A    between atoms: C2_3  and  C3_4 
ROOT
ATOM      1  C3  UNL d   1       4.971   1.196   4.546  0.00  0.00    -0.075 A 
ATOM      2  C4  UNL d   1       4.311   0.162   3.866  0.00  0.00     0.002 A 
ATOM      3  C5  UNL d   1       4.481  -1.166   4.260  0.00  0.00     0.002 A 
ATOM      4  C6  UNL d   1       5.319  -1.477   5.328  0.00  0.00    -0.004 A 
ATOM      5  C7  UNL d   1       5.993  -0.460   5.999  0.00  0.00     0.002 A 
ATOM      6  C8  UNL d   1       5.822   0.870   5.611  0.00  0.00     0.002 A 
ENDROOT
BRANCH   1   7
ATOM      7  C2  UNL d   1       4.769   2.638   4.144  0.00  0.00     0.056 C 
BRANCH   7   8
ATOM      8  C1  UNL d   1       6.000   3.524   4.359  0.00  0.00     0.007 C 
ATOM      9  C   UNL d   1       5.946   4.827   3.574  0.00  0.00     0.009 C 
ENDBRANCH   7   8
ENDBRANCH   1   7
TORSDOF 2
ENDMDL
