MODEL 1
REMARK minimizedAffinity -2.29222536
REMARK minimizedRMSD -1
REMARK  2 active torsions:
REMARK  status: ('A' for Active; 'I' for Inactive)
REMARK    1  A    between atoms: C1_2  and  C2_3 
REMARK    2  A    between atoms: C2_3  and  C3_4 
ROOT
ATOM      1  C3  UNL d   1      -0.321   0.345   0.478  0.00  0.00    -0.075 A 
ATOM      2  C4  UNL d   1      -1.605  -0.051   0.076  0.00  0.00     0.002 A 
ATOM      3  C5  UNL d   1      -2.716   0.240   0.868  0.00  0.00     0.002 A 
ATOM      4  C6  UNL d   1      -2.557   0.919   2.074  0.00  0.00    -0.004 A 
ATOM      5  C7  UNL d   1      -1.284   1.303   2.491  0.00  0.00     0.002 A 
ATOM      6  C8  UNL d   1      -0.171   1.017   1.698  0.00  0.00     0.002 A 
ENDROOT
BRANCH   1   7
ATOM      7  C2  UNL d   1       0.882   0.059  -0.389  0.00  0.00     0.056 C 
BRANCH   7   8
ATOM      8  C1  UNL d   1       1.241  -1.428  -0.487  0.00  0.00     0.007 C 
ATOM      9  C   UNL d   1       2.300  -1.721  -1.542  0.00  0.00     0.009 C 
ENDBRANCH   7   8
ENDBRANCH   1   7
TORSDOF 2
ENDMDL
