MODEL 1
REMARK minimizedAffinity -3.02367997
REMARK minimizedRMSD -1
REMARK  2 active torsions:
REMARK  status: ('A' for Active; 'I' for Inactive)
REMARK    1  A    between atoms: C1_2  and  C2_3 
REMARK    2  A    between atoms: C2_3  and  C3_4 
ROOT
ATOM      1  C3  UNL d   1      -3.282  -0.719   3.555  0.00  0.00    -0.075 A 
ATOM      2  C4  UNL d   1      -2.591   0.055   4.498  0.00  0.00     0.002 A 
ATOM      3  C5  UNL d   1      -1.816   1.141   4.091  0.00  0.00     0.002 A 
ATOM      4  C6  UNL d   1      -1.713   1.460   2.738  0.00  0.00    -0.004 A 
ATOM      5  C7  UNL d   1      -2.383   0.688   1.792  0.00  0.00     0.002 A 
ATOM      6  C8  UNL d   1      -3.163  -0.397   2.196  0.00  0.00     0.002 A 
ENDROOT
BRANCH   1   7
ATOM      7  C2  UNL d   1      -4.147  -1.878   3.991  0.00  0.00     0.056 C 
BRANCH   7   8
ATOM      8  C1  UNL d   1      -5.262  -2.232   3.001  0.00  0.00     0.007 C 
ATOM      9  C   UNL d   1      -6.000  -3.514   3.362  0.00  0.00     0.009 C 
ENDBRANCH   7   8
ENDBRANCH   1   7
TORSDOF 2
ENDMDL
