MODEL 1
REMARK minimizedAffinity -4.57343435
REMARK minimizedRMSD -1
REMARK  2 active torsions:
REMARK  status: ('A' for Active; 'I' for Inactive)
REMARK    1  A    between atoms: C1_2  and  C2_3 
REMARK    2  A    between atoms: C2_3  and  C3_4 
ROOT
ATOM      1  C3  UNL d   1       0.236  -0.495  -0.518  0.00  0.00    -0.075 A 
ATOM      2  C4  UNL d   1       0.876  -1.732  -0.359  0.00  0.00     0.002 A 
ATOM      3  C5  UNL d   1       2.198  -1.905  -0.772  0.00  0.00     0.002 A 
ATOM      4  C6  UNL d   1       2.891  -0.848  -1.357  0.00  0.00    -0.004 A 
ATOM      5  C7  UNL d   1       2.260   0.381  -1.535  0.00  0.00     0.002 A 
ATOM      6  C8  UNL d   1       0.939   0.558  -1.119  0.00  0.00     0.002 A 
ENDROOT
BRANCH   1   7
ATOM      7  C2  UNL d   1      -1.184  -0.294  -0.046  0.00  0.00     0.056 C 
BRANCH   7   8
ATOM      8  C1  UNL d   1      -1.309   0.602   1.191  0.00  0.00     0.007 C 
ATOM      9  C   UNL d   1      -2.029  -0.074   2.351  0.00  0.00     0.009 C 
ENDBRANCH   7   8
ENDBRANCH   1   7
TORSDOF 2
ENDMDL
