MODEL 1
REMARK minimizedAffinity -3.16588759
REMARK minimizedRMSD -1
REMARK  2 active torsions:
REMARK  status: ('A' for Active; 'I' for Inactive)
REMARK    1  A    between atoms: C1_2  and  C2_3 
REMARK    2  A    between atoms: C2_3  and  C3_4 
ROOT
ATOM      1  C3  UNL d   1      -1.755   1.454   2.330  0.00  0.00    -0.075 A 
ATOM      2  C4  UNL d   1      -1.322   2.787   2.397  0.00  0.00     0.002 A 
ATOM      3  C5  UNL d   1      -0.778   3.412   1.274  0.00  0.00     0.002 A 
ATOM      4  C6  UNL d   1      -0.651   2.712   0.077  0.00  0.00    -0.004 A 
ATOM      5  C7  UNL d   1      -1.062   1.383   0.004  0.00  0.00     0.002 A 
ATOM      6  C8  UNL d   1      -1.611   0.756   1.124  0.00  0.00     0.002 A 
ENDROOT
BRANCH   1   7
ATOM      7  C2  UNL d   1      -2.372   0.781   3.533  0.00  0.00     0.056 C 
BRANCH   7   8
ATOM      8  C1  UNL d   1      -3.596  -0.080   3.206  0.00  0.00     0.007 C 
ATOM      9  C   UNL d   1      -3.907  -1.114   4.280  0.00  0.00     0.009 C 
ENDBRANCH   7   8
ENDBRANCH   1   7
TORSDOF 2
ENDMDL
