MODEL 1
REMARK minimizedAffinity -6.25882387
REMARK minimizedRMSD -1
REMARK  2 active torsions:
REMARK  status: ('A' for Active; 'I' for Inactive)
REMARK    1  A    between atoms: C1_2  and  C2_3 
REMARK    2  A    between atoms: C2_3  and  C3_4 
ROOT
ATOM      1  C3  UNL d   1       0.828  -0.484  -0.520  0.00  0.00    -0.075 A 
ATOM      2  C4  UNL d   1       1.753  -1.495  -0.816  0.00  0.00     0.002 A 
ATOM      3  C5  UNL d   1       2.930  -1.199  -1.506  0.00  0.00     0.002 A 
ATOM      4  C6  UNL d   1       3.190   0.107  -1.916  0.00  0.00    -0.004 A 
ATOM      5  C7  UNL d   1       2.270   1.116  -1.642  0.00  0.00     0.002 A 
ATOM      6  C8  UNL d   1       1.094   0.824  -0.948  0.00  0.00     0.002 A 
ENDROOT
BRANCH   1   7
ATOM      7  C2  UNL d   1      -0.433  -0.792   0.252  0.00  0.00     0.056 C 
BRANCH   7   8
ATOM      8  C1  UNL d   1      -1.300   0.436   0.547  0.00  0.00     0.007 C 
ATOM      9  C   UNL d   1      -1.772   0.504   1.994  0.00  0.00     0.009 C 
ENDBRANCH   7   8
ENDBRANCH   1   7
TORSDOF 2
ENDMDL
