MODEL 1
REMARK minimizedAffinity -5.10343885
REMARK minimizedRMSD -1
REMARK  2 active torsions:
REMARK  status: ('A' for Active; 'I' for Inactive)
REMARK    1  A    between atoms: C1_2  and  C2_3 
REMARK    2  A    between atoms: C2_3  and  C3_4 
ROOT
ATOM      1  C3  UNL d   1      -1.835   0.933   1.514  0.00  0.00    -0.075 A 
ATOM      2  C4  UNL d   1      -1.807   1.939   2.490  0.00  0.00     0.002 A 
ATOM      3  C5  UNL d   1      -2.715   1.923   3.549  0.00  0.00     0.002 A 
ATOM      4  C6  UNL d   1      -3.667   0.911   3.640  0.00  0.00    -0.004 A 
ATOM      5  C7  UNL d   1      -3.715  -0.084   2.666  0.00  0.00     0.002 A 
ATOM      6  C8  UNL d   1      -2.805  -0.074   1.607  0.00  0.00     0.002 A 
ENDROOT
BRANCH   1   7
ATOM      7  C2  UNL d   1      -0.836   0.927   0.381  0.00  0.00     0.056 C 
BRANCH   7   8
ATOM      8  C1  UNL d   1       0.164  -0.233   0.438  0.00  0.00     0.007 C 
ATOM      9  C   UNL d   1       1.407   0.005  -0.409  0.00  0.00     0.009 C 
ENDBRANCH   7   8
ENDBRANCH   1   7
TORSDOF 2
ENDMDL
