MODEL 1
REMARK minimizedAffinity -5.36277819
REMARK minimizedRMSD -1
REMARK  2 active torsions:
REMARK  status: ('A' for Active; 'I' for Inactive)
REMARK    1  A    between atoms: C1_2  and  C2_3 
REMARK    2  A    between atoms: C2_3  and  C3_4 
ROOT
ATOM      1  C3  UNL d   1      -0.558   0.371  -0.095  0.00  0.00    -0.075 A 
ATOM      2  C4  UNL d   1       0.518   1.060  -0.675  0.00  0.00     0.002 A 
ATOM      3  C5  UNL d   1       1.643   0.368  -1.123  0.00  0.00     0.002 A 
ATOM      4  C6  UNL d   1       1.713  -1.016  -0.987  0.00  0.00    -0.004 A 
ATOM      5  C7  UNL d   1       0.658  -1.709  -0.398  0.00  0.00     0.002 A 
ATOM      6  C8  UNL d   1      -0.472  -1.020   0.047  0.00  0.00     0.002 A 
ENDROOT
BRANCH   1   7
ATOM      7  C2  UNL d   1      -1.791   1.111   0.364  0.00  0.00     0.056 C 
BRANCH   7   8
ATOM      8  C1  UNL d   1      -2.391   0.574   1.668  0.00  0.00     0.007 C 
ATOM      9  C   UNL d   1      -1.885   1.303   2.906  0.00  0.00     0.009 C 
ENDBRANCH   7   8
ENDBRANCH   1   7
TORSDOF 2
ENDMDL
