MODEL 1
REMARK minimizedAffinity 9.3453331
REMARK minimizedRMSD -1
REMARK  1 active torsions:
REMARK  status: ('A' for Active; 'I' for Inactive)
REMARK    1  A    between atoms: C1_2  and  C2_3 
ROOT
ATOM      1  C2  UNL d   1      -2.019   2.296  -2.179  0.00  0.00    -0.077 A 
ATOM      2  C3  UNL d   1      -2.287   2.367  -0.805  0.00  0.00     0.002 A 
ATOM      3  C4  UNL d   1      -1.246   2.287   0.122  0.00  0.00     0.002 A 
ATOM      4  C5  UNL d   1       0.069   2.140  -0.315  0.00  0.00    -0.004 A 
ATOM      5  C6  UNL d   1       0.345   2.066  -1.680  0.00  0.00     0.002 A 
ATOM      6  C7  UNL d   1      -0.694   2.144  -2.608  0.00  0.00     0.002 A 
ENDROOT
BRANCH   1   7
ATOM      7  C1  UNL d   1      -3.135   2.431  -3.182  0.00  0.00     0.055 C 
ATOM      8  C   UNL d   1      -3.068   3.767  -3.908  0.00  0.00     0.019 C 
ENDBRANCH   1   7
TORSDOF 1
ENDMDL
