MODEL 1
REMARK minimizedAffinity 5.74764013
REMARK minimizedRMSD -1
REMARK  1 active torsions:
REMARK  status: ('A' for Active; 'I' for Inactive)
REMARK    1  A    between atoms: C1_2  and  C2_3 
ROOT
ATOM      1  C2  UNL d   1       0.136   2.980   0.848  0.00  0.00    -0.077 A 
ATOM      2  C3  UNL d   1       1.048   3.943   1.302  0.00  0.00     0.002 A 
ATOM      3  C4  UNL d   1       1.541   3.889   2.607  0.00  0.00     0.002 A 
ATOM      4  C5  UNL d   1       1.131   2.872   3.467  0.00  0.00    -0.004 A 
ATOM      5  C6  UNL d   1       0.222   1.911   3.026  0.00  0.00     0.002 A 
ATOM      6  C7  UNL d   1      -0.273   1.964   1.722  0.00  0.00     0.002 A 
ENDROOT
BRANCH   1   7
ATOM      7  C1  UNL d   1      -0.359   3.008  -0.574  0.00  0.00     0.055 C 
ATOM      8  C   UNL d   1      -1.075   1.715  -0.937  0.00  0.00     0.019 C 
ENDBRANCH   1   7
TORSDOF 1
ENDMDL
