MODEL 1
REMARK minimizedAffinity -0.529554665
REMARK minimizedRMSD -1
REMARK  1 active torsions:
REMARK  status: ('A' for Active; 'I' for Inactive)
REMARK    1  A    between atoms: C1_2  and  C2_3 
ROOT
ATOM      1  C2  UNL d   1      -5.921  -1.614   5.100  0.00  0.00    -0.077 A 
ATOM      2  C3  UNL d   1      -5.999  -1.883   3.727  0.00  0.00     0.002 A 
ATOM      3  C4  UNL d   1      -5.995  -3.200   3.263  0.00  0.00     0.002 A 
ATOM      4  C5  UNL d   1      -5.918  -4.258   4.167  0.00  0.00    -0.004 A 
ATOM      5  C6  UNL d   1      -5.838  -4.001   5.535  0.00  0.00     0.002 A 
ATOM      6  C7  UNL d   1      -5.841  -2.685   6.000  0.00  0.00     0.002 A 
ENDROOT
BRANCH   1   7
ATOM      7  C1  UNL d   1      -5.975  -0.195   5.605  0.00  0.00     0.055 C 
ATOM      8  C   UNL d   1      -5.663   0.799   4.496  0.00  0.00     0.019 C 
ENDBRANCH   1   7
TORSDOF 1
ENDMDL
