MODEL 1
REMARK minimizedAffinity 8.95384502
REMARK minimizedRMSD -1
REMARK  1 active torsions:
REMARK  status: ('A' for Active; 'I' for Inactive)
REMARK    1  A    between atoms: C1_2  and  C2_3 
ROOT
ATOM      1  C2  UNL d   1       3.210  -5.542  -1.505  0.00  0.00    -0.077 A 
ATOM      2  C3  UNL d   1       4.154  -4.615  -1.042  0.00  0.00     0.002 A 
ATOM      3  C4  UNL d   1       5.168  -4.157  -1.886  0.00  0.00     0.002 A 
ATOM      4  C5  UNL d   1       5.243  -4.616  -3.199  0.00  0.00    -0.004 A 
ATOM      5  C6  UNL d   1       4.310  -5.539  -3.669  0.00  0.00     0.002 A 
ATOM      6  C7  UNL d   1       3.297  -5.999  -2.826  0.00  0.00     0.002 A 
ENDROOT
BRANCH   1   7
ATOM      7  C1  UNL d   1       2.087  -6.000  -0.611  0.00  0.00     0.055 C 
ATOM      8  C   UNL d   1       0.738  -5.858  -1.300  0.00  0.00     0.019 C 
ENDBRANCH   1   7
TORSDOF 1
ENDMDL
