MODEL 1
REMARK minimizedAffinity -1.3959868
REMARK minimizedRMSD -1
REMARK  1 active torsions:
REMARK  status: ('A' for Active; 'I' for Inactive)
REMARK    1  A    between atoms: C3_4  and  O_7 
ROOT
ATOM      1  C   UNL d   1      -0.210   2.379   2.310  0.00  0.00    -0.033 A 
ATOM      2  C1  UNL d   1      -1.336   2.084   1.539  0.00  0.00     0.039 A 
ATOM      3  C2  UNL d   1      -1.265   1.112   0.540  0.00  0.00    -0.080 A 
ATOM      4  C3  UNL d   1      -0.064   0.442   0.322  0.00  0.00     0.150 A 
ATOM      5  C4  UNL d   1       1.061   0.728   1.089  0.00  0.00    -0.007 A 
ATOM      6  C5  UNL d   1       0.988   1.700   2.086  0.00  0.00     0.039 A 
ENDROOT
BRANCH   4   7
ATOM      7  O   UNL d   1       0.056  -0.511  -0.645  0.00  0.00    -0.526 OA
ATOM      8  H5  UNL d   1      -0.793  -0.582  -1.113  0.00  0.00     0.418 HD
ENDBRANCH   4   7
TORSDOF 1
ENDMDL
