MODEL 1
REMARK minimizedAffinity -1.91516662
REMARK minimizedRMSD -1
REMARK  1 active torsions:
REMARK  status: ('A' for Active; 'I' for Inactive)
REMARK    1  A    between atoms: C3_4  and  O_7 
ROOT
ATOM      1  C   UNL d   1       0.607  -0.778  -1.209  0.00  0.00    -0.033 A 
ATOM      2  C1  UNL d   1      -0.001   0.420  -1.590  0.00  0.00     0.039 A 
ATOM      3  C2  UNL d   1      -0.323   1.378  -0.627  0.00  0.00    -0.080 A 
ATOM      4  C3  UNL d   1      -0.030   1.128   0.710  0.00  0.00     0.150 A 
ATOM      5  C4  UNL d   1       0.580  -0.061   1.096  0.00  0.00    -0.007 A 
ATOM      6  C5  UNL d   1       0.899  -1.017   0.134  0.00  0.00     0.039 A 
ENDROOT
BRANCH   4   7
ATOM      7  O   UNL d   1      -0.329   2.032   1.686  0.00  0.00    -0.526 OA
ATOM      8  H5  UNL d   1      -0.773   2.793   1.276  0.00  0.00     0.418 HD
ENDBRANCH   4   7
TORSDOF 1
ENDMDL
