MODEL 1
REMARK minimizedAffinity -3.92924428
REMARK minimizedRMSD -1
REMARK  1 active torsions:
REMARK  status: ('A' for Active; 'I' for Inactive)
REMARK    1  A    between atoms: C3_4  and  O_7 
ROOT
ATOM      1  C   UNL d   1       0.673   0.487  -1.084  0.00  0.00    -0.033 A 
ATOM      2  C1  UNL d   1       0.598  -0.059   0.199  0.00  0.00     0.039 A 
ATOM      3  C2  UNL d   1      -0.263   0.496   1.147  0.00  0.00    -0.080 A 
ATOM      4  C3  UNL d   1      -1.043   1.595   0.801  0.00  0.00     0.150 A 
ATOM      5  C4  UNL d   1      -0.977   2.143  -0.476  0.00  0.00    -0.007 A 
ATOM      6  C5  UNL d   1      -0.116   1.588  -1.422  0.00  0.00     0.039 A 
ENDROOT
BRANCH   4   7
ATOM      7  O   UNL d   1      -1.895   2.174   1.694  0.00  0.00    -0.526 OA
ATOM      8  H5  UNL d   1      -1.814   1.708   2.543  0.00  0.00     0.418 HD
ENDBRANCH   4   7
TORSDOF 1
ENDMDL
