MODEL 1
REMARK minimizedAffinity -3.75606179
REMARK minimizedRMSD -1
REMARK  1 active torsions:
REMARK  status: ('A' for Active; 'I' for Inactive)
REMARK    1  A    between atoms: C3_4  and  O_7 
ROOT
ATOM      1  C   UNL d   1       0.364   0.290  -1.049  0.00  0.00    -0.033 A 
ATOM      2  C1  UNL d   1       0.421  -0.080   0.296  0.00  0.00     0.039 A 
ATOM      3  C2  UNL d   1      -0.183   0.720   1.269  0.00  0.00    -0.080 A 
ATOM      4  C3  UNL d   1      -0.840   1.885   0.883  0.00  0.00     0.150 A 
ATOM      5  C4  UNL d   1      -0.904   2.258  -0.455  0.00  0.00    -0.007 A 
ATOM      6  C5  UNL d   1      -0.299   1.458  -1.425  0.00  0.00     0.039 A 
ENDROOT
BRANCH   4   7
ATOM      7  O   UNL d   1      -1.440   2.700   1.796  0.00  0.00    -0.526 OA
ATOM      8  H5  UNL d   1      -1.290   2.331   2.683  0.00  0.00     0.418 HD
ENDBRANCH   4   7
TORSDOF 1
ENDMDL
