MODEL 1
REMARK minimizedAffinity -3.12943864
REMARK minimizedRMSD -1
REMARK  1 active torsions:
REMARK  status: ('A' for Active; 'I' for Inactive)
REMARK    1  A    between atoms: C3_4  and  O_7 
ROOT
ATOM      1  C   UNL d   1       0.096   0.091   1.085  0.00  0.00    -0.033 A 
ATOM      2  C1  UNL d   1       0.645  -0.528  -0.039  0.00  0.00     0.039 A 
ATOM      3  C2  UNL d   1       0.771   0.179  -1.236  0.00  0.00    -0.080 A 
ATOM      4  C3  UNL d   1       0.346   1.503  -1.295  0.00  0.00     0.150 A 
ATOM      5  C4  UNL d   1      -0.199   2.128  -0.177  0.00  0.00    -0.007 A 
ATOM      6  C5  UNL d   1      -0.324   1.419   1.017  0.00  0.00     0.039 A 
ENDROOT
BRANCH   4   7
ATOM      7  O   UNL d   1       0.444   2.233  -2.442  0.00  0.00    -0.526 OA
ATOM      8  H5  UNL d   1       0.811   1.664  -3.139  0.00  0.00     0.418 HD
ENDBRANCH   4   7
TORSDOF 1
ENDMDL
