MODEL 1
REMARK minimizedAffinity -4.0065856
REMARK minimizedRMSD -1
REMARK  1 active torsions:
REMARK  status: ('A' for Active; 'I' for Inactive)
REMARK    1  A    between atoms: C3_4  and  O_7 
ROOT
ATOM      1  C   UNL d   1      -0.885   2.671   1.582  0.00  0.00    -0.033 A 
ATOM      2  C1  UNL d   1       0.043   1.779   2.124  0.00  0.00     0.039 A 
ATOM      3  C2  UNL d   1       0.328   0.581   1.467  0.00  0.00    -0.080 A 
ATOM      4  C3  UNL d   1      -0.319   0.287   0.270  0.00  0.00     0.150 A 
ATOM      5  C4  UNL d   1      -1.242   1.172  -0.277  0.00  0.00    -0.007 A 
ATOM      6  C5  UNL d   1      -1.526   2.368   0.381  0.00  0.00     0.039 A 
ENDROOT
BRANCH   4   7
ATOM      7  O   UNL d   1      -0.077  -0.873  -0.405  0.00  0.00    -0.526 OA
ATOM      8  H5  UNL d   1       0.560  -1.399   0.106  0.00  0.00     0.418 HD
ENDBRANCH   4   7
TORSDOF 1
ENDMDL
