MODEL 1
REMARK minimizedAffinity -3.63391495
REMARK minimizedRMSD -1
REMARK  0 active torsions:
REMARK  status: ('A' for Active; 'I' for Inactive)
ROOT
ATOM      1  C   UNL d   1      -1.463   1.353   0.018  0.00  0.00     0.078 C 
ATOM      2  C1  UNL d   1      -0.501   0.636  -0.881  0.00  0.00    -0.077 A 
ATOM      3  C2  UNL d   1      -0.152   1.162  -2.131  0.00  0.00    -0.001 A 
ATOM      4  C3  UNL d   1       0.738   0.479  -2.961  0.00  0.00     0.003 A 
ATOM      5  C4  UNL d   1       1.285  -0.736  -2.552  0.00  0.00    -0.005 A 
ATOM      6  C5  UNL d   1       0.941  -1.269  -1.311  0.00  0.00     0.003 A 
ATOM      7  C6  UNL d   1       0.052  -0.587  -0.479  0.00  0.00    -0.001 A 
ENDROOT
TORSDOF 0
ENDMDL
