MODEL 1
REMARK minimizedAffinity -4.08911228
REMARK minimizedRMSD -1
REMARK  0 active torsions:
REMARK  status: ('A' for Active; 'I' for Inactive)
ROOT
ATOM      1  C   UNL d   1      -0.886   1.051   3.337  0.00  0.00     0.078 C 
ATOM      2  C1  UNL d   1      -0.712   0.551   1.934  0.00  0.00    -0.077 A 
ATOM      3  C2  UNL d   1       0.562   0.292   1.413  0.00  0.00    -0.001 A 
ATOM      4  C3  UNL d   1       0.709  -0.164   0.102  0.00  0.00     0.003 A 
ATOM      5  C4  UNL d   1      -0.413  -0.365  -0.699  0.00  0.00    -0.005 A 
ATOM      6  C5  UNL d   1      -1.684  -0.108  -0.190  0.00  0.00     0.003 A 
ATOM      7  C6  UNL d   1      -1.834   0.349   1.120  0.00  0.00    -0.001 A 
ENDROOT
TORSDOF 0
ENDMDL
