MODEL 1
REMARK minimizedAffinity -2.01557541
REMARK minimizedRMSD -1
REMARK  0 active torsions:
REMARK  status: ('A' for Active; 'I' for Inactive)
ROOT
ATOM      1  C   UNL d   1       0.140  -0.205  -1.564  0.00  0.00     0.078 C 
ATOM      2  C1  UNL d   1      -0.349   0.087  -0.176  0.00  0.00    -0.077 A 
ATOM      3  C2  UNL d   1      -1.538   0.795   0.035  0.00  0.00    -0.001 A 
ATOM      4  C3  UNL d   1      -1.975   1.069   1.332  0.00  0.00     0.003 A 
ATOM      5  C4  UNL d   1      -1.229   0.638   2.428  0.00  0.00    -0.005 A 
ATOM      6  C5  UNL d   1      -0.044  -0.065   2.227  0.00  0.00     0.003 A 
ATOM      7  C6  UNL d   1       0.396  -0.340   0.931  0.00  0.00    -0.001 A 
ENDROOT
TORSDOF 0
ENDMDL
