MODEL 1
REMARK minimizedAffinity -2.41831207
REMARK minimizedRMSD -1
REMARK  0 active torsions:
REMARK  status: ('A' for Active; 'I' for Inactive)
ROOT
ATOM      1  C   UNL d   1       1.161  -0.806   3.894  0.00  0.00     0.078 C 
ATOM      2  C1  UNL d   1       0.335  -0.542   2.671  0.00  0.00    -0.077 A 
ATOM      3  C2  UNL d   1       0.833  -0.815   1.391  0.00  0.00    -0.001 A 
ATOM      4  C3  UNL d   1       0.056  -0.556   0.261  0.00  0.00     0.003 A 
ATOM      5  C4  UNL d   1      -1.224  -0.021   0.399  0.00  0.00    -0.005 A 
ATOM      6  C5  UNL d   1      -1.727   0.256   1.669  0.00  0.00     0.003 A 
ATOM      7  C6  UNL d   1      -0.951  -0.003   2.800  0.00  0.00    -0.001 A 
ENDROOT
TORSDOF 0
ENDMDL
