MODEL 1
REMARK minimizedAffinity -1.25401986
REMARK minimizedRMSD -1
REMARK  0 active torsions:
REMARK  status: ('A' for Active; 'I' for Inactive)
ROOT
ATOM      1  C   UNL d   1      -0.757  -0.416  -0.295  0.00  0.00     0.078 C 
ATOM      2  C1  UNL d   1       0.056  -0.207  -1.538  0.00  0.00    -0.077 A 
ATOM      3  C2  UNL d   1       1.360   0.299  -1.470  0.00  0.00    -0.001 A 
ATOM      4  C3  UNL d   1       2.101   0.497  -2.636  0.00  0.00     0.003 A 
ATOM      5  C4  UNL d   1       1.547   0.194  -3.878  0.00  0.00    -0.005 A 
ATOM      6  C5  UNL d   1       0.250  -0.308  -3.955  0.00  0.00     0.003 A 
ATOM      7  C6  UNL d   1      -0.493  -0.507  -2.791  0.00  0.00    -0.001 A 
ENDROOT
TORSDOF 0
ENDMDL
