MODEL 1
REMARK minimizedAffinity -4.43891382
REMARK minimizedRMSD -1
REMARK  0 active torsions:
REMARK  status: ('A' for Active; 'I' for Inactive)
ROOT
ATOM      1  C   UNL d   1       0.284  -0.803  -1.588  0.00  0.00     0.078 C 
ATOM      2  C1  UNL d   1      -0.331  -0.367  -0.291  0.00  0.00    -0.077 A 
ATOM      3  C2  UNL d   1      -1.637   0.135  -0.246  0.00  0.00    -0.001 A 
ATOM      4  C3  UNL d   1      -2.194   0.546   0.966  0.00  0.00     0.003 A 
ATOM      5  C4  UNL d   1      -1.451   0.460   2.142  0.00  0.00    -0.005 A 
ATOM      6  C5  UNL d   1      -0.150  -0.037   2.107  0.00  0.00     0.003 A 
ATOM      7  C6  UNL d   1       0.408  -0.448   0.895  0.00  0.00    -0.001 A 
ENDROOT
TORSDOF 0
ENDMDL
