MODEL 1
REMARK minimizedAffinity 4.23752832
REMARK minimizedRMSD -1
REMARK  0 active torsions:
REMARK  status: ('A' for Active; 'I' for Inactive)
ROOT
ATOM      1  C   UNL d   1       1.125   3.377   2.746  0.00  0.00     0.078 C 
ATOM      2  C1  UNL d   1       0.718   4.021   1.454  0.00  0.00    -0.077 A 
ATOM      3  C2  UNL d   1       0.721   5.414   1.311  0.00  0.00    -0.001 A 
ATOM      4  C3  UNL d   1       0.331   6.000   0.106  0.00  0.00     0.003 A 
ATOM      5  C4  UNL d   1      -0.067   5.201  -0.965  0.00  0.00    -0.005 A 
ATOM      6  C5  UNL d   1      -0.076   3.814  -0.830  0.00  0.00     0.003 A 
ATOM      7  C6  UNL d   1       0.315   3.226   0.374  0.00  0.00    -0.001 A 
ENDROOT
TORSDOF 0
ENDMDL
