MODEL 1
REMARK minimizedAffinity 6.06215143
REMARK minimizedRMSD -1
REMARK  0 active torsions:
REMARK  status: ('A' for Active; 'I' for Inactive)
ROOT
ATOM      1  C   UNL d   1      -0.310   2.631   1.954  0.00  0.00     0.078 C 
ATOM      2  C1  UNL d   1      -0.304   3.813   1.030  0.00  0.00    -0.077 A 
ATOM      3  C2  UNL d   1      -1.151   4.905   1.252  0.00  0.00    -0.001 A 
ATOM      4  C3  UNL d   1      -1.143   5.994   0.378  0.00  0.00     0.003 A 
ATOM      5  C4  UNL d   1      -0.290   6.000  -0.724  0.00  0.00    -0.005 A 
ATOM      6  C5  UNL d   1       0.555   4.916  -0.954  0.00  0.00     0.003 A 
ATOM      7  C6  UNL d   1       0.548   3.827  -0.081  0.00  0.00    -0.001 A 
ENDROOT
TORSDOF 0
ENDMDL
