MODEL 1
REMARK minimizedAffinity 4.30296087
REMARK minimizedRMSD -1
REMARK  0 active torsions:
REMARK  status: ('A' for Active; 'I' for Inactive)
ROOT
ATOM      1  C   UNL d   1      -3.810   1.233   0.737  0.00  0.00     0.078 C 
ATOM      2  C1  UNL d   1      -2.450   1.863   0.752  0.00  0.00    -0.077 A 
ATOM      3  C2  UNL d   1      -1.758   2.059   1.954  0.00  0.00    -0.001 A 
ATOM      4  C3  UNL d   1      -0.496   2.655   1.953  0.00  0.00     0.003 A 
ATOM      5  C4  UNL d   1       0.085   3.062   0.754  0.00  0.00    -0.005 A 
ATOM      6  C5  UNL d   1      -0.597   2.873  -0.447  0.00  0.00     0.003 A 
ATOM      7  C6  UNL d   1      -1.858   2.277  -0.448  0.00  0.00    -0.001 A 
ENDROOT
TORSDOF 0
ENDMDL
