MODEL 1
REMARK minimizedAffinity 4.95482969
REMARK minimizedRMSD -1
REMARK  0 active torsions:
REMARK  status: ('A' for Active; 'I' for Inactive)
ROOT
ATOM      1  C   UNL d   1      -0.370   2.598   1.449  0.00  0.00     0.078 C 
ATOM      2  C1  UNL d   1      -0.147   3.776   0.548  0.00  0.00    -0.077 A 
ATOM      3  C2  UNL d   1       0.901   3.787  -0.380  0.00  0.00    -0.001 A 
ATOM      4  C3  UNL d   1       1.102   4.894  -1.206  0.00  0.00     0.003 A 
ATOM      5  C4  UNL d   1       0.259   6.000  -1.110  0.00  0.00    -0.005 A 
ATOM      6  C5  UNL d   1      -0.785   6.000  -0.188  0.00  0.00     0.003 A 
ATOM      7  C6  UNL d   1      -0.988   4.893   0.638  0.00  0.00    -0.001 A 
ENDROOT
TORSDOF 0
ENDMDL
