MODEL 1
REMARK minimizedAffinity -0.231008366
REMARK minimizedRMSD -1
REMARK  0 active torsions:
REMARK  status: ('A' for Active; 'I' for Inactive)
ROOT
ATOM      1  C   UNL d   1      -6.000   5.911  -4.882  0.00  0.00     0.078 C 
ATOM      2  C1  UNL d   1      -5.881   4.417  -4.818  0.00  0.00    -0.077 A 
ATOM      3  C2  UNL d   1      -5.762   3.755  -3.590  0.00  0.00    -0.001 A 
ATOM      4  C3  UNL d   1      -5.643   2.366  -3.546  0.00  0.00     0.003 A 
ATOM      5  C4  UNL d   1      -5.640   1.626  -4.727  0.00  0.00    -0.005 A 
ATOM      6  C5  UNL d   1      -5.755   2.276  -5.954  0.00  0.00     0.003 A 
ATOM      7  C6  UNL d   1      -5.875   3.666  -6.000  0.00  0.00    -0.001 A 
ENDROOT
TORSDOF 0
ENDMDL
