MODEL 1
REMARK minimizedAffinity 6.3326602
REMARK minimizedRMSD -1
REMARK  0 active torsions:
REMARK  status: ('A' for Active; 'I' for Inactive)
ROOT
ATOM      1  N1  IND d   1       0.438  -1.439   1.281  0.00  0.00    -0.196 N 
ATOM      2  C2  IND d   1       0.043  -2.165   0.192  0.00  0.00     0.054 A 
ATOM      3  C3  IND d   1       0.567  -3.410   0.241  0.00  0.00    -0.031 A 
ATOM      4  C4  IND d   1       2.016  -4.503   2.067  0.00  0.00     0.051 A 
ATOM      5  C5  IND d   1       2.666  -4.225   3.236  0.00  0.00    -0.031 A 
ATOM      6  C6  IND d   1       2.604  -2.980   3.827  0.00  0.00     0.015 A 
ATOM      7  C7  IND d   1       1.876  -1.965   3.274  0.00  0.00    -0.016 A 
ATOM      8  C8  IND d   1       1.220  -2.241   2.082  0.00  0.00    -0.047 A 
ATOM      9  C9  IND d   1       1.314  -3.491   1.456  0.00  0.00    -0.096 A 
ATOM     10  HN1 IND d   1       0.233  -0.619   1.439  0.00  0.00     0.298 HD
ENDROOT
TORSDOF 0
ENDMDL
