MODEL 1
REMARK minimizedAffinity 12.5416451
REMARK minimizedRMSD -1
REMARK  0 active torsions:
REMARK  status: ('A' for Active; 'I' for Inactive)
ROOT
ATOM      1  N1  IND d   1       1.427  -1.499   1.848  0.00  0.00    -0.196 N 
ATOM      2  C2  IND d   1       1.493  -1.942   3.139  0.00  0.00     0.054 A 
ATOM      3  C3  IND d   1       1.990  -0.976   3.943  0.00  0.00    -0.031 A 
ATOM      4  C4  IND d   1       2.667   1.441   3.370  0.00  0.00     0.051 A 
ATOM      5  C5  IND d   1       2.819   2.295   2.314  0.00  0.00    -0.031 A 
ATOM      6  C6  IND d   1       2.505   1.922   1.023  0.00  0.00     0.015 A 
ATOM      7  C7  IND d   1       2.015   0.678   0.740  0.00  0.00    -0.016 A 
ATOM      8  C8  IND d   1       1.867  -0.194   1.809  0.00  0.00    -0.047 A 
ATOM      9  C9  IND d   1       2.224   0.164   3.115  0.00  0.00    -0.096 A 
ATOM     10  HN1 IND d   1       1.157  -1.959   1.173  0.00  0.00     0.298 HD
ENDROOT
TORSDOF 0
ENDMDL
