MODEL 1
REMARK minimizedAffinity 6.89923
REMARK minimizedRMSD -1
REMARK  0 active torsions:
REMARK  status: ('A' for Active; 'I' for Inactive)
ROOT
ATOM      1  N1  IND d   1       1.040  -3.004   3.223  0.00  0.00    -0.196 N 
ATOM      2  C2  IND d   1       2.243  -2.359   3.149  0.00  0.00     0.054 A 
ATOM      3  C3  IND d   1       3.150  -2.963   3.949  0.00  0.00    -0.031 A 
ATOM      4  C4  IND d   1       2.906  -5.082   5.390  0.00  0.00     0.051 A 
ATOM      5  C5  IND d   1       1.984  -5.999   5.809  0.00  0.00    -0.031 A 
ATOM      6  C6  IND d   1       0.674  -5.966   5.376  0.00  0.00     0.015 A 
ATOM      7  C7  IND d   1       0.238  -5.017   4.496  0.00  0.00    -0.016 A 
ATOM      8  C8  IND d   1       1.170  -4.079   4.074  0.00  0.00    -0.047 A 
ATOM      9  C9  IND d   1       2.490  -4.082   4.543  0.00  0.00    -0.096 A 
ATOM     10  HN1 IND d   1       0.322  -2.776   2.808  0.00  0.00     0.298 HD
ENDROOT
TORSDOF 0
ENDMDL
