MODEL 1
REMARK minimizedAffinity 6.68122959
REMARK minimizedRMSD -1
REMARK  0 active torsions:
REMARK  status: ('A' for Active; 'I' for Inactive)
ROOT
ATOM      1  N1  IND d   1       2.984  -5.044   3.709  0.00  0.00    -0.196 N 
ATOM      2  C2  IND d   1       3.694  -4.521   4.754  0.00  0.00     0.054 A 
ATOM      3  C3  IND d   1       3.506  -3.185   4.829  0.00  0.00    -0.031 A 
ATOM      4  C4  IND d   1       1.994  -1.663   3.406  0.00  0.00     0.051 A 
ATOM      5  C5  IND d   1       1.177  -1.678   2.310  0.00  0.00    -0.031 A 
ATOM      6  C6  IND d   1       0.914  -2.838   1.612  0.00  0.00     0.015 A 
ATOM      7  C7  IND d   1       1.450  -4.036   1.992  0.00  0.00    -0.016 A 
ATOM      8  C8  IND d   1       2.285  -4.024   3.101  0.00  0.00    -0.047 A 
ATOM      9  C9  IND d   1       2.590  -2.842   3.787  0.00  0.00    -0.096 A 
ATOM     10  HN1 IND d   1       2.974  -5.870   3.472  0.00  0.00     0.298 HD
ENDROOT
TORSDOF 0
ENDMDL
