MODEL 1
REMARK minimizedAffinity -2.71673608
REMARK minimizedRMSD -1
REMARK  0 active torsions:
REMARK  status: ('A' for Active; 'I' for Inactive)
ROOT
ATOM      1  N1  IND d   1       4.825  -5.866  -4.744  0.00  0.00    -0.196 N 
ATOM      2  C2  IND d   1       4.228  -5.878  -5.974  0.00  0.00     0.054 A 
ATOM      3  C3  IND d   1       2.884  -5.952  -5.844  0.00  0.00    -0.031 A 
ATOM      4  C4  IND d   1       1.445  -5.961  -3.709  0.00  0.00     0.051 A 
ATOM      5  C5  IND d   1       1.540  -6.000  -2.347  0.00  0.00    -0.031 A 
ATOM      6  C6  IND d   1       2.759  -5.994  -1.700  0.00  0.00     0.015 A 
ATOM      7  C7  IND d   1       3.934  -5.937  -2.395  0.00  0.00    -0.016 A 
ATOM      8  C8  IND d   1       3.842  -5.904  -3.779  0.00  0.00    -0.047 A 
ATOM      9  C9  IND d   1       2.609  -5.953  -4.442  0.00  0.00    -0.096 A 
ATOM     10  HN1 IND d   1       5.672  -5.840  -4.597  0.00  0.00     0.298 HD
ENDROOT
TORSDOF 0
ENDMDL
