MODEL 1
REMARK minimizedAffinity 11.5396852
REMARK minimizedRMSD -1
REMARK  0 active torsions:
REMARK  status: ('A' for Active; 'I' for Inactive)
ROOT
ATOM      1  N1  IND d   1      -5.080   4.099   1.807  0.00  0.00    -0.196 N 
ATOM      2  C2  IND d   1      -5.981   4.263   0.793  0.00  0.00     0.054 A 
ATOM      3  C3  IND d   1      -5.404   3.987  -0.398  0.00  0.00    -0.031 A 
ATOM      4  C4  IND d   1      -3.024   3.149  -0.907  0.00  0.00     0.051 A 
ATOM      5  C5  IND d   1      -1.824   2.884  -0.308  0.00  0.00    -0.031 A 
ATOM      6  C6  IND d   1      -1.646   3.010   1.054  0.00  0.00     0.015 A 
ATOM      7  C7  IND d   1      -2.668   3.397   1.874  0.00  0.00    -0.016 A 
ATOM      8  C8  IND d   1      -3.886   3.674   1.268  0.00  0.00    -0.047 A 
ATOM      9  C9  IND d   1      -4.061   3.589  -0.119  0.00  0.00    -0.096 A 
ATOM     10  HN1 IND d   1      -5.233   4.238   2.642  0.00  0.00     0.298 HD
ENDROOT
TORSDOF 0
ENDMDL
