MODEL 1
REMARK minimizedAffinity 0.31093207
REMARK minimizedRMSD -1
REMARK  0 active torsions:
REMARK  status: ('A' for Active; 'I' for Inactive)
ROOT
ATOM      1  N1  IND d   1       4.696  -5.985  -4.923  0.00  0.00    -0.196 N 
ATOM      2  C2  IND d   1       3.521  -5.983  -5.622  0.00  0.00     0.054 A 
ATOM      3  C3  IND d   1       2.469  -5.998  -4.773  0.00  0.00    -0.031 A 
ATOM      4  C4  IND d   1       2.442  -5.926  -2.200  0.00  0.00     0.051 A 
ATOM      5  C5  IND d   1       3.269  -5.957  -1.113  0.00  0.00    -0.031 A 
ATOM      6  C6  IND d   1       4.643  -5.996  -1.243  0.00  0.00     0.015 A 
ATOM      7  C7  IND d   1       5.242  -5.995  -2.470  0.00  0.00    -0.016 A 
ATOM      8  C8  IND d   1       4.405  -5.971  -3.576  0.00  0.00    -0.047 A 
ATOM      9  C9  IND d   1       3.010  -5.974  -3.451  0.00  0.00    -0.096 A 
ATOM     10  HN1 IND d   1       5.484  -5.993  -5.266  0.00  0.00     0.298 HD
ENDROOT
TORSDOF 0
ENDMDL
