MODEL 1
REMARK minimizedAffinity 18.899807
REMARK minimizedRMSD -1
REMARK  0 active torsions:
REMARK  status: ('A' for Active; 'I' for Inactive)
ROOT
ATOM      1  C4' PXY d   1      -1.366  -2.048  -3.822  0.00  0.00     0.077 C 
ATOM      2  C1' PXY d   1      -0.077  -3.484   1.627  0.00  0.00     0.077 C 
ATOM      3  C1  PXY d   1      -0.407  -3.117   0.194  0.00  0.00    -0.082 A 
ATOM      4  C2  PXY d   1      -0.809  -1.889  -0.091  0.00  0.00     0.003 A 
ATOM      5  C3  PXY d   1      -1.143  -1.549  -1.377  0.00  0.00     0.003 A 
ATOM      6  C4  PXY d   1      -1.013  -2.460  -2.390  0.00  0.00    -0.082 A 
ATOM      7  C5  PXY d   1      -0.593  -3.712  -2.109  0.00  0.00     0.003 A 
ATOM      8  C6  PXY d   1      -0.299  -4.049  -0.791  0.00  0.00     0.003 A 
ENDROOT
TORSDOF 0
ENDMDL
