MODEL 1
REMARK minimizedAffinity 10.6928997
REMARK minimizedRMSD -1
REMARK  0 active torsions:
REMARK  status: ('A' for Active; 'I' for Inactive)
ROOT
ATOM      1  C4' PXY d   1      -2.297  -1.135   0.040  0.00  0.00     0.077 C 
ATOM      2  C1' PXY d   1      -2.793   1.002   5.388  0.00  0.00     0.077 C 
ATOM      3  C1  PXY d   1      -2.659   0.430   3.990  0.00  0.00    -0.082 A 
ATOM      4  C2  PXY d   1      -2.484   1.247   2.964  0.00  0.00     0.003 A 
ATOM      5  C3  PXY d   1      -2.393   0.749   1.690  0.00  0.00     0.003 A 
ATOM      6  C4  PXY d   1      -2.428  -0.602   1.470  0.00  0.00    -0.082 A 
ATOM      7  C5  PXY d   1      -2.596  -1.442   2.513  0.00  0.00     0.003 A 
ATOM      8  C6  PXY d   1      -2.727  -0.914   3.794  0.00  0.00     0.003 A 
ENDROOT
TORSDOF 0
ENDMDL
