MODEL 1
REMARK minimizedAffinity 14.8858185
REMARK minimizedRMSD -1
REMARK  0 active torsions:
REMARK  status: ('A' for Active; 'I' for Inactive)
ROOT
ATOM      1  C4' PXY d   1      -6.000   4.799  -5.665  0.00  0.00     0.077 C 
ATOM      2  C1' PXY d   1      -0.982   2.163  -4.528  0.00  0.00     0.077 C 
ATOM      3  C1  PXY d   1      -2.298   2.860  -4.814  0.00  0.00    -0.082 A 
ATOM      4  C2  PXY d   1      -3.130   2.346  -5.705  0.00  0.00     0.003 A 
ATOM      5  C3  PXY d   1      -4.309   2.980  -6.000  0.00  0.00     0.003 A 
ATOM      6  C4  PXY d   1      -4.665   4.124  -5.337  0.00  0.00    -0.082 A 
ATOM      7  C5  PXY d   1      -3.826   4.649  -4.419  0.00  0.00     0.003 A 
ATOM      8  C6  PXY d   1      -2.615   4.012  -4.164  0.00  0.00     0.003 A 
ENDROOT
TORSDOF 0
ENDMDL
