MODEL 1
REMARK minimizedAffinity 5.94812107
REMARK minimizedRMSD -1
REMARK  0 active torsions:
REMARK  status: ('A' for Active; 'I' for Inactive)
ROOT
ATOM      1  C4' PXY d   1       3.561   0.672   3.571  0.00  0.00     0.077 C 
ATOM      2  C1' PXY d   1       5.979   2.823  -1.219  0.00  0.00     0.077 C 
ATOM      3  C1  PXY d   1       5.352   2.248   0.036  0.00  0.00    -0.082 A 
ATOM      4  C2  PXY d   1       4.176   2.697   0.444  0.00  0.00     0.003 A 
ATOM      5  C3  PXY d   1       3.609   2.211   1.594  0.00  0.00     0.003 A 
ATOM      6  C4  PXY d   1       4.227   1.217   2.304  0.00  0.00    -0.082 A 
ATOM      7  C5  PXY d   1       5.422   0.745   1.888  0.00  0.00     0.003 A 
ATOM      8  C6  PXY d   1       6.000   1.281   0.741  0.00  0.00     0.003 A 
ENDROOT
TORSDOF 0
ENDMDL
