MODEL 1
REMARK minimizedAffinity 10.0596533
REMARK minimizedRMSD -1
REMARK  0 active torsions:
REMARK  status: ('A' for Active; 'I' for Inactive)
ROOT
ATOM      1  C4' PXY d   1       3.491   2.976   1.547  0.00  0.00     0.077 C 
ATOM      2  C1' PXY d   1       5.913   1.952  -3.600  0.00  0.00     0.077 C 
ATOM      3  C1  PXY d   1       5.266   2.222  -2.256  0.00  0.00    -0.082 A 
ATOM      4  C2  PXY d   1       6.000   2.689  -1.259  0.00  0.00     0.003 A 
ATOM      5  C3  PXY d   1       5.438   2.908  -0.028  0.00  0.00     0.003 A 
ATOM      6  C4  PXY d   1       4.100   2.698   0.170  0.00  0.00    -0.082 A 
ATOM      7  C5  PXY d   1       3.342   2.232  -0.845  0.00  0.00     0.003 A 
ATOM      8  C6  PXY d   1       3.940   1.977  -2.076  0.00  0.00     0.003 A 
ENDROOT
TORSDOF 0
ENDMDL
