MODEL 1
REMARK minimizedAffinity 15.5968208
REMARK minimizedRMSD -1
REMARK  0 active torsions:
REMARK  status: ('A' for Active; 'I' for Inactive)
ROOT
ATOM      1  C4' PXY d   1      -3.168   0.612  -3.400  0.00  0.00     0.077 C 
ATOM      2  C1' PXY d   1      -1.000  -3.048   0.514  0.00  0.00     0.077 C 
ATOM      3  C1  PXY d   1      -1.581  -2.091  -0.509  0.00  0.00    -0.082 A 
ATOM      4  C2  PXY d   1      -0.875  -1.773  -1.582  0.00  0.00     0.003 A 
ATOM      5  C3  PXY d   1      -1.371  -0.885  -2.500  0.00  0.00     0.003 A 
ATOM      6  C4  PXY d   1      -2.625  -0.357  -2.346  0.00  0.00    -0.082 A 
ATOM      7  C5  PXY d   1      -3.356  -0.685  -1.260  0.00  0.00     0.003 A 
ATOM      8  C6  PXY d   1      -2.817  -1.557  -0.318  0.00  0.00     0.003 A 
ENDROOT
TORSDOF 0
ENDMDL
