MODEL 1
REMARK minimizedAffinity 7.81704426
REMARK minimizedRMSD -1
REMARK  0 active torsions:
REMARK  status: ('A' for Active; 'I' for Inactive)
ROOT
ATOM      1  C4' PXY d   1       5.233   0.267   2.631  0.00  0.00     0.077 C 
ATOM      2  C1' PXY d   1       5.239   5.228  -0.336  0.00  0.00     0.077 C 
ATOM      3  C1  PXY d   1       5.241   3.921   0.431  0.00  0.00    -0.082 A 
ATOM      4  C2  PXY d   1       4.508   3.804   1.526  0.00  0.00     0.003 A 
ATOM      5  C3  PXY d   1       4.523   2.640   2.250  0.00  0.00     0.003 A 
ATOM      6  C4  PXY d   1       5.254   1.565   1.819  0.00  0.00    -0.082 A 
ATOM      7  C5  PXY d   1       5.996   1.673   0.697  0.00  0.00     0.003 A 
ATOM      8  C6  PXY d   1       6.000   2.877  -0.001  0.00  0.00     0.003 A 
ENDROOT
TORSDOF 0
ENDMDL
