MODEL 1
REMARK minimizedAffinity 12.2399445
REMARK minimizedRMSD -1
REMARK  0 active torsions:
REMARK  status: ('A' for Active; 'I' for Inactive)
ROOT
ATOM      1  C4' PXY d   1       3.751   1.667   4.271  0.00  0.00     0.077 C 
ATOM      2  C1' PXY d   1       6.000   2.435  -0.999  0.00  0.00     0.077 C 
ATOM      3  C1  PXY d   1       5.416   2.222   0.384  0.00  0.00    -0.082 A 
ATOM      4  C2  PXY d   1       4.347   2.908   0.755  0.00  0.00     0.003 A 
ATOM      5  C3  PXY d   1       3.824   2.751   2.013  0.00  0.00     0.003 A 
ATOM      6  C4  PXY d   1       4.369   1.843   2.881  0.00  0.00    -0.082 A 
ATOM      7  C5  PXY d   1       5.453   1.132   2.506  0.00  0.00     0.003 A 
ATOM      8  C6  PXY d   1       5.993   1.336   1.240  0.00  0.00     0.003 A 
ENDROOT
TORSDOF 0
ENDMDL
