MODEL 1
REMARK minimizedAffinity 12.1894274
REMARK minimizedRMSD -1
REMARK  0 active torsions:
REMARK  status: ('A' for Active; 'I' for Inactive)
ROOT
ATOM      1  C4' PXY d   1      -0.012  -6.000   2.718  0.00  0.00     0.077 C 
ATOM      2  C1' PXY d   1      -2.256  -1.439  -0.035  0.00  0.00     0.077 C 
ATOM      3  C1  PXY d   1      -1.666  -2.628   0.698  0.00  0.00    -0.082 A 
ATOM      4  C2  PXY d   1      -1.150  -3.631   0.007  0.00  0.00     0.003 A 
ATOM      5  C3  PXY d   1      -0.641  -4.728   0.652  0.00  0.00     0.003 A 
ATOM      6  C4  PXY d   1      -0.610  -4.775   2.020  0.00  0.00    -0.082 A 
ATOM      7  C5  PXY d   1      -1.125  -3.750   2.733  0.00  0.00     0.003 A 
ATOM      8  C6  PXY d   1      -1.675  -2.664   2.058  0.00  0.00     0.003 A 
ENDROOT
TORSDOF 0
ENDMDL
