MODEL 1
REMARK minimizedAffinity 18.1479588
REMARK minimizedRMSD -1
REMARK  0 active torsions:
REMARK  status: ('A' for Active; 'I' for Inactive)
ROOT
ATOM      1  C4' PXY d   1       5.999   1.979  -4.504  0.00  0.00     0.077 C 
ATOM      2  C1' PXY d   1       2.376  -1.029  -1.152  0.00  0.00     0.077 C 
ATOM      3  C1  PXY d   1       3.336  -0.249  -2.028  0.00  0.00    -0.082 A 
ATOM      4  C2  PXY d   1       3.130   1.041  -2.237  0.00  0.00     0.003 A 
ATOM      5  C3  PXY d   1       3.969   1.755  -3.053  0.00  0.00     0.003 A 
ATOM      6  C4  PXY d   1       5.062   1.153  -3.619  0.00  0.00    -0.082 A 
ATOM      7  C5  PXY d   1       5.284  -0.160  -3.402  0.00  0.00     0.003 A 
ATOM      8  C6  PXY d   1       4.397  -0.876  -2.604  0.00  0.00     0.003 A 
ENDROOT
TORSDOF 0
ENDMDL
