MODEL 1
REMARK minimizedAffinity 4.01159477
REMARK minimizedRMSD -1
REMARK  0 active torsions:
REMARK  status: ('A' for Active; 'I' for Inactive)
ROOT
ATOM      1  C4' PXY d   1      -4.905   6.000  -5.629  0.00  0.00     0.077 C 
ATOM      2  C1' PXY d   1      -4.622   5.720   0.138  0.00  0.00     0.077 C 
ATOM      3  C1  PXY d   1      -4.709   5.790  -1.374  0.00  0.00    -0.082 A 
ATOM      4  C2  PXY d   1      -3.603   5.712  -2.097  0.00  0.00     0.003 A 
ATOM      5  C3  PXY d   1      -3.660   5.805  -3.464  0.00  0.00     0.003 A 
ATOM      6  C4  PXY d   1      -4.866   5.925  -4.100  0.00  0.00    -0.082 A 
ATOM      7  C5  PXY d   1      -6.000   5.995  -3.371  0.00  0.00     0.003 A 
ATOM      8  C6  PXY d   1      -5.917   5.940  -1.982  0.00  0.00     0.003 A 
ENDROOT
TORSDOF 0
ENDMDL
