MODEL 1
REMARK minimizedAffinity 4.44640398
REMARK minimizedRMSD -1
REMARK  0 active torsions:
REMARK  status: ('A' for Active; 'I' for Inactive)
ROOT
ATOM      1  C4' PXY d   1      -2.162  -1.283  -0.143  0.00  0.00     0.077 C 
ATOM      2  C1' PXY d   1      -0.421  -5.951   2.788  0.00  0.00     0.077 C 
ATOM      3  C1  PXY d   1      -0.887  -4.724   2.028  0.00  0.00    -0.082 A 
ATOM      4  C2  PXY d   1      -0.669  -4.640   0.726  0.00  0.00     0.003 A 
ATOM      5  C3  PXY d   1      -1.055  -3.524   0.029  0.00  0.00     0.003 A 
ATOM      6  C4  PXY d   1      -1.718  -2.507   0.663  0.00  0.00    -0.082 A 
ATOM      7  C5  PXY d   1      -1.953  -2.590   1.989  0.00  0.00     0.003 A 
ATOM      8  C6  PXY d   1      -1.517  -3.713   2.686  0.00  0.00     0.003 A 
ENDROOT
TORSDOF 0
ENDMDL
