MODEL 1
REMARK minimizedAffinity 14.4293613
REMARK minimizedRMSD -1
REMARK  0 active torsions:
REMARK  status: ('A' for Active; 'I' for Inactive)
ROOT
ATOM      1  C4' PXY d   1       4.499   4.754  -0.097  0.00  0.00     0.077 C 
ATOM      2  C1' PXY d   1       5.596   0.284   3.401  0.00  0.00     0.077 C 
ATOM      3  C1  PXY d   1       5.320   1.455   2.479  0.00  0.00    -0.082 A 
ATOM      4  C2  PXY d   1       4.410   2.354   2.817  0.00  0.00     0.003 A 
ATOM      5  C3  PXY d   1       4.125   3.401   1.979  0.00  0.00     0.003 A 
ATOM      6  C4  PXY d   1       4.817   3.560   0.808  0.00  0.00    -0.082 A 
ATOM      7  C5  PXY d   1       5.755   2.653   0.461  0.00  0.00     0.003 A 
ATOM      8  C6  PXY d   1       6.000   1.574   1.306  0.00  0.00     0.003 A 
ENDROOT
TORSDOF 0
ENDMDL
