MODEL 1
REMARK minimizedAffinity 8.15121365
REMARK minimizedRMSD -1
REMARK  0 active torsions:
REMARK  status: ('A' for Active; 'I' for Inactive)
ROOT
ATOM      1  C4' PXY d   1       6.000  -0.035   3.376  0.00  0.00     0.077 C 
ATOM      2  C1' PXY d   1       4.506   4.302  -0.141  0.00  0.00     0.077 C 
ATOM      3  C1  PXY d   1       4.896   3.173   0.792  0.00  0.00    -0.082 A 
ATOM      4  C2  PXY d   1       5.664   2.192   0.346  0.00  0.00     0.003 A 
ATOM      5  C3  PXY d   1       6.000   1.146   1.166  0.00  0.00     0.003 A 
ATOM      6  C4  PXY d   1       5.589   1.131   2.472  0.00  0.00    -0.082 A 
ATOM      7  C5  PXY d   1       4.814   2.133   2.938  0.00  0.00     0.003 A 
ATOM      8  C6  PXY d   1       4.450   3.165   2.077  0.00  0.00     0.003 A 
ENDROOT
TORSDOF 0
ENDMDL
