MODEL 1
REMARK minimizedAffinity 4.07724857
REMARK minimizedRMSD -1
REMARK  0 active torsions:
REMARK  status: ('A' for Active; 'I' for Inactive)
ROOT
ATOM      1  C4' PXY d   1      -1.611  -1.455  -1.653  0.00  0.00     0.077 C 
ATOM      2  C1' PXY d   1      -2.097  -4.136   3.444  0.00  0.00     0.077 C 
ATOM      3  C1  PXY d   1      -1.957  -3.436   2.107  0.00  0.00    -0.082 A 
ATOM      4  C2  PXY d   1      -2.838  -2.513   1.757  0.00  0.00     0.003 A 
ATOM      5  C3  PXY d   1      -2.744  -1.892   0.538  0.00  0.00     0.003 A 
ATOM      6  C4  PXY d   1      -1.708  -2.181  -0.309  0.00  0.00    -0.082 A 
ATOM      7  C5  PXY d   1      -0.799  -3.114   0.046  0.00  0.00     0.003 A 
ATOM      8  C6  PXY d   1      -0.935  -3.762   1.270  0.00  0.00     0.003 A 
ENDROOT
TORSDOF 0
ENDMDL
