MODEL 1
REMARK minimizedAffinity 16.0925865
REMARK minimizedRMSD -1
REMARK  0 active torsions:
REMARK  status: ('A' for Active; 'I' for Inactive)
ROOT
ATOM      1  C4' PXY d   1       4.949   5.320  -0.754  0.00  0.00     0.077 C 
ATOM      2  C1' PXY d   1       5.235   0.450   2.347  0.00  0.00     0.077 C 
ATOM      3  C1  PXY d   1       5.173   1.725   1.530  0.00  0.00    -0.082 A 
ATOM      4  C2  PXY d   1       4.304   2.669   1.856  0.00  0.00     0.003 A 
ATOM      5  C3  PXY d   1       4.212   3.815   1.108  0.00  0.00     0.003 A 
ATOM      6  C4  PXY d   1       5.054   4.020   0.048  0.00  0.00    -0.082 A 
ATOM      7  C5  PXY d   1       5.950   3.067  -0.284  0.00  0.00     0.003 A 
ATOM      8  C6  PXY d   1       6.000   1.893   0.462  0.00  0.00     0.003 A 
ENDROOT
TORSDOF 0
ENDMDL
