MODEL 1
REMARK minimizedAffinity 7.93473053
REMARK minimizedRMSD -1
REMARK  0 active torsions:
REMARK  status: ('A' for Active; 'I' for Inactive)
ROOT
ATOM      1  C4' PXY d   1      -1.808  -2.607   3.493  0.00  0.00     0.077 C 
ATOM      2  C1' PXY d   1      -1.901  -2.267  -2.277  0.00  0.00     0.077 C 
ATOM      3  C1  PXY d   1      -1.879  -2.369  -0.764  0.00  0.00    -0.082 A 
ATOM      4  C2  PXY d   1      -2.157  -1.303  -0.033  0.00  0.00     0.003 A 
ATOM      5  C3  PXY d   1      -2.110  -1.369   1.336  0.00  0.00     0.003 A 
ATOM      6  C4  PXY d   1      -1.828  -2.553   1.963  0.00  0.00    -0.082 A 
ATOM      7  C5  PXY d   1      -1.554  -3.649   1.224  0.00  0.00     0.003 A 
ATOM      8  C6  PXY d   1      -1.566  -3.550  -0.165  0.00  0.00     0.003 A 
ENDROOT
TORSDOF 0
ENDMDL
