MODEL 1
REMARK minimizedAffinity 10.9107075
REMARK minimizedRMSD -1
REMARK  0 active torsions:
REMARK  status: ('A' for Active; 'I' for Inactive)
ROOT
ATOM      1  C4' PXY d   1      -6.000   2.338   6.000  0.00  0.00     0.077 C 
ATOM      2  C1' PXY d   1      -2.037  -1.830   5.415  0.00  0.00     0.077 C 
ATOM      3  C1  PXY d   1      -3.068  -0.730   5.575  0.00  0.00    -0.082 A 
ATOM      4  C2  PXY d   1      -4.356  -1.032   5.554  0.00  0.00     0.003 A 
ATOM      5  C3  PXY d   1      -5.301  -0.045   5.665  0.00  0.00     0.003 A 
ATOM      6  C4  PXY d   1      -4.924   1.258   5.852  0.00  0.00    -0.082 A 
ATOM      7  C5  PXY d   1      -3.612   1.573   5.885  0.00  0.00     0.003 A 
ATOM      8  C6  PXY d   1      -2.668   0.562   5.729  0.00  0.00     0.003 A 
ENDROOT
TORSDOF 0
ENDMDL
