MODEL 1
REMARK minimizedAffinity 15.7446718
REMARK minimizedRMSD -1
REMARK  0 active torsions:
REMARK  status: ('A' for Active; 'I' for Inactive)
ROOT
ATOM      1  C4' PXY d   1      -2.722  -2.287   2.198  0.00  0.00     0.077 C 
ATOM      2  C1' PXY d   1      -0.521  -1.081  -3.009  0.00  0.00     0.077 C 
ATOM      3  C1  PXY d   1      -1.095  -1.410  -1.645  0.00  0.00    -0.082 A 
ATOM      4  C2  PXY d   1      -2.023  -0.627  -1.120  0.00  0.00     0.003 A 
ATOM      5  C3  PXY d   1      -2.530  -0.891   0.126  0.00  0.00     0.003 A 
ATOM      6  C4  PXY d   1      -2.121  -1.999   0.820  0.00  0.00    -0.082 A 
ATOM      7  C5  PXY d   1      -1.182  -2.809   0.286  0.00  0.00     0.003 A 
ATOM      8  C6  PXY d   1      -0.650  -2.500  -0.962  0.00  0.00     0.003 A 
ENDROOT
TORSDOF 0
ENDMDL
