MODEL 1
REMARK minimizedAffinity 8.11295319
REMARK minimizedRMSD -1
REMARK  0 active torsions:
REMARK  status: ('A' for Active; 'I' for Inactive)
ROOT
ATOM      1  C4' PXY d   1      -0.058  -4.900   0.502  0.00  0.00     0.077 C 
ATOM      2  C1' PXY d   1      -3.343  -0.226  -0.381  0.00  0.00     0.077 C 
ATOM      3  C1  PXY d   1      -2.479  -1.452  -0.162  0.00  0.00    -0.082 A 
ATOM      4  C2  PXY d   1      -2.689  -2.220   0.895  0.00  0.00     0.003 A 
ATOM      5  C3  PXY d   1      -1.896  -3.315   1.125  0.00  0.00     0.003 A 
ATOM      6  C4  PXY d   1      -0.912  -3.657   0.236  0.00  0.00    -0.082 A 
ATOM      7  C5  PXY d   1      -0.699  -2.885  -0.851  0.00  0.00     0.003 A 
ATOM      8  C6  PXY d   1      -1.488  -1.755  -1.045  0.00  0.00     0.003 A 
ENDROOT
TORSDOF 0
ENDMDL
