MODEL 1
REMARK minimizedAffinity 3.74004674
REMARK minimizedRMSD -1
REMARK  1 active torsions:
REMARK  status: ('A' for Active; 'I' for Inactive)
REMARK    1  A    between atoms: C3_4  and  O_7 
ROOT
ATOM      1  C   UNL d   1       1.112  -5.240  -0.836  0.00  0.00    -0.033 A 
ATOM      2  C1  UNL d   1       0.541  -4.414  -1.807  0.00  0.00     0.039 A 
ATOM      3  C2  UNL d   1      -0.847  -4.350  -1.943  0.00  0.00    -0.080 A 
ATOM      4  C3  UNL d   1      -1.652  -5.114  -1.104  0.00  0.00     0.150 A 
ATOM      5  C4  UNL d   1      -1.091  -5.936  -0.132  0.00  0.00    -0.007 A 
ATOM      6  C5  UNL d   1       0.296  -6.000   0.002  0.00  0.00     0.039 A 
ENDROOT
BRANCH   4   7
ATOM      7  O   UNL d   1      -3.012  -5.089  -1.202  0.00  0.00    -0.526 OA
ATOM      8  H5  UNL d   1      -3.256  -4.499  -1.935  0.00  0.00     0.418 HD
ENDBRANCH   4   7
TORSDOF 1
ENDMDL
