MODEL 1
REMARK minimizedAffinity 9.76852417
REMARK minimizedRMSD -1
REMARK  1 active torsions:
REMARK  status: ('A' for Active; 'I' for Inactive)
REMARK    1  A    between atoms: C3_4  and  O_7 
ROOT
ATOM      1  C   UNL d   1      -5.999  -3.355  -1.841  0.00  0.00    -0.033 A 
ATOM      2  C1  UNL d   1      -4.859  -3.165  -2.624  0.00  0.00     0.039 A 
ATOM      3  C2  UNL d   1      -3.716  -3.934  -2.394  0.00  0.00    -0.080 A 
ATOM      4  C3  UNL d   1      -3.726  -4.887  -1.380  0.00  0.00     0.150 A 
ATOM      5  C4  UNL d   1      -4.860  -5.084  -0.598  0.00  0.00    -0.007 A 
ATOM      6  C5  UNL d   1      -6.000  -4.315  -0.829  0.00  0.00     0.039 A 
ENDROOT
BRANCH   4   7
ATOM      7  O   UNL d   1      -2.633  -5.658  -1.115  0.00  0.00    -0.526 OA
ATOM      8  H5  UNL d   1      -1.916  -5.391  -1.714  0.00  0.00     0.418 HD
ENDBRANCH   4   7
TORSDOF 1
ENDMDL
