MODEL 1
REMARK minimizedAffinity -2.18777251
REMARK minimizedRMSD -1
REMARK  1 active torsions:
REMARK  status: ('A' for Active; 'I' for Inactive)
REMARK    1  A    between atoms: C3_4  and  O_7 
ROOT
ATOM      1  C   UNL d   1      -4.449   5.309  -5.970  0.00  0.00    -0.033 A 
ATOM      2  C1  UNL d   1      -5.702   4.944  -5.474  0.00  0.00     0.039 A 
ATOM      3  C2  UNL d   1      -5.991   5.103  -4.117  0.00  0.00    -0.080 A 
ATOM      4  C3  UNL d   1      -5.020   5.627  -3.268  0.00  0.00     0.150 A 
ATOM      5  C4  UNL d   1      -3.770   5.996  -3.757  0.00  0.00    -0.007 A 
ATOM      6  C5  UNL d   1      -3.484   5.836  -5.112  0.00  0.00     0.039 A 
ENDROOT
BRANCH   4   7
ATOM      7  O   UNL d   1      -5.253   5.796  -1.936  0.00  0.00    -0.526 OA
ATOM      8  H5  UNL d   1      -6.147   5.471  -1.737  0.00  0.00     0.418 HD
ENDBRANCH   4   7
TORSDOF 1
ENDMDL
