MODEL 1
REMARK minimizedAffinity -4.07214117
REMARK minimizedRMSD -1
REMARK  1 active torsions:
REMARK  status: ('A' for Active; 'I' for Inactive)
REMARK    1  A    between atoms: C3_4  and  O_7 
ROOT
ATOM      1  C   UNL d   1      -5.964   4.853  -2.819  0.00  0.00    -0.033 A 
ATOM      2  C1  UNL d   1      -5.074   5.045  -3.878  0.00  0.00     0.039 A 
ATOM      3  C2  UNL d   1      -4.216   4.015  -4.267  0.00  0.00    -0.080 A 
ATOM      4  C3  UNL d   1      -4.258   2.799  -3.591  0.00  0.00     0.150 A 
ATOM      5  C4  UNL d   1      -5.144   2.599  -2.537  0.00  0.00    -0.007 A 
ATOM      6  C5  UNL d   1      -6.000   3.629  -2.150  0.00  0.00     0.039 A 
ENDROOT
BRANCH   4   7
ATOM      7  O   UNL d   1      -3.436   1.765  -3.931  0.00  0.00    -0.526 OA
ATOM      8  H5  UNL d   1      -2.859   2.058  -4.656  0.00  0.00     0.418 HD
ENDBRANCH   4   7
TORSDOF 1
ENDMDL
