MODEL 1
REMARK minimizedAffinity -3.12251496
REMARK minimizedRMSD -1
REMARK  1 active torsions:
REMARK  status: ('A' for Active; 'I' for Inactive)
REMARK    1  A    between atoms: C3_4  and  O_7 
ROOT
ATOM      1  C   UNL d   1      -5.144   4.155  -5.655  0.00  0.00    -0.033 A 
ATOM      2  C1  UNL d   1      -5.626   3.292  -4.669  0.00  0.00     0.039 A 
ATOM      3  C2  UNL d   1      -5.920   3.780  -3.394  0.00  0.00    -0.080 A 
ATOM      4  C3  UNL d   1      -5.728   5.132  -3.120  0.00  0.00     0.150 A 
ATOM      5  C4  UNL d   1      -5.251   5.998  -4.098  0.00  0.00    -0.007 A 
ATOM      6  C5  UNL d   1      -4.958   5.508  -5.370  0.00  0.00     0.039 A 
ENDROOT
BRANCH   4   7
ATOM      7  O   UNL d   1      -5.996   5.654  -1.889  0.00  0.00    -0.526 OA
ATOM      8  H5  UNL d   1      -6.291   4.933  -1.307  0.00  0.00     0.418 HD
ENDBRANCH   4   7
TORSDOF 1
ENDMDL
