MODEL 1
REMARK minimizedAffinity -2.11333704
REMARK minimizedRMSD -1
REMARK  1 active torsions:
REMARK  status: ('A' for Active; 'I' for Inactive)
REMARK    1  A    between atoms: C3_4  and  O_7 
ROOT
ATOM      1  C   UNL d   1       5.216   1.104  -5.183  0.00  0.00    -0.033 A 
ATOM      2  C1  UNL d   1       4.150   1.783  -5.775  0.00  0.00     0.039 A 
ATOM      3  C2  UNL d   1       3.108   2.274  -4.986  0.00  0.00    -0.080 A 
ATOM      4  C3  UNL d   1       3.144   2.079  -3.608  0.00  0.00     0.150 A 
ATOM      5  C4  UNL d   1       4.205   1.407  -3.011  0.00  0.00    -0.007 A 
ATOM      6  C5  UNL d   1       5.245   0.917  -3.801  0.00  0.00     0.039 A 
ENDROOT
BRANCH   4   7
ATOM      7  O   UNL d   1       2.148   2.536  -2.797  0.00  0.00    -0.526 OA
ATOM      8  H5  UNL d   1       1.468   2.955  -3.351  0.00  0.00     0.418 HD
ENDBRANCH   4   7
TORSDOF 1
ENDMDL
