MODEL 1
REMARK minimizedAffinity 1.68293142
REMARK minimizedRMSD -1
REMARK  1 active torsions:
REMARK  status: ('A' for Active; 'I' for Inactive)
REMARK    1  A    between atoms: C3_4  and  O_7 
ROOT
ATOM      1  C   UNL d   1      -2.744  -2.958  -0.757  0.00  0.00    -0.033 A 
ATOM      2  C1  UNL d   1      -1.377  -2.763  -0.963  0.00  0.00     0.039 A 
ATOM      3  C2  UNL d   1      -0.682  -1.820  -0.203  0.00  0.00    -0.080 A 
ATOM      4  C3  UNL d   1      -1.364  -1.081   0.759  0.00  0.00     0.150 A 
ATOM      5  C4  UNL d   1      -2.725  -1.273   0.973  0.00  0.00    -0.007 A 
ATOM      6  C5  UNL d   1      -3.418  -2.214   0.212  0.00  0.00     0.039 A 
ENDROOT
BRANCH   4   7
ATOM      7  O   UNL d   1      -0.729  -0.146   1.522  0.00  0.00    -0.526 OA
ATOM      8  H5  UNL d   1       0.201  -0.102   1.245  0.00  0.00     0.418 HD
ENDBRANCH   4   7
TORSDOF 1
ENDMDL
