MODEL 1
REMARK minimizedAffinity 1.41401434
REMARK minimizedRMSD -1
REMARK  1 active torsions:
REMARK  status: ('A' for Active; 'I' for Inactive)
REMARK    1  A    between atoms: C3_4  and  O_7 
ROOT
ATOM      1  C   UNL d   1      -5.998   5.162  -3.820  0.00  0.00    -0.033 A 
ATOM      2  C1  UNL d   1      -6.000   5.818  -2.587  0.00  0.00     0.039 A 
ATOM      3  C2  UNL d   1      -5.999   5.079  -1.402  0.00  0.00    -0.080 A 
ATOM      4  C3  UNL d   1      -5.995   3.688  -1.464  0.00  0.00     0.150 A 
ATOM      5  C4  UNL d   1      -5.990   3.029  -2.688  0.00  0.00    -0.007 A 
ATOM      6  C5  UNL d   1      -5.992   3.768  -3.871  0.00  0.00     0.039 A 
ENDROOT
BRANCH   4   7
ATOM      7  O   UNL d   1      -5.999   2.925  -0.334  0.00  0.00    -0.526 OA
ATOM      8  H5  UNL d   1      -6.032   3.516   0.437  0.00  0.00     0.418 HD
ENDBRANCH   4   7
TORSDOF 1
ENDMDL
