MODEL 1
REMARK minimizedAffinity 5.15262079
REMARK minimizedRMSD -1
REMARK  1 active torsions:
REMARK  status: ('A' for Active; 'I' for Inactive)
REMARK    1  A    between atoms: C3_4  and  O_7 
ROOT
ATOM      1  C   UNL d   1       0.706   3.674  -5.786  0.00  0.00    -0.033 A 
ATOM      2  C1  UNL d   1      -0.369   3.064  -5.138  0.00  0.00     0.039 A 
ATOM      3  C2  UNL d   1      -1.450   3.832  -4.700  0.00  0.00    -0.080 A 
ATOM      4  C3  UNL d   1      -1.442   5.207  -4.915  0.00  0.00     0.150 A 
ATOM      5  C4  UNL d   1      -0.375   5.821  -5.563  0.00  0.00    -0.007 A 
ATOM      6  C5  UNL d   1       0.703   5.052  -6.000  0.00  0.00     0.039 A 
ENDROOT
BRANCH   4   7
ATOM      7  O   UNL d   1      -2.471   5.999  -4.501  0.00  0.00    -0.526 OA
ATOM      8  H5  UNL d   1      -3.124   5.442  -4.044  0.00  0.00     0.418 HD
ENDBRANCH   4   7
TORSDOF 1
ENDMDL
