MODEL 1
REMARK minimizedAffinity 12.0609131
REMARK minimizedRMSD -1
REMARK  1 active torsions:
REMARK  status: ('A' for Active; 'I' for Inactive)
REMARK    1  A    between atoms: C3_4  and  O_7 
ROOT
ATOM      1  C   UNL d   1      -1.947  -3.786   0.769  0.00  0.00    -0.033 A 
ATOM      2  C1  UNL d   1      -2.701  -4.932   1.027  0.00  0.00     0.039 A 
ATOM      3  C2  UNL d   1      -3.855  -5.192   0.285  0.00  0.00    -0.080 A 
ATOM      4  C3  UNL d   1      -4.242  -4.300  -0.711  0.00  0.00     0.150 A 
ATOM      5  C4  UNL d   1      -3.493  -3.158  -0.976  0.00  0.00    -0.007 A 
ATOM      6  C5  UNL d   1      -2.342  -2.899  -0.233  0.00  0.00     0.039 A 
ENDROOT
BRANCH   4   7
ATOM      7  O   UNL d   1      -5.363  -4.509  -1.458  0.00  0.00    -0.526 OA
ATOM      8  H5  UNL d   1      -5.795  -5.321  -1.145  0.00  0.00     0.418 HD
ENDBRANCH   4   7
TORSDOF 1
ENDMDL
