MODEL 1
REMARK minimizedAffinity 5.92695236
REMARK minimizedRMSD -1
REMARK  1 active torsions:
REMARK  status: ('A' for Active; 'I' for Inactive)
REMARK    1  A    between atoms: C3_4  and  O_7 
ROOT
ATOM      1  C   UNL d   1       3.763   4.776  -1.204  0.00  0.00    -0.033 A 
ATOM      2  C1  UNL d   1       4.104   3.572  -0.584  0.00  0.00     0.039 A 
ATOM      3  C2  UNL d   1       4.815   3.580   0.617  0.00  0.00    -0.080 A 
ATOM      4  C3  UNL d   1       5.178   4.797   1.188  0.00  0.00     0.150 A 
ATOM      5  C4  UNL d   1       4.838   6.000   0.579  0.00  0.00    -0.007 A 
ATOM      6  C5  UNL d   1       4.129   5.990  -0.621  0.00  0.00     0.039 A 
ENDROOT
BRANCH   4   7
ATOM      7  O   UNL d   1       5.877   4.855   2.358  0.00  0.00    -0.526 OA
ATOM      8  H5  UNL d   1       6.066   3.947   2.648  0.00  0.00     0.418 HD
ENDBRANCH   4   7
TORSDOF 1
ENDMDL
