MODEL 1
REMARK minimizedAffinity -0.310060412
REMARK minimizedRMSD -1
REMARK  1 active torsions:
REMARK  status: ('A' for Active; 'I' for Inactive)
REMARK    1  A    between atoms: C3_4  and  O_7 
ROOT
ATOM      1  C   UNL d   1      -5.991   5.720  -5.098  0.00  0.00    -0.033 A 
ATOM      2  C1  UNL d   1      -5.692   5.422  -3.767  0.00  0.00     0.039 A 
ATOM      3  C2  UNL d   1      -4.364   5.400  -3.336  0.00  0.00    -0.080 A 
ATOM      4  C3  UNL d   1      -3.346   5.678  -4.244  0.00  0.00     0.150 A 
ATOM      5  C4  UNL d   1      -3.637   5.979  -5.571  0.00  0.00    -0.007 A 
ATOM      6  C5  UNL d   1      -4.964   6.000  -6.000  0.00  0.00     0.039 A 
ENDROOT
BRANCH   4   7
ATOM      7  O   UNL d   1      -2.035   5.664  -3.872  0.00  0.00    -0.526 OA
ATOM      8  H5  UNL d   1      -1.984   5.412  -2.935  0.00  0.00     0.418 HD
ENDBRANCH   4   7
TORSDOF 1
ENDMDL
