MODEL 1
REMARK minimizedAffinity 8.12178135
REMARK minimizedRMSD -1
REMARK  1 active torsions:
REMARK  status: ('A' for Active; 'I' for Inactive)
REMARK    1  A    between atoms: C3_4  and  O_7 
ROOT
ATOM      1  C   UNL d   1      -3.897  -3.870  -1.209  0.00  0.00    -0.033 A 
ATOM      2  C1  UNL d   1      -3.744  -5.251  -1.065  0.00  0.00     0.039 A 
ATOM      3  C2  UNL d   1      -3.060  -5.984  -2.036  0.00  0.00    -0.080 A 
ATOM      4  C3  UNL d   1      -2.532  -5.326  -3.143  0.00  0.00     0.150 A 
ATOM      5  C4  UNL d   1      -2.677  -3.951  -3.291  0.00  0.00    -0.007 A 
ATOM      6  C5  UNL d   1      -3.362  -3.220  -2.321  0.00  0.00     0.039 A 
ENDROOT
BRANCH   4   7
ATOM      7  O   UNL d   1      -1.860  -6.000  -4.119  0.00  0.00    -0.526 OA
ATOM      8  H5  UNL d   1      -1.863  -6.946  -3.898  0.00  0.00     0.418 HD
ENDBRANCH   4   7
TORSDOF 1
ENDMDL
