MODEL 1
REMARK minimizedAffinity 1.59707165
REMARK minimizedRMSD -1
REMARK  1 active torsions:
REMARK  status: ('A' for Active; 'I' for Inactive)
REMARK    1  A    between atoms: C3_4  and  O_7 
ROOT
ATOM      1  C   UNL d   1       5.999   4.660  -5.938  0.00  0.00    -0.033 A 
ATOM      2  C1  UNL d   1       5.384   3.407  -5.963  0.00  0.00     0.039 A 
ATOM      3  C2  UNL d   1       3.991   3.311  -5.984  0.00  0.00    -0.080 A 
ATOM      4  C3  UNL d   1       3.226   4.474  -5.981  0.00  0.00     0.150 A 
ATOM      5  C4  UNL d   1       3.832   5.726  -5.960  0.00  0.00    -0.007 A 
ATOM      6  C5  UNL d   1       5.223   5.820  -5.938  0.00  0.00     0.039 A 
ENDROOT
BRANCH   4   7
ATOM      7  O   UNL d   1       1.864   4.431  -5.996  0.00  0.00    -0.526 OA
ATOM      8  H5  UNL d   1       1.585   3.500  -5.981  0.00  0.00     0.418 HD
ENDBRANCH   4   7
TORSDOF 1
ENDMDL
