MODEL 1
REMARK minimizedAffinity 4.2173171
REMARK minimizedRMSD -1
REMARK  1 active torsions:
REMARK  status: ('A' for Active; 'I' for Inactive)
REMARK    1  A    between atoms: C3_4  and  O_7 
ROOT
ATOM      1  C   UNL d   1       2.721  -1.866  -1.712  0.00  0.00    -0.033 A 
ATOM      2  C1  UNL d   1       1.683  -0.971  -1.979  0.00  0.00     0.039 A 
ATOM      3  C2  UNL d   1       0.995  -0.363  -0.928  0.00  0.00    -0.080 A 
ATOM      4  C3  UNL d   1       1.354  -0.658   0.385  0.00  0.00     0.150 A 
ATOM      5  C4  UNL d   1       2.389  -1.545   0.658  0.00  0.00    -0.007 A 
ATOM      6  C5  UNL d   1       3.075  -2.152  -0.393  0.00  0.00     0.039 A 
ENDROOT
BRANCH   4   7
ATOM      7  O   UNL d   1       0.708  -0.093   1.444  0.00  0.00    -0.526 OA
ATOM      8  H5  UNL d   1      -0.002   0.476   1.104  0.00  0.00     0.418 HD
ENDBRANCH   4   7
TORSDOF 1
ENDMDL
