MODEL 1
REMARK minimizedAffinity 0.318903476
REMARK minimizedRMSD -1
REMARK  1 active torsions:
REMARK  status: ('A' for Active; 'I' for Inactive)
REMARK    1  A    between atoms: C3_4  and  O_7 
ROOT
ATOM      1  C   UNL d   1      -1.838   4.884  -5.990  0.00  0.00    -0.033 A 
ATOM      2  C1  UNL d   1      -2.748   5.943  -5.989  0.00  0.00     0.039 A 
ATOM      3  C2  UNL d   1      -4.121   5.687  -5.990  0.00  0.00    -0.080 A 
ATOM      4  C3  UNL d   1      -4.569   4.369  -5.992  0.00  0.00     0.150 A 
ATOM      5  C4  UNL d   1      -3.669   3.309  -5.989  0.00  0.00    -0.007 A 
ATOM      6  C5  UNL d   1      -2.299   3.567  -5.988  0.00  0.00     0.039 A 
ENDROOT
BRANCH   4   7
ATOM      7  O   UNL d   1      -5.899   4.069  -5.998  0.00  0.00    -0.526 OA
ATOM      8  H5  UNL d   1      -6.402   4.901  -6.029  0.00  0.00     0.418 HD
ENDBRANCH   4   7
TORSDOF 1
ENDMDL
