MODEL 1
REMARK minimizedAffinity 1.48732007
REMARK minimizedRMSD -1
REMARK  0 active torsions:
REMARK  status: ('A' for Active; 'I' for Inactive)
ROOT
ATOM      1  C   UNL d   1       2.656  -4.482   4.462  0.00  0.00     0.023 A 
ATOM      2  C1  UNL d   1       3.787  -3.668   4.405  0.00  0.00     0.003 A 
ATOM      3  C2  UNL d   1       3.700  -2.386   3.858  0.00  0.00     0.048 A 
ATOM      4  C3  UNL d   1       2.478  -1.924   3.371  0.00  0.00     0.023 A 
ATOM      5  C4  UNL d   1       1.343  -2.734   3.426  0.00  0.00     0.048 A 
ATOM      6  C5  UNL d   1       1.435  -4.016   3.973  0.00  0.00     0.003 A 
ATOM      7  I   UNL d   1       2.346  -0.016   2.556  0.00  0.00    -0.146 I 
ENDROOT
TORSDOF 0
ENDMDL
