MODEL 1
REMARK minimizedAffinity -2.22659659
REMARK minimizedRMSD -1
REMARK  0 active torsions:
REMARK  status: ('A' for Active; 'I' for Inactive)
ROOT
ATOM      1  C   UNL d   1       1.831  -5.991  -2.044  0.00  0.00     0.023 A 
ATOM      2  C1  UNL d   1       1.260  -6.000  -3.317  0.00  0.00     0.003 A 
ATOM      3  C2  UNL d   1       2.077  -5.995  -4.450  0.00  0.00     0.048 A 
ATOM      4  C3  UNL d   1       3.463  -5.983  -4.303  0.00  0.00     0.023 A 
ATOM      5  C4  UNL d   1       4.039  -5.975  -3.031  0.00  0.00     0.048 A 
ATOM      6  C5  UNL d   1       3.219  -5.978  -1.901  0.00  0.00     0.003 A 
ATOM      7  I   UNL d   1       4.681  -5.977  -5.987  0.00  0.00    -0.146 I 
ENDROOT
TORSDOF 0
ENDMDL
