MODEL 1
REMARK minimizedAffinity 10.9603586
REMARK minimizedRMSD -1
REMARK  0 active torsions:
REMARK  status: ('A' for Active; 'I' for Inactive)
ROOT
ATOM      1  C   UNL d   1       3.450  -2.327   4.114  0.00  0.00     0.023 A 
ATOM      2  C1  UNL d   1       2.157  -2.296   3.591  0.00  0.00     0.003 A 
ATOM      3  C2  UNL d   1       1.274  -3.348   3.844  0.00  0.00     0.048 A 
ATOM      4  C3  UNL d   1       1.691  -4.428   4.621  0.00  0.00     0.023 A 
ATOM      5  C4  UNL d   1       2.983  -4.463   5.148  0.00  0.00     0.048 A 
ATOM      6  C5  UNL d   1       3.862  -3.409   4.891  0.00  0.00     0.003 A 
ATOM      7  I   UNL d   1       0.379  -5.995   4.999  0.00  0.00    -0.146 I 
ENDROOT
TORSDOF 0
ENDMDL
