MODEL 1
REMARK minimizedAffinity 7.4641819
REMARK minimizedRMSD -1
REMARK  0 active torsions:
REMARK  status: ('A' for Active; 'I' for Inactive)
ROOT
ATOM      1  C   UNL d   1       2.948   2.367   1.170  0.00  0.00     0.023 A 
ATOM      2  C1  UNL d   1       3.354   1.133   0.662  0.00  0.00     0.003 A 
ATOM      3  C2  UNL d   1       3.157  -0.030   1.409  0.00  0.00     0.048 A 
ATOM      4  C3  UNL d   1       2.551   0.048   2.663  0.00  0.00     0.023 A 
ATOM      5  C4  UNL d   1       2.142   1.280   3.174  0.00  0.00     0.048 A 
ATOM      6  C5  UNL d   1       2.342   2.441   2.424  0.00  0.00     0.003 A 
ATOM      7  I   UNL d   1       2.255  -1.682   3.776  0.00  0.00    -0.146 I 
ENDROOT
TORSDOF 0
ENDMDL
