MODEL 1
REMARK minimizedAffinity 3.66999364
REMARK minimizedRMSD -1
REMARK  0 active torsions:
REMARK  status: ('A' for Active; 'I' for Inactive)
ROOT
ATOM      1  C1  BNZ d   1       1.668  -4.205   5.544  0.00  0.00     0.000 A 
ATOM      2  C2  BNZ d   1       1.827  -3.230   4.596  0.00  0.00     0.000 A 
ATOM      3  C3  BNZ d   1       0.743  -2.642   4.007  0.00  0.00     0.000 A 
ATOM      4  C4  BNZ d   1      -0.497  -3.057   4.337  0.00  0.00     0.000 A 
ATOM      5  C5  BNZ d   1      -0.674  -4.046   5.284  0.00  0.00     0.000 A 
ATOM      6  C6  BNZ d   1       0.419  -4.609   5.903  0.00  0.00     0.000 A 
ENDROOT
TORSDOF 0
ENDMDL
