MODEL 1
REMARK minimizedAffinity 3.51545
REMARK minimizedRMSD -1
REMARK  0 active torsions:
REMARK  status: ('A' for Active; 'I' for Inactive)
ROOT
ATOM      1  C1  BNZ d   1       2.992  -1.332   0.091  0.00  0.00     0.000 A 
ATOM      2  C2  BNZ d   1       2.244  -2.228   0.807  0.00  0.00     0.000 A 
ATOM      3  C3  BNZ d   1       1.096  -2.755   0.286  0.00  0.00     0.000 A 
ATOM      4  C4  BNZ d   1       0.676  -2.356  -0.932  0.00  0.00     0.000 A 
ATOM      5  C5  BNZ d   1       1.415  -1.447  -1.663  0.00  0.00     0.000 A 
ATOM      6  C6  BNZ d   1       2.591  -0.948  -1.151  0.00  0.00     0.000 A 
ENDROOT
TORSDOF 0
ENDMDL
