MODEL 1
REMARK minimizedAffinity 5.88425541
REMARK minimizedRMSD -1
REMARK  0 active torsions:
REMARK  status: ('A' for Active; 'I' for Inactive)
ROOT
ATOM      1  C1  BNZ d   1       2.656  -1.520  -1.131  0.00  0.00     0.000 A 
ATOM      2  C2  BNZ d   1       3.262  -0.513  -0.428  0.00  0.00     0.000 A 
ATOM      3  C3  BNZ d   1       3.351  -0.567   0.935  0.00  0.00     0.000 A 
ATOM      4  C4  BNZ d   1       2.800  -1.605   1.595  0.00  0.00     0.000 A 
ATOM      5  C5  BNZ d   1       2.177  -2.624   0.901  0.00  0.00     0.000 A 
ATOM      6  C6  BNZ d   1       2.123  -2.586  -0.473  0.00  0.00     0.000 A 
ENDROOT
TORSDOF 0
ENDMDL
