MODEL 1
REMARK minimizedAffinity 0.740905941
REMARK minimizedRMSD -1
REMARK  0 active torsions:
REMARK  status: ('A' for Active; 'I' for Inactive)
ROOT
ATOM      1  C1  BNZ d   1       4.015   0.386   0.331  0.00  0.00     0.000 A 
ATOM      2  C2  BNZ d   1       3.326  -0.793   0.229  0.00  0.00     0.000 A 
ATOM      3  C3  BNZ d   1       1.968  -0.799   0.072  0.00  0.00     0.000 A 
ATOM      4  C4  BNZ d   1       1.298   0.371   0.057  0.00  0.00     0.000 A 
ATOM      5  C5  BNZ d   1       1.977   1.568   0.168  0.00  0.00     0.000 A 
ATOM      6  C6  BNZ d   1       3.348   1.571   0.287  0.00  0.00     0.000 A 
ENDROOT
TORSDOF 0
ENDMDL
