MODEL 1
REMARK minimizedAffinity -0.247173041
REMARK minimizedRMSD -1
REMARK  0 active torsions:
REMARK  status: ('A' for Active; 'I' for Inactive)
ROOT
ATOM      1  C1  BNZ d   1      -4.300  -0.016  -3.427  0.00  0.00     0.000 A 
ATOM      2  C2  BNZ d   1      -3.323  -0.556  -2.634  0.00  0.00     0.000 A 
ATOM      3  C3  BNZ d   1      -2.001  -0.353  -2.915  0.00  0.00     0.000 A 
ATOM      4  C4  BNZ d   1      -1.657   0.354  -4.011  0.00  0.00     0.000 A 
ATOM      5  C5  BNZ d   1      -2.630   0.897  -4.826  0.00  0.00     0.000 A 
ATOM      6  C6  BNZ d   1      -3.960   0.723  -4.518  0.00  0.00     0.000 A 
ENDROOT
TORSDOF 0
ENDMDL
