MODEL 1
REMARK minimizedAffinity 4.91375208
REMARK minimizedRMSD -1
REMARK  0 active torsions:
REMARK  status: ('A' for Active; 'I' for Inactive)
ROOT
ATOM      1  C1  BNZ d   1       2.374   3.054   0.812  0.00  0.00     0.000 A 
ATOM      2  C2  BNZ d   1       3.438   2.192   0.807  0.00  0.00     0.000 A 
ATOM      3  C3  BNZ d   1       3.243   0.840   0.749  0.00  0.00     0.000 A 
ATOM      4  C4  BNZ d   1       1.986   0.352   0.736  0.00  0.00     0.000 A 
ATOM      5  C5  BNZ d   1       0.903   1.208   0.749  0.00  0.00     0.000 A 
ATOM      6  C6  BNZ d   1       1.103   2.569   0.768  0.00  0.00     0.000 A 
ENDROOT
TORSDOF 0
ENDMDL
