MODEL 1
REMARK minimizedAffinity 2.75860643
REMARK minimizedRMSD -1
REMARK  0 active torsions:
REMARK  status: ('A' for Active; 'I' for Inactive)
ROOT
ATOM      1  C1  BNZ d   1       2.189   0.298   0.044  0.00  0.00     0.000 A 
ATOM      2  C2  BNZ d   1       2.453  -0.721  -0.833  0.00  0.00     0.000 A 
ATOM      3  C3  BNZ d   1       3.079  -1.861  -0.413  0.00  0.00     0.000 A 
ATOM      4  C4  BNZ d   1       3.476  -1.965   0.872  0.00  0.00     0.000 A 
ATOM      5  C5  BNZ d   1       3.225  -0.943   1.766  0.00  0.00     0.000 A 
ATOM      6  C6  BNZ d   1       2.560   0.187   1.349  0.00  0.00     0.000 A 
ENDROOT
TORSDOF 0
ENDMDL
