MODEL 1
REMARK minimizedAffinity -0.262089372
REMARK minimizedRMSD -1
REMARK  0 active torsions:
REMARK  status: ('A' for Active; 'I' for Inactive)
ROOT
ATOM      1  C1  BNZ d   1       4.055   1.442   0.694  0.00  0.00     0.000 A 
ATOM      2  C2  BNZ d   1       3.554   2.632   1.151  0.00  0.00     0.000 A 
ATOM      3  C3  BNZ d   1       2.206   2.832   1.252  0.00  0.00     0.000 A 
ATOM      4  C4  BNZ d   1       1.360   1.857   0.859  0.00  0.00     0.000 A 
ATOM      5  C5  BNZ d   1       1.849   0.656   0.387  0.00  0.00     0.000 A 
ATOM      6  C6  BNZ d   1       3.207   0.444   0.323  0.00  0.00     0.000 A 
ENDROOT
TORSDOF 0
ENDMDL
