MODEL 1
REMARK minimizedAffinity 3.79645681
REMARK minimizedRMSD -1
REMARK  0 active torsions:
REMARK  status: ('A' for Active; 'I' for Inactive)
ROOT
ATOM      1  C1  BNZ d   1       0.421   1.503   0.030  0.00  0.00     0.000 A 
ATOM      2  C2  BNZ d   1       1.247   0.454   0.334  0.00  0.00     0.000 A 
ATOM      3  C3  BNZ d   1       2.538   0.671   0.728  0.00  0.00     0.000 A 
ATOM      4  C4  BNZ d   1       3.012   1.932   0.780  0.00  0.00     0.000 A 
ATOM      5  C5  BNZ d   1       2.194   3.000   0.468  0.00  0.00     0.000 A 
ATOM      6  C6  BNZ d   1       0.884   2.780   0.109  0.00  0.00     0.000 A 
ENDROOT
TORSDOF 0
ENDMDL
