MODEL 1
REMARK minimizedAffinity -4.41436148
REMARK minimizedRMSD -1
REMARK  1 active torsions:
REMARK  status: ('A' for Active; 'I' for Inactive)
REMARK    1  A    between atoms: C1_2  and  C2_3 
ROOT
ATOM      1  C2  UNL d   1      -0.333  -0.030  -0.448  0.00  0.00    -0.076 A 
ATOM      2  C3  UNL d   1       0.547   0.703   0.368  0.00  0.00     0.004 A 
ATOM      3  C4  UNL d   1       0.157   1.136   1.635  0.00  0.00    -0.003 A 
ATOM      4  C5  UNL d   1      -1.118   0.843   2.105  0.00  0.00     0.000 A 
ATOM      5  C6  UNL d   1      -1.997   0.103   1.316  0.00  0.00     0.000 A 
ATOM      6  C7  UNL d   1      -1.615  -0.356   0.044  0.00  0.00    -0.073 A 
ATOM      7  C8  UNL d   1      -2.605  -1.146  -0.767  0.00  0.00     0.078 C 
ENDROOT
BRANCH   1   8
ATOM      8  C1  UNL d   1       0.136  -0.450  -1.823  0.00  0.00     0.053 C 
ATOM      9  C   UNL d   1       1.399   0.278  -2.256  0.00  0.00     0.018 C 
ENDBRANCH   1   8
TORSDOF 1
ENDMDL
