MODEL 1
REMARK minimizedAffinity -4.51319885
REMARK minimizedRMSD -1
REMARK  1 active torsions:
REMARK  status: ('A' for Active; 'I' for Inactive)
REMARK    1  A    between atoms: C1_2  and  C2_3 
ROOT
ATOM      1  C2  UNL d   1      -0.586   0.323   1.026  0.00  0.00    -0.076 A 
ATOM      2  C3  UNL d   1       0.764   0.137   1.368  0.00  0.00     0.004 A 
ATOM      3  C4  UNL d   1       1.642  -0.511   0.501  0.00  0.00    -0.003 A 
ATOM      4  C5  UNL d   1       1.183  -0.984  -0.724  0.00  0.00     0.000 A 
ATOM      5  C6  UNL d   1      -0.150  -0.793  -1.087  0.00  0.00     0.000 A 
ATOM      6  C7  UNL d   1      -1.044  -0.126  -0.231  0.00  0.00    -0.073 A 
ATOM      7  C8  UNL d   1      -2.471   0.047  -0.672  0.00  0.00     0.078 C 
ENDROOT
BRANCH   1   8
ATOM      8  C1  UNL d   1      -1.497   1.010   2.018  0.00  0.00     0.053 C 
ATOM      9  C   UNL d   1      -0.767   2.045   2.860  0.00  0.00     0.018 C 
ENDBRANCH   1   8
TORSDOF 1
ENDMDL
