MODEL 1
REMARK minimizedAffinity -3.67484117
REMARK minimizedRMSD -1
REMARK  1 active torsions:
REMARK  status: ('A' for Active; 'I' for Inactive)
REMARK    1  A    between atoms: C1_2  and  C2_3 
ROOT
ATOM      1  C2  UNL d   1       0.195  -0.307  -0.100  0.00  0.00    -0.076 A 
ATOM      2  C3  UNL d   1       1.183   0.259   0.724  0.00  0.00     0.004 A 
ATOM      3  C4  UNL d   1       0.837   1.040   1.826  0.00  0.00    -0.003 A 
ATOM      4  C5  UNL d   1      -0.503   1.267   2.121  0.00  0.00     0.000 A 
ATOM      5  C6  UNL d   1      -1.496   0.699   1.324  0.00  0.00     0.000 A 
ATOM      6  C7  UNL d   1      -1.165  -0.104   0.219  0.00  0.00    -0.073 A 
ATOM      7  C8  UNL d   1      -2.276  -0.686  -0.609  0.00  0.00     0.078 C 
ENDROOT
BRANCH   1   8
ATOM      8  C1  UNL d   1       0.630  -1.122  -1.297  0.00  0.00     0.053 C 
ATOM      9  C   UNL d   1       1.141  -0.255  -2.438  0.00  0.00     0.018 C 
ENDBRANCH   1   8
TORSDOF 1
ENDMDL
