MODEL 1
REMARK minimizedAffinity -2.12503672
REMARK minimizedRMSD -1
REMARK  1 active torsions:
REMARK  status: ('A' for Active; 'I' for Inactive)
REMARK    1  A    between atoms: C1_2  and  C2_3 
ROOT
ATOM      1  C2  UNL d   1       0.849  -0.023  -0.416  0.00  0.00    -0.076 A 
ATOM      2  C3  UNL d   1       0.024   1.056  -0.054  0.00  0.00     0.004 A 
ATOM      3  C4  UNL d   1       0.188   1.706   1.168  0.00  0.00    -0.003 A 
ATOM      4  C5  UNL d   1       1.180   1.287   2.048  0.00  0.00     0.000 A 
ATOM      5  C6  UNL d   1       2.019   0.230   1.697  0.00  0.00     0.000 A 
ATOM      6  C7  UNL d   1       1.878  -0.425   0.462  0.00  0.00    -0.073 A 
ATOM      7  C8  UNL d   1       2.806  -1.564   0.138  0.00  0.00     0.078 C 
ENDROOT
BRANCH   1   8
ATOM      8  C1  UNL d   1       0.607  -0.706  -1.743  0.00  0.00     0.053 C 
ATOM      9  C   UNL d   1       1.326  -0.018  -2.893  0.00  0.00     0.018 C 
ENDBRANCH   1   8
TORSDOF 1
ENDMDL
