MODEL 1
REMARK minimizedAffinity -3.74497056
REMARK minimizedRMSD -1
REMARK  1 active torsions:
REMARK  status: ('A' for Active; 'I' for Inactive)
REMARK    1  A    between atoms: C1_2  and  C2_3 
ROOT
ATOM      1  C2  UNL d   1      -0.169   0.234   0.054  0.00  0.00    -0.076 A 
ATOM      2  C3  UNL d   1       0.805   1.007   0.710  0.00  0.00     0.004 A 
ATOM      3  C4  UNL d   1       0.495   1.720   1.867  0.00  0.00    -0.003 A 
ATOM      4  C5  UNL d   1      -0.793   1.672   2.387  0.00  0.00     0.000 A 
ATOM      5  C6  UNL d   1      -1.767   0.896   1.759  0.00  0.00     0.000 A 
ATOM      6  C7  UNL d   1      -1.468   0.158   0.601  0.00  0.00    -0.073 A 
ATOM      7  C8  UNL d   1      -2.558  -0.657  -0.039  0.00  0.00     0.078 C 
ENDROOT
BRANCH   1   8
ATOM      8  C1  UNL d   1       0.218  -0.496  -1.212  0.00  0.00     0.053 C 
ATOM      9  C   UNL d   1       0.793   0.434  -2.269  0.00  0.00     0.018 C 
ENDBRANCH   1   8
TORSDOF 1
ENDMDL
