MODEL 1
REMARK minimizedAffinity -3.67308307
REMARK minimizedRMSD -1
REMARK  1 active torsions:
REMARK  status: ('A' for Active; 'I' for Inactive)
REMARK    1  A    between atoms: C1_2  and  C2_3 
ROOT
ATOM      1  C2  UNL d   1      -1.021   0.746   0.356  0.00  0.00    -0.076 A 
ATOM      2  C3  UNL d   1      -0.471  -0.530   0.144  0.00  0.00     0.004 A 
ATOM      3  C4  UNL d   1       0.305  -0.799  -0.982  0.00  0.00    -0.003 A 
ATOM      4  C5  UNL d   1       0.544   0.205  -1.915  0.00  0.00     0.000 A 
ATOM      5  C6  UNL d   1       0.020   1.481  -1.711  0.00  0.00     0.000 A 
ATOM      6  C7  UNL d   1      -0.750   1.773  -0.573  0.00  0.00    -0.073 A 
ATOM      7  C8  UNL d   1      -1.295   3.166  -0.407  0.00  0.00     0.078 C 
ENDROOT
BRANCH   1   8
ATOM      8  C1  UNL d   1      -1.877   0.971   1.582  0.00  0.00     0.053 C 
ATOM      9  C   UNL d   1      -1.090   1.559   2.743  0.00  0.00     0.018 C 
ENDBRANCH   1   8
TORSDOF 1
ENDMDL
