MODEL 1
REMARK minimizedAffinity -2.83891606
REMARK minimizedRMSD -1
REMARK  1 active torsions:
REMARK  status: ('A' for Active; 'I' for Inactive)
REMARK    1  A    between atoms: C1_2  and  C2_3 
ROOT
ATOM      1  C2  UNL d   1       0.107   0.126  -0.249  0.00  0.00    -0.076 A 
ATOM      2  C3  UNL d   1      -1.088   0.862  -0.335  0.00  0.00     0.004 A 
ATOM      3  C4  UNL d   1      -1.729   1.325   0.813  0.00  0.00    -0.003 A 
ATOM      4  C5  UNL d   1      -1.186   1.060   2.065  0.00  0.00     0.000 A 
ATOM      5  C6  UNL d   1       0.007   0.346   2.168  0.00  0.00     0.000 A 
ATOM      6  C7  UNL d   1       0.675  -0.114   1.021  0.00  0.00    -0.073 A 
ATOM      7  C8  UNL d   1       1.956  -0.884   1.191  0.00  0.00     0.078 C 
ENDROOT
BRANCH   1   8
ATOM      8  C1  UNL d   1       0.743  -0.374  -1.526  0.00  0.00     0.053 C 
ATOM      9  C   UNL d   1       1.193   0.760  -2.435  0.00  0.00     0.018 C 
ENDBRANCH   1   8
TORSDOF 1
ENDMDL
