MODEL 1
REMARK minimizedAffinity -4.16103029
REMARK minimizedRMSD -1
REMARK  1 active torsions:
REMARK  status: ('A' for Active; 'I' for Inactive)
REMARK    1  A    between atoms: C1_2  and  C2_3 
ROOT
ATOM      1  C2  UNL d   1      -0.251  -0.184  -0.078  0.00  0.00    -0.076 A 
ATOM      2  C3  UNL d   1      -1.484   0.491  -0.048  0.00  0.00     0.004 A 
ATOM      3  C4  UNL d   1      -1.894   1.185   1.089  0.00  0.00    -0.003 A 
ATOM      4  C5  UNL d   1      -1.078   1.217   2.214  0.00  0.00     0.000 A 
ATOM      5  C6  UNL d   1       0.157   0.569   2.195  0.00  0.00     0.000 A 
ATOM      6  C7  UNL d   1       0.593  -0.122   1.051  0.00  0.00    -0.073 A 
ATOM      7  C8  UNL d   1       1.930  -0.809   1.089  0.00  0.00     0.078 C 
ENDROOT
BRANCH   1   8
ATOM      8  C1  UNL d   1       0.129  -0.943  -1.329  0.00  0.00     0.053 C 
ATOM      9  C   UNL d   1       0.765  -0.049  -2.383  0.00  0.00     0.018 C 
ENDBRANCH   1   8
TORSDOF 1
ENDMDL
