MODEL 1
REMARK minimizedAffinity 1.19478452
REMARK minimizedRMSD -1
REMARK  1 active torsions:
REMARK  status: ('A' for Active; 'I' for Inactive)
REMARK    1  A    between atoms: C1_2  and  C2_3 
ROOT
ATOM      1  C2  UNL d   1      -0.246   0.403   1.339  0.00  0.00    -0.076 A 
ATOM      2  C3  UNL d   1       1.033  -0.086   1.656  0.00  0.00     0.004 A 
ATOM      3  C4  UNL d   1       1.803  -0.751   0.704  0.00  0.00    -0.003 A 
ATOM      4  C5  UNL d   1       1.307  -0.938  -0.582  0.00  0.00     0.000 A 
ATOM      5  C6  UNL d   1       0.047  -0.445  -0.919  0.00  0.00     0.000 A 
ATOM      6  C7  UNL d   1      -0.736   0.243   0.025  0.00  0.00    -0.073 A 
ATOM      7  C8  UNL d   1      -2.090   0.749  -0.392  0.00  0.00     0.078 C 
ENDROOT
BRANCH   1   8
ATOM      8  C1  UNL d   1      -1.047   1.092   2.420  0.00  0.00     0.053 C 
ATOM      9  C   UNL d   1      -1.955   0.133   3.174  0.00  0.00     0.018 C 
ENDBRANCH   1   8
TORSDOF 1
ENDMDL
