MODEL 1
REMARK minimizedAffinity 8.83838749
REMARK minimizedRMSD -1
REMARK  0 active torsions:
REMARK  status: ('A' for Active; 'I' for Inactive)
ROOT
ATOM      1  C   UNL d   1       4.012  -4.365  -0.445  0.00  0.00     0.077 C 
ATOM      2  C1  UNL d   1       3.036  -3.281  -0.793  0.00  0.00    -0.074 A 
ATOM      3  C2  UNL d   1       1.798  -3.585  -1.368  0.00  0.00    -0.005 A 
ATOM      4  C3  UNL d   1       0.897  -2.566  -1.678  0.00  0.00     0.006 A 
ATOM      5  C4  UNL d   1       1.224  -1.235  -1.418  0.00  0.00    -0.005 A 
ATOM      6  C5  UNL d   1       2.458  -0.912  -0.843  0.00  0.00    -0.074 A 
ATOM      7  C6  UNL d   1       2.822   0.513  -0.548  0.00  0.00     0.077 C 
ATOM      8  C7  UNL d   1       3.355  -1.941  -0.528  0.00  0.00    -0.001 A 
ENDROOT
TORSDOF 0
ENDMDL
