MODEL 1
REMARK minimizedAffinity 9.74786186
REMARK minimizedRMSD -1
REMARK  0 active torsions:
REMARK  status: ('A' for Active; 'I' for Inactive)
ROOT
ATOM      1  C   UNL d   1      -0.178   0.392   2.212  0.00  0.00     0.077 C 
ATOM      2  C1  UNL d   1      -1.619   0.158   2.556  0.00  0.00    -0.074 A 
ATOM      3  C2  UNL d   1      -2.186  -1.116   2.448  0.00  0.00    -0.005 A 
ATOM      4  C3  UNL d   1      -3.525  -1.320   2.782  0.00  0.00     0.006 A 
ATOM      5  C4  UNL d   1      -4.309  -0.254   3.226  0.00  0.00    -0.005 A 
ATOM      6  C5  UNL d   1      -3.759   1.026   3.341  0.00  0.00    -0.074 A 
ATOM      7  C6  UNL d   1      -4.585   2.180   3.826  0.00  0.00     0.077 C 
ATOM      8  C7  UNL d   1      -2.411   1.222   3.011  0.00  0.00    -0.001 A 
ENDROOT
TORSDOF 0
ENDMDL
