MODEL 1
REMARK minimizedAffinity 13.2029791
REMARK minimizedRMSD -1
REMARK  0 active torsions:
REMARK  status: ('A' for Active; 'I' for Inactive)
ROOT
ATOM      1  C   UNL d   1      -3.755  -1.643   3.285  0.00  0.00     0.077 C 
ATOM      2  C1  UNL d   1      -4.295  -2.647   2.310  0.00  0.00    -0.074 A 
ATOM      3  C2  UNL d   1      -5.514  -2.431   1.658  0.00  0.00    -0.005 A 
ATOM      4  C3  UNL d   1      -5.999  -3.369   0.747  0.00  0.00     0.006 A 
ATOM      5  C4  UNL d   1      -5.273  -4.530   0.479  0.00  0.00    -0.005 A 
ATOM      6  C5  UNL d   1      -4.052  -4.762   1.121  0.00  0.00    -0.074 A 
ATOM      7  C6  UNL d   1      -3.254  -6.000   0.837  0.00  0.00     0.077 C 
ATOM      8  C7  UNL d   1      -3.568  -3.812   2.030  0.00  0.00    -0.001 A 
ENDROOT
TORSDOF 0
ENDMDL
