MODEL 1
REMARK minimizedAffinity 6.37832165
REMARK minimizedRMSD -1
REMARK  0 active torsions:
REMARK  status: ('A' for Active; 'I' for Inactive)
ROOT
ATOM      1  C   UNL d   1      -4.745   4.503  -6.000  0.00  0.00     0.077 C 
ATOM      2  C1  UNL d   1      -3.424   3.906  -5.613  0.00  0.00    -0.074 A 
ATOM      3  C2  UNL d   1      -2.222   4.508  -5.999  0.00  0.00    -0.005 A 
ATOM      4  C3  UNL d   1      -1.002   3.946  -5.624  0.00  0.00     0.006 A 
ATOM      5  C4  UNL d   1      -0.971   2.779  -4.860  0.00  0.00    -0.005 A 
ATOM      6  C5  UNL d   1      -2.163   2.163  -4.463  0.00  0.00    -0.074 A 
ATOM      7  C6  UNL d   1      -2.148   0.914  -3.634  0.00  0.00     0.077 C 
ATOM      8  C7  UNL d   1      -3.385   2.738  -4.839  0.00  0.00    -0.001 A 
ENDROOT
TORSDOF 0
ENDMDL
