MODEL 1
REMARK minimizedAffinity 18.9678421
REMARK minimizedRMSD -1
REMARK  0 active torsions:
REMARK  status: ('A' for Active; 'I' for Inactive)
ROOT
ATOM      1  C   UNL d   1       1.397  -3.019  -0.128  0.00  0.00     0.077 C 
ATOM      2  C1  UNL d   1       1.856  -1.713  -0.706  0.00  0.00    -0.074 A 
ATOM      3  C2  UNL d   1       1.467  -1.318  -1.990  0.00  0.00    -0.005 A 
ATOM      4  C3  UNL d   1       1.894  -0.096  -2.510  0.00  0.00     0.006 A 
ATOM      5  C4  UNL d   1       2.712   0.742  -1.752  0.00  0.00    -0.005 A 
ATOM      6  C5  UNL d   1       3.110   0.365  -0.466  0.00  0.00    -0.074 A 
ATOM      7  C6  UNL d   1       3.982   1.259   0.366  0.00  0.00     0.077 C 
ATOM      8  C7  UNL d   1       2.671  -0.861   0.052  0.00  0.00    -0.001 A 
ENDROOT
TORSDOF 0
ENDMDL
