MODEL 1
REMARK minimizedAffinity 11.1379871
REMARK minimizedRMSD -1
REMARK  0 active torsions:
REMARK  status: ('A' for Active; 'I' for Inactive)
ROOT
ATOM      1  C   UNL d   1      -4.858  -1.935   2.210  0.00  0.00     0.077 C 
ATOM      2  C1  UNL d   1      -4.038  -0.723   2.538  0.00  0.00    -0.074 A 
ATOM      3  C2  UNL d   1      -2.739  -0.578   2.040  0.00  0.00    -0.005 A 
ATOM      4  C3  UNL d   1      -1.991   0.559   2.346  0.00  0.00     0.006 A 
ATOM      5  C4  UNL d   1      -2.534   1.561   3.151  0.00  0.00    -0.005 A 
ATOM      6  C5  UNL d   1      -3.832   1.434   3.657  0.00  0.00    -0.074 A 
ATOM      7  C6  UNL d   1      -4.434   2.507   4.515  0.00  0.00     0.077 C 
ATOM      8  C7  UNL d   1      -4.579   0.292   3.339  0.00  0.00    -0.001 A 
ENDROOT
TORSDOF 0
ENDMDL
