MODEL 1
REMARK minimizedAffinity 9.15841293
REMARK minimizedRMSD -1
REMARK  0 active torsions:
REMARK  status: ('A' for Active; 'I' for Inactive)
ROOT
ATOM      1  C   UNL d   1       5.122   1.097  -0.122  0.00  0.00     0.077 C 
ATOM      2  C1  UNL d   1       3.960   0.227  -0.500  0.00  0.00    -0.074 A 
ATOM      3  C2  UNL d   1       2.941   0.709  -1.328  0.00  0.00    -0.005 A 
ATOM      4  C3  UNL d   1       1.872  -0.115  -1.678  0.00  0.00     0.006 A 
ATOM      5  C4  UNL d   1       1.811  -1.427  -1.206  0.00  0.00    -0.005 A 
ATOM      6  C5  UNL d   1       2.821  -1.926  -0.378  0.00  0.00    -0.074 A 
ATOM      7  C6  UNL d   1       2.777  -3.336   0.130  0.00  0.00     0.077 C 
ATOM      8  C7  UNL d   1       3.896  -1.094  -0.036  0.00  0.00    -0.001 A 
ENDROOT
TORSDOF 0
ENDMDL
