MODEL 1
REMARK minimizedAffinity 10.8795576
REMARK minimizedRMSD -1
REMARK  0 active torsions:
REMARK  status: ('A' for Active; 'I' for Inactive)
ROOT
ATOM      1  C   UNL d   1      -4.006  -2.463   5.160  0.00  0.00     0.077 C 
ATOM      2  C1  UNL d   1      -4.070  -1.600   3.936  0.00  0.00    -0.074 A 
ATOM      3  C2  UNL d   1      -4.992  -1.864   2.917  0.00  0.00    -0.005 A 
ATOM      4  C3  UNL d   1      -5.046  -1.046   1.789  0.00  0.00     0.006 A 
ATOM      5  C4  UNL d   1      -4.182   0.043   1.668  0.00  0.00    -0.005 A 
ATOM      6  C5  UNL d   1      -3.255   0.323   2.676  0.00  0.00    -0.074 A 
ATOM      7  C6  UNL d   1      -2.325   1.495   2.566  0.00  0.00     0.077 C 
ATOM      8  C7  UNL d   1      -3.211  -0.499   3.810  0.00  0.00    -0.001 A 
ENDROOT
TORSDOF 0
ENDMDL
