MODEL 1
REMARK minimizedAffinity 12.2696943
REMARK minimizedRMSD -1
REMARK  0 active torsions:
REMARK  status: ('A' for Active; 'I' for Inactive)
ROOT
ATOM      1  C   UNL d   1      -2.672  -1.434  -4.103  0.00  0.00     0.077 C 
ATOM      2  C1  UNL d   1      -2.908  -2.757  -4.770  0.00  0.00    -0.074 A 
ATOM      3  C2  UNL d   1      -1.837  -3.569  -5.155  0.00  0.00    -0.005 A 
ATOM      4  C3  UNL d   1      -2.072  -4.801  -5.766  0.00  0.00     0.006 A 
ATOM      5  C4  UNL d   1      -3.378  -5.232  -5.998  0.00  0.00    -0.005 A 
ATOM      6  C5  UNL d   1      -4.462  -4.433  -5.620  0.00  0.00    -0.074 A 
ATOM      7  C6  UNL d   1      -5.873  -4.886  -5.854  0.00  0.00     0.077 C 
ATOM      8  C7  UNL d   1      -4.218  -3.200  -5.000  0.00  0.00    -0.001 A 
ENDROOT
TORSDOF 0
ENDMDL
