MODEL 1
REMARK minimizedAffinity 2.98854542
REMARK minimizedRMSD -1
REMARK  0 active torsions:
REMARK  status: ('A' for Active; 'I' for Inactive)
ROOT
ATOM      1  C   UNL d   1       3.004  -5.972  -0.529  0.00  0.00     0.077 C 
ATOM      2  C1  UNL d   1       3.140  -4.968  -1.635  0.00  0.00    -0.074 A 
ATOM      3  C2  UNL d   1       3.896  -5.254  -2.777  0.00  0.00    -0.005 A 
ATOM      4  C3  UNL d   1       4.006  -4.314  -3.801  0.00  0.00     0.006 A 
ATOM      5  C4  UNL d   1       3.363  -3.081  -3.695  0.00  0.00    -0.005 A 
ATOM      6  C5  UNL d   1       2.603  -2.777  -2.561  0.00  0.00    -0.074 A 
ATOM      7  C6  UNL d   1       1.897  -1.459  -2.436  0.00  0.00     0.077 C 
ATOM      8  C7  UNL d   1       2.491  -3.729  -1.539  0.00  0.00    -0.001 A 
ENDROOT
TORSDOF 0
ENDMDL
