MODEL 1
REMARK minimizedAffinity 2.98024321
REMARK minimizedRMSD -1
REMARK  0 active torsions:
REMARK  status: ('A' for Active; 'I' for Inactive)
ROOT
ATOM      1  C   UNL d   1       2.681  -3.434  -4.301  0.00  0.00     0.077 C 
ATOM      2  C1  UNL d   1       2.408  -2.773  -2.983  0.00  0.00    -0.074 A 
ATOM      3  C2  UNL d   1       1.906  -3.505  -1.902  0.00  0.00    -0.005 A 
ATOM      4  C3  UNL d   1       1.667  -2.879  -0.679  0.00  0.00     0.006 A 
ATOM      5  C4  UNL d   1       1.926  -1.517  -0.524  0.00  0.00    -0.005 A 
ATOM      6  C5  UNL d   1       2.429  -0.769  -1.594  0.00  0.00    -0.074 A 
ATOM      7  C6  UNL d   1       2.722   0.694  -1.442  0.00  0.00     0.077 C 
ATOM      8  C7  UNL d   1       2.674  -1.407  -2.817  0.00  0.00    -0.001 A 
ENDROOT
TORSDOF 0
ENDMDL
