MODEL 1
REMARK minimizedAffinity 3.33581638
REMARK minimizedRMSD -1
REMARK  0 active torsions:
REMARK  status: ('A' for Active; 'I' for Inactive)
ROOT
ATOM      1  C   UNL d   1       2.907   0.553  -1.429  0.00  0.00     0.077 C 
ATOM      2  C1  UNL d   1       2.541  -0.894  -1.281  0.00  0.00    -0.074 A 
ATOM      3  C2  UNL d   1       3.190  -1.707  -0.346  0.00  0.00    -0.005 A 
ATOM      4  C3  UNL d   1       2.833  -3.049  -0.213  0.00  0.00     0.006 A 
ATOM      5  C4  UNL d   1       1.825  -3.590  -1.013  0.00  0.00    -0.005 A 
ATOM      6  C5  UNL d   1       1.165  -2.792  -1.953  0.00  0.00    -0.074 A 
ATOM      7  C6  UNL d   1       0.073  -3.356  -2.813  0.00  0.00     0.077 C 
ATOM      8  C7  UNL d   1       1.525  -1.443  -2.075  0.00  0.00    -0.001 A 
ENDROOT
TORSDOF 0
ENDMDL
