MODEL 1
REMARK minimizedAffinity 6.00431108
REMARK minimizedRMSD -1
REMARK  0 active torsions:
REMARK  status: ('A' for Active; 'I' for Inactive)
ROOT
ATOM      1  C   UNL d   1       2.736  -3.417  -0.083  0.00  0.00     0.077 C 
ATOM      2  C1  UNL d   1       2.641  -2.056  -0.706  0.00  0.00    -0.074 A 
ATOM      3  C2  UNL d   1       1.820  -1.829  -1.816  0.00  0.00    -0.005 A 
ATOM      4  C3  UNL d   1       1.735  -0.555  -2.378  0.00  0.00     0.006 A 
ATOM      5  C4  UNL d   1       2.467   0.502  -1.838  0.00  0.00    -0.005 A 
ATOM      6  C5  UNL d   1       3.292   0.294  -0.728  0.00  0.00    -0.074 A 
ATOM      7  C6  UNL d   1       4.078   1.422  -0.128  0.00  0.00     0.077 C 
ATOM      8  C7  UNL d   1       3.367  -0.987  -0.164  0.00  0.00    -0.001 A 
ENDROOT
TORSDOF 0
ENDMDL
