MODEL 1
REMARK minimizedAffinity 10.9591599
REMARK minimizedRMSD -1
REMARK  0 active torsions:
REMARK  status: ('A' for Active; 'I' for Inactive)
ROOT
ATOM      1  C   UNL d   1       2.806  -3.340   0.255  0.00  0.00     0.077 C 
ATOM      2  C1  UNL d   1       2.424  -2.536  -0.952  0.00  0.00    -0.074 A 
ATOM      3  C2  UNL d   1       2.124  -1.174  -0.843  0.00  0.00    -0.005 A 
ATOM      4  C3  UNL d   1       1.780  -0.437  -1.976  0.00  0.00     0.006 A 
ATOM      5  C4  UNL d   1       1.733  -1.052  -3.227  0.00  0.00    -0.005 A 
ATOM      6  C5  UNL d   1       2.031  -2.413  -3.356  0.00  0.00    -0.074 A 
ATOM      7  C6  UNL d   1       1.995  -3.088  -4.695  0.00  0.00     0.077 C 
ATOM      8  C7  UNL d   1       2.383  -3.145  -2.214  0.00  0.00    -0.001 A 
ENDROOT
TORSDOF 0
ENDMDL
