MODEL 1
REMARK minimizedAffinity 10.2130041
REMARK minimizedRMSD -1
REMARK  0 active torsions:
REMARK  status: ('A' for Active; 'I' for Inactive)
ROOT
ATOM      1  C   UNL d   1      -2.639  -0.414   4.321  0.00  0.00     0.077 C 
ATOM      2  C1  UNL d   1      -2.253   0.813   3.550  0.00  0.00    -0.074 A 
ATOM      3  C2  UNL d   1      -1.596   1.878   4.175  0.00  0.00    -0.005 A 
ATOM      4  C3  UNL d   1      -1.234   3.008   3.442  0.00  0.00     0.006 A 
ATOM      5  C4  UNL d   1      -1.525   3.085   2.079  0.00  0.00    -0.005 A 
ATOM      6  C5  UNL d   1      -2.180   2.029   1.437  0.00  0.00    -0.074 A 
ATOM      7  C6  UNL d   1      -2.491   2.092  -0.029  0.00  0.00     0.077 C 
ATOM      8  C7  UNL d   1      -2.534   0.894   2.179  0.00  0.00    -0.001 A 
ENDROOT
TORSDOF 0
ENDMDL
