MODEL 1
REMARK minimizedAffinity -5.83971596
REMARK minimizedRMSD -1
REMARK  0 active torsions:
REMARK  status: ('A' for Active; 'I' for Inactive)
ROOT
ATOM      1  C2' OXE d   1       0.173   0.559  -1.546  0.00  0.00     0.078 C 
ATOM      2  C1' OXE d   1       0.323  -1.918  -2.858  0.00  0.00     0.078 C 
ATOM      3  C1  OXE d   1       0.104  -1.925  -1.366  0.00  0.00    -0.078 A 
ATOM      4  C2  OXE d   1       0.079  -0.709  -0.725  0.00  0.00    -0.078 A 
ATOM      5  C3  OXE d   1      -0.175  -0.656   0.643  0.00  0.00     0.003 A 
ATOM      6  C4  OXE d   1      -0.251  -1.834   1.396  0.00  0.00    -0.002 A 
ATOM      7  C5  OXE d   1      -0.188  -3.083   0.769  0.00  0.00    -0.002 A 
ATOM      8  C6  OXE d   1      -0.053  -3.145  -0.614  0.00  0.00     0.003 A 
ENDROOT
TORSDOF 0
ENDMDL
