MODEL 1
REMARK minimizedAffinity -4.73776817
REMARK minimizedRMSD -1
REMARK  0 active torsions:
REMARK  status: ('A' for Active; 'I' for Inactive)
ROOT
ATOM      1  C2' OXE d   1       0.259   0.093   0.506  0.00  0.00     0.078 C 
ATOM      2  C1' OXE d   1       0.134  -0.200  -2.283  0.00  0.00     0.078 C 
ATOM      3  C1  OXE d   1       0.098  -1.451  -1.443  0.00  0.00    -0.078 A 
ATOM      4  C2  OXE d   1       0.207  -1.302  -0.081  0.00  0.00    -0.078 A 
ATOM      5  C3  OXE d   1       0.124  -2.420   0.744  0.00  0.00     0.003 A 
ATOM      6  C4  OXE d   1       0.086  -3.706   0.193  0.00  0.00    -0.002 A 
ATOM      7  C5  OXE d   1       0.015  -3.883  -1.193  0.00  0.00    -0.002 A 
ATOM      8  C6  OXE d   1      -0.023  -2.767  -2.021  0.00  0.00     0.003 A 
ENDROOT
TORSDOF 0
ENDMDL
