MODEL 1
REMARK minimizedAffinity -3.18354225
REMARK minimizedRMSD -1
REMARK  0 active torsions:
REMARK  status: ('A' for Active; 'I' for Inactive)
ROOT
ATOM      1  C2' OXE d   1      -1.184   0.007   1.873  0.00  0.00     0.078 C 
ATOM      2  C1' OXE d   1       0.583   0.780  -0.167  0.00  0.00     0.078 C 
ATOM      3  C1  OXE d   1       0.236  -0.684  -0.054  0.00  0.00    -0.078 A 
ATOM      4  C2  OXE d   1      -0.593  -1.059   0.976  0.00  0.00    -0.078 A 
ATOM      5  C3  OXE d   1      -0.988  -2.389   1.092  0.00  0.00     0.003 A 
ATOM      6  C4  OXE d   1      -0.429  -3.370   0.265  0.00  0.00    -0.002 A 
ATOM      7  C5  OXE d   1       0.448  -3.014  -0.765  0.00  0.00    -0.002 A 
ATOM      8  C6  OXE d   1       0.757  -1.673  -0.965  0.00  0.00     0.003 A 
ENDROOT
TORSDOF 0
ENDMDL
