MODEL 1
REMARK minimizedAffinity -3.72289252
REMARK minimizedRMSD -1
REMARK  0 active torsions:
REMARK  status: ('A' for Active; 'I' for Inactive)
ROOT
ATOM      1  C2' OXE d   1      -1.034  -1.466   1.092  0.00  0.00     0.078 C 
ATOM      2  C1' OXE d   1      -0.063   0.931   0.000  0.00  0.00     0.078 C 
ATOM      3  C1  OXE d   1      -0.223  -0.250  -0.925  0.00  0.00    -0.078 A 
ATOM      4  C2  OXE d   1      -0.655  -1.432  -0.373  0.00  0.00    -0.078 A 
ATOM      5  C3  OXE d   1      -0.873  -2.536  -1.192  0.00  0.00     0.003 A 
ATOM      6  C4  OXE d   1      -0.510  -2.499  -2.544  0.00  0.00    -0.002 A 
ATOM      7  C5  OXE d   1      -0.031  -1.316  -3.118  0.00  0.00    -0.002 A 
ATOM      8  C6  OXE d   1       0.078  -0.173  -2.333  0.00  0.00     0.003 A 
ENDROOT
TORSDOF 0
ENDMDL
