MODEL 1
REMARK minimizedAffinity -5.53311157
REMARK minimizedRMSD -1
REMARK  0 active torsions:
REMARK  status: ('A' for Active; 'I' for Inactive)
ROOT
ATOM      1  C2' OXE d   1       0.266   0.592  -0.321  0.00  0.00     0.078 C 
ATOM      2  C1' OXE d   1       0.551  -0.959  -2.643  0.00  0.00     0.078 C 
ATOM      3  C1  OXE d   1       0.113  -1.658  -1.380  0.00  0.00    -0.078 A 
ATOM      4  C2  OXE d   1       0.021  -0.899  -0.238  0.00  0.00    -0.078 A 
ATOM      5  C3  OXE d   1      -0.431  -1.482   0.942  0.00  0.00     0.003 A 
ATOM      6  C4  OXE d   1      -0.645  -2.864   1.014  0.00  0.00    -0.002 A 
ATOM      7  C5  OXE d   1      -0.519  -3.662  -0.129  0.00  0.00    -0.002 A 
ATOM      8  C6  OXE d   1      -0.182  -3.068  -1.340  0.00  0.00     0.003 A 
ENDROOT
TORSDOF 0
ENDMDL
