MODEL 1
REMARK minimizedAffinity -3.76823926
REMARK minimizedRMSD -1
REMARK  0 active torsions:
REMARK  status: ('A' for Active; 'I' for Inactive)
ROOT
ATOM      1  C2' OXE d   1       0.675  -1.601  -1.933  0.00  0.00     0.078 C 
ATOM      2  C1' OXE d   1      -0.103  -2.962   0.396  0.00  0.00     0.078 C 
ATOM      3  C1  OXE d   1       0.012  -1.460   0.464  0.00  0.00    -0.078 A 
ATOM      4  C2  OXE d   1       0.438  -0.806  -0.667  0.00  0.00    -0.078 A 
ATOM      5  C3  OXE d   1       0.509   0.584  -0.675  0.00  0.00     0.003 A 
ATOM      6  C4  OXE d   1       0.299   1.311   0.503  0.00  0.00    -0.002 A 
ATOM      7  C5  OXE d   1      -0.098   0.661   1.677  0.00  0.00    -0.002 A 
ATOM      8  C6  OXE d   1      -0.287  -0.716   1.663  0.00  0.00     0.003 A 
ENDROOT
TORSDOF 0
ENDMDL
