MODEL 1
REMARK minimizedAffinity -4.49580812
REMARK minimizedRMSD -1
REMARK  0 active torsions:
REMARK  status: ('A' for Active; 'I' for Inactive)
ROOT
ATOM      1  C2' OXE d   1       0.270   1.614  -0.251  0.00  0.00     0.078 C 
ATOM      2  C1' OXE d   1       0.439  -0.406  -2.192  0.00  0.00     0.078 C 
ATOM      3  C1  OXE d   1      -0.104  -0.778  -0.834  0.00  0.00    -0.078 A 
ATOM      4  C2  OXE d   1      -0.139   0.206   0.124  0.00  0.00    -0.078 A 
ATOM      5  C3  OXE d   1      -0.681  -0.070   1.376  0.00  0.00     0.003 A 
ATOM      6  C4  OXE d   1      -1.048  -1.377   1.717  0.00  0.00    -0.002 A 
ATOM      7  C5  OXE d   1      -0.983  -2.403   0.768  0.00  0.00    -0.002 A 
ATOM      8  C6  OXE d   1      -0.554  -2.112  -0.522  0.00  0.00     0.003 A 
ENDROOT
TORSDOF 0
ENDMDL
