MODEL 1
REMARK minimizedAffinity -5.12622738
REMARK minimizedRMSD -1
REMARK  0 active torsions:
REMARK  status: ('A' for Active; 'I' for Inactive)
ROOT
ATOM      1  C2' OXE d   1       0.383   1.356  -0.649  0.00  0.00     0.078 C 
ATOM      2  C1' OXE d   1       1.207  -0.865  -2.154  0.00  0.00     0.078 C 
ATOM      3  C1  OXE d   1       0.560  -1.123  -0.816  0.00  0.00    -0.078 A 
ATOM      4  C2  OXE d   1       0.202  -0.029  -0.065  0.00  0.00    -0.078 A 
ATOM      5  C3  OXE d   1      -0.448  -0.210   1.152  0.00  0.00     0.003 A 
ATOM      6  C4  OXE d   1      -0.602  -1.494   1.689  0.00  0.00    -0.002 A 
ATOM      7  C5  OXE d   1      -0.209  -2.621   0.958  0.00  0.00    -0.002 A 
ATOM      8  C6  OXE d   1       0.333  -2.455  -0.311  0.00  0.00     0.003 A 
ENDROOT
TORSDOF 0
ENDMDL
