MODEL 1
REMARK minimizedAffinity -4.56369495
REMARK minimizedRMSD -1
REMARK  0 active torsions:
REMARK  status: ('A' for Active; 'I' for Inactive)
ROOT
ATOM      1  C2' OXE d   1       0.252  -3.195   0.067  0.00  0.00     0.078 C 
ATOM      2  C1' OXE d   1       1.068  -1.744  -2.193  0.00  0.00     0.078 C 
ATOM      3  C1  OXE d   1       0.385  -0.988  -1.080  0.00  0.00    -0.078 A 
ATOM      4  C2  OXE d   1      -0.053  -1.714   0.001  0.00  0.00    -0.078 A 
ATOM      5  C3  OXE d   1      -0.639  -1.058   1.080  0.00  0.00     0.003 A 
ATOM      6  C4  OXE d   1      -0.926   0.310   1.006  0.00  0.00    -0.002 A 
ATOM      7  C5  OXE d   1      -0.524   1.061  -0.103  0.00  0.00    -0.002 A 
ATOM      8  C6  OXE d   1       0.169   0.437  -1.134  0.00  0.00     0.003 A 
ENDROOT
TORSDOF 0
ENDMDL
