MODEL 1
REMARK minimizedAffinity -5.64968967
REMARK minimizedRMSD -1
REMARK  0 active torsions:
REMARK  status: ('A' for Active; 'I' for Inactive)
ROOT
ATOM      1  C2' OXE d   1       0.392   1.101   0.169  0.00  0.00     0.078 C 
ATOM      2  C1' OXE d   1      -0.953  -0.090   2.326  0.00  0.00     0.078 C 
ATOM      3  C1  OXE d   1      -0.440  -0.993   1.232  0.00  0.00    -0.078 A 
ATOM      4  C2  OXE d   1       0.176  -0.397   0.158  0.00  0.00    -0.078 A 
ATOM      5  C3  OXE d   1       0.716  -1.188  -0.853  0.00  0.00     0.003 A 
ATOM      6  C4  OXE d   1       0.503  -2.572  -0.860  0.00  0.00    -0.002 A 
ATOM      7  C5  OXE d   1      -0.157  -3.194   0.205  0.00  0.00    -0.002 A 
ATOM      8  C6  OXE d   1      -0.596  -2.426   1.277  0.00  0.00     0.003 A 
ENDROOT
TORSDOF 0
ENDMDL
