MODEL 1
REMARK minimizedAffinity 2.20134735
REMARK minimizedRMSD -1
REMARK  0 active torsions:
REMARK  status: ('A' for Active; 'I' for Inactive)
ROOT
ATOM      1  C2' OXE d   1       0.384   1.379   0.372  0.00  0.00     0.078 C 
ATOM      2  C1' OXE d   1      -0.457   0.077   2.712  0.00  0.00     0.078 C 
ATOM      3  C1  OXE d   1      -0.612  -0.657   1.404  0.00  0.00    -0.078 A 
ATOM      4  C2  OXE d   1      -0.241   0.005   0.259  0.00  0.00    -0.078 A 
ATOM      5  C3  OXE d   1      -0.311  -0.647  -0.968  0.00  0.00     0.003 A 
ATOM      6  C4  OXE d   1      -0.900  -1.914  -1.065  0.00  0.00    -0.002 A 
ATOM      7  C5  OXE d   1      -1.321  -2.590   0.084  0.00  0.00    -0.002 A 
ATOM      8  C6  OXE d   1      -1.145  -1.995   1.328  0.00  0.00     0.003 A 
ENDROOT
TORSDOF 0
ENDMDL
