MODEL 1
REMARK minimizedAffinity -0.880060494
REMARK minimizedRMSD -1
REMARK  0 active torsions:
REMARK  status: ('A' for Active; 'I' for Inactive)
ROOT
ATOM      1  C2' OXE d   1      -0.031  -2.654   0.649  0.00  0.00     0.078 C 
ATOM      2  C1' OXE d   1      -1.705  -0.644   1.669  0.00  0.00     0.078 C 
ATOM      3  C1  OXE d   1      -0.470  -0.216   0.916  0.00  0.00    -0.078 A 
ATOM      4  C2  OXE d   1       0.368  -1.206   0.461  0.00  0.00    -0.078 A 
ATOM      5  C3  OXE d   1       1.492  -0.868  -0.287  0.00  0.00     0.003 A 
ATOM      6  C4  OXE d   1       1.859   0.474  -0.448  0.00  0.00    -0.002 A 
ATOM      7  C5  OXE d   1       1.041   1.497   0.042  0.00  0.00    -0.002 A 
ATOM      8  C6  OXE d   1      -0.146   1.171   0.688  0.00  0.00     0.003 A 
ENDROOT
TORSDOF 0
ENDMDL
