MODEL 1
REMARK minimizedAffinity -5.1668272
REMARK minimizedRMSD -1
REMARK  0 active torsions:
REMARK  status: ('A' for Active; 'I' for Inactive)
ROOT
ATOM      1  C2' OXE d   1       1.631   1.414   0.948  0.00  0.00     0.078 C 
ATOM      2  C1' OXE d   1      -0.527   1.423  -0.848  0.00  0.00     0.078 C 
ATOM      3  C1  OXE d   1      -0.485   0.336   0.196  0.00  0.00    -0.078 A 
ATOM      4  C2  OXE d   1       0.598   0.312   1.041  0.00  0.00    -0.078 A 
ATOM      5  C3  OXE d   1       0.659  -0.637   2.058  0.00  0.00     0.003 A 
ATOM      6  C4  OXE d   1      -0.295  -1.660   2.131  0.00  0.00    -0.002 A 
ATOM      7  C5  OXE d   1      -1.386  -1.677   1.255  0.00  0.00    -0.002 A 
ATOM      8  C6  OXE d   1      -1.518  -0.664   0.311  0.00  0.00     0.003 A 
ENDROOT
TORSDOF 0
ENDMDL
