MODEL 1
REMARK minimizedAffinity -1.52652144
REMARK minimizedRMSD -1
REMARK  0 active torsions:
REMARK  status: ('A' for Active; 'I' for Inactive)
ROOT
ATOM      1  C2' OXE d   1      -0.395  -0.254   2.017  0.00  0.00     0.078 C 
ATOM      2  C1' OXE d   1       0.178  -2.646   0.663  0.00  0.00     0.078 C 
ATOM      3  C1  OXE d   1       0.170  -1.368  -0.139  0.00  0.00    -0.078 A 
ATOM      4  C2  OXE d   1      -0.157  -0.209   0.522  0.00  0.00    -0.078 A 
ATOM      5  C3  OXE d   1      -0.126   1.005  -0.158  0.00  0.00     0.003 A 
ATOM      6  C4  OXE d   1       0.084   1.037  -1.542  0.00  0.00    -0.002 A 
ATOM      7  C5  OXE d   1       0.380  -0.137  -2.242  0.00  0.00    -0.002 A 
ATOM      8  C6  OXE d   1       0.468  -1.340  -1.549  0.00  0.00     0.003 A 
ENDROOT
TORSDOF 0
ENDMDL
