MODEL 1
REMARK minimizedAffinity -3.94897676
REMARK minimizedRMSD -1
REMARK  0 active torsions:
REMARK  status: ('A' for Active; 'I' for Inactive)
ROOT
ATOM      1  C2' OXE d   1       0.437  -0.359  -1.875  0.00  0.00     0.078 C 
ATOM      2  C1' OXE d   1       0.594   1.678   0.050  0.00  0.00     0.078 C 
ATOM      3  C1  OXE d   1       0.004   0.356   0.472  0.00  0.00    -0.078 A 
ATOM      4  C2  OXE d   1      -0.112  -0.620  -0.489  0.00  0.00    -0.078 A 
ATOM      5  C3  OXE d   1      -0.600  -1.876  -0.140  0.00  0.00     0.003 A 
ATOM      6  C4  OXE d   1      -1.115  -2.106   1.142  0.00  0.00    -0.002 A 
ATOM      7  C5  OXE d   1      -1.043  -1.112   2.124  0.00  0.00    -0.002 A 
ATOM      8  C6  OXE d   1      -0.449   0.107   1.818  0.00  0.00     0.003 A 
ENDROOT
TORSDOF 0
ENDMDL
