MODEL 1
REMARK minimizedAffinity -3.99818826
REMARK minimizedRMSD -1
REMARK  0 active torsions:
REMARK  status: ('A' for Active; 'I' for Inactive)
ROOT
ATOM      1  C2' OXE d   1      -0.717  -0.297   2.632  0.00  0.00     0.078 C 
ATOM      2  C1' OXE d   1       0.560   0.894   0.434  0.00  0.00     0.078 C 
ATOM      3  C1  OXE d   1       0.346  -0.598   0.399  0.00  0.00    -0.078 A 
ATOM      4  C2  OXE d   1      -0.237  -1.179   1.500  0.00  0.00    -0.078 A 
ATOM      5  C3  OXE d   1      -0.507  -2.545   1.497  0.00  0.00     0.003 A 
ATOM      6  C4  OXE d   1      -0.051  -3.355   0.450  0.00  0.00    -0.002 A 
ATOM      7  C5  OXE d   1       0.580  -2.789  -0.663  0.00  0.00    -0.002 A 
ATOM      8  C6  OXE d   1       0.748  -1.410  -0.723  0.00  0.00     0.003 A 
ENDROOT
TORSDOF 0
ENDMDL
