MODEL 1
REMARK minimizedAffinity -4.69235706
REMARK minimizedRMSD -1
REMARK  0 active torsions:
REMARK  status: ('A' for Active; 'I' for Inactive)
ROOT
ATOM      1  C2' OXE d   1       0.694   1.068  -0.343  0.00  0.00     0.078 C 
ATOM      2  C1' OXE d   1       0.833  -0.932  -2.308  0.00  0.00     0.078 C 
ATOM      3  C1  OXE d   1       0.350  -1.327  -0.935  0.00  0.00    -0.078 A 
ATOM      4  C2  OXE d   1       0.330  -0.352   0.033  0.00  0.00    -0.078 A 
ATOM      5  C3  OXE d   1      -0.159  -0.650   1.302  0.00  0.00     0.003 A 
ATOM      6  C4  OXE d   1      -0.485  -1.968   1.645  0.00  0.00    -0.002 A 
ATOM      7  C5  OXE d   1      -0.433  -2.984   0.685  0.00  0.00    -0.002 A 
ATOM      8  C6  OXE d   1      -0.060  -2.673  -0.618  0.00  0.00     0.003 A 
ENDROOT
TORSDOF 0
ENDMDL
