MODEL 1
REMARK minimizedAffinity -3.38928556
REMARK minimizedRMSD -1
REMARK  0 active torsions:
REMARK  status: ('A' for Active; 'I' for Inactive)
ROOT
ATOM      1  O1  BZF d   1      -1.307   1.486   0.363  0.00  0.00    -0.204 OA
ATOM      2  C2  BZF d   1      -0.712   2.733   0.335  0.00  0.00     0.174 A 
ATOM      3  C3  BZF d   1       0.629   2.624   0.423  0.00  0.00    -0.012 A 
ATOM      4  C3A BZF d   1       0.895   1.218   0.417  0.00  0.00    -0.107 A 
ATOM      5  C4  BZF d   1       2.042   0.479   0.466  0.00  0.00     0.055 A 
ATOM      6  C5  BZF d   1       1.952  -0.876   0.517  0.00  0.00    -0.016 A 
ATOM      7  C6  BZF d   1       0.734  -1.524   0.526  0.00  0.00     0.022 A 
ATOM      8  C7  BZF d   1      -0.431  -0.833   0.474  0.00  0.00     0.029 A 
ATOM      9  C7A BZF d   1      -0.343   0.535   0.389  0.00  0.00     0.058 A 
ENDROOT
TORSDOF 0
ENDMDL
