MODEL 1
REMARK minimizedAffinity -5.99049187
REMARK minimizedRMSD -1
REMARK  0 active torsions:
REMARK  status: ('A' for Active; 'I' for Inactive)
ROOT
ATOM      1  O1  BZF d   1       1.668   2.772   0.111  0.00  0.00    -0.204 OA
ATOM      2  C2  BZF d   1       0.486   3.487   0.070  0.00  0.00     0.174 A 
ATOM      3  C3  BZF d   1      -0.576   2.656   0.099  0.00  0.00    -0.012 A 
ATOM      4  C3A BZF d   1      -0.025   1.345   0.255  0.00  0.00    -0.107 A 
ATOM      5  C4  BZF d   1      -0.578   0.101   0.365  0.00  0.00     0.055 A 
ATOM      6  C5  BZF d   1       0.241  -0.981   0.432  0.00  0.00    -0.016 A 
ATOM      7  C6  BZF d   1       1.614  -0.858   0.387  0.00  0.00     0.022 A 
ATOM      8  C7  BZF d   1       2.208   0.356   0.283  0.00  0.00     0.029 A 
ATOM      9  C7A BZF d   1       1.385   1.455   0.249  0.00  0.00     0.058 A 
ENDROOT
TORSDOF 0
ENDMDL
