MODEL 1
REMARK minimizedAffinity -5.94876671
REMARK minimizedRMSD -1
REMARK  0 active torsions:
REMARK  status: ('A' for Active; 'I' for Inactive)
ROOT
ATOM      1  O1  BZF d   1       0.489  -0.836  -0.129  0.00  0.00    -0.204 OA
ATOM      2  C2  BZF d   1      -0.743  -1.165   0.402  0.00  0.00     0.174 A 
ATOM      3  C3  BZF d   1      -1.384  -0.063   0.842  0.00  0.00    -0.012 A 
ATOM      4  C3A BZF d   1      -0.536   1.033   0.485  0.00  0.00    -0.107 A 
ATOM      5  C4  BZF d   1      -0.635   2.386   0.640  0.00  0.00     0.055 A 
ATOM      6  C5  BZF d   1       0.399   3.174   0.246  0.00  0.00    -0.016 A 
ATOM      7  C6  BZF d   1       1.549   2.643  -0.301  0.00  0.00     0.022 A 
ATOM      8  C7  BZF d   1       1.691   1.307  -0.480  0.00  0.00     0.029 A 
ATOM      9  C7A BZF d   1       0.634   0.510  -0.113  0.00  0.00     0.058 A 
ENDROOT
TORSDOF 0
ENDMDL
