MODEL 1
REMARK minimizedAffinity -3.5017128
REMARK minimizedRMSD -1
REMARK  0 active torsions:
REMARK  status: ('A' for Active; 'I' for Inactive)
ROOT
ATOM      1  O1  BZF d   1       2.017  -0.923   0.622  0.00  0.00    -0.204 OA
ATOM      2  C2  BZF d   1       3.205  -0.239   0.456  0.00  0.00     0.174 A 
ATOM      3  C3  BZF d   1       2.976   1.069   0.220  0.00  0.00    -0.012 A 
ATOM      4  C3A BZF d   1       1.558   1.229   0.332  0.00  0.00    -0.107 A 
ATOM      5  C4  BZF d   1       0.722   2.302   0.219  0.00  0.00     0.055 A 
ATOM      6  C5  BZF d   1      -0.619   2.108   0.312  0.00  0.00    -0.016 A 
ATOM      7  C6  BZF d   1      -1.159   0.854   0.512  0.00  0.00     0.022 A 
ATOM      8  C7  BZF d   1      -0.370  -0.241   0.635  0.00  0.00     0.029 A 
ATOM      9  C7A BZF d   1       0.988  -0.042   0.575  0.00  0.00     0.058 A 
ENDROOT
TORSDOF 0
ENDMDL
