MODEL 1
REMARK minimizedAffinity -6.13139153
REMARK minimizedRMSD -1
REMARK  0 active torsions:
REMARK  status: ('A' for Active; 'I' for Inactive)
ROOT
ATOM      1  O1  BZF d   1       2.317  -0.057   0.779  0.00  0.00    -0.204 OA
ATOM      2  C2  BZF d   1       1.486  -1.118   0.476  0.00  0.00     0.174 A 
ATOM      3  C3  BZF d   1       0.227  -0.690   0.248  0.00  0.00    -0.012 A 
ATOM      4  C3A BZF d   1       0.295   0.737   0.328  0.00  0.00    -0.107 A 
ATOM      5  C4  BZF d   1      -0.630   1.730   0.178  0.00  0.00     0.055 A 
ATOM      6  C5  BZF d   1      -0.256   3.019   0.393  0.00  0.00    -0.016 A 
ATOM      7  C6  BZF d   1       1.031   3.349   0.765  0.00  0.00     0.022 A 
ATOM      8  C7  BZF d   1       1.984   2.398   0.922  0.00  0.00     0.029 A 
ATOM      9  C7A BZF d   1       1.618   1.098   0.673  0.00  0.00     0.058 A 
ENDROOT
TORSDOF 0
ENDMDL
