MODEL 1
REMARK minimizedAffinity -4.15808725
REMARK minimizedRMSD -1
REMARK  0 active torsions:
REMARK  status: ('A' for Active; 'I' for Inactive)
ROOT
ATOM      1  O1  BZF d   1      -0.731  -0.386   1.124  0.00  0.00    -0.204 OA
ATOM      2  C2  BZF d   1      -0.353  -1.427   0.298  0.00  0.00     0.174 A 
ATOM      3  C3  BZF d   1       0.425  -0.981  -0.709  0.00  0.00    -0.012 A 
ATOM      4  C3A BZF d   1       0.616   0.413  -0.448  0.00  0.00    -0.107 A 
ATOM      5  C4  BZF d   1       1.310   1.401  -1.085  0.00  0.00     0.055 A 
ATOM      6  C5  BZF d   1       1.233   2.673  -0.612  0.00  0.00    -0.016 A 
ATOM      7  C6  BZF d   1       0.469   2.992   0.491  0.00  0.00     0.022 A 
ATOM      8  C7  BZF d   1      -0.233   2.045   1.159  0.00  0.00     0.029 A 
ATOM      9  C7A BZF d   1      -0.131   0.753   0.703  0.00  0.00     0.058 A 
ENDROOT
TORSDOF 0
ENDMDL
