MODEL 1
REMARK minimizedAffinity -3.96197677
REMARK minimizedRMSD -1
REMARK  0 active torsions:
REMARK  status: ('A' for Active; 'I' for Inactive)
ROOT
ATOM      1  O1  BZF d   1       1.173  -0.606  -0.054  0.00  0.00    -0.204 OA
ATOM      2  C2  BZF d   1       0.130  -1.492   0.134  0.00  0.00     0.174 A 
ATOM      3  C3  BZF d   1      -1.043  -0.834   0.241  0.00  0.00    -0.012 A 
ATOM      4  C3A BZF d   1      -0.723   0.543   0.019  0.00  0.00    -0.107 A 
ATOM      5  C4  BZF d   1      -1.470   1.686  -0.018  0.00  0.00     0.055 A 
ATOM      6  C5  BZF d   1      -0.842   2.879  -0.185  0.00  0.00    -0.016 A 
ATOM      7  C6  BZF d   1       0.529   2.967  -0.313  0.00  0.00     0.022 A 
ATOM      8  C7  BZF d   1       1.311   1.861  -0.288  0.00  0.00     0.029 A 
ATOM      9  C7A BZF d   1       0.676   0.650  -0.152  0.00  0.00     0.058 A 
ENDROOT
TORSDOF 0
ENDMDL
