MODEL 1
REMARK minimizedAffinity -4.87733459
REMARK minimizedRMSD -1
REMARK  0 active torsions:
REMARK  status: ('A' for Active; 'I' for Inactive)
ROOT
ATOM      1  O1  BZF d   1      -1.093   2.449   0.169  0.00  0.00    -0.204 OA
ATOM      2  C2  BZF d   1      -0.139   3.321  -0.321  0.00  0.00     0.174 A 
ATOM      3  C3  BZF d   1       1.061   2.714  -0.414  0.00  0.00    -0.012 A 
ATOM      4  C3A BZF d   1       0.825   1.353  -0.041  0.00  0.00    -0.107 A 
ATOM      5  C4  BZF d   1       1.627   0.251   0.048  0.00  0.00     0.055 A 
ATOM      6  C5  BZF d   1       1.101  -0.913   0.514  0.00  0.00    -0.016 A 
ATOM      7  C6  BZF d   1      -0.218  -1.008   0.904  0.00  0.00     0.022 A 
ATOM      8  C7  BZF d   1      -1.054   0.056   0.829  0.00  0.00     0.029 A 
ATOM      9  C7A BZF d   1      -0.534   1.225   0.328  0.00  0.00     0.058 A 
ENDROOT
TORSDOF 0
ENDMDL
