MODEL 1
REMARK minimizedAffinity -3.78922653
REMARK minimizedRMSD -1
REMARK  0 active torsions:
REMARK  status: ('A' for Active; 'I' for Inactive)
ROOT
ATOM      1  O1  BZF d   1      -1.010  -0.743   0.294  0.00  0.00    -0.204 OA
ATOM      2  C2  BZF d   1       0.074  -1.520  -0.065  0.00  0.00     0.174 A 
ATOM      3  C3  BZF d   1       1.095  -0.749  -0.494  0.00  0.00    -0.012 A 
ATOM      4  C3A BZF d   1       0.651   0.599  -0.309  0.00  0.00    -0.107 A 
ATOM      5  C4  BZF d   1       1.228   1.816  -0.535  0.00  0.00     0.055 A 
ATOM      6  C5  BZF d   1       0.499   2.942  -0.317  0.00  0.00    -0.016 A 
ATOM      7  C6  BZF d   1      -0.807   2.888   0.122  0.00  0.00     0.022 A 
ATOM      8  C7  BZF d   1      -1.420   1.704   0.365  0.00  0.00     0.029 A 
ATOM      9  C7A BZF d   1      -0.676   0.565   0.177  0.00  0.00     0.058 A 
ENDROOT
TORSDOF 0
ENDMDL
