MODEL 1
REMARK minimizedAffinity -5.25533247
REMARK minimizedRMSD -1
REMARK  0 active torsions:
REMARK  status: ('A' for Active; 'I' for Inactive)
ROOT
ATOM      1  O1  BZF d   1      -1.488   1.604   0.053  0.00  0.00    -0.204 OA
ATOM      2  C2  BZF d   1      -0.900   2.835  -0.166  0.00  0.00     0.174 A 
ATOM      3  C3  BZF d   1       0.444   2.743  -0.095  0.00  0.00    -0.012 A 
ATOM      4  C3A BZF d   1       0.716   1.351   0.093  0.00  0.00    -0.107 A 
ATOM      5  C4  BZF d   1       1.868   0.628   0.220  0.00  0.00     0.055 A 
ATOM      6  C5  BZF d   1       1.787  -0.706   0.466  0.00  0.00    -0.016 A 
ATOM      7  C6  BZF d   1       0.573  -1.348   0.596  0.00  0.00     0.022 A 
ATOM      8  C7  BZF d   1      -0.597  -0.674   0.473  0.00  0.00     0.029 A 
ATOM      9  C7A BZF d   1      -0.518   0.668   0.192  0.00  0.00     0.058 A 
ENDROOT
TORSDOF 0
ENDMDL
