MODEL 1
REMARK minimizedAffinity -4.85636854
REMARK minimizedRMSD -1
REMARK  0 active torsions:
REMARK  status: ('A' for Active; 'I' for Inactive)
ROOT
ATOM      1  O1  BZF d   1       0.704  -1.226  -0.477  0.00  0.00    -0.204 OA
ATOM      2  C2  BZF d   1      -0.474  -1.768  -0.001  0.00  0.00     0.174 A 
ATOM      3  C3  BZF d   1      -1.304  -0.799   0.435  0.00  0.00    -0.012 A 
ATOM      4  C3A BZF d   1      -0.638   0.431   0.133  0.00  0.00    -0.107 A 
ATOM      5  C4  BZF d   1      -0.967   1.744   0.311  0.00  0.00     0.055 A 
ATOM      6  C5  BZF d   1      -0.064   2.702  -0.026  0.00  0.00    -0.016 A 
ATOM      7  C6  BZF d   1       1.176   2.383  -0.539  0.00  0.00     0.022 A 
ATOM      8  C7  BZF d   1       1.545   1.094  -0.738  0.00  0.00     0.029 A 
ATOM      9  C7A BZF d   1       0.623   0.125  -0.429  0.00  0.00     0.058 A 
ENDROOT
TORSDOF 0
ENDMDL
