MODEL 1
REMARK minimizedAffinity -4.68777466
REMARK minimizedRMSD -1
REMARK  0 active torsions:
REMARK  status: ('A' for Active; 'I' for Inactive)
ROOT
ATOM      1  O1  BZF d   1       1.140  -0.797  -0.148  0.00  0.00    -0.204 OA
ATOM      2  C2  BZF d   1       0.080  -1.657   0.059  0.00  0.00     0.174 A 
ATOM      3  C3  BZF d   1      -1.048  -0.970   0.333  0.00  0.00    -0.012 A 
ATOM      4  C3A BZF d   1      -0.689   0.409   0.204  0.00  0.00    -0.107 A 
ATOM      5  C4  BZF d   1      -1.384   1.577   0.338  0.00  0.00     0.055 A 
ATOM      6  C5  BZF d   1      -0.721   2.757   0.218  0.00  0.00    -0.016 A 
ATOM      7  C6  BZF d   1       0.635   2.807  -0.030  0.00  0.00     0.022 A 
ATOM      8  C7  BZF d   1       1.366   1.675  -0.176  0.00  0.00     0.029 A 
ATOM      9  C7A BZF d   1       0.693   0.481  -0.088  0.00  0.00     0.058 A 
ENDROOT
TORSDOF 0
ENDMDL
