MODEL 1
REMARK minimizedAffinity -3.68139243
REMARK minimizedRMSD -1
REMARK  0 active torsions:
REMARK  status: ('A' for Active; 'I' for Inactive)
ROOT
ATOM      1  O1  BZF d   1       1.404  -0.665  -0.377  0.00  0.00    -0.204 OA
ATOM      2  C2  BZF d   1       0.494  -1.701  -0.296  0.00  0.00     0.174 A 
ATOM      3  C3  BZF d   1      -0.741  -1.232  -0.024  0.00  0.00    -0.012 A 
ATOM      4  C3A BZF d   1      -0.610   0.193  -0.021  0.00  0.00    -0.107 A 
ATOM      5  C4  BZF d   1      -1.493   1.216   0.173  0.00  0.00     0.055 A 
ATOM      6  C5  BZF d   1      -1.031   2.494   0.184  0.00  0.00    -0.016 A 
ATOM      7  C6  BZF d   1       0.307   2.784   0.010  0.00  0.00     0.022 A 
ATOM      8  C7  BZF d   1       1.219   1.803  -0.191  0.00  0.00     0.029 A 
ATOM      9  C7A BZF d   1       0.750   0.512  -0.236  0.00  0.00     0.058 A 
ENDROOT
TORSDOF 0
ENDMDL
