MODEL 1
REMARK minimizedAffinity -2.56653261
REMARK minimizedRMSD -1
REMARK  0 active torsions:
REMARK  status: ('A' for Active; 'I' for Inactive)
ROOT
ATOM      1  O1  BZF d   1      -1.027   2.986   0.785  0.00  0.00    -0.204 OA
ATOM      2  C2  BZF d   1      -0.082   3.700   0.073  0.00  0.00     0.174 A 
ATOM      3  C3  BZF d   1       0.758   2.868  -0.575  0.00  0.00    -0.012 A 
ATOM      4  C3A BZF d   1       0.254   1.553  -0.322  0.00  0.00    -0.107 A 
ATOM      5  C4  BZF d   1       0.651   0.305  -0.710  0.00  0.00     0.055 A 
ATOM      6  C5  BZF d   1      -0.014  -0.779  -0.230  0.00  0.00    -0.016 A 
ATOM      7  C6  BZF d   1      -1.075  -0.651   0.642  0.00  0.00     0.022 A 
ATOM      8  C7  BZF d   1      -1.508   0.566   1.051  0.00  0.00     0.029 A 
ATOM      9  C7A BZF d   1      -0.859   1.664   0.542  0.00  0.00     0.058 A 
ENDROOT
TORSDOF 0
ENDMDL
