MODEL 1
REMARK minimizedAffinity -3.83439279
REMARK minimizedRMSD -1
REMARK  0 active torsions:
REMARK  status: ('A' for Active; 'I' for Inactive)
ROOT
ATOM      1  O1  BZF d   1      -1.173   1.592  -0.073  0.00  0.00    -0.204 OA
ATOM      2  C2  BZF d   1      -0.458   2.763  -0.227  0.00  0.00     0.174 A 
ATOM      3  C3  BZF d   1       0.869   2.526  -0.167  0.00  0.00    -0.012 A 
ATOM      4  C3A BZF d   1       0.991   1.104  -0.055  0.00  0.00    -0.107 A 
ATOM      5  C4  BZF d   1       2.060   0.258   0.028  0.00  0.00     0.055 A 
ATOM      6  C5  BZF d   1       1.837  -1.071   0.201  0.00  0.00    -0.016 A 
ATOM      7  C6  BZF d   1       0.562  -1.587   0.300  0.00  0.00     0.022 A 
ATOM      8  C7  BZF d   1      -0.529  -0.788   0.219  0.00  0.00     0.029 A 
ATOM      9  C7A BZF d   1      -0.309   0.552   0.010  0.00  0.00     0.058 A 
ENDROOT
TORSDOF 0
ENDMDL
