MODEL 1
REMARK minimizedAffinity -3.1599164
REMARK minimizedRMSD -1
REMARK  0 active torsions:
REMARK  status: ('A' for Active; 'I' for Inactive)
ROOT
ATOM      1  O1  BZF d   1       1.202   2.450  -0.306  0.00  0.00    -0.204 OA
ATOM      2  C2  BZF d   1       0.390   3.498   0.079  0.00  0.00     0.174 A 
ATOM      3  C3  BZF d   1      -0.846   3.057   0.392  0.00  0.00    -0.012 A 
ATOM      4  C3A BZF d   1      -0.776   1.632   0.278  0.00  0.00    -0.107 A 
ATOM      5  C4  BZF d   1      -1.681   0.629   0.478  0.00  0.00     0.055 A 
ATOM      6  C5  BZF d   1      -1.316  -0.652   0.209  0.00  0.00    -0.016 A 
ATOM      7  C6  BZF d   1      -0.059  -0.965  -0.265  0.00  0.00     0.022 A 
ATOM      8  C7  BZF d   1       0.874  -0.005  -0.473  0.00  0.00     0.029 A 
ATOM      9  C7A BZF d   1       0.520   1.287  -0.171  0.00  0.00     0.058 A 
ENDROOT
TORSDOF 0
ENDMDL
