MODEL 1
REMARK minimizedAffinity -3.178689
REMARK minimizedRMSD -1
REMARK  0 active torsions:
REMARK  status: ('A' for Active; 'I' for Inactive)
ROOT
ATOM      1  O1  BZF d   1      -0.846   0.284   1.546  0.00  0.00    -0.204 OA
ATOM      2  C2  BZF d   1      -0.658  -0.775   0.679  0.00  0.00     0.174 A 
ATOM      3  C3  BZF d   1      -0.128  -0.352  -0.487  0.00  0.00    -0.012 A 
ATOM      4  C3A BZF d   1       0.111   1.047  -0.305  0.00  0.00    -0.107 A 
ATOM      5  C4  BZF d   1       0.640   2.020  -1.104  0.00  0.00     0.055 A 
ATOM      6  C5  BZF d   1       0.666   3.302  -0.653  0.00  0.00    -0.016 A 
ATOM      7  C6  BZF d   1       0.167   3.647   0.586  0.00  0.00     0.022 A 
ATOM      8  C7  BZF d   1      -0.363   2.715   1.415  0.00  0.00     0.029 A 
ATOM      9  C7A BZF d   1      -0.360   1.414   0.977  0.00  0.00     0.058 A 
ENDROOT
TORSDOF 0
ENDMDL
