MODEL 1
REMARK minimizedAffinity 10.3172073
REMARK minimizedRMSD -1
REMARK  1 active torsions:
REMARK  status: ('A' for Active; 'I' for Inactive)
REMARK    1  A    between atoms: C1_2  and  C2_3 
ROOT
ATOM      1  C2  UNL d   1       3.708  -0.388  -0.071  0.00  0.00    -0.076 A 
ATOM      2  C3  UNL d   1       5.098  -0.375   0.139  0.00  0.00     0.004 A 
ATOM      3  C4  UNL d   1       5.847   0.779  -0.085  0.00  0.00    -0.003 A 
ATOM      4  C5  UNL d   1       5.218   1.939  -0.522  0.00  0.00     0.000 A 
ATOM      5  C6  UNL d   1       3.838   1.949  -0.719  0.00  0.00     0.000 A 
ATOM      6  C7  UNL d   1       3.066   0.799  -0.482  0.00  0.00    -0.073 A 
ATOM      7  C8  UNL d   1       1.581   0.865  -0.716  0.00  0.00     0.078 C 
ENDROOT
BRANCH   1   8
ATOM      8  C1  UNL d   1       2.953  -1.677   0.163  0.00  0.00     0.053 C 
ATOM      9  C   UNL d   1       2.526  -2.345  -1.135  0.00  0.00     0.018 C 
ENDBRANCH   1   8
TORSDOF 1
ENDMDL
