MODEL 1
REMARK minimizedAffinity 8.35135174
REMARK minimizedRMSD -1
REMARK  1 active torsions:
REMARK  status: ('A' for Active; 'I' for Inactive)
REMARK    1  A    between atoms: C1_2  and  C2_3 
ROOT
ATOM      1  C2  UNL d   1       2.252  -2.086  -0.822  0.00  0.00    -0.076 A 
ATOM      2  C3  UNL d   1       2.157  -1.150   0.223  0.00  0.00     0.004 A 
ATOM      3  C4  UNL d   1       2.861   0.052   0.175  0.00  0.00    -0.003 A 
ATOM      4  C5  UNL d   1       3.671   0.338  -0.918  0.00  0.00     0.000 A 
ATOM      5  C6  UNL d   1       3.764  -0.571  -1.971  0.00  0.00     0.000 A 
ATOM      6  C7  UNL d   1       3.048  -1.780  -1.946  0.00  0.00    -0.073 A 
ATOM      7  C8  UNL d   1       3.190  -2.727  -3.107  0.00  0.00     0.078 C 
ENDROOT
BRANCH   1   8
ATOM      8  C1  UNL d   1       1.487  -3.384  -0.702  0.00  0.00     0.053 C 
ATOM      9  C   UNL d   1       0.124  -3.322  -1.375  0.00  0.00     0.018 C 
ENDBRANCH   1   8
TORSDOF 1
ENDMDL
