MODEL 1
REMARK minimizedAffinity 5.62141848
REMARK minimizedRMSD -1
REMARK  1 active torsions:
REMARK  status: ('A' for Active; 'I' for Inactive)
REMARK    1  A    between atoms: C1_2  and  C2_3 
ROOT
ATOM      1  C2  UNL d   1       3.954  -0.730   0.129  0.00  0.00    -0.076 A 
ATOM      2  C3  UNL d   1       3.390   0.190  -0.771  0.00  0.00     0.004 A 
ATOM      3  C4  UNL d   1       4.116   1.293  -1.219  0.00  0.00    -0.003 A 
ATOM      4  C5  UNL d   1       5.418   1.492  -0.774  0.00  0.00     0.000 A 
ATOM      5  C6  UNL d   1       6.000   0.579   0.106  0.00  0.00     0.000 A 
ATOM      6  C7  UNL d   1       5.287  -0.546   0.554  0.00  0.00    -0.073 A 
ATOM      7  C8  UNL d   1       5.961  -1.495   1.507  0.00  0.00     0.078 C 
ENDROOT
BRANCH   1   8
ATOM      8  C1  UNL d   1       3.109  -1.892   0.601  0.00  0.00     0.053 C 
ATOM      9  C   UNL d   1       2.139  -2.378  -0.465  0.00  0.00     0.018 C 
ENDBRANCH   1   8
TORSDOF 1
ENDMDL
