MODEL 1
REMARK minimizedAffinity 5.74043608
REMARK minimizedRMSD -1
REMARK  1 active torsions:
REMARK  status: ('A' for Active; 'I' for Inactive)
REMARK    1  A    between atoms: C1_2  and  C2_3 
ROOT
ATOM      1  C2  UNL d   1       3.582   0.237  -1.087  0.00  0.00    -0.076 A 
ATOM      2  C3  UNL d   1       3.885   0.995   0.058  0.00  0.00     0.004 A 
ATOM      3  C4  UNL d   1       5.083   1.701   0.155  0.00  0.00    -0.003 A 
ATOM      4  C5  UNL d   1       5.998   1.660  -0.892  0.00  0.00     0.000 A 
ATOM      5  C6  UNL d   1       5.706   0.928  -2.042  0.00  0.00     0.000 A 
ATOM      6  C7  UNL d   1       4.496   0.224  -2.163  0.00  0.00    -0.073 A 
ATOM      7  C8  UNL d   1       4.236  -0.555  -3.423  0.00  0.00     0.078 C 
ENDROOT
BRANCH   1   8
ATOM      8  C1  UNL d   1       2.280  -0.530  -1.124  0.00  0.00     0.053 C 
ATOM      9  C   UNL d   1       2.458  -1.999  -0.774  0.00  0.00     0.018 C 
ENDBRANCH   1   8
TORSDOF 1
ENDMDL
