MODEL 1
REMARK minimizedAffinity 8.64837074
REMARK minimizedRMSD -1
REMARK  1 active torsions:
REMARK  status: ('A' for Active; 'I' for Inactive)
REMARK    1  A    between atoms: C1_2  and  C2_3 
ROOT
ATOM      1  C2  UNL d   1       3.887  -0.831   0.018  0.00  0.00    -0.076 A 
ATOM      2  C3  UNL d   1       5.286  -0.774   0.143  0.00  0.00     0.004 A 
ATOM      3  C4  UNL d   1       5.999   0.346  -0.281  0.00  0.00    -0.003 A 
ATOM      4  C5  UNL d   1       5.324   1.428  -0.835  0.00  0.00     0.000 A 
ATOM      5  C6  UNL d   1       3.935   1.396  -0.950  0.00  0.00     0.000 A 
ATOM      6  C7  UNL d   1       3.199   0.281  -0.513  0.00  0.00    -0.073 A 
ATOM      7  C8  UNL d   1       1.703   0.298  -0.666  0.00  0.00     0.078 C 
ENDROOT
BRANCH   1   8
ATOM      8  C1  UNL d   1       3.170  -2.083   0.470  0.00  0.00     0.053 C 
ATOM      9  C   UNL d   1       2.637  -2.902  -0.696  0.00  0.00     0.018 C 
ENDBRANCH   1   8
TORSDOF 1
ENDMDL
