MODEL 1
REMARK minimizedAffinity 9.51015091
REMARK minimizedRMSD -1
REMARK  1 active torsions:
REMARK  status: ('A' for Active; 'I' for Inactive)
REMARK    1  A    between atoms: C1_2  and  C2_3 
ROOT
ATOM      1  C2  UNL d   1       3.618  -0.680   0.103  0.00  0.00    -0.076 A 
ATOM      2  C3  UNL d   1       3.123   0.276  -0.802  0.00  0.00     0.004 A 
ATOM      3  C4  UNL d   1       3.877   1.397  -1.145  0.00  0.00    -0.003 A 
ATOM      4  C5  UNL d   1       5.139   1.580  -0.590  0.00  0.00     0.000 A 
ATOM      5  C6  UNL d   1       5.653   0.633   0.295  0.00  0.00     0.000 A 
ATOM      6  C7  UNL d   1       4.912  -0.511   0.639  0.00  0.00    -0.073 A 
ATOM      7  C8  UNL d   1       5.513  -1.497   1.604  0.00  0.00     0.078 C 
ENDROOT
BRANCH   1   8
ATOM      8  C1  UNL d   1       2.744  -1.862   0.458  0.00  0.00     0.053 C 
ATOM      9  C   UNL d   1       2.039  -2.451  -0.754  0.00  0.00     0.018 C 
ENDBRANCH   1   8
TORSDOF 1
ENDMDL
