MODEL 1
REMARK minimizedAffinity 7.39539003
REMARK minimizedRMSD -1
REMARK  1 active torsions:
REMARK  status: ('A' for Active; 'I' for Inactive)
REMARK    1  A    between atoms: C1_2  and  C2_3 
ROOT
ATOM      1  C2  UNL d   1       3.020  -0.168  -0.902  0.00  0.00    -0.076 A 
ATOM      2  C3  UNL d   1       3.732  -1.380  -0.909  0.00  0.00     0.004 A 
ATOM      3  C4  UNL d   1       3.065  -2.603  -0.940  0.00  0.00    -0.003 A 
ATOM      4  C5  UNL d   1       1.675  -2.635  -0.965  0.00  0.00     0.000 A 
ATOM      5  C6  UNL d   1       0.953  -1.442  -0.977  0.00  0.00     0.000 A 
ATOM      6  C7  UNL d   1       1.610  -0.200  -0.962  0.00  0.00    -0.073 A 
ATOM      7  C8  UNL d   1       0.782   1.056  -0.970  0.00  0.00     0.078 C 
ENDROOT
BRANCH   1   8
ATOM      8  C1  UNL d   1       3.797   1.128  -0.841  0.00  0.00     0.053 C 
ATOM      9  C   UNL d   1       5.259   0.949  -1.217  0.00  0.00     0.018 C 
ENDBRANCH   1   8
TORSDOF 1
ENDMDL
