MODEL 1
REMARK minimizedAffinity -3.02761507
REMARK minimizedRMSD -1
REMARK  1 active torsions:
REMARK  status: ('A' for Active; 'I' for Inactive)
REMARK    1  A    between atoms: N_2  and  C1_3 
ROOT
ATOM      1  C1  UNL d   1       0.189   0.115   0.496  0.00  0.00     0.143 A 
ATOM      2  C2  UNL d   1      -0.124   0.513   1.800  0.00  0.00    -0.057 A 
ATOM      3  C3  UNL d   1       0.295   1.750   2.303  0.00  0.00     0.033 A 
ATOM      4  C4  UNL d   1       1.063   2.603   1.516  0.00  0.00    -0.042 A 
ATOM      5  C5  UNL d   1       1.408   2.218   0.226  0.00  0.00     0.033 A 
ATOM      6  C6  UNL d   1       0.980   0.984  -0.273  0.00  0.00    -0.057 A 
ENDROOT
BRANCH   1   7
ATOM      7  N   UNL d   1      -0.115  -1.143  -0.028  0.00  0.00    -0.732 N 
ATOM      8  C   UNL d   1      -1.360  -1.800   0.307  0.00  0.00     0.284 C 
ATOM      9  H3  UNL d   1       0.152  -1.232  -1.006  0.00  0.00     0.395 HD
ENDBRANCH   1   7
TORSDOF 1
ENDMDL
