MODEL 1
REMARK minimizedAffinity -2.25571036
REMARK minimizedRMSD -1
REMARK  1 active torsions:
REMARK  status: ('A' for Active; 'I' for Inactive)
REMARK    1  A    between atoms: N_2  and  C1_3 
ROOT
ATOM      1  C1  UNL d   1       0.285  -0.290  -0.700  0.00  0.00     0.143 A 
ATOM      2  C2  UNL d   1       1.605  -0.282  -1.163  0.00  0.00    -0.057 A 
ATOM      3  C3  UNL d   1       2.491   0.744  -0.814  0.00  0.00     0.033 A 
ATOM      4  C4  UNL d   1       2.062   1.799  -0.016  0.00  0.00    -0.042 A 
ATOM      5  C5  UNL d   1       0.747   1.825   0.436  0.00  0.00     0.033 A 
ATOM      6  C6  UNL d   1      -0.131   0.794   0.089  0.00  0.00    -0.057 A 
ENDROOT
BRANCH   1   7
ATOM      7  N   UNL d   1      -0.672  -1.230  -1.092  0.00  0.00    -0.732 N 
ATOM      8  C   UNL d   1      -1.457  -1.026  -2.290  0.00  0.00     0.284 C 
ATOM      9  H3  UNL d   1      -0.352  -2.187  -0.962  0.00  0.00     0.395 HD
ENDBRANCH   1   7
TORSDOF 1
ENDMDL
