MODEL 1
REMARK minimizedAffinity -4.33315563
REMARK minimizedRMSD -1
REMARK  1 active torsions:
REMARK  status: ('A' for Active; 'I' for Inactive)
REMARK    1  A    between atoms: N_2  and  C1_3 
ROOT
ATOM      1  C1  UNL d   1       0.262   0.177   0.195  0.00  0.00     0.143 A 
ATOM      2  C2  UNL d   1      -0.493   0.715   1.243  0.00  0.00    -0.057 A 
ATOM      3  C3  UNL d   1      -0.113   1.905   1.876  0.00  0.00     0.033 A 
ATOM      4  C4  UNL d   1       1.049   2.564   1.490  0.00  0.00    -0.042 A 
ATOM      5  C5  UNL d   1       1.828   2.035   0.467  0.00  0.00     0.033 A 
ATOM      6  C6  UNL d   1       1.440   0.850  -0.165  0.00  0.00    -0.057 A 
ENDROOT
BRANCH   1   7
ATOM      7  N   UNL d   1      -0.010  -1.053  -0.408  0.00  0.00    -0.732 N 
ATOM      8  C   UNL d   1      -0.892  -1.135  -1.552  0.00  0.00     0.284 C 
ATOM      9  H3  UNL d   1       0.817  -1.643  -0.478  0.00  0.00     0.395 HD
ENDBRANCH   1   7
TORSDOF 1
ENDMDL
