MODEL 1
REMARK minimizedAffinity -2.55656576
REMARK minimizedRMSD -1
REMARK  1 active torsions:
REMARK  status: ('A' for Active; 'I' for Inactive)
REMARK    1  A    between atoms: N_2  and  C1_3 
ROOT
ATOM      1  C1  UNL d   1       0.780   0.397  -0.336  0.00  0.00     0.143 A 
ATOM      2  C2  UNL d   1       1.621   1.437  -0.745  0.00  0.00    -0.057 A 
ATOM      3  C3  UNL d   1       1.760   2.602   0.018  0.00  0.00     0.033 A 
ATOM      4  C4  UNL d   1       1.034   2.760   1.194  0.00  0.00    -0.042 A 
ATOM      5  C5  UNL d   1       0.173   1.750   1.608  0.00  0.00     0.033 A 
ATOM      6  C6  UNL d   1       0.044   0.586   0.844  0.00  0.00    -0.057 A 
ENDROOT
BRANCH   1   7
ATOM      7  N   UNL d   1       0.525  -0.744  -1.101  0.00  0.00    -0.732 N 
ATOM      8  C   UNL d   1      -0.829  -1.220  -1.286  0.00  0.00     0.284 C 
ATOM      9  H3  UNL d   1       1.097  -0.784  -1.942  0.00  0.00     0.395 HD
ENDBRANCH   1   7
TORSDOF 1
ENDMDL
