MODEL 1
REMARK minimizedAffinity -4.81875229
REMARK minimizedRMSD -1
REMARK  1 active torsions:
REMARK  status: ('A' for Active; 'I' for Inactive)
REMARK    1  A    between atoms: N_2  and  C1_3 
ROOT
ATOM      1  C1  UNL d   1      -0.012  -0.287   0.391  0.00  0.00     0.143 A 
ATOM      2  C2  UNL d   1      -0.622   0.545   1.336  0.00  0.00    -0.057 A 
ATOM      3  C3  UNL d   1      -0.127   1.827   1.600  0.00  0.00     0.033 A 
ATOM      4  C4  UNL d   1       1.008   2.291   0.943  0.00  0.00    -0.042 A 
ATOM      5  C5  UNL d   1       1.645   1.472   0.018  0.00  0.00     0.033 A 
ATOM      6  C6  UNL d   1       1.142   0.194  -0.247  0.00  0.00    -0.057 A 
ENDROOT
BRANCH   1   7
ATOM      7  N   UNL d   1      -0.398  -1.609   0.154  0.00  0.00    -0.732 N 
ATOM      8  C   UNL d   1      -0.710  -2.494   1.256  0.00  0.00     0.284 C 
ATOM      9  H3  UNL d   1      -1.030  -1.694  -0.639  0.00  0.00     0.395 HD
ENDBRANCH   1   7
TORSDOF 1
ENDMDL
