MODEL 1
REMARK minimizedAffinity -1.24455416
REMARK minimizedRMSD -1
REMARK  1 active torsions:
REMARK  status: ('A' for Active; 'I' for Inactive)
REMARK    1  A    between atoms: N_2  and  C1_3 
ROOT
ATOM      1  C1  UNL d   1      -0.081  -0.506  -1.091  0.00  0.00     0.143 A 
ATOM      2  C2  UNL d   1       1.219  -0.941  -1.372  0.00  0.00    -0.057 A 
ATOM      3  C3  UNL d   1       2.332  -0.147  -1.070  0.00  0.00     0.033 A 
ATOM      4  C4  UNL d   1       2.162   1.114  -0.507  0.00  0.00    -0.042 A 
ATOM      5  C5  UNL d   1       0.878   1.577  -0.243  0.00  0.00     0.033 A 
ATOM      6  C6  UNL d   1      -0.229   0.776  -0.540  0.00  0.00    -0.057 A 
ENDROOT
BRANCH   1   7
ATOM      7  N   UNL d   1      -1.232  -1.208  -1.457  0.00  0.00    -0.732 N 
ATOM      8  C   UNL d   1      -1.739  -1.137  -2.810  0.00  0.00     0.284 C 
ATOM      9  H3  UNL d   1      -1.265  -2.139  -1.048  0.00  0.00     0.395 HD
ENDBRANCH   1   7
TORSDOF 1
ENDMDL
