MODEL 1
REMARK minimizedAffinity -4.84615135
REMARK minimizedRMSD -1
REMARK  1 active torsions:
REMARK  status: ('A' for Active; 'I' for Inactive)
REMARK    1  A    between atoms: N_2  and  C1_3 
ROOT
ATOM      1  C1  UNL d   1       0.314   0.049   0.127  0.00  0.00     0.143 A 
ATOM      2  C2  UNL d   1      -0.368   0.542   1.245  0.00  0.00    -0.057 A 
ATOM      3  C3  UNL d   1      -0.080   1.807   1.772  0.00  0.00     0.033 A 
ATOM      4  C4  UNL d   1       0.918   2.593   1.205  0.00  0.00    -0.042 A 
ATOM      5  C5  UNL d   1       1.626   2.113   0.108  0.00  0.00     0.033 A 
ATOM      6  C6  UNL d   1       1.329   0.851  -0.417  0.00  0.00    -0.057 A 
ENDROOT
BRANCH   1   7
ATOM      7  N   UNL d   1       0.142  -1.240  -0.382  0.00  0.00    -0.732 N 
ATOM      8  C   UNL d   1      -0.633  -1.460  -1.584  0.00  0.00     0.284 C 
ATOM      9  H3  UNL d   1       0.993  -1.795  -0.329  0.00  0.00     0.395 HD
ENDBRANCH   1   7
TORSDOF 1
ENDMDL
