MODEL 1
REMARK minimizedAffinity -3.32047987
REMARK minimizedRMSD -1
REMARK  1 active torsions:
REMARK  status: ('A' for Active; 'I' for Inactive)
REMARK    1  A    between atoms: N_2  and  C1_3 
ROOT
ATOM      1  C1  UNL d   1       0.024   0.162   0.442  0.00  0.00     0.143 A 
ATOM      2  C2  UNL d   1      -0.375   0.546   1.727  0.00  0.00    -0.057 A 
ATOM      3  C3  UNL d   1      -0.257   1.873   2.158  0.00  0.00     0.033 A 
ATOM      4  C4  UNL d   1       0.290   2.837   1.318  0.00  0.00    -0.042 A 
ATOM      5  C5  UNL d   1       0.716   2.473   0.046  0.00  0.00     0.033 A 
ATOM      6  C6  UNL d   1       0.590   1.148  -0.381  0.00  0.00    -0.057 A 
ENDROOT
BRANCH   1   7
ATOM      7  N   UNL d   1       0.023  -1.160  -0.010  0.00  0.00    -0.732 N 
ATOM      8  C   UNL d   1      -0.687  -1.526  -1.216  0.00  0.00     0.284 C 
ATOM      9  H3  UNL d   1       0.934  -1.604   0.087  0.00  0.00     0.395 HD
ENDBRANCH   1   7
TORSDOF 1
ENDMDL
