MODEL 1
REMARK minimizedAffinity -2.91309619
REMARK minimizedRMSD -1
REMARK  1 active torsions:
REMARK  status: ('A' for Active; 'I' for Inactive)
REMARK    1  A    between atoms: N_2  and  C1_3 
ROOT
ATOM      1  C1  UNL d   1      -1.204  -2.818  -0.004  0.00  0.00     0.143 A 
ATOM      2  C2  UNL d   1      -0.410  -1.791  -0.527  0.00  0.00    -0.057 A 
ATOM      3  C3  UNL d   1      -0.685  -1.226  -1.778  0.00  0.00     0.033 A 
ATOM      4  C4  UNL d   1      -1.744  -1.700  -2.544  0.00  0.00    -0.042 A 
ATOM      5  C5  UNL d   1      -2.531  -2.737  -2.056  0.00  0.00     0.033 A 
ATOM      6  C6  UNL d   1      -2.256  -3.292  -0.803  0.00  0.00    -0.057 A 
ENDROOT
BRANCH   1   7
ATOM      7  N   UNL d   1      -0.923  -3.487   1.190  0.00  0.00    -0.732 N 
ATOM      8  C   UNL d   1      -1.444  -2.998   2.448  0.00  0.00     0.284 C 
ATOM      9  H3  UNL d   1      -0.965  -4.498   1.087  0.00  0.00     0.395 HD
ENDBRANCH   1   7
TORSDOF 1
ENDMDL
