MODEL 1
REMARK minimizedAffinity -3.96347308
REMARK minimizedRMSD -1
REMARK  1 active torsions:
REMARK  status: ('A' for Active; 'I' for Inactive)
REMARK    1  A    between atoms: N_2  and  C1_3 
ROOT
ATOM      1  C1  UNL d   1      -2.483  -3.330   0.388  0.00  0.00     0.143 A 
ATOM      2  C2  UNL d   1      -1.692  -4.483   0.326  0.00  0.00    -0.057 A 
ATOM      3  C3  UNL d   1      -0.801  -4.808   1.355  0.00  0.00     0.033 A 
ATOM      4  C4  UNL d   1      -0.663  -3.967   2.455  0.00  0.00    -0.042 A 
ATOM      5  C5  UNL d   1      -1.420  -2.804   2.526  0.00  0.00     0.033 A 
ATOM      6  C6  UNL d   1      -2.314  -2.488   1.498  0.00  0.00    -0.057 A 
ENDROOT
BRANCH   1   7
ATOM      7  N   UNL d   1      -3.316  -2.902  -0.649  0.00  0.00    -0.732 N 
ATOM      8  C   UNL d   1      -2.770  -2.204  -1.793  0.00  0.00     0.284 C 
ATOM      9  H3  UNL d   1      -4.030  -3.588  -0.882  0.00  0.00     0.395 HD
ENDBRANCH   1   7
TORSDOF 1
ENDMDL
