MODEL 1
REMARK minimizedAffinity -2.54607606
REMARK minimizedRMSD -1
REMARK  2 active torsions:
REMARK  status: ('A' for Active; 'I' for Inactive)
REMARK    1  A    between atoms: C2'_3  and  C1'_4 
REMARK    2  A    between atoms: C1'_4  and  C1_5 
ROOT
ATOM      1  C1  I4B d   1      -0.598   0.366  -0.077  0.00  0.00    -0.075 A 
ATOM      2  C2  I4B d   1       0.206  -0.597   0.478  0.00  0.00     0.003 A 
ATOM      3  C3  I4B d   1       0.174  -0.836   1.873  0.00  0.00     0.002 A 
ATOM      4  C4  I4B d   1      -0.635  -0.059   2.677  0.00  0.00    -0.004 A 
ATOM      5  C5  I4B d   1      -1.467   0.902   2.110  0.00  0.00     0.002 A 
ATOM      6  C6  I4B d   1      -1.458   1.108   0.722  0.00  0.00     0.003 A 
ENDROOT
BRANCH   1   7
ATOM      7  C1' I4B d   1      -0.515   0.615  -1.550  0.00  0.00     0.060 C 
BRANCH   7   8
ATOM      8  C2' I4B d   1      -0.832   2.076  -1.796  0.00  0.00    -0.013 C 
ATOM      9  C4' I4B d   1       0.120   2.680  -2.794  0.00  0.00     0.013 C 
ATOM     10  C3' I4B d   1      -2.250   2.167  -2.276  0.00  0.00     0.013 C 
ENDBRANCH   7   8
ENDBRANCH   1   7
TORSDOF 2
ENDMDL
