MODEL 1
REMARK minimizedAffinity -1.28089941
REMARK minimizedRMSD -1
REMARK  2 active torsions:
REMARK  status: ('A' for Active; 'I' for Inactive)
REMARK    1  A    between atoms: C2'_3  and  C1'_4 
REMARK    2  A    between atoms: C1'_4  and  C1_5 
ROOT
ATOM      1  C1  I4B d   1      -0.794   1.551  -2.216  0.00  0.00    -0.075 A 
ATOM      2  C2  I4B d   1      -1.901   2.325  -2.460  0.00  0.00     0.003 A 
ATOM      3  C3  I4B d   1      -1.754   3.691  -2.803  0.00  0.00     0.002 A 
ATOM      4  C4  I4B d   1      -0.493   4.250  -2.841  0.00  0.00    -0.004 A 
ATOM      5  C5  I4B d   1       0.629   3.458  -2.616  0.00  0.00     0.002 A 
ATOM      6  C6  I4B d   1       0.479   2.097  -2.313  0.00  0.00     0.003 A 
ENDROOT
BRANCH   1   7
ATOM      7  C1' I4B d   1      -0.987   0.120  -1.823  0.00  0.00     0.060 C 
BRANCH   7   8
ATOM      8  C2' I4B d   1      -0.154  -0.141  -0.585  0.00  0.00    -0.013 C 
ATOM      9  C4' I4B d   1      -1.008  -0.636   0.552  0.00  0.00     0.013 C 
ATOM     10  C3' I4B d   1       0.905  -1.141  -0.942  0.00  0.00     0.013 C 
ENDBRANCH   7   8
ENDBRANCH   1   7
TORSDOF 2
ENDMDL
