MODEL 1
REMARK minimizedAffinity -1.84709406
REMARK minimizedRMSD -1
REMARK  2 active torsions:
REMARK  status: ('A' for Active; 'I' for Inactive)
REMARK    1  A    between atoms: C2'_3  and  C1'_4 
REMARK    2  A    between atoms: C1'_4  and  C1_5 
ROOT
ATOM      1  C1  I4B d   1      -0.801   0.616  -0.911  0.00  0.00    -0.075 A 
ATOM      2  C2  I4B d   1       0.225  -0.289  -1.015  0.00  0.00     0.003 A 
ATOM      3  C3  I4B d   1       0.641  -1.029   0.119  0.00  0.00     0.002 A 
ATOM      4  C4  I4B d   1       0.040  -0.797   1.339  0.00  0.00    -0.004 A 
ATOM      5  C5  I4B d   1      -1.016   0.104   1.438  0.00  0.00     0.002 A 
ATOM      6  C6  I4B d   1      -1.448   0.806   0.303  0.00  0.00     0.003 A 
ENDROOT
BRANCH   1   7
ATOM      7  C1' I4B d   1      -1.193   1.404  -2.121  0.00  0.00     0.060 C 
BRANCH   7   8
ATOM      8  C2' I4B d   1      -0.981   2.872  -1.810  0.00  0.00    -0.013 C 
ATOM      9  C4' I4B d   1       0.197   3.425  -2.567  0.00  0.00     0.013 C 
ATOM     10  C3' I4B d   1      -2.242   3.605  -2.159  0.00  0.00     0.013 C 
ENDBRANCH   7   8
ENDBRANCH   1   7
TORSDOF 2
ENDMDL
