MODEL 1
REMARK minimizedAffinity -4.84679842
REMARK minimizedRMSD -1
REMARK  2 active torsions:
REMARK  status: ('A' for Active; 'I' for Inactive)
REMARK    1  A    between atoms: C2'_3  and  C1'_4 
REMARK    2  A    between atoms: C1'_4  and  C1_5 
ROOT
ATOM      1  C1  I4B d   1      -0.856   0.783  -1.022  0.00  0.00    -0.075 A 
ATOM      2  C2  I4B d   1      -1.378   1.459   0.052  0.00  0.00     0.003 A 
ATOM      3  C3  I4B d   1      -1.232   0.939   1.361  0.00  0.00     0.002 A 
ATOM      4  C4  I4B d   1      -0.606  -0.277   1.544  0.00  0.00    -0.004 A 
ATOM      5  C5  I4B d   1      -0.058  -0.950   0.456  0.00  0.00     0.002 A 
ATOM      6  C6  I4B d   1      -0.173  -0.411  -0.834  0.00  0.00     0.003 A 
ENDROOT
BRANCH   1   7
ATOM      7  C1' I4B d   1      -1.057   1.344  -2.394  0.00  0.00     0.060 C 
BRANCH   7   8
ATOM      8  C2' I4B d   1      -0.681   2.811  -2.357  0.00  0.00    -0.013 C 
ATOM      9  C4' I4B d   1       0.498   3.094  -3.251  0.00  0.00     0.013 C 
ATOM     10  C3' I4B d   1      -1.881   3.608  -2.776  0.00  0.00     0.013 C 
ENDBRANCH   7   8
ENDBRANCH   1   7
TORSDOF 2
ENDMDL
