MODEL 1
REMARK minimizedAffinity -4.25280666
REMARK minimizedRMSD -1
REMARK  2 active torsions:
REMARK  status: ('A' for Active; 'I' for Inactive)
REMARK    1  A    between atoms: C2'_3  and  C1'_4 
REMARK    2  A    between atoms: C1'_4  and  C1_5 
ROOT
ATOM      1  C1  I4B d   1      -0.088  -0.192  -0.351  0.00  0.00    -0.075 A 
ATOM      2  C2  I4B d   1      -0.977  -0.005   0.678  0.00  0.00     0.003 A 
ATOM      3  C3  I4B d   1      -0.619  -0.356   2.002  0.00  0.00     0.002 A 
ATOM      4  C4  I4B d   1       0.610  -0.935   2.243  0.00  0.00    -0.004 A 
ATOM      5  C5  I4B d   1       1.519  -1.104   1.202  0.00  0.00     0.002 A 
ATOM      6  C6  I4B d   1       1.173  -0.719  -0.101  0.00  0.00     0.003 A 
ENDROOT
BRANCH   1   7
ATOM      7  C1' I4B d   1      -0.511   0.159  -1.742  0.00  0.00     0.060 C 
BRANCH   7   8
ATOM      8  C2' I4B d   1      -0.837   1.638  -1.771  0.00  0.00    -0.013 C 
ATOM      9  C4' I4B d   1       0.340   2.447  -2.248  0.00  0.00     0.013 C 
ATOM     10  C3' I4B d   1      -2.025   1.833  -2.665  0.00  0.00     0.013 C 
ENDBRANCH   7   8
ENDBRANCH   1   7
TORSDOF 2
ENDMDL
