MODEL 1
REMARK minimizedAffinity -1.37728786
REMARK minimizedRMSD -1
REMARK  2 active torsions:
REMARK  status: ('A' for Active; 'I' for Inactive)
REMARK    1  A    between atoms: C2'_3  and  C1'_4 
REMARK    2  A    between atoms: C1'_4  and  C1_5 
ROOT
ATOM      1  C1  I4B d   1       0.109  -0.142  -0.922  0.00  0.00    -0.075 A 
ATOM      2  C2  I4B d   1      -0.858   0.180  -0.002  0.00  0.00     0.003 A 
ATOM      3  C3  I4B d   1      -0.741  -0.262   1.338  0.00  0.00     0.002 A 
ATOM      4  C4  I4B d   1       0.324  -1.060   1.700  0.00  0.00    -0.004 A 
ATOM      5  C5  I4B d   1       1.315  -1.366   0.772  0.00  0.00     0.002 A 
ATOM      6  C6  I4B d   1       1.213  -0.894  -0.545  0.00  0.00     0.003 A 
ENDROOT
BRANCH   1   7
ATOM      7  C1' I4B d   1      -0.063   0.314  -2.336  0.00  0.00     0.060 C 
BRANCH   7   8
ATOM      8  C2' I4B d   1      -0.550   1.749  -2.309  0.00  0.00    -0.013 C 
ATOM      9  C4' I4B d   1       0.337   2.641  -3.136  0.00  0.00     0.013 C 
ATOM     10  C3' I4B d   1      -1.961   1.768  -2.815  0.00  0.00     0.013 C 
ENDBRANCH   7   8
ENDBRANCH   1   7
TORSDOF 2
ENDMDL
