MODEL 1
REMARK minimizedAffinity -5.11189079
REMARK minimizedRMSD -1
REMARK  2 active torsions:
REMARK  status: ('A' for Active; 'I' for Inactive)
REMARK    1  A    between atoms: C2'_3  and  C1'_4 
REMARK    2  A    between atoms: C1'_4  and  C1_5 
ROOT
ATOM      1  C1  I4B d   1       0.420   1.946  -1.371  0.00  0.00    -0.075 A 
ATOM      2  C2  I4B d   1      -0.650   1.512  -2.113  0.00  0.00     0.003 A 
ATOM      3  C3  I4B d   1      -1.417   2.434  -2.864  0.00  0.00     0.002 A 
ATOM      4  C4  I4B d   1      -1.113   3.778  -2.806  0.00  0.00    -0.004 A 
ATOM      5  C5  I4B d   1      -0.014   4.214  -2.071  0.00  0.00     0.002 A 
ATOM      6  C6  I4B d   1       0.765   3.291  -1.359  0.00  0.00     0.003 A 
ENDROOT
BRANCH   1   7
ATOM      7  C1' I4B d   1       1.189   0.950  -0.562  0.00  0.00     0.060 C 
BRANCH   7   8
ATOM      8  C2' I4B d   1       0.562  -0.412  -0.781  0.00  0.00    -0.013 C 
ATOM      9  C4' I4B d   1       1.608  -1.452  -1.084  0.00  0.00     0.013 C 
ATOM     10  C3' I4B d   1      -0.214  -0.768   0.452  0.00  0.00     0.013 C 
ENDBRANCH   7   8
ENDBRANCH   1   7
TORSDOF 2
ENDMDL
