MODEL 1
REMARK minimizedAffinity -5.24923754
REMARK minimizedRMSD -1
REMARK  2 active torsions:
REMARK  status: ('A' for Active; 'I' for Inactive)
REMARK    1  A    between atoms: C2'_3  and  C1'_4 
REMARK    2  A    between atoms: C1'_4  and  C1_5 
ROOT
ATOM      1  C1  I4B d   1      -0.293   0.939  -2.022  0.00  0.00    -0.075 A 
ATOM      2  C2  I4B d   1      -1.579   1.414  -2.092  0.00  0.00     0.003 A 
ATOM      3  C3  I4B d   1      -1.825   2.744  -2.510  0.00  0.00     0.002 A 
ATOM      4  C4  I4B d   1      -0.761   3.574  -2.798  0.00  0.00    -0.004 A 
ATOM      5  C5  I4B d   1       0.541   3.084  -2.748  0.00  0.00     0.002 A 
ATOM      6  C6  I4B d   1       0.776   1.754  -2.370  0.00  0.00     0.003 A 
ENDROOT
BRANCH   1   7
ATOM      7  C1' I4B d   1      -0.067  -0.461  -1.545  0.00  0.00     0.060 C 
BRANCH   7   8
ATOM      8  C2' I4B d   1       0.522  -0.390  -0.151  0.00  0.00    -0.013 C 
ATOM      9  C4' I4B d   1      -0.548  -0.515   0.901  0.00  0.00     0.013 C 
ATOM     10  C3' I4B d   1       1.539  -1.485  -0.022  0.00  0.00     0.013 C 
ENDBRANCH   7   8
ENDBRANCH   1   7
TORSDOF 2
ENDMDL
