MODEL 1
REMARK minimizedAffinity -3.70205855
REMARK minimizedRMSD -1
REMARK  2 active torsions:
REMARK  status: ('A' for Active; 'I' for Inactive)
REMARK    1  A    between atoms: C2'_3  and  C1'_4 
REMARK    2  A    between atoms: C1'_4  and  C1_5 
ROOT
ATOM      1  C1  I4B d   1      -0.785   1.036  -1.728  0.00  0.00    -0.075 A 
ATOM      2  C2  I4B d   1       0.428   1.659  -1.885  0.00  0.00     0.003 A 
ATOM      3  C3  I4B d   1       0.500   2.936  -2.491  0.00  0.00     0.002 A 
ATOM      4  C4  I4B d   1      -0.652   3.528  -2.968  0.00  0.00    -0.004 A 
ATOM      5  C5  I4B d   1      -1.883   2.905  -2.788  0.00  0.00     0.002 A 
ATOM      6  C6  I4B d   1      -1.953   1.657  -2.153  0.00  0.00     0.003 A 
ENDROOT
BRANCH   1   7
ATOM      7  C1' I4B d   1      -0.821  -0.328  -1.114  0.00  0.00     0.060 C 
BRANCH   7   8
ATOM      8  C2' I4B d   1       0.327  -0.427  -0.130  0.00  0.00    -0.013 C 
ATOM      9  C4' I4B d   1      -0.158  -0.839   1.235  0.00  0.00     0.013 C 
ATOM     10  C3' I4B d   1       1.318  -1.412  -0.673  0.00  0.00     0.013 C 
ENDBRANCH   7   8
ENDBRANCH   1   7
TORSDOF 2
ENDMDL
