MODEL 1
REMARK minimizedAffinity -3.98622036
REMARK minimizedRMSD -1
REMARK  0 active torsions:
REMARK  status: ('A' for Active; 'I' for Inactive)
ROOT
ATOM      1  C2' OXE d   1      -0.605  -0.805   2.783  0.00  0.00     0.078 C 
ATOM      2  C1' OXE d   1      -2.328   0.017   0.724  0.00  0.00     0.078 C 
ATOM      3  C1  OXE d   1      -0.858   0.321   0.576  0.00  0.00    -0.078 A 
ATOM      4  C2  OXE d   1      -0.029  -0.043   1.609  0.00  0.00    -0.078 A 
ATOM      5  C3  OXE d   1       1.343   0.165   1.499  0.00  0.00     0.003 A 
ATOM      6  C4  OXE d   1       1.866   0.880   0.414  0.00  0.00    -0.002 A 
ATOM      7  C5  OXE d   1       1.034   1.295  -0.630  0.00  0.00    -0.002 A 
ATOM      8  C6  OXE d   1      -0.321   0.987  -0.586  0.00  0.00     0.003 A 
ENDROOT
TORSDOF 0
ENDMDL
