MODEL 1
REMARK minimizedAffinity -5.63405848
REMARK minimizedRMSD -1
REMARK  0 active torsions:
REMARK  status: ('A' for Active; 'I' for Inactive)
ROOT
ATOM      1  C2' OXE d   1      -0.050   0.733  -0.963  0.00  0.00     0.078 C 
ATOM      2  C1' OXE d   1      -2.493  -0.183   0.074  0.00  0.00     0.078 C 
ATOM      3  C1  OXE d   1      -1.285  -0.227   0.976  0.00  0.00    -0.078 A 
ATOM      4  C2  OXE d   1      -0.084   0.180   0.445  0.00  0.00    -0.078 A 
ATOM      5  C3  OXE d   1       1.050   0.211   1.251  0.00  0.00     0.003 A 
ATOM      6  C4  OXE d   1       1.013  -0.312   2.549  0.00  0.00    -0.002 A 
ATOM      7  C5  OXE d   1      -0.191  -0.769   3.096  0.00  0.00    -0.002 A 
ATOM      8  C6  OXE d   1      -1.355  -0.694   2.339  0.00  0.00     0.003 A 
ENDROOT
TORSDOF 0
ENDMDL
