MODEL 1
REMARK minimizedAffinity -5.32309055
REMARK minimizedRMSD -1
REMARK  0 active torsions:
REMARK  status: ('A' for Active; 'I' for Inactive)
ROOT
ATOM      1  C2' OXE d   1      -1.011  -0.757   2.606  0.00  0.00     0.078 C 
ATOM      2  C1' OXE d   1      -2.714  -0.510   0.388  0.00  0.00     0.078 C 
ATOM      3  C1  OXE d   1      -1.295  -0.019   0.244  0.00  0.00    -0.078 A 
ATOM      4  C2  OXE d   1      -0.482  -0.101   1.348  0.00  0.00    -0.078 A 
ATOM      5  C3  OXE d   1       0.851   0.287   1.254  0.00  0.00     0.003 A 
ATOM      6  C4  OXE d   1       1.329   0.902   0.091  0.00  0.00    -0.002 A 
ATOM      7  C5  OXE d   1       0.507   1.032  -1.033  0.00  0.00    -0.002 A 
ATOM      8  C6  OXE d   1      -0.793   0.539  -0.988  0.00  0.00     0.003 A 
ENDROOT
TORSDOF 0
ENDMDL
