MODEL 1
REMARK minimizedAffinity -2.80892301
REMARK minimizedRMSD -1
REMARK  0 active torsions:
REMARK  status: ('A' for Active; 'I' for Inactive)
ROOT
ATOM      1  C2' OXE d   1      -1.624   0.922  -1.725  0.00  0.00     0.078 C 
ATOM      2  C1' OXE d   1       0.948   0.023  -2.401  0.00  0.00     0.078 C 
ATOM      3  C1  OXE d   1       0.584   0.078  -0.938  0.00  0.00    -0.078 A 
ATOM      4  C2  OXE d   1      -0.660   0.564  -0.614  0.00  0.00    -0.078 A 
ATOM      5  C3  OXE d   1      -1.067   0.584   0.717  0.00  0.00     0.003 A 
ATOM      6  C4  OXE d   1      -0.166   0.260   1.738  0.00  0.00    -0.002 A 
ATOM      7  C5  OXE d   1       1.120  -0.199   1.432  0.00  0.00    -0.002 A 
ATOM      8  C6  OXE d   1       1.495  -0.336   0.100  0.00  0.00     0.003 A 
ENDROOT
TORSDOF 0
ENDMDL
