MODEL 1
REMARK minimizedAffinity -6.28657532
REMARK minimizedRMSD -1
REMARK  0 active torsions:
REMARK  status: ('A' for Active; 'I' for Inactive)
ROOT
ATOM      1  C2' OXE d   1       2.247   0.407   1.066  0.00  0.00     0.078 C 
ATOM      2  C1' OXE d   1       0.231   0.357  -0.886  0.00  0.00     0.078 C 
ATOM      3  C1  OXE d   1      -0.161   0.050   0.537  0.00  0.00    -0.078 A 
ATOM      4  C2  OXE d   1       0.840   0.031   1.478  0.00  0.00    -0.078 A 
ATOM      5  C3  OXE d   1       0.525  -0.193   2.816  0.00  0.00     0.003 A 
ATOM      6  C4  OXE d   1      -0.777  -0.550   3.187  0.00  0.00    -0.002 A 
ATOM      7  C5  OXE d   1      -1.804  -0.576   2.237  0.00  0.00    -0.002 A 
ATOM      8  C6  OXE d   1      -1.522  -0.237   0.919  0.00  0.00     0.003 A 
ENDROOT
TORSDOF 0
ENDMDL
