MODEL 1
REMARK minimizedAffinity -4.86557341
REMARK minimizedRMSD -1
REMARK  0 active torsions:
REMARK  status: ('A' for Active; 'I' for Inactive)
ROOT
ATOM      1  C2' OXE d   1       1.459  -0.104   1.258  0.00  0.00     0.078 C 
ATOM      2  C1' OXE d   1      -0.853  -0.794   2.692  0.00  0.00     0.078 C 
ATOM      3  C1  OXE d   1      -1.029  -0.082   1.374  0.00  0.00    -0.078 A 
ATOM      4  C2  OXE d   1       0.109   0.293   0.702  0.00  0.00    -0.078 A 
ATOM      5  C3  OXE d   1       0.003   0.905  -0.544  0.00  0.00     0.003 A 
ATOM      6  C4  OXE d   1      -1.249   1.277  -1.047  0.00  0.00    -0.002 A 
ATOM      7  C5  OXE d   1      -2.419   0.940  -0.359  0.00  0.00    -0.002 A 
ATOM      8  C6  OXE d   1      -2.329   0.224   0.830  0.00  0.00     0.003 A 
ENDROOT
TORSDOF 0
ENDMDL
