MODEL 1
REMARK minimizedAffinity -5.66880846
REMARK minimizedRMSD -1
REMARK  0 active torsions:
REMARK  status: ('A' for Active; 'I' for Inactive)
ROOT
ATOM      1  C2' OXE d   1      -0.402  -0.214  -0.781  0.00  0.00     0.078 C 
ATOM      2  C1' OXE d   1      -3.080   0.312  -0.126  0.00  0.00     0.078 C 
ATOM      3  C1  OXE d   1      -2.121   0.035   1.004  0.00  0.00    -0.078 A 
ATOM      4  C2  OXE d   1      -0.823  -0.268   0.672  0.00  0.00    -0.078 A 
ATOM      5  C3  OXE d   1       0.115  -0.479   1.678  0.00  0.00     0.003 A 
ATOM      6  C4  OXE d   1      -0.284  -0.537   3.019  0.00  0.00    -0.002 A 
ATOM      7  C5  OXE d   1      -1.610  -0.271   3.377  0.00  0.00    -0.002 A 
ATOM      8  C6  OXE d   1      -2.530   0.058   2.387  0.00  0.00     0.003 A 
ENDROOT
TORSDOF 0
ENDMDL
