MODEL 1
REMARK minimizedAffinity -2.36260676
REMARK minimizedRMSD -1
REMARK  0 active torsions:
REMARK  status: ('A' for Active; 'I' for Inactive)
ROOT
ATOM      1  C2' OXE d   1       2.581   0.691   1.147  0.00  0.00     0.078 C 
ATOM      2  C1' OXE d   1       0.460   0.011   2.855  0.00  0.00     0.078 C 
ATOM      3  C1  OXE d   1       0.154   0.185   1.388  0.00  0.00    -0.078 A 
ATOM      4  C2  OXE d   1       1.188   0.563   0.567  0.00  0.00    -0.078 A 
ATOM      5  C3  OXE d   1       0.973   0.685  -0.802  0.00  0.00     0.003 A 
ATOM      6  C4  OXE d   1      -0.320   0.575  -1.329  0.00  0.00    -0.002 A 
ATOM      7  C5  OXE d   1      -1.395   0.229  -0.504  0.00  0.00    -0.002 A 
ATOM      8  C6  OXE d   1      -1.168  -0.011   0.847  0.00  0.00     0.003 A 
ENDROOT
TORSDOF 0
ENDMDL
