MODEL 1
REMARK minimizedAffinity -5.5849247
REMARK minimizedRMSD -1
REMARK  0 active torsions:
REMARK  status: ('A' for Active; 'I' for Inactive)
ROOT
ATOM      1  C2' OXE d   1      -3.252  -0.183   1.499  0.00  0.00     0.078 C 
ATOM      2  C1' OXE d   1      -1.110  -0.459   3.292  0.00  0.00     0.078 C 
ATOM      3  C1  OXE d   1      -0.790  -0.084   1.866  0.00  0.00    -0.078 A 
ATOM      4  C2  OXE d   1      -1.840   0.003   0.985  0.00  0.00    -0.078 A 
ATOM      5  C3  OXE d   1      -1.606   0.399  -0.329  0.00  0.00     0.003 A 
ATOM      6  C4  OXE d   1      -0.297   0.559  -0.799  0.00  0.00    -0.002 A 
ATOM      7  C5  OXE d   1       0.790   0.436   0.073  0.00  0.00    -0.002 A 
ATOM      8  C6  OXE d   1       0.558   0.157   1.415  0.00  0.00     0.003 A 
ENDROOT
TORSDOF 0
ENDMDL
