MODEL 1
REMARK minimizedAffinity -5.32858849
REMARK minimizedRMSD -1
REMARK  0 active torsions:
REMARK  status: ('A' for Active; 'I' for Inactive)
ROOT
ATOM      1  C2' OXE d   1       0.797  -0.486   2.354  0.00  0.00     0.078 C 
ATOM      2  C1' OXE d   1       0.344   0.326  -0.295  0.00  0.00     0.078 C 
ATOM      3  C1  OXE d   1      -0.825   0.349   0.658  0.00  0.00    -0.078 A 
ATOM      4  C2  OXE d   1      -0.605  -0.094   1.939  0.00  0.00    -0.078 A 
ATOM      5  C3  OXE d   1      -1.636  -0.043   2.873  0.00  0.00     0.003 A 
ATOM      6  C4  OXE d   1      -2.932   0.311   2.479  0.00  0.00    -0.002 A 
ATOM      7  C5  OXE d   1      -3.187   0.728   1.168  0.00  0.00    -0.002 A 
ATOM      8  C6  OXE d   1      -2.138   0.793   0.258  0.00  0.00     0.003 A 
ENDROOT
TORSDOF 0
ENDMDL
