MODEL 1
REMARK minimizedAffinity -6.52544975
REMARK minimizedRMSD -1
REMARK  0 active torsions:
REMARK  status: ('A' for Active; 'I' for Inactive)
ROOT
ATOM      1  C2' OXE d   1       0.127   0.506  -0.952  0.00  0.00     0.078 C 
ATOM      2  C1' OXE d   1       1.785  -0.206   1.198  0.00  0.00     0.078 C 
ATOM      3  C1  OXE d   1       0.303  -0.093   1.459  0.00  0.00    -0.078 A 
ATOM      4  C2  OXE d   1      -0.495   0.301   0.412  0.00  0.00    -0.078 A 
ATOM      5  C3  OXE d   1      -1.875   0.367   0.584  0.00  0.00     0.003 A 
ATOM      6  C4  OXE d   1      -2.440   0.185   1.852  0.00  0.00    -0.002 A 
ATOM      7  C5  OXE d   1      -1.641  -0.178   2.941  0.00  0.00    -0.002 A 
ATOM      8  C6  OXE d   1      -0.276  -0.363   2.752  0.00  0.00     0.003 A 
ENDROOT
TORSDOF 0
ENDMDL
