MODEL 1
REMARK minimizedAffinity -2.4820857
REMARK minimizedRMSD -1
REMARK  0 active torsions:
REMARK  status: ('A' for Active; 'I' for Inactive)
ROOT
ATOM      1  C2' OXE d   1      -2.700  -0.921   0.899  0.00  0.00     0.078 C 
ATOM      2  C1' OXE d   1      -0.799  -1.002   2.963  0.00  0.00     0.078 C 
ATOM      3  C1  OXE d   1      -0.387  -0.383   1.651  0.00  0.00    -0.078 A 
ATOM      4  C2  OXE d   1      -1.308  -0.390   0.631  0.00  0.00    -0.078 A 
ATOM      5  C3  OXE d   1      -0.998   0.217  -0.583  0.00  0.00     0.003 A 
ATOM      6  C4  OXE d   1       0.295   0.697  -0.825  0.00  0.00    -0.002 A 
ATOM      7  C5  OXE d   1       1.261   0.677   0.187  0.00  0.00    -0.002 A 
ATOM      8  C6  OXE d   1       0.924   0.181   1.441  0.00  0.00     0.003 A 
ENDROOT
TORSDOF 0
ENDMDL
