MODEL 1
REMARK minimizedAffinity -0.711494386
REMARK minimizedRMSD -1
REMARK  0 active torsions:
REMARK  status: ('A' for Active; 'I' for Inactive)
ROOT
ATOM      1  C2' OXE d   1       1.860   0.596   0.731  0.00  0.00     0.078 C 
ATOM      2  C1' OXE d   1      -0.367   0.427   2.432  0.00  0.00     0.078 C 
ATOM      3  C1  OXE d   1      -0.621   0.573   0.953  0.00  0.00    -0.078 A 
ATOM      4  C2  OXE d   1       0.474   0.702   0.133  0.00  0.00    -0.078 A 
ATOM      5  C3  OXE d   1       0.297   0.785  -1.245  0.00  0.00     0.003 A 
ATOM      6  C4  OXE d   1      -0.989   0.892  -1.790  0.00  0.00    -0.002 A 
ATOM      7  C5  OXE d   1      -2.117   0.803  -0.969  0.00  0.00    -0.002 A 
ATOM      8  C6  OXE d   1      -1.952   0.601   0.397  0.00  0.00     0.003 A 
ENDROOT
TORSDOF 0
ENDMDL
