MODEL 1
REMARK minimizedAffinity -5.2565546
REMARK minimizedRMSD -1
REMARK  0 active torsions:
REMARK  status: ('A' for Active; 'I' for Inactive)
ROOT
ATOM      1  C2' OXE d   1       1.914   0.149   0.756  0.00  0.00     0.078 C 
ATOM      2  C1' OXE d   1      -0.225  -0.195  -1.028  0.00  0.00     0.078 C 
ATOM      3  C1  OXE d   1      -0.524  -0.260   0.449  0.00  0.00    -0.078 A 
ATOM      4  C2  OXE d   1       0.537  -0.137   1.314  0.00  0.00    -0.078 A 
ATOM      5  C3  OXE d   1       0.310  -0.134   2.687  0.00  0.00     0.003 A 
ATOM      6  C4  OXE d   1      -0.965  -0.409   3.195  0.00  0.00    -0.002 A 
ATOM      7  C5  OXE d   1      -2.053  -0.577   2.331  0.00  0.00    -0.002 A 
ATOM      8  C6  OXE d   1      -1.857  -0.464   0.959  0.00  0.00     0.003 A 
ENDROOT
TORSDOF 0
ENDMDL
