MODEL 1
REMARK minimizedAffinity -1.03863466
REMARK minimizedRMSD -1
REMARK  0 active torsions:
REMARK  status: ('A' for Active; 'I' for Inactive)
ROOT
ATOM      1  C2' OXE d   1       1.126   1.437   1.098  0.00  0.00     0.078 C 
ATOM      2  C1' OXE d   1       0.369  -0.026  -1.175  0.00  0.00     0.078 C 
ATOM      3  C1  OXE d   1      -0.234  -0.422   0.149  0.00  0.00    -0.078 A 
ATOM      4  C2  OXE d   1       0.177   0.270   1.263  0.00  0.00    -0.078 A 
ATOM      5  C3  OXE d   1      -0.390  -0.018   2.502  0.00  0.00     0.003 A 
ATOM      6  C4  OXE d   1      -1.259  -1.106   2.647  0.00  0.00    -0.002 A 
ATOM      7  C5  OXE d   1      -1.661  -1.849   1.532  0.00  0.00    -0.002 A 
ATOM      8  C6  OXE d   1      -1.192  -1.493   0.272  0.00  0.00     0.003 A 
ENDROOT
TORSDOF 0
ENDMDL
