MODEL 1
REMARK minimizedAffinity -3.84729099
REMARK minimizedRMSD -1
REMARK  0 active torsions:
REMARK  status: ('A' for Active; 'I' for Inactive)
ROOT
ATOM      1  C2' OXE d   1      -1.236  -0.388   3.006  0.00  0.00     0.078 C 
ATOM      2  C1' OXE d   1      -2.892  -0.359   0.740  0.00  0.00     0.078 C 
ATOM      3  C1  OXE d   1      -1.434  -0.023   0.550  0.00  0.00    -0.078 A 
ATOM      4  C2  OXE d   1      -0.640   0.006   1.672  0.00  0.00    -0.078 A 
ATOM      5  C3  OXE d   1       0.723   0.256   1.545  0.00  0.00     0.003 A 
ATOM      6  C4  OXE d   1       1.264   0.629   0.309  0.00  0.00    -0.002 A 
ATOM      7  C5  OXE d   1       0.465   0.644  -0.840  0.00  0.00    -0.002 A 
ATOM      8  C6  OXE d   1      -0.873   0.280  -0.744  0.00  0.00     0.003 A 
ENDROOT
TORSDOF 0
ENDMDL
