MODEL 1
REMARK minimizedAffinity 1.92673469
REMARK minimizedRMSD -1
REMARK  2 active torsions:
REMARK  status: ('A' for Active; 'I' for Inactive)
REMARK    1  A    between atoms: C1_2  and  C2_3 
REMARK    2  A    between atoms: C2_3  and  C3_4 
ROOT
ATOM      1  C3  UNL d   1      -3.959   0.783  -3.913  0.00  0.00    -0.075 A 
ATOM      2  C4  UNL d   1      -5.285   0.585  -4.324  0.00  0.00     0.002 A 
ATOM      3  C5  UNL d   1      -5.983  -0.559  -3.937  0.00  0.00     0.002 A 
ATOM      4  C6  UNL d   1      -5.363  -1.523  -3.144  0.00  0.00    -0.004 A 
ATOM      5  C7  UNL d   1      -4.041  -1.344  -2.743  0.00  0.00     0.002 A 
ATOM      6  C8  UNL d   1      -3.341  -0.198  -3.125  0.00  0.00     0.002 A 
ENDROOT
BRANCH   1   7
ATOM      7  C2  UNL d   1      -3.207   2.032  -4.304  0.00  0.00     0.056 C 
BRANCH   7   8
ATOM      8  C1  UNL d   1      -2.862   2.948  -3.125  0.00  0.00     0.007 C 
ATOM      9  C   UNL d   1      -1.413   3.417  -3.132  0.00  0.00     0.009 C 
ENDBRANCH   7   8
ENDBRANCH   1   7
TORSDOF 2
ENDMDL
