MODEL 1
REMARK minimizedAffinity 0.102823563
REMARK minimizedRMSD -1
REMARK  2 active torsions:
REMARK  status: ('A' for Active; 'I' for Inactive)
REMARK    1  A    between atoms: C1_2  and  C2_3 
REMARK    2  A    between atoms: C2_3  and  C3_4 
ROOT
ATOM      1  C3  UNL d   1      -0.129  -2.144   2.277  0.00  0.00    -0.075 A 
ATOM      2  C4  UNL d   1      -1.249  -1.369   2.612  0.00  0.00     0.002 A 
ATOM      3  C5  UNL d   1      -1.592  -0.252   1.850  0.00  0.00     0.002 A 
ATOM      4  C6  UNL d   1      -0.816   0.110   0.751  0.00  0.00    -0.004 A 
ATOM      5  C7  UNL d   1       0.308  -0.643   0.418  0.00  0.00     0.002 A 
ATOM      6  C8  UNL d   1       0.651  -1.764   1.177  0.00  0.00     0.002 A 
ENDROOT
BRANCH   1   7
ATOM      7  C2  UNL d   1       0.230  -3.371   3.080  0.00  0.00     0.056 C 
BRANCH   7   8
ATOM      8  C1  UNL d   1      -0.923  -4.365   3.250  0.00  0.00     0.007 C 
ATOM      9  C   UNL d   1      -1.937  -3.935   4.300  0.00  0.00     0.009 C 
ENDBRANCH   7   8
ENDBRANCH   1   7
TORSDOF 2
ENDMDL
