MODEL 1
REMARK minimizedAffinity 6.35814047
REMARK minimizedRMSD -1
REMARK  2 active torsions:
REMARK  status: ('A' for Active; 'I' for Inactive)
REMARK    1  A    between atoms: C1_2  and  C2_3 
REMARK    2  A    between atoms: C2_3  and  C3_4 
ROOT
ATOM      1  C3  UNL d   1      -4.631   1.875  -3.213  0.00  0.00    -0.075 A 
ATOM      2  C4  UNL d   1      -3.893   0.836  -2.626  0.00  0.00     0.002 A 
ATOM      3  C5  UNL d   1      -2.644   1.088  -2.057  0.00  0.00     0.002 A 
ATOM      4  C6  UNL d   1      -2.114   2.376  -2.076  0.00  0.00    -0.004 A 
ATOM      5  C7  UNL d   1      -2.830   3.412  -2.671  0.00  0.00     0.002 A 
ATOM      6  C8  UNL d   1      -4.082   3.164  -3.237  0.00  0.00     0.002 A 
ENDROOT
BRANCH   1   7
ATOM      7  C2  UNL d   1      -5.995   1.614  -3.804  0.00  0.00     0.056 C 
BRANCH   7   8
ATOM      8  C1  UNL d   1      -5.999   1.484  -5.331  0.00  0.00     0.007 C 
ATOM      9  C   UNL d   1      -5.964   0.039  -5.810  0.00  0.00     0.009 C 
ENDBRANCH   7   8
ENDBRANCH   1   7
TORSDOF 2
ENDMDL
