MODEL 1
REMARK minimizedAffinity -2.06541514
REMARK minimizedRMSD -1
REMARK  3 active torsions:
REMARK  status: ('A' for Active; 'I' for Inactive)
REMARK    1  A    between atoms: C3'_2  and  C2'_3 
REMARK    2  A    between atoms: C2'_3  and  C1'_4 
REMARK    3  A    between atoms: C1'_4  and  C1_5 
ROOT
ATOM      1  C1  N4B d   1      -0.237   0.365   0.591  0.00  0.00    -0.075 A 
ATOM      2  C2  N4B d   1       0.752   0.796  -0.320  0.00  0.00     0.002 A 
ATOM      3  C3  N4B d   1       1.583   1.839   0.011  0.00  0.00     0.002 A 
ATOM      4  C4  N4B d   1       1.432   2.474   1.234  0.00  0.00    -0.004 A 
ATOM      5  C5  N4B d   1       0.491   2.035   2.119  0.00  0.00     0.002 A 
ATOM      6  C6  N4B d   1      -0.348   0.986   1.801  0.00  0.00     0.002 A 
ENDROOT
BRANCH   1   7
ATOM      7  C1' N4B d   1      -1.225  -0.713   0.239  0.00  0.00     0.057 C 
BRANCH   7   8
ATOM      8  C2' N4B d   1      -1.399  -0.757  -1.276  0.00  0.00     0.009 C 
BRANCH   8   9
ATOM      9  C3' N4B d   1      -2.395  -1.822  -1.703  0.00  0.00     0.004 C 
ATOM     10  C4' N4B d   1      -3.175  -1.433  -2.923  0.00  0.00     0.003 C 
ENDBRANCH   8   9
ENDBRANCH   7   8
ENDBRANCH   1   7
TORSDOF 3
ENDMDL
