MODEL 1
REMARK minimizedAffinity -4.58586073
REMARK minimizedRMSD -1
REMARK  3 active torsions:
REMARK  status: ('A' for Active; 'I' for Inactive)
REMARK    1  A    between atoms: C3'_2  and  C2'_3 
REMARK    2  A    between atoms: C2'_3  and  C1'_4 
REMARK    3  A    between atoms: C1'_4  and  C1_5 
ROOT
ATOM      1  C1  N4B d   1      -0.526   0.072   0.467  0.00  0.00    -0.075 A 
ATOM      2  C2  N4B d   1       0.430   0.786  -0.289  0.00  0.00     0.002 A 
ATOM      3  C3  N4B d   1       1.265   1.682   0.332  0.00  0.00     0.002 A 
ATOM      4  C4  N4B d   1       1.151   1.893   1.698  0.00  0.00    -0.004 A 
ATOM      5  C5  N4B d   1       0.242   1.181   2.424  0.00  0.00     0.002 A 
ATOM      6  C6  N4B d   1      -0.601   0.274   1.814  0.00  0.00     0.002 A 
ENDROOT
BRANCH   1   7
ATOM      7  C1' N4B d   1      -1.519  -0.854  -0.181  0.00  0.00     0.057 C 
BRANCH   7   8
ATOM      8  C2' N4B d   1      -0.874  -1.506  -1.401  0.00  0.00     0.009 C 
BRANCH   8   9
ATOM      9  C3' N4B d   1      -1.803  -1.505  -2.603  0.00  0.00     0.004 C 
ATOM     10  C4' N4B d   1      -3.206  -1.108  -2.253  0.00  0.00     0.003 C 
ENDBRANCH   8   9
ENDBRANCH   7   8
ENDBRANCH   1   7
TORSDOF 3
ENDMDL
