MODEL 1
REMARK minimizedAffinity -4.54572773
REMARK minimizedRMSD -1
REMARK  3 active torsions:
REMARK  status: ('A' for Active; 'I' for Inactive)
REMARK    1  A    between atoms: C3'_2  and  C2'_3 
REMARK    2  A    between atoms: C2'_3  and  C1'_4 
REMARK    3  A    between atoms: C1'_4  and  C1_5 
ROOT
ATOM      1  C1  N4B d   1       0.124  -0.033  -0.429  0.00  0.00    -0.075 A 
ATOM      2  C2  N4B d   1      -0.996   0.496   0.248  0.00  0.00     0.002 A 
ATOM      3  C3  N4B d   1      -0.824   1.470   1.202  0.00  0.00     0.002 A 
ATOM      4  C4  N4B d   1       0.454   1.913   1.507  0.00  0.00    -0.004 A 
ATOM      5  C5  N4B d   1       1.528   1.415   0.830  0.00  0.00     0.002 A 
ATOM      6  C6  N4B d   1       1.370   0.439  -0.134  0.00  0.00     0.002 A 
ENDROOT
BRANCH   1   7
ATOM      7  C1' N4B d   1      -0.005  -1.159  -1.418  0.00  0.00     0.057 C 
BRANCH   7   8
ATOM      8  C2' N4B d   1      -0.982  -0.751  -2.517  0.00  0.00     0.009 C 
BRANCH   8   9
ATOM      9  C3' N4B d   1      -2.161  -1.704  -2.612  0.00  0.00     0.004 C 
ATOM     10  C4' N4B d   1      -3.477  -0.992  -2.717  0.00  0.00     0.003 C 
ENDBRANCH   8   9
ENDBRANCH   7   8
ENDBRANCH   1   7
TORSDOF 3
ENDMDL
