MODEL 1
REMARK minimizedAffinity -6.47930384
REMARK minimizedRMSD -1
REMARK  3 active torsions:
REMARK  status: ('A' for Active; 'I' for Inactive)
REMARK    1  A    between atoms: C3'_2  and  C2'_3 
REMARK    2  A    between atoms: C2'_3  and  C1'_4 
REMARK    3  A    between atoms: C1'_4  and  C1_5 
ROOT
ATOM      1  C1  N4B d   1      -0.020   0.084   0.025  0.00  0.00    -0.075 A 
ATOM      2  C2  N4B d   1      -0.958   0.148   1.079  0.00  0.00     0.002 A 
ATOM      3  C3  N4B d   1      -1.017   1.264   1.878  0.00  0.00     0.002 A 
ATOM      4  C4  N4B d   1      -0.141   2.315   1.654  0.00  0.00    -0.004 A 
ATOM      5  C5  N4B d   1       0.744   2.256   0.617  0.00  0.00     0.002 A 
ATOM      6  C6  N4B d   1       0.813   1.142  -0.195  0.00  0.00     0.002 A 
ENDROOT
BRANCH   1   7
ATOM      7  C1' N4B d   1       0.141  -1.150  -0.820  0.00  0.00     0.057 C 
BRANCH   7   8
ATOM      8  C2' N4B d   1      -1.238  -1.722  -1.139  0.00  0.00     0.009 C 
BRANCH   8   9
ATOM      9  C3' N4B d   1      -1.578  -1.595  -2.614  0.00  0.00     0.004 C 
ATOM     10  C4' N4B d   1      -2.044  -0.219  -2.987  0.00  0.00     0.003 C 
ENDBRANCH   8   9
ENDBRANCH   7   8
ENDBRANCH   1   7
TORSDOF 3
ENDMDL
