MODEL 1
REMARK minimizedAffinity -3.9227984
REMARK minimizedRMSD -1
REMARK  3 active torsions:
REMARK  status: ('A' for Active; 'I' for Inactive)
REMARK    1  A    between atoms: C3'_2  and  C2'_3 
REMARK    2  A    between atoms: C2'_3  and  C1'_4 
REMARK    3  A    between atoms: C1'_4  and  C1_5 
ROOT
ATOM      1  C1  N4B d   1       0.344  -0.004  -0.173  0.00  0.00    -0.075 A 
ATOM      2  C2  N4B d   1      -0.569   0.398   0.827  0.00  0.00     0.002 A 
ATOM      3  C3  N4B d   1      -0.332   1.539   1.554  0.00  0.00     0.002 A 
ATOM      4  C4  N4B d   1       0.815   2.280   1.312  0.00  0.00    -0.004 A 
ATOM      5  C5  N4B d   1       1.679   1.899   0.327  0.00  0.00     0.002 A 
ATOM      6  C6  N4B d   1       1.451   0.757  -0.414  0.00  0.00     0.002 A 
ENDROOT
BRANCH   1   7
ATOM      7  C1' N4B d   1       0.171  -1.290  -0.935  0.00  0.00     0.057 C 
BRANCH   7   8
ATOM      8  C2' N4B d   1      -1.316  -1.536  -1.172  0.00  0.00     0.009 C 
BRANCH   8   9
ATOM      9  C3' N4B d   1      -1.676  -1.461  -2.646  0.00  0.00     0.004 C 
ATOM     10  C4' N4B d   1      -3.093  -1.028  -2.877  0.00  0.00     0.003 C 
ENDBRANCH   8   9
ENDBRANCH   7   8
ENDBRANCH   1   7
TORSDOF 3
ENDMDL
