MODEL 1
REMARK minimizedAffinity -2.85710716
REMARK minimizedRMSD -1
REMARK  3 active torsions:
REMARK  status: ('A' for Active; 'I' for Inactive)
REMARK    1  A    between atoms: C3'_2  and  C2'_3 
REMARK    2  A    between atoms: C2'_3  and  C1'_4 
REMARK    3  A    between atoms: C1'_4  and  C1_5 
ROOT
ATOM      1  C1  N4B d   1      -0.264   0.362   0.511  0.00  0.00    -0.075 A 
ATOM      2  C2  N4B d   1       0.732   0.805  -0.386  0.00  0.00     0.002 A 
ATOM      3  C3  N4B d   1       1.402   1.980  -0.143  0.00  0.00     0.002 A 
ATOM      4  C4  N4B d   1       1.080   2.734   0.975  0.00  0.00    -0.004 A 
ATOM      5  C5  N4B d   1       0.134   2.286   1.850  0.00  0.00     0.002 A 
ATOM      6  C6  N4B d   1      -0.544   1.106   1.621  0.00  0.00     0.002 A 
ENDROOT
BRANCH   1   7
ATOM      7  C1' N4B d   1      -1.082  -0.871   0.244  0.00  0.00     0.057 C 
BRANCH   7   8
ATOM      8  C2' N4B d   1      -1.118  -1.132  -1.259  0.00  0.00     0.009 C 
BRANCH   8   9
ATOM      9  C3' N4B d   1      -2.316  -1.975  -1.661  0.00  0.00     0.004 C 
ATOM     10  C4' N4B d   1      -2.994  -1.468  -2.900  0.00  0.00     0.003 C 
ENDBRANCH   8   9
ENDBRANCH   7   8
ENDBRANCH   1   7
TORSDOF 3
ENDMDL
