MODEL 1
REMARK minimizedAffinity -5.75003433
REMARK minimizedRMSD -1
REMARK  3 active torsions:
REMARK  status: ('A' for Active; 'I' for Inactive)
REMARK    1  A    between atoms: C3'_2  and  C2'_3 
REMARK    2  A    between atoms: C2'_3  and  C1'_4 
REMARK    3  A    between atoms: C1'_4  and  C1_5 
ROOT
ATOM      1  C1  N4B d   1      -0.091   0.434   0.436  0.00  0.00    -0.075 A 
ATOM      2  C2  N4B d   1       0.439   1.233  -0.601  0.00  0.00     0.002 A 
ATOM      3  C3  N4B d   1       0.934   2.483  -0.320  0.00  0.00     0.002 A 
ATOM      4  C4  N4B d   1       0.892   2.960   0.982  0.00  0.00    -0.004 A 
ATOM      5  C5  N4B d   1       0.401   2.173   1.981  0.00  0.00     0.002 A 
ATOM      6  C6  N4B d   1      -0.096   0.913   1.714  0.00  0.00     0.002 A 
ENDROOT
BRANCH   1   7
ATOM      7  C1' N4B d   1      -0.722  -0.904   0.164  0.00  0.00     0.057 C 
BRANCH   7   8
ATOM      8  C2' N4B d   1      -0.385  -1.336  -1.260  0.00  0.00     0.009 C 
BRANCH   8   9
ATOM      9  C3' N4B d   1      -1.633  -1.543  -2.101  0.00  0.00     0.004 C 
ATOM     10  C4' N4B d   1      -1.565  -0.840  -3.424  0.00  0.00     0.003 C 
ENDBRANCH   8   9
ENDBRANCH   7   8
ENDBRANCH   1   7
TORSDOF 3
ENDMDL
