MODEL 1
REMARK minimizedAffinity -5.45850992
REMARK minimizedRMSD -1
REMARK  3 active torsions:
REMARK  status: ('A' for Active; 'I' for Inactive)
REMARK    1  A    between atoms: C3'_2  and  C2'_3 
REMARK    2  A    between atoms: C2'_3  and  C1'_4 
REMARK    3  A    between atoms: C1'_4  and  C1_5 
ROOT
ATOM      1  C1  N4B d   1       0.252   0.199   0.112  0.00  0.00    -0.075 A 
ATOM      2  C2  N4B d   1      -0.727   0.593   1.050  0.00  0.00     0.002 A 
ATOM      3  C3  N4B d   1      -0.688   1.854   1.594  0.00  0.00     0.002 A 
ATOM      4  C4  N4B d   1       0.327   2.727   1.231  0.00  0.00    -0.004 A 
ATOM      5  C5  N4B d   1       1.254   2.347   0.305  0.00  0.00     0.002 A 
ATOM      6  C6  N4B d   1       1.225   1.084  -0.253  0.00  0.00     0.002 A 
ENDROOT
BRANCH   1   7
ATOM      7  C1' N4B d   1       0.301  -1.198  -0.445  0.00  0.00     0.057 C 
BRANCH   7   8
ATOM      8  C2' N4B d   1      -1.081  -1.578  -0.966  0.00  0.00     0.009 C 
BRANCH   8   9
ATOM      9  C3' N4B d   1      -1.308  -1.088  -2.386  0.00  0.00     0.004 C 
ATOM     10  C4' N4B d   1      -2.726  -1.262  -2.841  0.00  0.00     0.003 C 
ENDBRANCH   8   9
ENDBRANCH   7   8
ENDBRANCH   1   7
TORSDOF 3
ENDMDL
