MODEL 1
REMARK minimizedAffinity -4.61794806
REMARK minimizedRMSD -1
REMARK  3 active torsions:
REMARK  status: ('A' for Active; 'I' for Inactive)
REMARK    1  A    between atoms: C3'_2  and  C2'_3 
REMARK    2  A    between atoms: C2'_3  and  C1'_4 
REMARK    3  A    between atoms: C1'_4  and  C1_5 
ROOT
ATOM      1  C1  N4B d   1      -0.191  -0.067   0.037  0.00  0.00    -0.075 A 
ATOM      2  C2  N4B d   1       0.879   0.713  -0.453  0.00  0.00     0.002 A 
ATOM      3  C3  N4B d   1       1.285   1.831   0.234  0.00  0.00     0.002 A 
ATOM      4  C4  N4B d   1       0.625   2.198   1.397  0.00  0.00    -0.004 A 
ATOM      5  C5  N4B d   1      -0.391   1.425   1.877  0.00  0.00     0.002 A 
ATOM      6  C6  N4B d   1      -0.806   0.297   1.200  0.00  0.00     0.002 A 
ENDROOT
BRANCH   1   7
ATOM      7  C1' N4B d   1      -0.726  -1.249  -0.724  0.00  0.00     0.057 C 
BRANCH   7   8
ATOM      8  C2' N4B d   1      -0.502  -1.027  -2.217  0.00  0.00     0.009 C 
BRANCH   8   9
ATOM      9  C3' N4B d   1      -1.788  -1.172  -3.012  0.00  0.00     0.004 C 
ATOM     10  C4' N4B d   1      -2.829  -1.974  -2.291  0.00  0.00     0.003 C 
ENDBRANCH   8   9
ENDBRANCH   7   8
ENDBRANCH   1   7
TORSDOF 3
ENDMDL
