MODEL 1
REMARK minimizedAffinity -2.64160419
REMARK minimizedRMSD -1
REMARK  0 active torsions:
REMARK  status: ('A' for Active; 'I' for Inactive)
ROOT
ATOM      1  C   UNL d   1       2.577  -0.727  -0.194  0.00  0.00     0.124 A 
ATOM      2  C1  UNL d   1       2.208   0.609  -0.250  0.00  0.00     0.062 A 
ATOM      3  C2  UNL d   1       0.880   0.978  -0.052  0.00  0.00     0.162 A 
ATOM      4  C3  UNL d   1      -0.088   0.008   0.205  0.00  0.00    -0.034 A 
ATOM      5  C4  UNL d   1       0.291  -1.335   0.260  0.00  0.00     0.162 A 
ATOM      6  C5  UNL d   1       1.619  -1.698   0.061  0.00  0.00     0.062 A 
ATOM      7  F   UNL d   1       1.974  -2.990   0.116  0.00  0.00    -0.097 F 
ATOM      8  F1  UNL d   1      -0.615  -2.293   0.505  0.00  0.00    -0.096 F 
ATOM      9  I   UNL d   1      -2.075   0.554   0.502  0.00  0.00    -0.060 I 
ATOM     10  F2  UNL d   1       0.552   2.277  -0.113  0.00  0.00    -0.096 F 
ATOM     11  F3  UNL d   1       3.132   1.549  -0.497  0.00  0.00    -0.097 F 
ATOM     12  F4  UNL d   1       3.855  -1.079  -0.386  0.00  0.00    -0.092 F 
ENDROOT
TORSDOF 0
ENDMDL
