MODEL 1
REMARK minimizedAffinity -4.81004047
REMARK minimizedRMSD -1
REMARK  0 active torsions:
REMARK  status: ('A' for Active; 'I' for Inactive)
ROOT
ATOM      1  C   UNL d   1       2.775  -0.455  -0.063  0.00  0.00     0.124 A 
ATOM      2  C1  UNL d   1       1.675  -1.293  -0.179  0.00  0.00     0.062 A 
ATOM      3  C2  UNL d   1       0.388  -0.761  -0.196  0.00  0.00     0.162 A 
ATOM      4  C3  UNL d   1       0.195   0.617  -0.097  0.00  0.00    -0.034 A 
ATOM      5  C4  UNL d   1       1.306   1.453   0.020  0.00  0.00     0.162 A 
ATOM      6  C5  UNL d   1       2.590   0.917   0.036  0.00  0.00     0.062 A 
ATOM      7  F   UNL d   1       3.652   1.729   0.148  0.00  0.00    -0.097 F 
ATOM      8  F1  UNL d   1       1.156   2.783   0.116  0.00  0.00    -0.096 F 
ATOM      9  I   UNL d   1      -1.727   1.415  -0.122  0.00  0.00    -0.060 I 
ATOM     10  F2  UNL d   1      -0.656  -1.595  -0.309  0.00  0.00    -0.096 F 
ATOM     11  F3  UNL d   1       1.851  -2.619  -0.274  0.00  0.00    -0.097 F 
ATOM     12  F4  UNL d   1       4.011  -0.969  -0.046  0.00  0.00    -0.092 F 
ENDROOT
TORSDOF 0
ENDMDL
