MODEL 1
REMARK minimizedAffinity -2.05140924
REMARK minimizedRMSD -1
REMARK  0 active torsions:
REMARK  status: ('A' for Active; 'I' for Inactive)
ROOT
ATOM      1  C   UNL d   1       2.710   0.020  -0.090  0.00  0.00     0.124 A 
ATOM      2  C1  UNL d   1       1.796  -1.024  -0.062  0.00  0.00     0.062 A 
ATOM      3  C2  UNL d   1       0.430  -0.760  -0.113  0.00  0.00     0.162 A 
ATOM      4  C3  UNL d   1      -0.030   0.555  -0.194  0.00  0.00    -0.034 A 
ATOM      5  C4  UNL d   1       0.896   1.599  -0.221  0.00  0.00     0.162 A 
ATOM      6  C5  UNL d   1       2.260   1.330  -0.170  0.00  0.00     0.062 A 
ATOM      7  F   UNL d   1       3.142   2.339  -0.197  0.00  0.00    -0.097 F 
ATOM      8  F1  UNL d   1       0.489   2.875  -0.299  0.00  0.00    -0.096 F 
ATOM      9  I   UNL d   1      -2.071   0.954  -0.271  0.00  0.00    -0.060 I 
ATOM     10  F2  UNL d   1      -0.431  -1.788  -0.084  0.00  0.00    -0.096 F 
ATOM     11  F3  UNL d   1       2.228  -2.291   0.016  0.00  0.00    -0.097 F 
ATOM     12  F4  UNL d   1       4.024  -0.238  -0.040  0.00  0.00    -0.092 F 
ENDROOT
TORSDOF 0
ENDMDL
