MODEL 1
REMARK minimizedAffinity 2.08597875
REMARK minimizedRMSD -1
REMARK  0 active torsions:
REMARK  status: ('A' for Active; 'I' for Inactive)
ROOT
ATOM      1  C   UNL d   1       2.273  -0.331  -0.265  0.00  0.00     0.124 A 
ATOM      2  C1  UNL d   1       1.763   0.957  -0.181  0.00  0.00     0.062 A 
ATOM      3  C2  UNL d   1       0.388   1.163  -0.114  0.00  0.00     0.162 A 
ATOM      4  C3  UNL d   1      -0.487   0.077  -0.128  0.00  0.00    -0.034 A 
ATOM      5  C4  UNL d   1       0.033  -1.215  -0.213  0.00  0.00     0.162 A 
ATOM      6  C5  UNL d   1       1.407  -1.416  -0.281  0.00  0.00     0.062 A 
ATOM      7  F   UNL d   1       1.898  -2.661  -0.362  0.00  0.00    -0.097 F 
ATOM      8  F1  UNL d   1      -0.781  -2.282  -0.230  0.00  0.00    -0.096 F 
ATOM      9  I   UNL d   1      -2.544   0.381  -0.027  0.00  0.00    -0.060 I 
ATOM     10  F2  UNL d   1      -0.076   2.419  -0.034  0.00  0.00    -0.096 F 
ATOM     11  F3  UNL d   1       2.597   2.007  -0.167  0.00  0.00    -0.097 F 
ATOM     12  F4  UNL d   1       3.596  -0.527  -0.331  0.00  0.00    -0.092 F 
ENDROOT
TORSDOF 0
ENDMDL
