MODEL 1
REMARK minimizedAffinity -0.658595622
REMARK minimizedRMSD -1
REMARK  0 active torsions:
REMARK  status: ('A' for Active; 'I' for Inactive)
ROOT
ATOM      1  C   UNL d   1       3.255   0.009  -0.552  0.00  0.00     0.124 A 
ATOM      2  C1  UNL d   1       2.799   1.308  -0.375  0.00  0.00     0.062 A 
ATOM      3  C2  UNL d   1       1.433   1.568  -0.313  0.00  0.00     0.162 A 
ATOM      4  C3  UNL d   1       0.512   0.527  -0.427  0.00  0.00    -0.034 A 
ATOM      5  C4  UNL d   1       0.978  -0.777  -0.606  0.00  0.00     0.162 A 
ATOM      6  C5  UNL d   1       2.344  -1.032  -0.667  0.00  0.00     0.062 A 
ATOM      7  F   UNL d   1       2.782  -2.288  -0.838  0.00  0.00    -0.097 F 
ATOM      8  F1  UNL d   1       0.120  -1.801  -0.720  0.00  0.00    -0.096 F 
ATOM      9  I   UNL d   1      -1.531   0.913  -0.336  0.00  0.00    -0.060 I 
ATOM     10  F2  UNL d   1       1.022   2.833  -0.141  0.00  0.00    -0.096 F 
ATOM     11  F3  UNL d   1       3.677   2.315  -0.264  0.00  0.00    -0.097 F 
ATOM     12  F4  UNL d   1       4.569  -0.239  -0.612  0.00  0.00    -0.092 F 
ENDROOT
TORSDOF 0
ENDMDL
