MODEL 1
REMARK minimizedAffinity 1.23398089
REMARK minimizedRMSD -1
REMARK  0 active torsions:
REMARK  status: ('A' for Active; 'I' for Inactive)
ROOT
ATOM      1  C   UNL d   1       2.054   1.226  -0.112  0.00  0.00     0.124 A 
ATOM      2  C1  UNL d   1       0.679   1.326  -0.267  0.00  0.00     0.062 A 
ATOM      3  C2  UNL d   1      -0.096   0.177  -0.400  0.00  0.00     0.162 A 
ATOM      4  C3  UNL d   1       0.503  -1.082  -0.376  0.00  0.00    -0.034 A 
ATOM      5  C4  UNL d   1       1.888  -1.175  -0.221  0.00  0.00     0.162 A 
ATOM      6  C5  UNL d   1       2.657  -0.024  -0.089  0.00  0.00     0.062 A 
ATOM      7  F   UNL d   1       3.986  -0.122   0.061  0.00  0.00    -0.097 F 
ATOM      8  F1  UNL d   1       2.496  -2.370  -0.194  0.00  0.00    -0.096 F 
ATOM      9  I   UNL d   1      -0.651  -2.803  -0.574  0.00  0.00    -0.060 I 
ATOM     10  F2  UNL d   1      -1.423   0.303  -0.548  0.00  0.00    -0.096 F 
ATOM     11  F3  UNL d   1       0.094   2.532  -0.291  0.00  0.00    -0.097 F 
ATOM     12  F4  UNL d   1       2.797   2.333   0.014  0.00  0.00    -0.092 F 
ENDROOT
TORSDOF 0
ENDMDL
