MODEL 1
REMARK minimizedAffinity 3.60344887
REMARK minimizedRMSD -1
REMARK  0 active torsions:
REMARK  status: ('A' for Active; 'I' for Inactive)
ROOT
ATOM      1  C   UNL d   1       1.870  -0.078  -0.273  0.00  0.00     0.124 A 
ATOM      2  C1  UNL d   1       1.224   1.130  -0.048  0.00  0.00     0.062 A 
ATOM      3  C2  UNL d   1      -0.122   1.275  -0.371  0.00  0.00     0.162 A 
ATOM      4  C3  UNL d   1      -0.832   0.209  -0.922  0.00  0.00    -0.034 A 
ATOM      5  C4  UNL d   1      -0.176  -1.003  -1.146  0.00  0.00     0.162 A 
ATOM      6  C5  UNL d   1       1.169  -1.143  -0.821  0.00  0.00     0.062 A 
ATOM      7  F   UNL d   1       1.791  -2.311  -1.040  0.00  0.00    -0.097 F 
ATOM      8  F1  UNL d   1      -0.829  -2.048  -1.674  0.00  0.00    -0.096 F 
ATOM      9  I   UNL d   1      -2.845   0.422  -1.406  0.00  0.00    -0.060 I 
ATOM     10  F2  UNL d   1      -0.720   2.454  -0.143  0.00  0.00    -0.096 F 
ATOM     11  F3  UNL d   1       1.899   2.161   0.481  0.00  0.00    -0.097 F 
ATOM     12  F4  UNL d   1       3.165  -0.215   0.038  0.00  0.00    -0.092 F 
ENDROOT
TORSDOF 0
ENDMDL
