MODEL 1
REMARK minimizedAffinity 1.39556348
REMARK minimizedRMSD -1
REMARK  0 active torsions:
REMARK  status: ('A' for Active; 'I' for Inactive)
ROOT
ATOM      1  C   UNL d   1       1.643  -1.668   1.297  0.00  0.00     0.124 A 
ATOM      2  C1  UNL d   1       1.247  -1.693  -0.033  0.00  0.00     0.062 A 
ATOM      3  C2  UNL d   1       0.174  -0.916  -0.459  0.00  0.00     0.162 A 
ATOM      4  C3  UNL d   1      -0.512  -0.106   0.446  0.00  0.00    -0.034 A 
ATOM      5  C4  UNL d   1      -0.109  -0.087   1.783  0.00  0.00     0.162 A 
ATOM      6  C5  UNL d   1       0.964  -0.866   2.204  0.00  0.00     0.062 A 
ATOM      7  F   UNL d   1       1.344  -0.840   3.489  0.00  0.00    -0.097 F 
ATOM      8  F1  UNL d   1      -0.747   0.680   2.680  0.00  0.00    -0.096 F 
ATOM      9  I   UNL d   1      -2.118   1.057  -0.186  0.00  0.00    -0.060 I 
ATOM     10  F2  UNL d   1      -0.186  -0.959  -1.750  0.00  0.00    -0.096 F 
ATOM     11  F3  UNL d   1       1.901  -2.468  -0.911  0.00  0.00    -0.097 F 
ATOM     12  F4  UNL d   1       2.675  -2.417   1.704  0.00  0.00    -0.092 F 
ENDROOT
TORSDOF 0
ENDMDL
