MODEL 1
REMARK minimizedAffinity -1.15223956
REMARK minimizedRMSD -1
REMARK  0 active torsions:
REMARK  status: ('A' for Active; 'I' for Inactive)
ROOT
ATOM      1  C   UNL d   1       2.522  -0.166  -0.044  0.00  0.00     0.124 A 
ATOM      2  C1  UNL d   1       1.674  -1.265  -0.055  0.00  0.00     0.062 A 
ATOM      3  C2  UNL d   1       0.295  -1.084  -0.116  0.00  0.00     0.162 A 
ATOM      4  C3  UNL d   1      -0.245   0.202  -0.167  0.00  0.00    -0.034 A 
ATOM      5  C4  UNL d   1       0.615   1.302  -0.154  0.00  0.00     0.162 A 
ATOM      6  C5  UNL d   1       1.992   1.115  -0.093  0.00  0.00     0.062 A 
ATOM      7  F   UNL d   1       2.811   2.178  -0.083  0.00  0.00    -0.097 F 
ATOM      8  F1  UNL d   1       0.130   2.551  -0.202  0.00  0.00    -0.096 F 
ATOM      9  I   UNL d   1      -2.306   0.477  -0.258  0.00  0.00    -0.060 I 
ATOM     10  F2  UNL d   1      -0.501  -2.163  -0.125  0.00  0.00    -0.096 F 
ATOM     11  F3  UNL d   1       2.183  -2.504  -0.006  0.00  0.00    -0.097 F 
ATOM     12  F4  UNL d   1       3.848  -0.343   0.015  0.00  0.00    -0.092 F 
ENDROOT
TORSDOF 0
ENDMDL
