MODEL 1
REMARK minimizedAffinity 2.15289831
REMARK minimizedRMSD -1
REMARK  0 active torsions:
REMARK  status: ('A' for Active; 'I' for Inactive)
ROOT
ATOM      1  C   UNL d   1       1.974  -0.327   0.148  0.00  0.00     0.124 A 
ATOM      2  C1  UNL d   1       1.017  -1.317   0.318  0.00  0.00     0.062 A 
ATOM      3  C2  UNL d   1      -0.337  -0.994   0.285  0.00  0.00     0.162 A 
ATOM      4  C3  UNL d   1      -0.741   0.325   0.081  0.00  0.00    -0.034 A 
ATOM      5  C4  UNL d   1       0.228   1.316  -0.088  0.00  0.00     0.162 A 
ATOM      6  C5  UNL d   1       1.579   0.988  -0.055  0.00  0.00     0.062 A 
ATOM      7  F   UNL d   1       2.503   1.946  -0.219  0.00  0.00    -0.097 F 
ATOM      8  F1  UNL d   1      -0.127   2.594  -0.286  0.00  0.00    -0.096 F 
ATOM      9  I   UNL d   1      -2.765   0.811   0.033  0.00  0.00    -0.060 I 
ATOM     10  F2  UNL d   1      -1.240  -1.971   0.453  0.00  0.00    -0.096 F 
ATOM     11  F3  UNL d   1       1.396  -2.588   0.514  0.00  0.00    -0.097 F 
ATOM     12  F4  UNL d   1       3.276  -0.639   0.180  0.00  0.00    -0.092 F 
ENDROOT
TORSDOF 0
ENDMDL
