MODEL 1
REMARK minimizedAffinity -5.50044441
REMARK minimizedRMSD -1
REMARK  1 active torsions:
REMARK  status: ('A' for Active; 'I' for Inactive)
REMARK    1  A    between atoms: C1_2  and  C2_3 
ROOT
ATOM      1  C2  UNL d   1       0.236   0.377  -0.001  0.00  0.00    -0.073 A 
ATOM      2  C3  UNL d   1       0.601  -0.974   0.024  0.00  0.00    -0.002 A 
ATOM      3  C4  UNL d   1       1.121  -1.585  -1.118  0.00  0.00     0.004 A 
ATOM      4  C5  UNL d   1       1.289  -0.851  -2.292  0.00  0.00    -0.004 A 
ATOM      5  C6  UNL d   1       0.942   0.503  -2.333  0.00  0.00    -0.075 A 
ATOM      6  C7  UNL d   1       1.115   1.306  -3.589  0.00  0.00     0.076 C 
ATOM      7  C8  UNL d   1       0.418   1.109  -1.183  0.00  0.00     0.001 A 
ENDROOT
BRANCH   1   8
ATOM      8  C1  UNL d   1      -0.320   1.043   1.231  0.00  0.00     0.053 C 
ATOM      9  C   UNL d   1      -1.660   0.453   1.642  0.00  0.00     0.018 C 
ENDBRANCH   1   8
TORSDOF 1
ENDMDL
