MODEL 1
REMARK minimizedAffinity -2.01833081
REMARK minimizedRMSD -1
REMARK  1 active torsions:
REMARK  status: ('A' for Active; 'I' for Inactive)
REMARK    1  A    between atoms: C1_2  and  C2_3 
ROOT
ATOM      1  C2  UNL d   1       0.743   0.996  -2.070  0.00  0.00    -0.073 A 
ATOM      2  C3  UNL d   1       2.035   1.439  -2.375  0.00  0.00    -0.002 A 
ATOM      3  C4  UNL d   1       2.478   1.466  -3.698  0.00  0.00     0.004 A 
ATOM      4  C5  UNL d   1       1.633   1.057  -4.729  0.00  0.00    -0.004 A 
ATOM      5  C6  UNL d   1       0.334   0.621  -4.446  0.00  0.00    -0.075 A 
ATOM      6  C7  UNL d   1      -0.586   0.176  -5.544  0.00  0.00     0.076 C 
ATOM      7  C8  UNL d   1      -0.102   0.595  -3.115  0.00  0.00     0.001 A 
ENDROOT
BRANCH   1   8
ATOM      8  C1  UNL d   1       0.259   0.971  -0.644  0.00  0.00     0.053 C 
ATOM      9  C   UNL d   1       0.572  -0.349   0.042  0.00  0.00     0.018 C 
ENDBRANCH   1   8
TORSDOF 1
ENDMDL
