MODEL 1
REMARK minimizedAffinity -1.80222082
REMARK minimizedRMSD -1
REMARK  1 active torsions:
REMARK  status: ('A' for Active; 'I' for Inactive)
REMARK    1  A    between atoms: C1_2  and  C2_3 
ROOT
ATOM      1  C2  UNL d   1      -0.069   0.320   1.100  0.00  0.00    -0.073 A 
ATOM      2  C3  UNL d   1       0.933  -0.185   0.265  0.00  0.00    -0.002 A 
ATOM      3  C4  UNL d   1       0.604  -0.755  -0.966  0.00  0.00     0.004 A 
ATOM      4  C5  UNL d   1      -0.727  -0.818  -1.377  0.00  0.00    -0.004 A 
ATOM      5  C6  UNL d   1      -1.742  -0.307  -0.562  0.00  0.00    -0.075 A 
ATOM      6  C7  UNL d   1      -3.179  -0.369  -0.988  0.00  0.00     0.076 C 
ATOM      7  C8  UNL d   1      -1.404   0.260   0.674  0.00  0.00     0.001 A 
ENDROOT
BRANCH   1   8
ATOM      8  C1  UNL d   1       0.281   0.941   2.427  0.00  0.00     0.053 C 
ATOM      9  C   UNL d   1      -0.940   1.510   3.131  0.00  0.00     0.018 C 
ENDBRANCH   1   8
TORSDOF 1
ENDMDL
