MODEL 1
REMARK minimizedAffinity -4.91587734
REMARK minimizedRMSD -1
REMARK  1 active torsions:
REMARK  status: ('A' for Active; 'I' for Inactive)
REMARK    1  A    between atoms: C1_2  and  C2_3 
ROOT
ATOM      1  C2  UNL d   1       0.192  -0.401  -1.012  0.00  0.00    -0.073 A 
ATOM      2  C3  UNL d   1       1.443  -0.655  -0.438  0.00  0.00    -0.002 A 
ATOM      3  C4  UNL d   1       1.674  -0.360   0.907  0.00  0.00     0.004 A 
ATOM      4  C5  UNL d   1       0.657   0.184   1.691  0.00  0.00    -0.004 A 
ATOM      5  C6  UNL d   1      -0.603   0.434   1.138  0.00  0.00    -0.075 A 
ATOM      6  C7  UNL d   1      -1.707   1.021   1.967  0.00  0.00     0.076 C 
ATOM      7  C8  UNL d   1      -0.827   0.137  -0.214  0.00  0.00     0.001 A 
ENDROOT
BRANCH   1   8
ATOM      8  C1  UNL d   1      -0.064  -0.724  -2.462  0.00  0.00     0.053 C 
ATOM      9  C   UNL d   1       0.823   0.088  -3.392  0.00  0.00     0.018 C 
ENDBRANCH   1   8
TORSDOF 1
ENDMDL
