MODEL 1
REMARK minimizedAffinity -3.07124043
REMARK minimizedRMSD -1
REMARK  1 active torsions:
REMARK  status: ('A' for Active; 'I' for Inactive)
REMARK    1  A    between atoms: C1_2  and  C2_3 
ROOT
ATOM      1  C2  UNL d   1      -0.038   0.016  -0.324  0.00  0.00    -0.073 A 
ATOM      2  C3  UNL d   1      -1.324  -0.291  -0.784  0.00  0.00    -0.002 A 
ATOM      3  C4  UNL d   1      -2.446   0.092  -0.049  0.00  0.00     0.004 A 
ATOM      4  C5  UNL d   1      -2.296   0.790   1.149  0.00  0.00    -0.004 A 
ATOM      5  C6  UNL d   1      -1.020   1.117   1.620  0.00  0.00    -0.075 A 
ATOM      6  C7  UNL d   1      -0.841   1.866   2.908  0.00  0.00     0.076 C 
ATOM      7  C8  UNL d   1       0.102   0.727   0.877  0.00  0.00     0.001 A 
ENDROOT
BRANCH   1   8
ATOM      8  C1  UNL d   1       1.176  -0.389  -1.118  0.00  0.00     0.053 C 
ATOM      9  C   UNL d   1       1.051  -0.009  -2.585  0.00  0.00     0.018 C 
ENDBRANCH   1   8
TORSDOF 1
ENDMDL
