MODEL 1
REMARK minimizedAffinity -5.16892147
REMARK minimizedRMSD -1
REMARK  1 active torsions:
REMARK  status: ('A' for Active; 'I' for Inactive)
REMARK    1  A    between atoms: C1_2  and  C2_3 
ROOT
ATOM      1  C2  UNL d   1       0.172   0.034  -0.157  0.00  0.00    -0.073 A 
ATOM      2  C3  UNL d   1      -1.124  -0.396  -0.464  0.00  0.00    -0.002 A 
ATOM      3  C4  UNL d   1      -2.187  -0.093   0.388  0.00  0.00     0.004 A 
ATOM      4  C5  UNL d   1      -1.967   0.648   1.549  0.00  0.00    -0.004 A 
ATOM      5  C6  UNL d   1      -0.681   1.097   1.866  0.00  0.00    -0.075 A 
ATOM      6  C7  UNL d   1      -0.428   1.893   3.113  0.00  0.00     0.076 C 
ATOM      7  C8  UNL d   1       0.382   0.786   1.008  0.00  0.00     0.001 A 
ENDROOT
BRANCH   1   8
ATOM      8  C1  UNL d   1       1.322  -0.286  -1.077  0.00  0.00     0.053 C 
ATOM      9  C   UNL d   1       1.349   0.625  -2.294  0.00  0.00     0.018 C 
ENDBRANCH   1   8
TORSDOF 1
ENDMDL
