MODEL 1
REMARK minimizedAffinity -2.77208877
REMARK minimizedRMSD -1
REMARK  1 active torsions:
REMARK  status: ('A' for Active; 'I' for Inactive)
REMARK    1  A    between atoms: C1_2  and  C2_3 
ROOT
ATOM      1  C2  UNL d   1       0.253   0.583   1.674  0.00  0.00    -0.073 A 
ATOM      2  C3  UNL d   1       1.419  -0.050   2.122  0.00  0.00    -0.002 A 
ATOM      3  C4  UNL d   1       2.106  -0.933   1.289  0.00  0.00     0.004 A 
ATOM      4  C5  UNL d   1       1.640  -1.187  -0.001  0.00  0.00    -0.004 A 
ATOM      5  C6  UNL d   1       0.485  -0.555  -0.471  0.00  0.00    -0.075 A 
ATOM      6  C7  UNL d   1      -0.030  -0.820  -1.855  0.00  0.00     0.076 C 
ATOM      7  C8  UNL d   1      -0.202   0.328   0.373  0.00  0.00     0.001 A 
ENDROOT
BRANCH   1   8
ATOM      8  C1  UNL d   1      -0.489   1.543   2.568  0.00  0.00     0.053 C 
ATOM      9  C   UNL d   1      -1.265   0.822   3.659  0.00  0.00     0.018 C 
ENDBRANCH   1   8
TORSDOF 1
ENDMDL
