MODEL 1
REMARK minimizedAffinity 5.4419241
REMARK minimizedRMSD -1
REMARK  3 active torsions:
REMARK  status: ('A' for Active; 'I' for Inactive)
REMARK    1  A    between atoms: C3'_2  and  C2'_3 
REMARK    2  A    between atoms: C2'_3  and  C1'_4 
REMARK    3  A    between atoms: C1'_4  and  C1_5 
ROOT
ATOM      1  C1  N4B d   1      -0.349  -2.505  -1.184  0.00  0.00    -0.075 A 
ATOM      2  C2  N4B d   1      -0.682  -2.243  -2.531  0.00  0.00     0.002 A 
ATOM      3  C3  N4B d   1      -1.476  -3.122  -3.226  0.00  0.00     0.002 A 
ATOM      4  C4  N4B d   1      -1.931  -4.274  -2.604  0.00  0.00    -0.004 A 
ATOM      5  C5  N4B d   1      -1.626  -4.508  -1.295  0.00  0.00     0.002 A 
ATOM      6  C6  N4B d   1      -0.833  -3.631  -0.583  0.00  0.00     0.002 A 
ENDROOT
BRANCH   1   7
ATOM      7  C1' N4B d   1       0.586  -1.617  -0.410  0.00  0.00     0.057 C 
BRANCH   7   8
ATOM      8  C2' N4B d   1       1.938  -2.311  -0.273  0.00  0.00     0.009 C 
BRANCH   8   9
ATOM      9  C3' N4B d   1       2.894  -1.916  -1.385  0.00  0.00     0.004 C 
ATOM     10  C4' N4B d   1       3.338  -0.486  -1.289  0.00  0.00     0.003 C 
ENDBRANCH   8   9
ENDBRANCH   7   8
ENDBRANCH   1   7
TORSDOF 3
ENDMDL
