MODEL 1
REMARK minimizedAffinity 8.60227013
REMARK minimizedRMSD -1
REMARK  3 active torsions:
REMARK  status: ('A' for Active; 'I' for Inactive)
REMARK    1  A    between atoms: C3'_2  and  C2'_3 
REMARK    2  A    between atoms: C2'_3  and  C1'_4 
REMARK    3  A    between atoms: C1'_4  and  C1_5 
ROOT
ATOM      1  C1  N4B d   1       3.251  -0.892  -0.861  0.00  0.00    -0.075 A 
ATOM      2  C2  N4B d   1       3.739  -0.659   0.443  0.00  0.00     0.002 A 
ATOM      3  C3  N4B d   1       3.561  -1.605   1.423  0.00  0.00     0.002 A 
ATOM      4  C4  N4B d   1       2.883  -2.778   1.127  0.00  0.00    -0.004 A 
ATOM      5  C5  N4B d   1       2.437  -3.007  -0.141  0.00  0.00     0.002 A 
ATOM      6  C6  N4B d   1       2.613  -2.067  -1.137  0.00  0.00     0.002 A 
ENDROOT
BRANCH   1   7
ATOM      7  C1' N4B d   1       3.347   0.148  -1.943  0.00  0.00     0.057 C 
BRANCH   7   8
ATOM      8  C2' N4B d   1       3.303   1.535  -1.309  0.00  0.00     0.009 C 
BRANCH   8   9
ATOM      9  C3' N4B d   1       4.089   2.554  -2.116  0.00  0.00     0.004 C 
ATOM     10  C4' N4B d   1       4.856   1.934  -3.245  0.00  0.00     0.003 C 
ENDBRANCH   8   9
ENDBRANCH   7   8
ENDBRANCH   1   7
TORSDOF 3
ENDMDL
