MODEL 1
REMARK minimizedAffinity -1.60849392
REMARK minimizedRMSD -1
REMARK  3 active torsions:
REMARK  status: ('A' for Active; 'I' for Inactive)
REMARK    1  A    between atoms: C3'_2  and  C2'_3 
REMARK    2  A    between atoms: C2'_3  and  C1'_4 
REMARK    3  A    between atoms: C1'_4  and  C1_5 
ROOT
ATOM      1  C1  N4B d   1       0.465  -4.035   2.963  0.00  0.00    -0.075 A 
ATOM      2  C2  N4B d   1       1.661  -4.019   2.211  0.00  0.00     0.002 A 
ATOM      3  C3  N4B d   1       2.360  -2.847   2.059  0.00  0.00     0.002 A 
ATOM      4  C4  N4B d   1       1.877  -1.680   2.631  0.00  0.00    -0.004 A 
ATOM      5  C5  N4B d   1       0.735  -1.709   3.377  0.00  0.00     0.002 A 
ATOM      6  C6  N4B d   1       0.023  -2.880   3.542  0.00  0.00     0.002 A 
ENDROOT
BRANCH   1   7
ATOM      7  C1' N4B d   1      -0.380  -5.273   3.086  0.00  0.00     0.057 C 
BRANCH   7   8
ATOM      8  C2' N4B d   1      -0.025  -5.995   4.383  0.00  0.00     0.009 C 
BRANCH   8   9
ATOM      9  C3' N4B d   1       0.364  -5.024   5.485  0.00  0.00     0.004 C 
ATOM     10  C4' N4B d   1       1.753  -5.256   6.000  0.00  0.00     0.003 C 
ENDBRANCH   8   9
ENDBRANCH   7   8
ENDBRANCH   1   7
TORSDOF 3
ENDMDL
