MODEL 1
REMARK minimizedAffinity 9.54520798
REMARK minimizedRMSD -1
REMARK  3 active torsions:
REMARK  status: ('A' for Active; 'I' for Inactive)
REMARK    1  A    between atoms: C3'_2  and  C2'_3 
REMARK    2  A    between atoms: C2'_3  and  C1'_4 
REMARK    3  A    between atoms: C1'_4  and  C1_5 
ROOT
ATOM      1  C1  N4B d   1      -1.654  -0.072  -1.756  0.00  0.00    -0.075 A 
ATOM      2  C2  N4B d   1      -2.623   0.371  -2.684  0.00  0.00     0.002 A 
ATOM      3  C3  N4B d   1      -3.876   0.726  -2.251  0.00  0.00     0.002 A 
ATOM      4  C4  N4B d   1      -4.190   0.630  -0.904  0.00  0.00    -0.004 A 
ATOM      5  C5  N4B d   1      -3.241   0.226  -0.011  0.00  0.00     0.002 A 
ATOM      6  C6  N4B d   1      -1.975  -0.131  -0.431  0.00  0.00     0.002 A 
ENDROOT
BRANCH   1   7
ATOM      7  C1' N4B d   1      -0.298  -0.553  -2.193  0.00  0.00     0.057 C 
BRANCH   7   8
ATOM      8  C2' N4B d   1       0.741  -0.130  -1.158  0.00  0.00     0.009 C 
BRANCH   8   9
ATOM      9  C3' N4B d   1       2.157  -0.251  -1.692  0.00  0.00     0.004 C 
ATOM     10  C4' N4B d   1       2.916   1.041  -1.623  0.00  0.00     0.003 C 
ENDBRANCH   8   9
ENDBRANCH   7   8
ENDBRANCH   1   7
TORSDOF 3
ENDMDL
