MODEL 1
REMARK minimizedAffinity 12.0205021
REMARK minimizedRMSD -1
REMARK  3 active torsions:
REMARK  status: ('A' for Active; 'I' for Inactive)
REMARK    1  A    between atoms: C3'_2  and  C2'_3 
REMARK    2  A    between atoms: C2'_3  and  C1'_4 
REMARK    3  A    between atoms: C1'_4  and  C1_5 
ROOT
ATOM      1  C1  N4B d   1       3.445   1.922   0.749  0.00  0.00    -0.075 A 
ATOM      2  C2  N4B d   1       3.669   2.373  -0.570  0.00  0.00     0.002 A 
ATOM      3  C3  N4B d   1       3.435   1.533  -1.631  0.00  0.00     0.002 A 
ATOM      4  C4  N4B d   1       2.997   0.238  -1.397  0.00  0.00    -0.004 A 
ATOM      5  C5  N4B d   1       2.759  -0.181  -0.121  0.00  0.00     0.002 A 
ATOM      6  C6  N4B d   1       2.986   0.654   0.955  0.00  0.00     0.002 A 
ENDROOT
BRANCH   1   7
ATOM      7  C1' N4B d   1       3.769   2.776   1.945  0.00  0.00     0.057 C 
BRANCH   7   8
ATOM      8  C2' N4B d   1       3.352   2.039   3.214  0.00  0.00     0.009 C 
BRANCH   8   9
ATOM      9  C3' N4B d   1       2.302   2.807   3.999  0.00  0.00     0.004 C 
ATOM     10  C4' N4B d   1       1.772   2.035   5.170  0.00  0.00     0.003 C 
ENDBRANCH   8   9
ENDBRANCH   7   8
ENDBRANCH   1   7
TORSDOF 3
ENDMDL
