MODEL 1
REMARK minimizedAffinity 5.75635958
REMARK minimizedRMSD -1
REMARK  0 active torsions:
REMARK  status: ('A' for Active; 'I' for Inactive)
ROOT
ATOM      1  C   UNL d   1       0.200  -4.550  -0.922  0.00  0.00     0.020 A 
ATOM      2  C1  UNL d   1      -0.723  -3.672  -1.488  0.00  0.00     0.020 A 
ATOM      3  C2  UNL d   1      -0.369  -2.341  -1.720  0.00  0.00     0.034 A 
ATOM      4  C3  UNL d   1       0.910  -1.885  -1.385  0.00  0.00     0.017 A 
ATOM      5  C4  UNL d   1       1.836  -2.767  -0.816  0.00  0.00     0.017 A 
ATOM      6  C5  UNL d   1       1.477  -4.098  -0.586  0.00  0.00     0.034 A 
ATOM      7 Cl   UNL d   1       3.434  -2.276  -0.376  0.00  0.00    -0.070 Cl
ATOM      8 Cl1  UNL d   1       1.279  -0.226  -1.699  0.00  0.00    -0.070 Cl
ENDROOT
TORSDOF 0
ENDMDL
