MODEL 1
REMARK minimizedAffinity -2.47835398
REMARK minimizedRMSD -1
REMARK  0 active torsions:
REMARK  status: ('A' for Active; 'I' for Inactive)
ROOT
ATOM      1  C   UNL d   1      -5.984   2.318  -3.706  0.00  0.00     0.020 A 
ATOM      2  C1  UNL d   1      -4.847   3.125  -3.705  0.00  0.00     0.020 A 
ATOM      3  C2  UNL d   1      -3.712   2.733  -4.419  0.00  0.00     0.034 A 
ATOM      4  C3  UNL d   1      -3.713   1.531  -5.137  0.00  0.00     0.017 A 
ATOM      5  C4  UNL d   1      -4.855   0.722  -5.137  0.00  0.00     0.017 A 
ATOM      6  C5  UNL d   1      -5.988   1.120  -4.421  0.00  0.00     0.034 A 
ATOM      7 Cl   UNL d   1      -4.931  -0.774  -5.999  0.00  0.00    -0.070 Cl
ATOM      8 Cl1  UNL d   1      -2.275   1.109  -5.997  0.00  0.00    -0.070 Cl
ENDROOT
TORSDOF 0
ENDMDL
