MODEL 1
REMARK minimizedAffinity 1.85231209
REMARK minimizedRMSD -1
REMARK  0 active torsions:
REMARK  status: ('A' for Active; 'I' for Inactive)
ROOT
ATOM      1  C   UNL d   1      -0.338   4.290   0.793  0.00  0.00     0.020 A 
ATOM      2  C1  UNL d   1      -0.495   4.105  -0.580  0.00  0.00     0.020 A 
ATOM      3  C2  UNL d   1      -0.122   2.894  -1.168  0.00  0.00     0.034 A 
ATOM      4  C3  UNL d   1       0.408   1.864  -0.384  0.00  0.00     0.017 A 
ATOM      5  C4  UNL d   1       0.565   2.051   0.995  0.00  0.00     0.017 A 
ATOM      6  C5  UNL d   1       0.191   3.265   1.579  0.00  0.00     0.034 A 
ATOM      7 Cl   UNL d   1       1.213   0.826   2.028  0.00  0.00    -0.070 Cl
ATOM      8 Cl1  UNL d   1       0.847   0.394  -1.178  0.00  0.00    -0.070 Cl
ENDROOT
TORSDOF 0
ENDMDL
