MODEL 1
REMARK minimizedAffinity 5.38970709
REMARK minimizedRMSD -1
REMARK  0 active torsions:
REMARK  status: ('A' for Active; 'I' for Inactive)
ROOT
ATOM      1  C   UNL d   1      -1.212   4.809   0.812  0.00  0.00     0.020 A 
ATOM      2  C1  UNL d   1      -0.009   4.150   1.061  0.00  0.00     0.020 A 
ATOM      3  C2  UNL d   1       0.414   3.124   0.214  0.00  0.00     0.034 A 
ATOM      4  C3  UNL d   1      -0.368   2.753  -0.886  0.00  0.00     0.017 A 
ATOM      5  C4  UNL d   1      -1.576   3.414  -1.135  0.00  0.00     0.017 A 
ATOM      6  C5  UNL d   1      -1.994   4.441  -0.284  0.00  0.00     0.034 A 
ATOM      7 Cl   UNL d   1      -2.594   3.012  -2.473  0.00  0.00    -0.070 Cl
ATOM      8 Cl1  UNL d   1       0.216   1.475  -1.892  0.00  0.00    -0.070 Cl
ENDROOT
TORSDOF 0
ENDMDL
