MODEL 1
REMARK minimizedAffinity 5.81788206
REMARK minimizedRMSD -1
REMARK  0 active torsions:
REMARK  status: ('A' for Active; 'I' for Inactive)
ROOT
ATOM      1  C   UNL d   1      -4.102   3.765  -5.998  0.00  0.00     0.020 A 
ATOM      2  C1  UNL d   1      -5.434   4.134  -5.817  0.00  0.00     0.020 A 
ATOM      3  C2  UNL d   1      -6.000   4.104  -4.541  0.00  0.00     0.034 A 
ATOM      4  C3  UNL d   1      -5.234   3.702  -3.441  0.00  0.00     0.017 A 
ATOM      5  C4  UNL d   1      -3.896   3.332  -3.623  0.00  0.00     0.017 A 
ATOM      6  C5  UNL d   1      -3.335   3.364  -4.903  0.00  0.00     0.034 A 
ATOM      7 Cl   UNL d   1      -2.888   2.825  -2.314  0.00  0.00    -0.070 Cl
ATOM      8 Cl1  UNL d   1      -5.998   3.688  -1.891  0.00  0.00    -0.070 Cl
ENDROOT
TORSDOF 0
ENDMDL
