MODEL 1
REMARK minimizedAffinity -2.64210701
REMARK minimizedRMSD -1
REMARK  0 active torsions:
REMARK  status: ('A' for Active; 'I' for Inactive)
ROOT
ATOM      1  C1  BNZ d   1       0.762   6.000   0.160  0.00  0.00     0.000 A 
ATOM      2  C2  BNZ d   1      -0.003   4.865   0.100  0.00  0.00     0.000 A 
ATOM      3  C3  BNZ d   1       0.382   3.726   0.750  0.00  0.00     0.000 A 
ATOM      4  C4  BNZ d   1       1.550   3.710   1.424  0.00  0.00     0.000 A 
ATOM      5  C5  BNZ d   1       2.337   4.843   1.486  0.00  0.00     0.000 A 
ATOM      6  C6  BNZ d   1       1.927   5.999   0.863  0.00  0.00     0.000 A 
ENDROOT
TORSDOF 0
ENDMDL
