MODEL 1
REMARK minimizedAffinity 10.0402937
REMARK minimizedRMSD -1
REMARK  0 active torsions:
REMARK  status: ('A' for Active; 'I' for Inactive)
ROOT
ATOM      1  C1  BNZ d   1       1.889  -5.999  -2.136  0.00  0.00     0.000 A 
ATOM      2  C2  BNZ d   1       0.702  -6.000  -2.819  0.00  0.00     0.000 A 
ATOM      3  C3  BNZ d   1       0.545  -5.253  -3.953  0.00  0.00     0.000 A 
ATOM      4  C4  BNZ d   1       1.562  -4.477  -4.381  0.00  0.00     0.000 A 
ATOM      5  C5  BNZ d   1       2.762  -4.458  -3.699  0.00  0.00     0.000 A 
ATOM      6  C6  BNZ d   1       2.929  -5.241  -2.579  0.00  0.00     0.000 A 
ENDROOT
TORSDOF 0
ENDMDL
