MODEL 1
REMARK minimizedAffinity 5.87043953
REMARK minimizedRMSD -1
REMARK  0 active torsions:
REMARK  status: ('A' for Active; 'I' for Inactive)
ROOT
ATOM      1  C1  BNZ d   1      -5.985  -1.452   3.566  0.00  0.00     0.000 A 
ATOM      2  C2  BNZ d   1      -5.980  -1.831   4.882  0.00  0.00     0.000 A 
ATOM      3  C3  BNZ d   1      -6.000  -0.896   5.879  0.00  0.00     0.000 A 
ATOM      4  C4  BNZ d   1      -5.985   0.414   5.560  0.00  0.00     0.000 A 
ATOM      5  C5  BNZ d   1      -5.981   0.812   4.238  0.00  0.00     0.000 A 
ATOM      6  C6  BNZ d   1      -6.000  -0.131   3.237  0.00  0.00     0.000 A 
ENDROOT
TORSDOF 0
ENDMDL
