MODEL 1
REMARK minimizedAffinity 3.68672109
REMARK minimizedRMSD -1
REMARK  0 active torsions:
REMARK  status: ('A' for Active; 'I' for Inactive)
ROOT
ATOM      1  C1  BNZ d   1       5.338  -3.204  -0.728  0.00  0.00     0.000 A 
ATOM      2  C2  BNZ d   1       5.334  -3.943  -1.880  0.00  0.00     0.000 A 
ATOM      3  C3  BNZ d   1       5.685  -3.379  -3.075  0.00  0.00     0.000 A 
ATOM      4  C4  BNZ d   1       6.000  -2.069  -3.122  0.00  0.00     0.000 A 
ATOM      5  C5  BNZ d   1       5.999  -1.308  -1.971  0.00  0.00     0.000 A 
ATOM      6  C6  BNZ d   1       5.684  -1.888  -0.764  0.00  0.00     0.000 A 
ENDROOT
TORSDOF 0
ENDMDL
