MODEL 1
REMARK minimizedAffinity 8.96113586
REMARK minimizedRMSD -1
REMARK  0 active torsions:
REMARK  status: ('A' for Active; 'I' for Inactive)
ROOT
ATOM      1  C1  BNZ d   1      -1.088   4.523  -0.484  0.00  0.00     0.000 A 
ATOM      2  C2  BNZ d   1      -1.222   3.341   0.193  0.00  0.00     0.000 A 
ATOM      3  C3  BNZ d   1      -0.204   2.860   0.969  0.00  0.00     0.000 A 
ATOM      4  C4  BNZ d   1       0.958   3.540   1.035  0.00  0.00     0.000 A 
ATOM      5  C5  BNZ d   1       1.112   4.729   0.350  0.00  0.00     0.000 A 
ATOM      6  C6  BNZ d   1       0.072   5.230  -0.399  0.00  0.00     0.000 A 
ENDROOT
TORSDOF 0
ENDMDL
