MODEL 1
REMARK minimizedAffinity 8.18433762
REMARK minimizedRMSD -1
REMARK  0 active torsions:
REMARK  status: ('A' for Active; 'I' for Inactive)
ROOT
ATOM      1  C1  BNZ d   1       5.621  -4.873  -1.890  0.00  0.00     0.000 A 
ATOM      2  C2  BNZ d   1       5.970  -4.110  -0.807  0.00  0.00     0.000 A 
ATOM      3  C3  BNZ d   1       5.964  -2.745  -0.882  0.00  0.00     0.000 A 
ATOM      4  C4  BNZ d   1       5.650  -2.147  -2.049  0.00  0.00     0.000 A 
ATOM      5  C5  BNZ d   1       5.305  -2.903  -3.152  0.00  0.00     0.000 A 
ATOM      6  C6  BNZ d   1       5.274  -4.275  -3.062  0.00  0.00     0.000 A 
ENDROOT
TORSDOF 0
ENDMDL
