MODEL 1
REMARK minimizedAffinity 3.76940322
REMARK minimizedRMSD -1
REMARK  0 active torsions:
REMARK  status: ('A' for Active; 'I' for Inactive)
ROOT
ATOM      1  C1  BNZ d   1       0.853  -2.055  -1.331  0.00  0.00     0.000 A 
ATOM      2  C2  BNZ d   1       1.822  -3.016  -1.447  0.00  0.00     0.000 A 
ATOM      3  C3  BNZ d   1       1.534  -4.238  -1.987  0.00  0.00     0.000 A 
ATOM      4  C4  BNZ d   1       0.271  -4.512  -2.373  0.00  0.00     0.000 A 
ATOM      5  C5  BNZ d   1      -0.719  -3.556  -2.254  0.00  0.00     0.000 A 
ATOM      6  C6  BNZ d   1      -0.417  -2.314  -1.746  0.00  0.00     0.000 A 
ENDROOT
TORSDOF 0
ENDMDL
