MODEL 1
REMARK minimizedAffinity 5.77848768
REMARK minimizedRMSD -1
REMARK  0 active torsions:
REMARK  status: ('A' for Active; 'I' for Inactive)
ROOT
ATOM      1  C1  BNZ d   1       0.237   3.156   0.708  0.00  0.00     0.000 A 
ATOM      2  C2  BNZ d   1      -0.363   4.021  -0.169  0.00  0.00     0.000 A 
ATOM      3  C3  BNZ d   1       0.138   5.278  -0.365  0.00  0.00     0.000 A 
ATOM      4  C4  BNZ d   1       1.213   5.681   0.343  0.00  0.00     0.000 A 
ATOM      5  C5  BNZ d   1       1.823   4.824   1.237  0.00  0.00     0.000 A 
ATOM      6  C6  BNZ d   1       1.339   3.547   1.404  0.00  0.00     0.000 A 
ENDROOT
TORSDOF 0
ENDMDL
