MODEL 1
REMARK minimizedAffinity -3.00992155
REMARK minimizedRMSD -1
REMARK  0 active torsions:
REMARK  status: ('A' for Active; 'I' for Inactive)
ROOT
ATOM      1  C4' PXY d   1      -1.222   3.310   1.710  0.00  0.00     0.077 C 
ATOM      2  C1' PXY d   1       1.077  -1.355  -0.813  0.00  0.00     0.077 C 
ATOM      3  C1  PXY d   1       0.466  -0.139  -0.144  0.00  0.00    -0.082 A 
ATOM      4  C2  PXY d   1       0.519   1.036  -0.750  0.00  0.00     0.003 A 
ATOM      5  C3  PXY d   1      -0.001   2.152  -0.146  0.00  0.00     0.003 A 
ATOM      6  C4  PXY d   1      -0.627   2.054   1.068  0.00  0.00    -0.082 A 
ATOM      7  C5  PXY d   1      -0.693   0.856   1.688  0.00  0.00     0.003 A 
ATOM      8  C6  PXY d   1      -0.124  -0.257   1.076  0.00  0.00     0.003 A 
ENDROOT
TORSDOF 0
ENDMDL
