MODEL 1
REMARK minimizedAffinity -3.98103619
REMARK minimizedRMSD -1
REMARK  0 active torsions:
REMARK  status: ('A' for Active; 'I' for Inactive)
ROOT
ATOM      1  C4' PXY d   1      -0.271   3.236   2.225  0.00  0.00     0.077 C 
ATOM      2  C1' PXY d   1       0.529  -1.592  -0.852  0.00  0.00     0.077 C 
ATOM      3  C1  PXY d   1       0.310  -0.332  -0.038  0.00  0.00    -0.082 A 
ATOM      4  C2  PXY d   1       0.673   0.839  -0.535  0.00  0.00     0.003 A 
ATOM      5  C3  PXY d   1       0.511   1.985   0.200  0.00  0.00     0.003 A 
ATOM      6  C4  PXY d   1      -0.077   1.938   1.436  0.00  0.00    -0.082 A 
ATOM      7  C5  PXY d   1      -0.461   0.748   1.945  0.00  0.00     0.003 A 
ATOM      8  C6  PXY d   1      -0.250  -0.408   1.200  0.00  0.00     0.003 A 
ENDROOT
TORSDOF 0
ENDMDL
