MODEL 1
REMARK minimizedAffinity -0.976387084
REMARK minimizedRMSD -1
REMARK  0 active torsions:
REMARK  status: ('A' for Active; 'I' for Inactive)
ROOT
ATOM      1  C4' PXY d   1       0.781  -1.894  -1.366  0.00  0.00     0.077 C 
ATOM      2  C1' PXY d   1      -0.550   2.095   2.599  0.00  0.00     0.077 C 
ATOM      3  C1  PXY d   1      -0.203   1.058   1.550  0.00  0.00    -0.082 A 
ATOM      4  C2  PXY d   1      -0.356  -0.227   1.825  0.00  0.00     0.003 A 
ATOM      5  C3  PXY d   1      -0.016  -1.180   0.899  0.00  0.00     0.003 A 
ATOM      6  C4  PXY d   1       0.434  -0.812  -0.341  0.00  0.00    -0.082 A 
ATOM      7  C5  PXY d   1       0.583   0.498  -0.633  0.00  0.00     0.003 A 
ATOM      8  C6  PXY d   1       0.272   1.448   0.336  0.00  0.00     0.003 A 
ENDROOT
TORSDOF 0
ENDMDL
