MODEL 1
REMARK minimizedAffinity -2.57109141
REMARK minimizedRMSD -1
REMARK  0 active torsions:
REMARK  status: ('A' for Active; 'I' for Inactive)
ROOT
ATOM      1  C4' PXY d   1       0.998  -2.275  -1.635  0.00  0.00     0.077 C 
ATOM      2  C1' PXY d   1      -0.500   1.415   2.555  0.00  0.00     0.077 C 
ATOM      3  C1  PXY d   1      -0.104   0.457   1.448  0.00  0.00    -0.082 A 
ATOM      4  C2  PXY d   1      -0.601  -0.769   1.435  0.00  0.00     0.003 A 
ATOM      5  C3  PXY d   1      -0.229  -1.658   0.460  0.00  0.00     0.003 A 
ATOM      6  C4  PXY d   1       0.619  -1.272  -0.543  0.00  0.00    -0.082 A 
ATOM      7  C5  PXY d   1       1.122  -0.019  -0.543  0.00  0.00     0.003 A 
ATOM      8  C6  PXY d   1       0.764   0.856   0.479  0.00  0.00     0.003 A 
ENDROOT
TORSDOF 0
ENDMDL
