MODEL 1
REMARK minimizedAffinity -3.33032846
REMARK minimizedRMSD -1
REMARK  0 active torsions:
REMARK  status: ('A' for Active; 'I' for Inactive)
ROOT
ATOM      1  C4' PXY d   1       0.722  -1.292  -0.405  0.00  0.00     0.077 C 
ATOM      2  C1' PXY d   1      -0.689   4.045   1.311  0.00  0.00     0.077 C 
ATOM      3  C1  PXY d   1      -0.320   2.641   0.873  0.00  0.00    -0.082 A 
ATOM      4  C2  PXY d   1       0.371   2.464  -0.241  0.00  0.00     0.003 A 
ATOM      5  C3  PXY d   1       0.685   1.199  -0.669  0.00  0.00     0.003 A 
ATOM      6  C4  PXY d   1       0.336   0.108   0.080  0.00  0.00    -0.082 A 
ATOM      7  C5  PXY d   1      -0.360   0.281   1.224  0.00  0.00     0.003 A 
ATOM      8  C6  PXY d   1      -0.705   1.570   1.619  0.00  0.00     0.003 A 
ENDROOT
TORSDOF 0
ENDMDL
