MODEL 1
REMARK minimizedAffinity -4.50334501
REMARK minimizedRMSD -1
REMARK  0 active torsions:
REMARK  status: ('A' for Active; 'I' for Inactive)
ROOT
ATOM      1  C4' PXY d   1       0.500   3.764  -0.781  0.00  0.00     0.077 C 
ATOM      2  C1' PXY d   1      -0.689  -1.124   2.068  0.00  0.00     0.077 C 
ATOM      3  C1  PXY d   1      -0.387   0.164   1.327  0.00  0.00    -0.082 A 
ATOM      4  C2  PXY d   1       0.240   0.117   0.163  0.00  0.00     0.003 A 
ATOM      5  C3  PXY d   1       0.550   1.274  -0.505  0.00  0.00     0.003 A 
ATOM      6  C4  PXY d   1       0.166   2.488  -0.002  0.00  0.00    -0.082 A 
ATOM      7  C5  PXY d   1      -0.483   2.543   1.180  0.00  0.00     0.003 A 
ATOM      8  C6  PXY d   1      -0.751   1.360   1.862  0.00  0.00     0.003 A 
ENDROOT
TORSDOF 0
ENDMDL
