MODEL 1
REMARK minimizedAffinity -1.42862833
REMARK minimizedRMSD -1
REMARK  0 active torsions:
REMARK  status: ('A' for Active; 'I' for Inactive)
ROOT
ATOM      1  C4' PXY d   1      -0.529  -1.622   2.554  0.00  0.00     0.077 C 
ATOM      2  C1' PXY d   1       0.128   3.103  -0.712  0.00  0.00     0.077 C 
ATOM      3  C1  PXY d   1      -0.046   1.871   0.155  0.00  0.00    -0.082 A 
ATOM      4  C2  PXY d   1       0.472   0.718  -0.236  0.00  0.00     0.003 A 
ATOM      5  C3  PXY d   1       0.296  -0.413   0.521  0.00  0.00     0.003 A 
ATOM      6  C4  PXY d   1      -0.370  -0.350   1.715  0.00  0.00    -0.082 A 
ATOM      7  C5  PXY d   1      -0.892   0.825   2.126  0.00  0.00     0.003 A 
ATOM      8  C6  PXY d   1      -0.738   1.952   1.323  0.00  0.00     0.003 A 
ENDROOT
TORSDOF 0
ENDMDL
