MODEL 1
REMARK minimizedAffinity -4.31093407
REMARK minimizedRMSD -1
REMARK  0 active torsions:
REMARK  status: ('A' for Active; 'I' for Inactive)
ROOT
ATOM      1  C4' PXY d   1      -0.467  -2.953  -1.677  0.00  0.00     0.077 C 
ATOM      2  C1' PXY d   1      -0.697   1.299   2.233  0.00  0.00     0.077 C 
ATOM      3  C1  PXY d   1      -0.639   0.193   1.198  0.00  0.00    -0.082 A 
ATOM      4  C2  PXY d   1      -0.858  -1.059   1.566  0.00  0.00     0.003 A 
ATOM      5  C3  PXY d   1      -0.778  -2.076   0.649  0.00  0.00     0.003 A 
ATOM      6  C4  PXY d   1      -0.524  -1.802  -0.668  0.00  0.00    -0.082 A 
ATOM      7  C5  PXY d   1      -0.310  -0.527  -1.053  0.00  0.00     0.003 A 
ATOM      8  C6  PXY d   1      -0.354   0.486  -0.100  0.00  0.00     0.003 A 
ENDROOT
TORSDOF 0
ENDMDL
