MODEL 1
REMARK minimizedAffinity 2.931844
REMARK minimizedRMSD -1
REMARK  0 active torsions:
REMARK  status: ('A' for Active; 'I' for Inactive)
ROOT
ATOM      1  C4' PXY d   1       0.936  -2.002  -1.103  0.00  0.00     0.077 C 
ATOM      2  C1' PXY d   1      -0.468   1.756   3.059  0.00  0.00     0.077 C 
ATOM      3  C1  PXY d   1      -0.099   0.780   1.959  0.00  0.00    -0.082 A 
ATOM      4  C2  PXY d   1      -0.461  -0.488   2.061  0.00  0.00     0.003 A 
ATOM      5  C3  PXY d   1      -0.108  -1.391   1.091  0.00  0.00     0.003 A 
ATOM      6  C4  PXY d   1       0.577  -0.980  -0.021  0.00  0.00    -0.082 A 
ATOM      7  C5  PXY d   1       0.941   0.315  -0.138  0.00  0.00     0.003 A 
ATOM      8  C6  PXY d   1       0.609   1.207   0.878  0.00  0.00     0.003 A 
ENDROOT
TORSDOF 0
ENDMDL
