MODEL 1
REMARK minimizedAffinity -3.04305267
REMARK minimizedRMSD -1
REMARK  0 active torsions:
REMARK  status: ('A' for Active; 'I' for Inactive)
ROOT
ATOM      1  C4' PXY d   1       0.463  -4.615  -1.484  0.00  0.00     0.077 C 
ATOM      2  C1' PXY d   1       1.298   1.103  -1.628  0.00  0.00     0.077 C 
ATOM      3  C1  PXY d   1       1.071  -0.396  -1.601  0.00  0.00    -0.082 A 
ATOM      4  C2  PXY d   1       1.258  -1.065  -0.475  0.00  0.00     0.003 A 
ATOM      5  C3  PXY d   1       1.088  -2.425  -0.440  0.00  0.00     0.003 A 
ATOM      6  C4  PXY d   1       0.672  -3.100  -1.556  0.00  0.00    -0.082 A 
ATOM      7  C5  PXY d   1       0.469  -2.423  -2.706  0.00  0.00     0.003 A 
ATOM      8  C6  PXY d   1       0.686  -1.048  -2.731  0.00  0.00     0.003 A 
ENDROOT
TORSDOF 0
ENDMDL
