MODEL 1
REMARK minimizedAffinity -3.18622828
REMARK minimizedRMSD -1
REMARK  0 active torsions:
REMARK  status: ('A' for Active; 'I' for Inactive)
ROOT
ATOM      1  C4' PXY d   1       0.123  -2.936  -2.126  0.00  0.00     0.077 C 
ATOM      2  C1' PXY d   1      -0.682   1.127   1.906  0.00  0.00     0.077 C 
ATOM      3  C1  PXY d   1      -0.471   0.071   0.839  0.00  0.00    -0.082 A 
ATOM      4  C2  PXY d   1      -0.853  -1.175   1.068  0.00  0.00     0.003 A 
ATOM      5  C3  PXY d   1      -0.641  -2.150   0.127  0.00  0.00     0.003 A 
ATOM      6  C4  PXY d   1      -0.079  -1.835  -1.082  0.00  0.00    -0.082 A 
ATOM      7  C5  PXY d   1       0.304  -0.564  -1.327  0.00  0.00     0.003 A 
ATOM      8  C6  PXY d   1       0.117   0.402  -0.342  0.00  0.00     0.003 A 
ENDROOT
TORSDOF 0
ENDMDL
