MODEL 1
REMARK minimizedAffinity 4.49253511
REMARK minimizedRMSD -1
REMARK  0 active torsions:
REMARK  status: ('A' for Active; 'I' for Inactive)
ROOT
ATOM      1  C4' PXY d   1      -0.029   0.471  -1.543  0.00  0.00     0.077 C 
ATOM      2  C1' PXY d   1      -0.404  -1.085   4.012  0.00  0.00     0.077 C 
ATOM      3  C1  PXY d   1      -0.293  -0.678   2.556  0.00  0.00    -0.082 A 
ATOM      4  C2  PXY d   1      -1.262   0.029   1.998  0.00  0.00     0.003 A 
ATOM      5  C3  PXY d   1      -1.193   0.378   0.674  0.00  0.00     0.003 A 
ATOM      6  C4  PXY d   1      -0.095   0.046  -0.074  0.00  0.00    -0.082 A 
ATOM      7  C5  PXY d   1       0.904  -0.665   0.491  0.00  0.00     0.003 A 
ATOM      8  C6  PXY d   1       0.795  -1.045   1.826  0.00  0.00     0.003 A 
ENDROOT
TORSDOF 0
ENDMDL
