MODEL 1
REMARK minimizedAffinity -1.66342151
REMARK minimizedRMSD -1
REMARK  0 active torsions:
REMARK  status: ('A' for Active; 'I' for Inactive)
ROOT
ATOM      1  C4' PXY d   1      -0.790  -1.395  -0.371  0.00  0.00     0.077 C 
ATOM      2  C1' PXY d   1      -0.110   1.607   4.522  0.00  0.00     0.077 C 
ATOM      3  C1  PXY d   1      -0.301   0.822   3.239  0.00  0.00    -0.082 A 
ATOM      4  C2  PXY d   1       0.579  -0.107   2.904  0.00  0.00     0.003 A 
ATOM      5  C3  PXY d   1       0.438  -0.804   1.731  0.00  0.00     0.003 A 
ATOM      6  C4  PXY d   1      -0.642  -0.584   0.920  0.00  0.00    -0.082 A 
ATOM      7  C5  PXY d   1      -1.550   0.355   1.261  0.00  0.00     0.003 A 
ATOM      8  C6  PXY d   1      -1.368   1.080   2.435  0.00  0.00     0.003 A 
ENDROOT
TORSDOF 0
ENDMDL
