MODEL 1
REMARK minimizedAffinity -3.92925119
REMARK minimizedRMSD -1
REMARK  0 active torsions:
REMARK  status: ('A' for Active; 'I' for Inactive)
ROOT
ATOM      1  C4' PXY d   1       1.218  -2.080  -1.626  0.00  0.00     0.077 C 
ATOM      2  C1' PXY d   1      -0.980   1.669   2.186  0.00  0.00     0.077 C 
ATOM      3  C1  PXY d   1      -0.411   0.691   1.176  0.00  0.00    -0.082 A 
ATOM      4  C2  PXY d   1       0.082  -0.464   1.592  0.00  0.00     0.003 A 
ATOM      5  C3  PXY d   1       0.630  -1.346   0.696  0.00  0.00     0.003 A 
ATOM      6  C4  PXY d   1       0.624  -1.066  -0.644  0.00  0.00    -0.082 A 
ATOM      7  C5  PXY d   1       0.113   0.106  -1.077  0.00  0.00     0.003 A 
ATOM      8  C6  PXY d   1      -0.400   1.006  -0.147  0.00  0.00     0.003 A 
ENDROOT
TORSDOF 0
ENDMDL
