MODEL 1
REMARK minimizedAffinity -4.40895319
REMARK minimizedRMSD -1
REMARK  0 active torsions:
REMARK  status: ('A' for Active; 'I' for Inactive)
ROOT
ATOM      1  C4' PXY d   1      -0.015   3.179  -0.419  0.00  0.00     0.077 C 
ATOM      2  C1' PXY d   1      -0.373  -1.438   3.040  0.00  0.00     0.077 C 
ATOM      3  C1  PXY d   1      -0.269  -0.233   2.126  0.00  0.00    -0.082 A 
ATOM      4  C2  PXY d   1      -0.675   0.951   2.556  0.00  0.00     0.003 A 
ATOM      5  C3  PXY d   1      -0.618   2.045   1.731  0.00  0.00     0.003 A 
ATOM      6  C4  PXY d   1      -0.092   1.937   0.472  0.00  0.00    -0.082 A 
ATOM      7  C5  PXY d   1       0.334   0.735   0.030  0.00  0.00     0.003 A 
ATOM      8  C6  PXY d   1       0.230  -0.372   0.868  0.00  0.00     0.003 A 
ENDROOT
TORSDOF 0
ENDMDL
