MODEL 1
REMARK minimizedAffinity -2.69366431
REMARK minimizedRMSD -1
REMARK  0 active torsions:
REMARK  status: ('A' for Active; 'I' for Inactive)
ROOT
ATOM      1  C4' PXY d   1      -1.466   2.373   1.592  0.00  0.00     0.077 C 
ATOM      2  C1' PXY d   1       1.543  -1.683  -1.222  0.00  0.00     0.077 C 
ATOM      3  C1  PXY d   1       0.749  -0.628  -0.476  0.00  0.00    -0.082 A 
ATOM      4  C2  PXY d   1       0.455   0.514  -1.075  0.00  0.00     0.003 A 
ATOM      5  C3  PXY d   1      -0.235   1.491  -0.405  0.00  0.00     0.003 A 
ATOM      6  C4  PXY d   1      -0.674   1.276   0.874  0.00  0.00    -0.082 A 
ATOM      7  C5  PXY d   1      -0.387   0.108   1.488  0.00  0.00     0.003 A 
ATOM      8  C6  PXY d   1       0.350  -0.854   0.805  0.00  0.00     0.003 A 
ENDROOT
TORSDOF 0
ENDMDL
