MODEL 1
REMARK minimizedAffinity -4.11291742
REMARK minimizedRMSD -1
REMARK  0 active torsions:
REMARK  status: ('A' for Active; 'I' for Inactive)
ROOT
ATOM      1  C4' PXY d   1       0.878   1.207  -0.975  0.00  0.00     0.077 C 
ATOM      2  C1' PXY d   1       0.137  -4.198  -2.884  0.00  0.00     0.077 C 
ATOM      3  C1  PXY d   1       0.334  -2.785  -2.371  0.00  0.00    -0.082 A 
ATOM      4  C2  PXY d   1      -0.221  -1.772  -3.017  0.00  0.00     0.003 A 
ATOM      5  C3  PXY d   1      -0.027  -0.485  -2.585  0.00  0.00     0.003 A 
ATOM      6  C4  PXY d   1       0.698  -0.237  -1.451  0.00  0.00    -0.082 A 
ATOM      7  C5  PXY d   1       1.259  -1.266  -0.781  0.00  0.00     0.003 A 
ATOM      8  C6  PXY d   1       1.084  -2.561  -1.259  0.00  0.00     0.003 A 
ENDROOT
TORSDOF 0
ENDMDL
