MODEL 1
REMARK minimizedAffinity -2.3969872
REMARK minimizedRMSD -1
REMARK  0 active torsions:
REMARK  status: ('A' for Active; 'I' for Inactive)
ROOT
ATOM      1  C4' PXY d   1       0.470  -3.658  -1.761  0.00  0.00     0.077 C 
ATOM      2  C1' PXY d   1       0.500   2.123  -1.785  0.00  0.00     0.077 C 
ATOM      3  C1  PXY d   1       0.482   0.607  -1.787  0.00  0.00    -0.082 A 
ATOM      4  C2  PXY d   1       0.995  -0.055  -0.762  0.00  0.00     0.003 A 
ATOM      5  C3  PXY d   1       1.016  -1.426  -0.762  0.00  0.00     0.003 A 
ATOM      6  C4  PXY d   1       0.458  -2.127  -1.798  0.00  0.00    -0.082 A 
ATOM      7  C5  PXY d   1      -0.076  -1.459  -2.842  0.00  0.00     0.003 A 
ATOM      8  C6  PXY d   1      -0.051  -0.068  -2.842  0.00  0.00     0.003 A 
ENDROOT
TORSDOF 0
ENDMDL
