MODEL 1
REMARK minimizedAffinity 2.92949271
REMARK minimizedRMSD -1
REMARK  0 active torsions:
REMARK  status: ('A' for Active; 'I' for Inactive)
ROOT
ATOM      1  C4' PXY d   1       0.320   2.316   4.644  0.00  0.00     0.077 C 
ATOM      2  C1' PXY d   1       0.294   5.786   0.021  0.00  0.00     0.077 C 
ATOM      3  C1  PXY d   1       0.289   4.871   1.229  0.00  0.00    -0.082 A 
ATOM      4  C2  PXY d   1       0.938   5.230   2.324  0.00  0.00     0.003 A 
ATOM      5  C3  PXY d   1       0.972   4.400   3.415  0.00  0.00     0.003 A 
ATOM      6  C4  PXY d   1       0.289   3.213   3.403  0.00  0.00    -0.082 A 
ATOM      7  C5  PXY d   1      -0.384   2.844   2.293  0.00  0.00     0.003 A 
ATOM      8  C6  PXY d   1      -0.371   3.682   1.182  0.00  0.00     0.003 A 
ENDROOT
TORSDOF 0
ENDMDL
