MODEL 1
REMARK minimizedAffinity -4.87821341
REMARK minimizedRMSD -1
REMARK  0 active torsions:
REMARK  status: ('A' for Active; 'I' for Inactive)
ROOT
ATOM      1  C   UNL d   1      -0.823   3.784  -0.284  0.00  0.00    -0.002 A 
ATOM      2  C1  UNL d   1      -0.541   3.257  -1.536  0.00  0.00     0.010 A 
ATOM      3  C2  UNL d   1      -0.088   1.943  -1.668  0.00  0.00     0.041 A 
ATOM      4  C3  UNL d   1       0.077   1.159  -0.509  0.00  0.00    -0.075 A 
ATOM      5  S   UNL d   1       0.619  -0.475  -0.427  0.00  0.00     0.015 SA
ATOM      6  C4  UNL d   1       0.489  -0.512   1.272  0.00  0.00     0.022 A 
ATOM      7  C5  UNL d   1       0.044   0.685   1.781  0.00  0.00     0.026 A 
ATOM      8  C6  UNL d   1      -0.201   1.668   0.763  0.00  0.00    -0.082 A 
ATOM      9  C7  UNL d   1      -0.658   3.004   0.864  0.00  0.00     0.045 A 
ENDROOT
TORSDOF 0
ENDMDL
