MODEL 1
REMARK minimizedAffinity -1.95034289
REMARK minimizedRMSD -1
REMARK  0 active torsions:
REMARK  status: ('A' for Active; 'I' for Inactive)
ROOT
ATOM      1  C   UNL d   1      -0.137   3.542   0.158  0.00  0.00    -0.002 A 
ATOM      2  C1  UNL d   1      -0.140   3.073  -1.149  0.00  0.00     0.010 A 
ATOM      3  C2  UNL d   1       0.050   1.716  -1.417  0.00  0.00     0.041 A 
ATOM      4  C3  UNL d   1       0.244   0.829  -0.339  0.00  0.00    -0.075 A 
ATOM      5  S   UNL d   1       0.495  -0.874  -0.428  0.00  0.00     0.015 SA
ATOM      6  C4  UNL d   1       0.612  -1.020   1.267  0.00  0.00     0.022 A 
ATOM      7  C5  UNL d   1       0.465   0.191   1.900  0.00  0.00     0.026 A 
ATOM      8  C6  UNL d   1       0.250   1.277   0.985  0.00  0.00    -0.082 A 
ATOM      9  C7  UNL d   1       0.055   2.659   1.224  0.00  0.00     0.045 A 
ENDROOT
TORSDOF 0
ENDMDL
