MODEL 1
REMARK minimizedAffinity -1.21830952
REMARK minimizedRMSD -1
REMARK  0 active torsions:
REMARK  status: ('A' for Active; 'I' for Inactive)
ROOT
ATOM      1  C   UNL d   1       0.170   2.031   2.088  0.00  0.00    -0.002 A 
ATOM      2  C1  UNL d   1       0.722   0.773   2.284  0.00  0.00     0.010 A 
ATOM      3  C2  UNL d   1       1.014  -0.052   1.195  0.00  0.00     0.041 A 
ATOM      4  C3  UNL d   1       0.739   0.414  -0.106  0.00  0.00    -0.075 A 
ATOM      5  S   UNL d   1       1.014  -0.422  -1.588  0.00  0.00     0.015 SA
ATOM      6  C4  UNL d   1       0.405   0.871  -2.516  0.00  0.00     0.022 A 
ATOM      7  C5  UNL d   1      -0.003   1.923  -1.731  0.00  0.00     0.026 A 
ATOM      8  C6  UNL d   1       0.184   1.677  -0.328  0.00  0.00    -0.082 A 
ATOM      9  C7  UNL d   1      -0.101   2.490   0.796  0.00  0.00     0.045 A 
ENDROOT
TORSDOF 0
ENDMDL
