MODEL 1
REMARK minimizedAffinity 3.45105267
REMARK minimizedRMSD -1
REMARK  1 active torsions:
REMARK  status: ('A' for Active; 'I' for Inactive)
REMARK    1  A    between atoms: C3_4  and  O_7 
ROOT
ATOM      1  C   UNL d   1      -2.470  -5.996   1.255  0.00  0.00    -0.033 A 
ATOM      2  C1  UNL d   1      -1.157  -5.832   1.702  0.00  0.00     0.039 A 
ATOM      3  C2  UNL d   1      -0.602  -4.554   1.786  0.00  0.00    -0.080 A 
ATOM      4  C3  UNL d   1      -1.368  -3.450   1.422  0.00  0.00     0.150 A 
ATOM      5  C4  UNL d   1      -2.677  -3.606   0.980  0.00  0.00    -0.007 A 
ATOM      6  C5  UNL d   1      -3.230  -4.883   0.895  0.00  0.00     0.039 A 
ENDROOT
BRANCH   4   7
ATOM      7  O   UNL d   1      -0.867  -2.184   1.483  0.00  0.00    -0.526 OA
ATOM      8  H5  UNL d   1       0.057  -2.232   1.779  0.00  0.00     0.418 HD
ENDBRANCH   4   7
TORSDOF 1
ENDMDL
