MODEL 1
REMARK minimizedAffinity 14.5702991
REMARK minimizedRMSD -1
REMARK  1 active torsions:
REMARK  status: ('A' for Active; 'I' for Inactive)
REMARK    1  A    between atoms: C3_4  and  O_7 
ROOT
ATOM      1  C   UNL d   1       0.895   2.819   1.716  0.00  0.00    -0.033 A 
ATOM      2  C1  UNL d   1       2.028   2.574   0.938  0.00  0.00     0.039 A 
ATOM      3  C2  UNL d   1       2.853   3.632   0.551  0.00  0.00    -0.080 A 
ATOM      4  C3  UNL d   1       2.535   4.927   0.949  0.00  0.00     0.150 A 
ATOM      5  C4  UNL d   1       1.410   5.178   1.728  0.00  0.00    -0.007 A 
ATOM      6  C5  UNL d   1       0.587   4.121   2.112  0.00  0.00     0.039 A 
ENDROOT
BRANCH   4   7
ATOM      7  O   UNL d   1       3.308   5.992   0.592  0.00  0.00    -0.526 OA
ATOM      8  H5  UNL d   1       4.034   5.671   0.031  0.00  0.00     0.418 HD
ENDBRANCH   4   7
TORSDOF 1
ENDMDL
