MODEL 1
REMARK minimizedAffinity 15.8526659
REMARK minimizedRMSD -1
REMARK  1 active torsions:
REMARK  status: ('A' for Active; 'I' for Inactive)
REMARK    1  A    between atoms: C3_4  and  O_7 
ROOT
ATOM      1  C   UNL d   1      -5.998   5.999   4.671  0.00  0.00    -0.033 A 
ATOM      2  C1  UNL d   1      -5.242   5.432   5.698  0.00  0.00     0.039 A 
ATOM      3  C2  UNL d   1      -4.437   4.320   5.443  0.00  0.00    -0.080 A 
ATOM      4  C3  UNL d   1      -4.396   3.787   4.158  0.00  0.00     0.150 A 
ATOM      5  C4  UNL d   1      -5.144   4.349   3.129  0.00  0.00    -0.007 A 
ATOM      6  C5  UNL d   1      -5.948   5.459   3.386  0.00  0.00     0.039 A 
ENDROOT
BRANCH   4   7
ATOM      7  O   UNL d   1      -3.629   2.700   3.861  0.00  0.00    -0.526 OA
ATOM      8  H5  UNL d   1      -3.191   2.401   4.676  0.00  0.00     0.418 HD
ENDBRANCH   4   7
TORSDOF 1
ENDMDL
