MODEL 1
REMARK minimizedAffinity 13.4267082
REMARK minimizedRMSD -1
REMARK  1 active torsions:
REMARK  status: ('A' for Active; 'I' for Inactive)
REMARK    1  A    between atoms: C3_4  and  O_7 
ROOT
ATOM      1  C   UNL d   1      -3.155  -3.017  -2.581  0.00  0.00    -0.033 A 
ATOM      2  C1  UNL d   1      -4.272  -2.790  -3.388  0.00  0.00     0.039 A 
ATOM      3  C2  UNL d   1      -5.241  -3.784  -3.538  0.00  0.00    -0.080 A 
ATOM      4  C3  UNL d   1      -5.082  -4.998  -2.876  0.00  0.00     0.150 A 
ATOM      5  C4  UNL d   1      -3.975  -5.229  -2.067  0.00  0.00    -0.007 A 
ATOM      6  C5  UNL d   1      -3.008  -4.236  -1.919  0.00  0.00     0.039 A 
ENDROOT
BRANCH   4   7
ATOM      7  O   UNL d   1      -5.999  -6.000  -2.995  0.00  0.00    -0.526 OA
ATOM      8  H5  UNL d   1      -6.695  -5.709  -3.608  0.00  0.00     0.418 HD
ENDBRANCH   4   7
TORSDOF 1
ENDMDL
