MODEL 1
REMARK minimizedAffinity 8.1157198
REMARK minimizedRMSD -1
REMARK  1 active torsions:
REMARK  status: ('A' for Active; 'I' for Inactive)
REMARK    1  A    between atoms: C3_4  and  O_7 
ROOT
ATOM      1  C   UNL d   1      -6.000   5.752   4.515  0.00  0.00    -0.033 A 
ATOM      2  C1  UNL d   1      -5.965   5.319   3.188  0.00  0.00     0.039 A 
ATOM      3  C2  UNL d   1      -5.158   4.239   2.825  0.00  0.00    -0.080 A 
ATOM      4  C3  UNL d   1      -4.392   3.601   3.797  0.00  0.00     0.150 A 
ATOM      5  C4  UNL d   1      -4.424   4.025   5.121  0.00  0.00    -0.007 A 
ATOM      6  C5  UNL d   1      -5.230   5.104   5.482  0.00  0.00     0.039 A 
ENDROOT
BRANCH   4   7
ATOM      7  O   UNL d   1      -3.585   2.546   3.490  0.00  0.00    -0.526 OA
ATOM      8  H5  UNL d   1      -3.643   2.383   2.533  0.00  0.00     0.418 HD
ENDBRANCH   4   7
TORSDOF 1
ENDMDL
