MODEL 1
REMARK minimizedAffinity 9.88344288
REMARK minimizedRMSD -1
REMARK  1 active torsions:
REMARK  status: ('A' for Active; 'I' for Inactive)
REMARK    1  A    between atoms: C3_4  and  O_7 
ROOT
ATOM      1  C   UNL d   1      -4.086   2.953   4.231  0.00  0.00    -0.033 A 
ATOM      2  C1  UNL d   1      -4.112   1.763   3.501  0.00  0.00     0.039 A 
ATOM      3  C2  UNL d   1      -4.752   0.637   4.021  0.00  0.00    -0.080 A 
ATOM      4  C3  UNL d   1      -5.364   0.714   5.269  0.00  0.00     0.150 A 
ATOM      5  C4  UNL d   1      -5.346   1.897   6.000  0.00  0.00    -0.007 A 
ATOM      6  C5  UNL d   1      -4.705   3.020   5.480  0.00  0.00     0.039 A 
ENDROOT
BRANCH   4   7
ATOM      7  O   UNL d   1      -5.997  -0.361   5.819  0.00  0.00    -0.526 OA
ATOM      8  H5  UNL d   1      -5.904  -1.116   5.215  0.00  0.00     0.418 HD
ENDBRANCH   4   7
TORSDOF 1
ENDMDL
