MODEL 1
REMARK minimizedAffinity 9.48746014
REMARK minimizedRMSD -1
REMARK  1 active torsions:
REMARK  status: ('A' for Active; 'I' for Inactive)
REMARK    1  A    between atoms: C3_4  and  O_7 
ROOT
ATOM      1  C   UNL d   1       2.144   3.598  -5.241  0.00  0.00    -0.033 A 
ATOM      2  C1  UNL d   1       3.344   3.126  -4.704  0.00  0.00     0.039 A 
ATOM      3  C2  UNL d   1       4.508   3.888  -4.816  0.00  0.00    -0.080 A 
ATOM      4  C3  UNL d   1       4.460   5.119  -5.465  0.00  0.00     0.150 A 
ATOM      5  C4  UNL d   1       3.267   5.597  -5.998  0.00  0.00    -0.007 A 
ATOM      6  C5  UNL d   1       2.105   4.834  -5.886  0.00  0.00     0.039 A 
ENDROOT
BRANCH   4   7
ATOM      7  O   UNL d   1       5.571   5.896  -5.603  0.00  0.00    -0.526 OA
ATOM      8  H5  UNL d   1       6.326   5.425  -5.212  0.00  0.00     0.418 HD
ENDBRANCH   4   7
TORSDOF 1
ENDMDL
