MODEL 1
REMARK minimizedAffinity 3.54204798
REMARK minimizedRMSD -1
REMARK  1 active torsions:
REMARK  status: ('A' for Active; 'I' for Inactive)
REMARK    1  A    between atoms: C3_4  and  O_7 
ROOT
ATOM      1  C   UNL d   1      -2.249  -4.818  -2.348  0.00  0.00    -0.033 A 
ATOM      2  C1  UNL d   1      -2.334  -3.512  -2.834  0.00  0.00     0.039 A 
ATOM      3  C2  UNL d   1      -3.574  -2.979  -3.193  0.00  0.00    -0.080 A 
ATOM      4  C3  UNL d   1      -4.718  -3.760  -3.060  0.00  0.00     0.150 A 
ATOM      5  C4  UNL d   1      -4.641  -5.060  -2.573  0.00  0.00    -0.007 A 
ATOM      6  C5  UNL d   1      -3.402  -5.592  -2.216  0.00  0.00     0.039 A 
ENDROOT
BRANCH   4   7
ATOM      7  O   UNL d   1      -5.949  -3.284  -3.402  0.00  0.00    -0.526 OA
ATOM      8  H5  UNL d   1      -5.845  -2.383  -3.750  0.00  0.00     0.418 HD
ENDBRANCH   4   7
TORSDOF 1
ENDMDL
