MODEL 1
REMARK minimizedAffinity 2.19034266
REMARK minimizedRMSD -1
REMARK  1 active torsions:
REMARK  status: ('A' for Active; 'I' for Inactive)
REMARK    1  A    between atoms: C3_4  and  O_7 
ROOT
ATOM      1  C   UNL d   1       0.908   0.747   1.965  0.00  0.00    -0.033 A 
ATOM      2  C1  UNL d   1       1.564   1.473   0.969  0.00  0.00     0.039 A 
ATOM      3  C2  UNL d   1       1.269   2.824   0.778  0.00  0.00    -0.080 A 
ATOM      4  C3  UNL d   1       0.317   3.437   1.589  0.00  0.00     0.150 A 
ATOM      5  C4  UNL d   1      -0.338   2.721   2.585  0.00  0.00    -0.007 A 
ATOM      6  C5  UNL d   1      -0.042   1.372   2.774  0.00  0.00     0.039 A 
ENDROOT
BRANCH   4   7
ATOM      7  O   UNL d   1      -0.008   4.752   1.437  0.00  0.00    -0.526 OA
ATOM      8  H5  UNL d   1       0.503   5.111   0.692  0.00  0.00     0.418 HD
ENDBRANCH   4   7
TORSDOF 1
ENDMDL
