MODEL 1
REMARK minimizedAffinity 10.6481323
REMARK minimizedRMSD -1
REMARK  1 active torsions:
REMARK  status: ('A' for Active; 'I' for Inactive)
REMARK    1  A    between atoms: C3_4  and  O_7 
ROOT
ATOM      1  C   UNL d   1      -2.873  -5.478  -2.266  0.00  0.00    -0.033 A 
ATOM      2  C1  UNL d   1      -4.168  -5.999  -2.289  0.00  0.00     0.039 A 
ATOM      3  C2  UNL d   1      -5.234  -5.206  -2.720  0.00  0.00    -0.080 A 
ATOM      4  C3  UNL d   1      -4.991  -3.896  -3.125  0.00  0.00     0.150 A 
ATOM      5  C4  UNL d   1      -3.703  -3.372  -3.108  0.00  0.00    -0.007 A 
ATOM      6  C5  UNL d   1      -2.640  -4.165  -2.677  0.00  0.00     0.039 A 
ENDROOT
BRANCH   4   7
ATOM      7  O   UNL d   1      -6.000  -3.083  -3.548  0.00  0.00    -0.526 OA
ATOM      8  H5  UNL d   1      -6.838  -3.570  -3.479  0.00  0.00     0.418 HD
ENDBRANCH   4   7
TORSDOF 1
ENDMDL
