MODEL 1
REMARK minimizedAffinity 4.72971773
REMARK minimizedRMSD -1
REMARK  1 active torsions:
REMARK  status: ('A' for Active; 'I' for Inactive)
REMARK    1  A    between atoms: C3_4  and  O_7 
ROOT
ATOM      1  C   UNL d   1       5.055   2.591  -3.696  0.00  0.00    -0.033 A 
ATOM      2  C1  UNL d   1       5.092   3.845  -4.309  0.00  0.00     0.039 A 
ATOM      3  C2  UNL d   1       3.912   4.433  -4.770  0.00  0.00    -0.080 A 
ATOM      4  C3  UNL d   1       2.705   3.758  -4.611  0.00  0.00     0.150 A 
ATOM      5  C4  UNL d   1       2.661   2.511  -3.998  0.00  0.00    -0.007 A 
ATOM      6  C5  UNL d   1       3.840   1.925  -3.539  0.00  0.00     0.039 A 
ENDROOT
BRANCH   4   7
ATOM      7  O   UNL d   1       1.528   4.290  -5.049  0.00  0.00    -0.526 OA
ATOM      8  H5  UNL d   1       1.716   5.142  -5.477  0.00  0.00     0.418 HD
ENDBRANCH   4   7
TORSDOF 1
ENDMDL
