MODEL 1
REMARK minimizedAffinity 5.60820913
REMARK minimizedRMSD -1
REMARK  1 active torsions:
REMARK  status: ('A' for Active; 'I' for Inactive)
REMARK    1  A    between atoms: C3_4  and  O_7 
ROOT
ATOM      1  C   UNL d   1       5.161   2.397  -3.562  0.00  0.00    -0.033 A 
ATOM      2  C1  UNL d   1       5.259   3.439  -4.487  0.00  0.00     0.039 A 
ATOM      3  C2  UNL d   1       4.105   4.077  -4.946  0.00  0.00    -0.080 A 
ATOM      4  C3  UNL d   1       2.862   3.665  -4.474  0.00  0.00     0.150 A 
ATOM      5  C4  UNL d   1       2.758   2.631  -3.550  0.00  0.00    -0.007 A 
ATOM      6  C5  UNL d   1       3.911   1.994  -3.092  0.00  0.00     0.039 A 
ENDROOT
BRANCH   4   7
ATOM      7  O   UNL d   1       1.708   4.254  -4.897  0.00  0.00    -0.526 OA
ATOM      8  H5  UNL d   1       1.932   4.933  -5.555  0.00  0.00     0.418 HD
ENDBRANCH   4   7
TORSDOF 1
ENDMDL
