MODEL 1
REMARK minimizedAffinity 4.19632769
REMARK minimizedRMSD -1
REMARK  1 active torsions:
REMARK  status: ('A' for Active; 'I' for Inactive)
REMARK    1  A    between atoms: C3_4  and  O_7 
ROOT
ATOM      1  C   UNL d   1       0.723   2.306   1.953  0.00  0.00    -0.033 A 
ATOM      2  C1  UNL d   1       0.614   0.945   2.242  0.00  0.00     0.039 A 
ATOM      3  C2  UNL d   1       1.376   0.015   1.532  0.00  0.00    -0.080 A 
ATOM      4  C3  UNL d   1       2.244   0.460   0.537  0.00  0.00     0.150 A 
ATOM      5  C4  UNL d   1       2.360   1.816   0.247  0.00  0.00    -0.007 A 
ATOM      6  C5  UNL d   1       1.597   2.742   0.957  0.00  0.00     0.039 A 
ENDROOT
BRANCH   4   7
ATOM      7  O   UNL d   1       3.004  -0.410  -0.186  0.00  0.00    -0.526 OA
ATOM      8  H5  UNL d   1       2.798  -1.314   0.104  0.00  0.00     0.418 HD
ENDBRANCH   4   7
TORSDOF 1
ENDMDL
