MODEL 1
REMARK minimizedAffinity -1.27472353
REMARK minimizedRMSD -1
REMARK  0 active torsions:
REMARK  status: ('A' for Active; 'I' for Inactive)
ROOT
ATOM      1  C   UNL d   1      -0.501  -3.471  -0.293  0.00  0.00    -0.002 A 
ATOM      2  C1  UNL d   1      -0.001  -3.005  -1.501  0.00  0.00     0.010 A 
ATOM      3  C2  UNL d   1       0.248  -1.644  -1.689  0.00  0.00     0.041 A 
ATOM      4  C3  UNL d   1      -0.015  -0.751  -0.632  0.00  0.00    -0.075 A 
ATOM      5  S   UNL d   1       0.214   0.958  -0.634  0.00  0.00     0.015 SA
ATOM      6  C4  UNL d   1      -0.347   1.110   0.969  0.00  0.00     0.022 A 
ATOM      7  C5  UNL d   1      -0.704  -0.104   1.507  0.00  0.00     0.026 A 
ATOM      8  C6  UNL d   1      -0.518  -1.196   0.594  0.00  0.00    -0.082 A 
ATOM      9  C7  UNL d   1      -0.761  -2.582   0.753  0.00  0.00     0.045 A 
ENDROOT
TORSDOF 0
ENDMDL
