MODEL 1
REMARK minimizedAffinity -2.19874382
REMARK minimizedRMSD -1
REMARK  0 active torsions:
REMARK  status: ('A' for Active; 'I' for Inactive)
ROOT
ATOM      1  C   UNL d   1       0.199  -1.490  -2.084  0.00  0.00    -0.002 A 
ATOM      2  C1  UNL d   1       0.157  -2.062  -0.821  0.00  0.00     0.010 A 
ATOM      3  C2  UNL d   1       0.137  -1.260   0.322  0.00  0.00     0.041 A 
ATOM      4  C3  UNL d   1       0.158   0.140   0.172  0.00  0.00    -0.075 A 
ATOM      5  S   UNL d   1       0.138   1.321   1.429  0.00  0.00     0.015 SA
ATOM      6  C4  UNL d   1       0.184   2.612   0.318  0.00  0.00     0.022 A 
ATOM      7  C5  UNL d   1       0.214   2.172  -0.984  0.00  0.00     0.026 A 
ATOM      8  C6  UNL d   1       0.199   0.740  -1.090  0.00  0.00    -0.082 A 
ATOM      9  C7  UNL d   1       0.219  -0.100  -2.229  0.00  0.00     0.045 A 
ENDROOT
TORSDOF 0
ENDMDL
