MODEL 1
REMARK minimizedAffinity -2.55797553
REMARK minimizedRMSD -1
REMARK  0 active torsions:
REMARK  status: ('A' for Active; 'I' for Inactive)
ROOT
ATOM      1  C   UNL d   1      -0.826   1.341  -0.546  0.00  0.00    -0.002 A 
ATOM      2  C1  UNL d   1      -1.116   0.652   0.623  0.00  0.00     0.010 A 
ATOM      3  C2  UNL d   1      -0.712  -0.675   0.784  0.00  0.00     0.041 A 
ATOM      4  C3  UNL d   1      -0.004  -1.304  -0.259  0.00  0.00    -0.075 A 
ATOM      5  S   UNL d   1       0.592  -2.921  -0.284  0.00  0.00     0.015 SA
ATOM      6  C4  UNL d   1       1.246  -2.736  -1.847  0.00  0.00     0.022 A 
ATOM      7  C5  UNL d   1       1.025  -1.477  -2.352  0.00  0.00     0.026 A 
ATOM      8  C6  UNL d   1       0.301  -0.630  -1.445  0.00  0.00    -0.082 A 
ATOM      9  C7  UNL d   1      -0.123   0.714  -1.579  0.00  0.00     0.045 A 
ENDROOT
TORSDOF 0
ENDMDL
