MODEL 1
REMARK minimizedAffinity -1.57198513
REMARK minimizedRMSD -1
REMARK  0 active torsions:
REMARK  status: ('A' for Active; 'I' for Inactive)
ROOT
ATOM      1  C   UNL d   1      -0.072  -3.029   0.143  0.00  0.00    -0.002 A 
ATOM      2  C1  UNL d   1       0.419  -2.933  -1.151  0.00  0.00     0.010 A 
ATOM      3  C2  UNL d   1       0.584  -1.687  -1.758  0.00  0.00     0.041 A 
ATOM      4  C3  UNL d   1       0.246  -0.526  -1.034  0.00  0.00    -0.075 A 
ATOM      5  S   UNL d   1       0.366   1.107  -1.574  0.00  0.00     0.015 SA
ATOM      6  C4  UNL d   1      -0.231   1.716  -0.098  0.00  0.00     0.022 A 
ATOM      7  C5  UNL d   1      -0.520   0.712   0.795  0.00  0.00     0.026 A 
ATOM      8  C6  UNL d   1      -0.249  -0.597   0.271  0.00  0.00    -0.082 A 
ATOM      9  C7  UNL d   1      -0.406  -1.875   0.858  0.00  0.00     0.045 A 
ENDROOT
TORSDOF 0
ENDMDL
