MODEL 1
REMARK minimizedAffinity -3.53707457
REMARK minimizedRMSD -1
REMARK  0 active torsions:
REMARK  status: ('A' for Active; 'I' for Inactive)
ROOT
ATOM      1  C   UNL d   1       0.067  -3.967  -1.338  0.00  0.00    -0.002 A 
ATOM      2  C1  UNL d   1       0.345  -2.981  -2.274  0.00  0.00     0.010 A 
ATOM      3  C2  UNL d   1       0.278  -1.631  -1.925  0.00  0.00     0.041 A 
ATOM      4  C3  UNL d   1      -0.074  -1.285  -0.606  0.00  0.00    -0.075 A 
ATOM      5  S   UNL d   1      -0.217   0.303   0.049  0.00  0.00     0.015 SA
ATOM      6  C4  UNL d   1      -0.650  -0.289   1.588  0.00  0.00     0.022 A 
ATOM      7  C5  UNL d   1      -0.688  -1.663   1.619  0.00  0.00     0.026 A 
ATOM      8  C6  UNL d   1      -0.357  -2.260   0.356  0.00  0.00    -0.082 A 
ATOM      9  C7  UNL d   1      -0.281  -3.620  -0.030  0.00  0.00     0.045 A 
ENDROOT
TORSDOF 0
ENDMDL
