MODEL 1
REMARK minimizedAffinity -1.90823936
REMARK minimizedRMSD -1
REMARK  0 active torsions:
REMARK  status: ('A' for Active; 'I' for Inactive)
ROOT
ATOM      1  C   UNL d   1      -0.748  -2.165   1.667  0.00  0.00    -0.002 A 
ATOM      2  C1  UNL d   1      -0.685  -2.670   0.376  0.00  0.00     0.010 A 
ATOM      3  C2  UNL d   1      -0.514  -1.815  -0.714  0.00  0.00     0.041 A 
ATOM      4  C3  UNL d   1      -0.404  -0.430  -0.483  0.00  0.00    -0.075 A 
ATOM      5  S   UNL d   1      -0.189   0.808  -1.664  0.00  0.00     0.015 SA
ATOM      6  C4  UNL d   1      -0.174   2.036  -0.483  0.00  0.00     0.022 A 
ATOM      7  C5  UNL d   1      -0.328   1.533   0.787  0.00  0.00     0.026 A 
ATOM      8  C6  UNL d   1      -0.463   0.103   0.808  0.00  0.00    -0.082 A 
ATOM      9  C7  UNL d   1      -0.638  -0.790   1.892  0.00  0.00     0.045 A 
ENDROOT
TORSDOF 0
ENDMDL
