MODEL 1
REMARK minimizedAffinity -0.930645704
REMARK minimizedRMSD -1
REMARK  0 active torsions:
REMARK  status: ('A' for Active; 'I' for Inactive)
ROOT
ATOM      1  C   UNL d   1      -1.273  -2.665   0.789  0.00  0.00    -0.002 A 
ATOM      2  C1  UNL d   1      -0.088  -3.056   0.183  0.00  0.00     0.010 A 
ATOM      3  C2  UNL d   1       0.833  -2.104  -0.257  0.00  0.00     0.041 A 
ATOM      4  C3  UNL d   1       0.541  -0.738  -0.073  0.00  0.00    -0.075 A 
ATOM      5  S   UNL d   1       1.521   0.605  -0.530  0.00  0.00     0.015 SA
ATOM      6  C4  UNL d   1       0.389   1.730   0.070  0.00  0.00     0.022 A 
ATOM      7  C5  UNL d   1      -0.715   1.113   0.609  0.00  0.00     0.026 A 
ATOM      8  C6  UNL d   1      -0.645  -0.319   0.536  0.00  0.00    -0.082 A 
ATOM      9  C7  UNL d   1      -1.559  -1.309   0.970  0.00  0.00     0.045 A 
ENDROOT
TORSDOF 0
ENDMDL
