MODEL 1
REMARK minimizedAffinity -2.77857804
REMARK minimizedRMSD -1
REMARK  0 active torsions:
REMARK  status: ('A' for Active; 'I' for Inactive)
ROOT
ATOM      1  C   UNL d   1       0.299   0.246  -2.418  0.00  0.00    -0.002 A 
ATOM      2  C1  UNL d   1      -0.109   1.241  -1.541  0.00  0.00     0.010 A 
ATOM      3  C2  UNL d   1      -0.405   0.937  -0.210  0.00  0.00     0.041 A 
ATOM      4  C3  UNL d   1      -0.282  -0.396   0.228  0.00  0.00    -0.075 A 
ATOM      5  S   UNL d   1      -0.589  -1.001   1.813  0.00  0.00     0.015 SA
ATOM      6  C4  UNL d   1      -0.186  -2.595   1.363  0.00  0.00     0.022 A 
ATOM      7  C5  UNL d   1       0.177  -2.681   0.039  0.00  0.00     0.026 A 
ATOM      8  C6  UNL d   1       0.128  -1.415  -0.636  0.00  0.00    -0.082 A 
ATOM      9  C7  UNL d   1       0.420  -1.075  -1.979  0.00  0.00     0.045 A 
ENDROOT
TORSDOF 0
ENDMDL
