MODEL 1
REMARK minimizedAffinity 11.5557356
REMARK minimizedRMSD -1
REMARK  2 active torsions:
REMARK  status: ('A' for Active; 'I' for Inactive)
REMARK    1  A    between atoms: C1_2  and  C2_3 
REMARK    2  A    between atoms: C2_3  and  C3_4 
ROOT
ATOM      1  C3  UNL d   1      -4.204  -2.847   2.245  0.00  0.00    -0.075 A 
ATOM      2  C4  UNL d   1      -5.391  -2.832   1.500  0.00  0.00     0.002 A 
ATOM      3  C5  UNL d   1      -5.709  -3.893   0.651  0.00  0.00     0.002 A 
ATOM      4  C6  UNL d   1      -4.842  -4.976   0.530  0.00  0.00    -0.004 A 
ATOM      5  C7  UNL d   1      -3.651  -4.994   1.253  0.00  0.00     0.002 A 
ATOM      6  C8  UNL d   1      -3.332  -3.936   2.106  0.00  0.00     0.002 A 
ENDROOT
BRANCH   1   7
ATOM      7  C2  UNL d   1      -3.868  -1.716   3.187  0.00  0.00     0.056 C 
BRANCH   7   8
ATOM      8  C1  UNL d   1      -3.520  -0.400   2.483  0.00  0.00     0.007 C 
ATOM      9  C   UNL d   1      -3.250   0.745   3.450  0.00  0.00     0.009 C 
ENDBRANCH   7   8
ENDBRANCH   1   7
TORSDOF 2
ENDMDL
