MODEL 1
REMARK minimizedAffinity 20.8304482
REMARK minimizedRMSD -1
REMARK  2 active torsions:
REMARK  status: ('A' for Active; 'I' for Inactive)
REMARK    1  A    between atoms: C1_2  and  C2_3 
REMARK    2  A    between atoms: C2_3  and  C3_4 
ROOT
ATOM      1  C3  UNL d   1       2.522   2.479  -0.467  0.00  0.00    -0.075 A 
ATOM      2  C4  UNL d   1       2.068   2.997   0.755  0.00  0.00     0.002 A 
ATOM      3  C5  UNL d   1       1.399   4.220   0.801  0.00  0.00     0.002 A 
ATOM      4  C6  UNL d   1       1.183   4.944  -0.370  0.00  0.00    -0.004 A 
ATOM      5  C7  UNL d   1       1.644   4.446  -1.587  0.00  0.00     0.002 A 
ATOM      6  C8  UNL d   1       2.310   3.221  -1.636  0.00  0.00     0.002 A 
ENDROOT
BRANCH   1   7
ATOM      7  C2  UNL d   1       3.221   1.142  -0.527  0.00  0.00     0.056 C 
BRANCH   7   8
ATOM      8  C1  UNL d   1       2.576   0.143  -1.493  0.00  0.00     0.007 C 
ATOM      9  C   UNL d   1       2.016  -1.091  -0.798  0.00  0.00     0.009 C 
ENDBRANCH   7   8
ENDBRANCH   1   7
TORSDOF 2
ENDMDL
