MODEL 1
REMARK minimizedAffinity 7.57821989
REMARK minimizedRMSD -1
REMARK  2 active torsions:
REMARK  status: ('A' for Active; 'I' for Inactive)
REMARK    1  A    between atoms: C1_2  and  C2_3 
REMARK    2  A    between atoms: C2_3  and  C3_4 
ROOT
ATOM      1  C3  UNL d   1      -2.679   3.716  -5.452  0.00  0.00    -0.075 A 
ATOM      2  C4  UNL d   1      -1.318   3.945  -5.698  0.00  0.00     0.002 A 
ATOM      3  C5  UNL d   1      -0.352   3.062  -5.214  0.00  0.00     0.002 A 
ATOM      4  C6  UNL d   1      -0.733   1.947  -4.471  0.00  0.00    -0.004 A 
ATOM      5  C7  UNL d   1      -2.082   1.719  -4.206  0.00  0.00     0.002 A 
ATOM      6  C8  UNL d   1      -3.051   2.598  -4.693  0.00  0.00     0.002 A 
ENDROOT
BRANCH   1   7
ATOM      7  C2  UNL d   1      -3.731   4.652  -5.997  0.00  0.00     0.056 C 
BRANCH   7   8
ATOM      8  C1  UNL d   1      -5.147   4.066  -5.999  0.00  0.00     0.007 C 
ATOM      9  C   UNL d   1      -5.998   4.549  -4.832  0.00  0.00     0.009 C 
ENDBRANCH   7   8
ENDBRANCH   1   7
TORSDOF 2
ENDMDL
