MODEL 1
REMARK minimizedAffinity 13.6601906
REMARK minimizedRMSD -1
REMARK  2 active torsions:
REMARK  status: ('A' for Active; 'I' for Inactive)
REMARK    1  A    between atoms: C1_2  and  C2_3 
REMARK    2  A    between atoms: C2_3  and  C3_4 
ROOT
ATOM      1  C3  UNL d   1      -3.595  -0.591   2.363  0.00  0.00    -0.075 A 
ATOM      2  C4  UNL d   1      -4.517  -0.648   1.307  0.00  0.00     0.002 A 
ATOM      3  C5  UNL d   1      -5.628  -1.489   1.382  0.00  0.00     0.002 A 
ATOM      4  C6  UNL d   1      -5.826  -2.288   2.506  0.00  0.00    -0.004 A 
ATOM      5  C7  UNL d   1      -4.908  -2.251   3.553  0.00  0.00     0.002 A 
ATOM      6  C8  UNL d   1      -3.798  -1.408   3.483  0.00  0.00     0.002 A 
ENDROOT
BRANCH   1   7
ATOM      7  C2  UNL d   1      -2.407   0.339   2.301  0.00  0.00     0.056 C 
BRANCH   7   8
ATOM      8  C1  UNL d   1      -2.589   1.638   3.093  0.00  0.00     0.007 C 
ATOM      9  C   UNL d   1      -3.895   1.686   3.875  0.00  0.00     0.009 C 
ENDBRANCH   7   8
ENDBRANCH   1   7
TORSDOF 2
ENDMDL
