MODEL 1
REMARK minimizedAffinity 12.7893953
REMARK minimizedRMSD -1
REMARK  2 active torsions:
REMARK  status: ('A' for Active; 'I' for Inactive)
REMARK    1  A    between atoms: C1_2  and  C2_3 
REMARK    2  A    between atoms: C2_3  and  C3_4 
ROOT
ATOM      1  C3  UNL d   1      -3.791  -0.994   3.973  0.00  0.00    -0.075 A 
ATOM      2  C4  UNL d   1      -4.627  -1.501   2.967  0.00  0.00     0.002 A 
ATOM      3  C5  UNL d   1      -4.688  -0.882   1.719  0.00  0.00     0.002 A 
ATOM      4  C6  UNL d   1      -3.925   0.255   1.463  0.00  0.00    -0.004 A 
ATOM      5  C7  UNL d   1      -3.104   0.777   2.460  0.00  0.00     0.002 A 
ATOM      6  C8  UNL d   1      -3.037   0.157   3.709  0.00  0.00     0.002 A 
ENDROOT
BRANCH   1   7
ATOM      7  C2  UNL d   1      -3.698  -1.676   5.317  0.00  0.00     0.056 C 
BRANCH   7   8
ATOM      8  C1  UNL d   1      -4.503  -2.976   5.414  0.00  0.00     0.007 C 
ATOM      9  C   UNL d   1      -3.633  -4.205   5.641  0.00  0.00     0.009 C 
ENDBRANCH   7   8
ENDBRANCH   1   7
TORSDOF 2
ENDMDL
