MODEL 1
REMARK minimizedAffinity 2.79620719
REMARK minimizedRMSD -1
REMARK  2 active torsions:
REMARK  status: ('A' for Active; 'I' for Inactive)
REMARK    1  A    between atoms: C1_2  and  C2_3 
REMARK    2  A    between atoms: C2_3  and  C3_4 
ROOT
ATOM      1  C3  UNL d   1       2.439  -0.848  -1.718  0.00  0.00    -0.075 A 
ATOM      2  C4  UNL d   1       2.212  -1.628  -0.575  0.00  0.00     0.002 A 
ATOM      3  C5  UNL d   1       1.885  -2.979  -0.693  0.00  0.00     0.002 A 
ATOM      4  C6  UNL d   1       1.770  -3.564  -1.952  0.00  0.00    -0.004 A 
ATOM      5  C7  UNL d   1       1.978  -2.794  -3.095  0.00  0.00     0.002 A 
ATOM      6  C8  UNL d   1       2.310  -1.443  -2.979  0.00  0.00     0.002 A 
ENDROOT
BRANCH   1   7
ATOM      7  C2  UNL d   1       2.823   0.608  -1.596  0.00  0.00     0.056 C 
BRANCH   7   8
ATOM      8  C1  UNL d   1       3.262   1.021  -0.187  0.00  0.00     0.007 C 
ATOM      9  C   UNL d   1       4.736   1.395  -0.104  0.00  0.00     0.009 C 
ENDBRANCH   7   8
ENDBRANCH   1   7
TORSDOF 2
ENDMDL
