MODEL 1
REMARK minimizedAffinity 3.58784556
REMARK minimizedRMSD -1
REMARK  2 active torsions:
REMARK  status: ('A' for Active; 'I' for Inactive)
REMARK    1  A    between atoms: C1_2  and  C2_3 
REMARK    2  A    between atoms: C2_3  and  C3_4 
ROOT
ATOM      1  C3  UNL d   1       1.535  -2.736  -1.937  0.00  0.00    -0.075 A 
ATOM      2  C4  UNL d   1       1.568  -1.373  -2.265  0.00  0.00     0.002 A 
ATOM      3  C5  UNL d   1       2.373  -0.490  -1.545  0.00  0.00     0.002 A 
ATOM      4  C6  UNL d   1       3.146  -0.955  -0.483  0.00  0.00    -0.004 A 
ATOM      5  C7  UNL d   1       3.109  -2.304  -0.138  0.00  0.00     0.002 A 
ATOM      6  C8  UNL d   1       2.308  -3.191  -0.860  0.00  0.00     0.002 A 
ENDROOT
BRANCH   1   7
ATOM      7  C2  UNL d   1       0.689  -3.702  -2.731  0.00  0.00     0.056 C 
BRANCH   7   8
ATOM      8  C1  UNL d   1      -0.780  -3.284  -2.860  0.00  0.00     0.007 C 
ATOM      9  C   UNL d   1      -1.753  -4.434  -2.637  0.00  0.00     0.009 C 
ENDBRANCH   7   8
ENDBRANCH   1   7
TORSDOF 2
ENDMDL
