MODEL 1
REMARK minimizedAffinity 10.8962059
REMARK minimizedRMSD -1
REMARK  2 active torsions:
REMARK  status: ('A' for Active; 'I' for Inactive)
REMARK    1  A    between atoms: C1_2  and  C2_3 
REMARK    2  A    between atoms: C2_3  and  C3_4 
ROOT
ATOM      1  C3  UNL d   1       2.307  -1.006  -1.051  0.00  0.00    -0.075 A 
ATOM      2  C4  UNL d   1       1.950  -0.526  -2.320  0.00  0.00     0.002 A 
ATOM      3  C5  UNL d   1       1.582  -1.410  -3.334  0.00  0.00     0.002 A 
ATOM      4  C6  UNL d   1       1.576  -2.783  -3.098  0.00  0.00    -0.004 A 
ATOM      5  C7  UNL d   1       1.945  -3.272  -1.846  0.00  0.00     0.002 A 
ATOM      6  C8  UNL d   1       2.309  -2.390  -0.828  0.00  0.00     0.002 A 
ENDROOT
BRANCH   1   7
ATOM      7  C2  UNL d   1       2.677  -0.053   0.060  0.00  0.00     0.056 C 
BRANCH   7   8
ATOM      8  C1  UNL d   1       3.678   1.031  -0.356  0.00  0.00     0.007 C 
ATOM      9  C   UNL d   1       4.377   1.688   0.826  0.00  0.00     0.009 C 
ENDBRANCH   7   8
ENDBRANCH   1   7
TORSDOF 2
ENDMDL
