MODEL 1
REMARK minimizedAffinity 7.74818325
REMARK minimizedRMSD -1
REMARK  2 active torsions:
REMARK  status: ('A' for Active; 'I' for Inactive)
REMARK    1  A    between atoms: C1_2  and  C2_3 
REMARK    2  A    between atoms: C2_3  and  C3_4 
ROOT
ATOM      1  C3  UNL d   1       3.062  -2.576  -1.120  0.00  0.00    -0.075 A 
ATOM      2  C4  UNL d   1       2.927  -2.923  -2.472  0.00  0.00     0.002 A 
ATOM      3  C5  UNL d   1       2.436  -1.999  -3.395  0.00  0.00     0.002 A 
ATOM      4  C6  UNL d   1       2.063  -0.724  -2.977  0.00  0.00    -0.004 A 
ATOM      5  C7  UNL d   1       2.177  -0.374  -1.634  0.00  0.00     0.002 A 
ATOM      6  C8  UNL d   1       2.673  -1.294  -0.709  0.00  0.00     0.002 A 
ENDROOT
BRANCH   1   7
ATOM      7  C2  UNL d   1       3.621  -3.562  -0.122  0.00  0.00     0.056 C 
BRANCH   7   8
ATOM      8  C1  UNL d   1       5.118  -3.386   0.156  0.00  0.00     0.007 C 
ATOM      9  C   UNL d   1       5.999  -3.824  -1.006  0.00  0.00     0.009 C 
ENDBRANCH   7   8
ENDBRANCH   1   7
TORSDOF 2
ENDMDL
