MODEL 1
REMARK minimizedAffinity 9.96635437
REMARK minimizedRMSD -1
REMARK  2 active torsions:
REMARK  status: ('A' for Active; 'I' for Inactive)
REMARK    1  A    between atoms: C1_2  and  C2_3 
REMARK    2  A    between atoms: C2_3  and  C3_4 
ROOT
ATOM      1  C3  UNL d   1      -2.334   0.578   3.592  0.00  0.00    -0.075 A 
ATOM      2  C4  UNL d   1      -2.924   0.708   2.327  0.00  0.00     0.002 A 
ATOM      3  C5  UNL d   1      -2.644   1.815   1.525  0.00  0.00     0.002 A 
ATOM      4  C6  UNL d   1      -1.781   2.809   1.981  0.00  0.00    -0.004 A 
ATOM      5  C7  UNL d   1      -1.202   2.699   3.244  0.00  0.00     0.002 A 
ATOM      6  C8  UNL d   1      -1.477   1.590   4.046  0.00  0.00     0.002 A 
ENDROOT
BRANCH   1   7
ATOM      7  C2  UNL d   1      -2.609  -0.632   4.453  0.00  0.00     0.056 C 
BRANCH   7   8
ATOM      8  C1  UNL d   1      -1.525  -1.712   4.375  0.00  0.00     0.007 C 
ATOM      9  C   UNL d   1      -2.071  -3.084   4.001  0.00  0.00     0.009 C 
ENDBRANCH   7   8
ENDBRANCH   1   7
TORSDOF 2
ENDMDL
