MODEL 1
REMARK minimizedAffinity -3.47401476
REMARK minimizedRMSD -1
REMARK  0 active torsions:
REMARK  status: ('A' for Active; 'I' for Inactive)
ROOT
ATOM      1  N1  IND d   1       0.070   0.320  -1.331  0.00  0.00    -0.196 N 
ATOM      2  C2  IND d   1       0.802  -0.835  -1.336  0.00  0.00     0.054 A 
ATOM      3  C3  IND d   1       0.794  -1.401  -0.108  0.00  0.00    -0.031 A 
ATOM      4  C4  IND d   1      -0.436  -0.659   2.028  0.00  0.00     0.051 A 
ATOM      5  C5  IND d   1      -1.200   0.355   2.534  0.00  0.00    -0.031 A 
ATOM      6  C6  IND d   1      -1.590   1.429   1.761  0.00  0.00     0.015 A 
ATOM      7  C7  IND d   1      -1.238   1.524   0.444  0.00  0.00    -0.016 A 
ATOM      8  C8  IND d   1      -0.456   0.500  -0.071  0.00  0.00    -0.047 A 
ATOM      9  C9  IND d   1      -0.022  -0.571   0.720  0.00  0.00    -0.096 A 
ATOM     10  HN1 IND d   1      -0.042   0.845  -2.002  0.00  0.00     0.298 HD
ENDROOT
TORSDOF 0
ENDMDL
