MODEL 1
REMARK minimizedAffinity -3.93110752
REMARK minimizedRMSD -1
REMARK  0 active torsions:
REMARK  status: ('A' for Active; 'I' for Inactive)
ROOT
ATOM      1  N1  IND d   1       0.592   0.034  -1.533  0.00  0.00    -0.196 N 
ATOM      2  C2  IND d   1       0.821  -1.142  -0.875  0.00  0.00     0.054 A 
ATOM      3  C3  IND d   1       0.191  -1.142   0.322  0.00  0.00    -0.031 A 
ATOM      4  C4  IND d   1      -1.352   0.639   1.358  0.00  0.00     0.051 A 
ATOM      5  C5  IND d   1      -1.832   1.902   1.148  0.00  0.00    -0.031 A 
ATOM      6  C6  IND d   1      -1.525   2.619   0.011  0.00  0.00     0.015 A 
ATOM      7  C7  IND d   1      -0.732   2.095  -0.970  0.00  0.00    -0.016 A 
ATOM      8  C8  IND d   1      -0.237   0.816  -0.758  0.00  0.00    -0.047 A 
ATOM      9  C9  IND d   1      -0.510   0.099   0.414  0.00  0.00    -0.096 A 
ATOM     10  HN1 IND d   1       0.911   0.249  -2.301  0.00  0.00     0.298 HD
ENDROOT
TORSDOF 0
ENDMDL
