MODEL 1
REMARK minimizedAffinity -0.142748997
REMARK minimizedRMSD -1
REMARK  0 active torsions:
REMARK  status: ('A' for Active; 'I' for Inactive)
ROOT
ATOM      1  N1  IND d   1       0.413   0.052  -1.008  0.00  0.00    -0.196 N 
ATOM      2  C2  IND d   1       1.126  -1.112  -1.084  0.00  0.00     0.054 A 
ATOM      3  C3  IND d   1       1.094  -1.762   0.101  0.00  0.00    -0.031 A 
ATOM      4  C4  IND d   1      -0.151  -1.149   2.269  0.00  0.00     0.051 A 
ATOM      5  C5  IND d   1      -0.906  -0.160   2.835  0.00  0.00    -0.031 A 
ATOM      6  C6  IND d   1      -1.269   0.972   2.134  0.00  0.00     0.015 A 
ATOM      7  C7  IND d   1      -0.899   1.152   0.831  0.00  0.00    -0.016 A 
ATOM      8  C8  IND d   1      -0.127   0.153   0.255  0.00  0.00    -0.047 A 
ATOM      9  C9  IND d   1       0.281  -0.977   0.975  0.00  0.00    -0.096 A 
ATOM     10  HN1 IND d   1       0.318   0.624  -1.643  0.00  0.00     0.298 HD
ENDROOT
TORSDOF 0
ENDMDL
