MODEL 1
REMARK minimizedAffinity -3.66666007
REMARK minimizedRMSD -1
REMARK  0 active torsions:
REMARK  status: ('A' for Active; 'I' for Inactive)
ROOT
ATOM      1  N1  IND d   1       0.624  -1.401   0.262  0.00  0.00    -0.196 N 
ATOM      2  C2  IND d   1       1.034  -1.095  -1.006  0.00  0.00     0.054 A 
ATOM      3  C3  IND d   1       0.511   0.089  -1.397  0.00  0.00    -0.031 A 
ATOM      4  C4  IND d   1      -0.961   1.741  -0.081  0.00  0.00     0.051 A 
ATOM      5  C5  IND d   1      -1.627   1.882   1.104  0.00  0.00    -0.031 A 
ATOM      6  C6  IND d   1      -1.573   0.919   2.090  0.00  0.00     0.015 A 
ATOM      7  C7  IND d   1      -0.839  -0.223   1.931  0.00  0.00    -0.016 A 
ATOM      8  C8  IND d   1      -0.167  -0.373   0.726  0.00  0.00    -0.047 A 
ATOM      9  C9  IND d   1      -0.253   0.582  -0.295  0.00  0.00    -0.096 A 
ATOM     10  HN1 IND d   1       0.826  -2.114   0.696  0.00  0.00     0.298 HD
ENDROOT
TORSDOF 0
ENDMDL
