MODEL 1
REMARK minimizedAffinity -0.841828227
REMARK minimizedRMSD -1
REMARK  0 active torsions:
REMARK  status: ('A' for Active; 'I' for Inactive)
ROOT
ATOM      1  N1  IND d   1      -0.233  -3.473  -0.902  0.00  0.00    -0.196 N 
ATOM      2  C2  IND d   1       0.396  -3.744  -2.085  0.00  0.00     0.054 A 
ATOM      3  C3  IND d   1       0.995  -2.630  -2.565  0.00  0.00    -0.031 A 
ATOM      4  C4  IND d   1       1.157  -0.282  -1.523  0.00  0.00     0.051 A 
ATOM      5  C5  IND d   1       0.709   0.461  -0.467  0.00  0.00    -0.031 A 
ATOM      6  C6  IND d   1      -0.089  -0.081   0.520  0.00  0.00     0.015 A 
ATOM      7  C7  IND d   1      -0.462  -1.395   0.493  0.00  0.00    -0.016 A 
ATOM      8  C8  IND d   1      -0.015  -2.151  -0.582  0.00  0.00    -0.047 A 
ATOM      9  C9  IND d   1       0.760  -1.595  -1.609  0.00  0.00    -0.096 A 
ATOM     10  HN1 IND d   1      -0.688  -4.034  -0.436  0.00  0.00     0.298 HD
ENDROOT
TORSDOF 0
ENDMDL
