MODEL 1
REMARK minimizedAffinity -2.64057875
REMARK minimizedRMSD -1
REMARK  0 active torsions:
REMARK  status: ('A' for Active; 'I' for Inactive)
ROOT
ATOM      1  N1  IND d   1       1.578   0.114  -1.412  0.00  0.00    -0.196 N 
ATOM      2  C2  IND d   1       2.140  -0.933  -0.735  0.00  0.00     0.054 A 
ATOM      3  C3  IND d   1       1.553  -1.081   0.473  0.00  0.00    -0.031 A 
ATOM      4  C4  IND d   1      -0.417   0.216   1.505  0.00  0.00     0.051 A 
ATOM      5  C5  IND d   1      -1.238   1.285   1.281  0.00  0.00    -0.031 A 
ATOM      6  C6  IND d   1      -1.163   2.033   0.124  0.00  0.00     0.015 A 
ATOM      7  C7  IND d   1      -0.267   1.730  -0.863  0.00  0.00    -0.016 A 
ATOM      8  C8  IND d   1       0.573   0.649  -0.635  0.00  0.00    -0.047 A 
ATOM      9  C9  IND d   1       0.530  -0.087   0.556  0.00  0.00    -0.096 A 
ATOM     10  HN1 IND d   1       1.813   0.392  -2.191  0.00  0.00     0.298 HD
ENDROOT
TORSDOF 0
ENDMDL
