MODEL 1
REMARK minimizedAffinity -4.81783867
REMARK minimizedRMSD -1
REMARK  0 active torsions:
REMARK  status: ('A' for Active; 'I' for Inactive)
ROOT
ATOM      1  N1  IND d   1      -1.162  -2.218  -2.560  0.00  0.00    -0.196 N 
ATOM      2  C2  IND d   1      -0.168  -2.985  -3.100  0.00  0.00     0.054 A 
ATOM      3  C3  IND d   1       0.972  -2.850  -2.386  0.00  0.00    -0.031 A 
ATOM      4  C4  IND d   1       1.403  -1.502  -0.235  0.00  0.00     0.051 A 
ATOM      5  C5  IND d   1       0.809  -0.613   0.616  0.00  0.00    -0.031 A 
ATOM      6  C6  IND d   1      -0.499  -0.208   0.451  0.00  0.00     0.015 A 
ATOM      7  C7  IND d   1      -1.270  -0.687  -0.571  0.00  0.00    -0.016 A 
ATOM      8  C8  IND d   1      -0.668  -1.585  -1.441  0.00  0.00    -0.047 A 
ATOM      9  C9  IND d   1       0.672  -1.967  -1.303  0.00  0.00    -0.096 A 
ATOM     10  HN1 IND d   1      -1.962  -2.144  -2.867  0.00  0.00     0.298 HD
ENDROOT
TORSDOF 0
ENDMDL
