MODEL 1
REMARK minimizedAffinity -3.99659324
REMARK minimizedRMSD -1
REMARK  0 active torsions:
REMARK  status: ('A' for Active; 'I' for Inactive)
ROOT
ATOM      1  N1  IND d   1       1.509  -2.034  -0.312  0.00  0.00    -0.196 N 
ATOM      2  C2  IND d   1       1.375  -2.159  -1.667  0.00  0.00     0.054 A 
ATOM      3  C3  IND d   1       0.440  -1.299  -2.128  0.00  0.00    -0.031 A 
ATOM      4  C4  IND d   1      -0.922   0.475  -0.853  0.00  0.00     0.051 A 
ATOM      5  C5  IND d   1      -1.172   0.940   0.408  0.00  0.00    -0.031 A 
ATOM      6  C6  IND d   1      -0.527   0.429   1.515  0.00  0.00     0.015 A 
ATOM      7  C7  IND d   1       0.406  -0.563   1.401  0.00  0.00    -0.016 A 
ATOM      8  C8  IND d   1       0.658  -1.043   0.123  0.00  0.00    -0.047 A 
ATOM      9  C9  IND d   1      -0.025  -0.557  -0.999  0.00  0.00    -0.096 A 
ATOM     10  HN1 IND d   1       2.037  -2.497   0.185  0.00  0.00     0.298 HD
ENDROOT
TORSDOF 0
ENDMDL
