MODEL 1
REMARK minimizedAffinity -1.78663337
REMARK minimizedRMSD -1
REMARK  0 active torsions:
REMARK  status: ('A' for Active; 'I' for Inactive)
ROOT
ATOM      1  N1  IND d   1       0.047   0.718  -1.241  0.00  0.00    -0.196 N 
ATOM      2  C2  IND d   1       0.795  -0.426  -1.256  0.00  0.00     0.054 A 
ATOM      3  C3  IND d   1       0.722  -1.052  -0.060  0.00  0.00    -0.031 A 
ATOM      4  C4  IND d   1      -0.647  -0.430   2.030  0.00  0.00     0.051 A 
ATOM      5  C5  IND d   1      -1.456   0.549   2.535  0.00  0.00    -0.031 A 
ATOM      6  C6  IND d   1      -1.815   1.655   1.792  0.00  0.00     0.015 A 
ATOM      7  C7  IND d   1      -1.385   1.819   0.506  0.00  0.00    -0.016 A 
ATOM      8  C8  IND d   1      -0.558   0.830  -0.009  0.00  0.00    -0.047 A 
ATOM      9  C9  IND d   1      -0.156  -0.273   0.755  0.00  0.00    -0.096 A 
ATOM     10  HN1 IND d   1      -0.032   1.274  -1.892  0.00  0.00     0.298 HD
ENDROOT
TORSDOF 0
ENDMDL
