MODEL 1
REMARK minimizedAffinity -3.66749001
REMARK minimizedRMSD -1
REMARK  0 active torsions:
REMARK  status: ('A' for Active; 'I' for Inactive)
ROOT
ATOM      1  N1  IND d   1      -1.301   0.015   1.033  0.00  0.00    -0.196 N 
ATOM      2  C2  IND d   1      -2.070   1.144   1.027  0.00  0.00     0.054 A 
ATOM      3  C3  IND d   1      -1.554   2.061   0.179  0.00  0.00    -0.031 A 
ATOM      4  C4  IND d   1       0.489   1.881  -1.377  0.00  0.00     0.051 A 
ATOM      5  C5  IND d   1       1.531   1.056  -1.697  0.00  0.00    -0.031 A 
ATOM      6  C6  IND d   1       1.683  -0.185  -1.113  0.00  0.00     0.015 A 
ATOM      7  C7  IND d   1       0.789  -0.654  -0.192  0.00  0.00    -0.016 A 
ATOM      8  C8  IND d   1      -0.266   0.185   0.140  0.00  0.00    -0.047 A 
ATOM      9  C9  IND d   1      -0.402   1.463  -0.418  0.00  0.00    -0.096 A 
ATOM     10  HN1 IND d   1      -1.440  -0.685   1.514  0.00  0.00     0.298 HD
ENDROOT
TORSDOF 0
ENDMDL
