MODEL 1
REMARK minimizedAffinity -4.80844784
REMARK minimizedRMSD -1
REMARK  0 active torsions:
REMARK  status: ('A' for Active; 'I' for Inactive)
ROOT
ATOM      1  N1  IND d   1       0.785  -0.279  -0.682  0.00  0.00    -0.196 N 
ATOM      2  C2  IND d   1       0.425  -1.242   0.219  0.00  0.00     0.054 A 
ATOM      3  C3  IND d   1      -0.361  -0.714   1.184  0.00  0.00    -0.031 A 
ATOM      4  C4  IND d   1      -1.265   1.685   1.425  0.00  0.00     0.051 A 
ATOM      5  C5  IND d   1      -1.180   2.929   0.867  0.00  0.00    -0.031 A 
ATOM      6  C6  IND d   1      -0.423   3.172  -0.261  0.00  0.00     0.015 A 
ATOM      7  C7  IND d   1       0.272   2.172  -0.882  0.00  0.00    -0.016 A 
ATOM      8  C8  IND d   1       0.194   0.909  -0.313  0.00  0.00    -0.047 A 
ATOM      9  C9  IND d   1      -0.539   0.665   0.856  0.00  0.00    -0.096 A 
ATOM     10  HN1 IND d   1       1.295  -0.396  -1.364  0.00  0.00     0.298 HD
ENDROOT
TORSDOF 0
ENDMDL
