MODEL 1
REMARK minimizedAffinity -3.89578199
REMARK minimizedRMSD -1
REMARK  0 active torsions:
REMARK  status: ('A' for Active; 'I' for Inactive)
ROOT
ATOM      1  N1  IND d   1      -1.590   2.138   0.511  0.00  0.00    -0.196 N 
ATOM      2  C2  IND d   1      -2.072   2.165   1.790  0.00  0.00     0.054 A 
ATOM      3  C3  IND d   1      -1.565   1.137   2.506  0.00  0.00    -0.031 A 
ATOM      4  C4  IND d   1       0.152  -0.651   1.810  0.00  0.00     0.051 A 
ATOM      5  C5  IND d   1       0.853  -1.108   0.730  0.00  0.00    -0.031 A 
ATOM      6  C6  IND d   1       0.777  -0.492  -0.502  0.00  0.00     0.015 A 
ATOM      7  C7  IND d   1       0.001   0.615  -0.699  0.00  0.00    -0.016 A 
ATOM      8  C8  IND d   1      -0.718   1.078   0.394  0.00  0.00    -0.047 A 
ATOM      9  C9  IND d   1      -0.678   0.432   1.636  0.00  0.00    -0.096 A 
ATOM     10  HN1 IND d   1      -1.797   2.690  -0.115  0.00  0.00     0.298 HD
ENDROOT
TORSDOF 0
ENDMDL
