MODEL 1
REMARK minimizedAffinity -3.54679513
REMARK minimizedRMSD -1
REMARK  0 active torsions:
REMARK  status: ('A' for Active; 'I' for Inactive)
ROOT
ATOM      1  N1  IND d   1       1.035  -0.520   1.336  0.00  0.00    -0.196 N 
ATOM      2  C2  IND d   1       1.397  -0.872   0.066  0.00  0.00     0.054 A 
ATOM      3  C3  IND d   1       0.564  -0.305  -0.835  0.00  0.00    -0.031 A 
ATOM      4  C4  IND d   1      -1.397   1.318  -0.454  0.00  0.00     0.051 A 
ATOM      5  C5  IND d   1      -2.132   1.905   0.537  0.00  0.00    -0.031 A 
ATOM      6  C6  IND d   1      -1.842   1.712   1.873  0.00  0.00     0.015 A 
ATOM      7  C7  IND d   1      -0.793   0.930   2.267  0.00  0.00    -0.016 A 
ATOM      8  C8  IND d   1      -0.049   0.327   1.264  0.00  0.00    -0.047 A 
ATOM      9  C9  IND d   1      -0.365   0.485  -0.092  0.00  0.00    -0.096 A 
ATOM     10  HN1 IND d   1       1.420  -0.783   2.058  0.00  0.00     0.298 HD
ENDROOT
TORSDOF 0
ENDMDL
