MODEL 1
REMARK minimizedAffinity -3.86406088
REMARK minimizedRMSD -1
REMARK  0 active torsions:
REMARK  status: ('A' for Active; 'I' for Inactive)
ROOT
ATOM      1  N1  IND d   1      -0.176   0.355  -1.464  0.00  0.00    -0.196 N 
ATOM      2  C2  IND d   1       0.687  -0.692  -1.299  0.00  0.00     0.054 A 
ATOM      3  C3  IND d   1       0.820  -0.989   0.013  0.00  0.00    -0.031 A 
ATOM      4  C4  IND d   1      -0.360   0.047   2.053  0.00  0.00     0.051 A 
ATOM      5  C5  IND d   1      -1.209   1.058   2.408  0.00  0.00    -0.031 A 
ATOM      6  C6  IND d   1      -1.770   1.901   1.471  0.00  0.00     0.015 A 
ATOM      7  C7  IND d   1      -1.511   1.758   0.138  0.00  0.00    -0.016 A 
ATOM      8  C8  IND d   1      -0.644   0.737  -0.226  0.00  0.00    -0.047 A 
ATOM      9  C9  IND d   1      -0.038  -0.096   0.724  0.00  0.00    -0.096 A 
ATOM     10  HN1 IND d   1      -0.390   0.716  -2.215  0.00  0.00     0.298 HD
ENDROOT
TORSDOF 0
ENDMDL
