MODEL 1
REMARK minimizedAffinity -3.11872101
REMARK minimizedRMSD -1
REMARK  0 active torsions:
REMARK  status: ('A' for Active; 'I' for Inactive)
ROOT
ATOM      1  N1  IND d   1       1.020  -0.106  -0.456  0.00  0.00    -0.196 N 
ATOM      2  C2  IND d   1       1.104   0.926  -1.349  0.00  0.00     0.054 A 
ATOM      3  C3  IND d   1       0.121   1.826  -1.122  0.00  0.00    -0.031 A 
ATOM      4  C4  IND d   1      -1.672   1.858   0.725  0.00  0.00     0.051 A 
ATOM      5  C5  IND d   1      -2.171   1.111   1.755  0.00  0.00    -0.031 A 
ATOM      6  C6  IND d   1      -1.619  -0.103   2.110  0.00  0.00     0.015 A 
ATOM      7  C7  IND d   1      -0.536  -0.612   1.452  0.00  0.00    -0.016 A 
ATOM      8  C8  IND d   1      -0.031   0.140   0.401  0.00  0.00    -0.047 A 
ATOM      9  C9  IND d   1      -0.613   1.353   0.009  0.00  0.00    -0.096 A 
ATOM     10  HN1 IND d   1       1.536  -0.793  -0.433  0.00  0.00     0.298 HD
ENDROOT
TORSDOF 0
ENDMDL
