MODEL 1
REMARK minimizedAffinity -4.42690992
REMARK minimizedRMSD -1
REMARK  0 active torsions:
REMARK  status: ('A' for Active; 'I' for Inactive)
ROOT
ATOM      1  N1  IND d   1       0.811  -0.435   1.437  0.00  0.00    -0.196 N 
ATOM      2  C2  IND d   1       1.090  -0.973   0.212  0.00  0.00     0.054 A 
ATOM      3  C3  IND d   1       0.226  -0.502  -0.716  0.00  0.00    -0.031 A 
ATOM      4  C4  IND d   1      -1.657   1.235  -0.465  0.00  0.00     0.051 A 
ATOM      5  C5  IND d   1      -2.316   1.982   0.471  0.00  0.00    -0.031 A 
ATOM      6  C6  IND d   1      -1.958   1.962   1.803  0.00  0.00     0.015 A 
ATOM      7  C7  IND d   1      -0.915   1.201   2.249  0.00  0.00    -0.016 A 
ATOM      8  C8  IND d   1      -0.247   0.436   1.303  0.00  0.00    -0.047 A 
ATOM      9  C9  IND d   1      -0.634   0.419  -0.043  0.00  0.00    -0.096 A 
ATOM     10  HN1 IND d   1       1.227  -0.612   2.169  0.00  0.00     0.298 HD
ENDROOT
TORSDOF 0
ENDMDL
