MODEL 1
REMARK minimizedAffinity -3.07335091
REMARK minimizedRMSD -1
REMARK  0 active torsions:
REMARK  status: ('A' for Active; 'I' for Inactive)
ROOT
ATOM      1  N1  IND d   1       1.353  -0.095  -1.438  0.00  0.00    -0.196 N 
ATOM      2  C2  IND d   1       1.185  -1.117  -0.546  0.00  0.00     0.054 A 
ATOM      3  C3  IND d   1       0.246  -0.791   0.371  0.00  0.00    -0.031 A 
ATOM      4  C4  IND d   1      -1.212   1.323   0.539  0.00  0.00     0.051 A 
ATOM      5  C5  IND d   1      -1.396   2.553  -0.028  0.00  0.00    -0.031 A 
ATOM      6  C6  IND d   1      -0.660   2.970  -1.118  0.00  0.00     0.015 A 
ATOM      7  C7  IND d   1       0.284   2.165  -1.691  0.00  0.00    -0.016 A 
ATOM      8  C8  IND d   1       0.478   0.919  -1.113  0.00  0.00    -0.047 A 
ATOM      9  C9  IND d   1      -0.236   0.506   0.019  0.00  0.00    -0.096 A 
ATOM     10  HN1 IND d   1       1.911  -0.086  -2.092  0.00  0.00     0.298 HD
ENDROOT
TORSDOF 0
ENDMDL
