MODEL 1
REMARK minimizedAffinity 10.6735725
REMARK minimizedRMSD -1
REMARK  2 active torsions:
REMARK  status: ('A' for Active; 'I' for Inactive)
REMARK    1  A    between atoms: C2'_3  and  C1'_4 
REMARK    2  A    between atoms: C1'_4  and  C1_5 
ROOT
ATOM      1  C1  I4B d   1       0.933   4.272  -3.741  0.00  0.00    -0.075 A 
ATOM      2  C2  I4B d   1       1.581   4.792  -4.833  0.00  0.00     0.003 A 
ATOM      3  C3  I4B d   1       0.844   5.404  -5.875  0.00  0.00     0.002 A 
ATOM      4  C4  I4B d   1      -0.534   5.431  -5.808  0.00  0.00    -0.004 A 
ATOM      5  C5  I4B d   1      -1.189   4.924  -4.689  0.00  0.00     0.002 A 
ATOM      6  C6  I4B d   1      -0.450   4.352  -3.643  0.00  0.00     0.003 A 
ENDROOT
BRANCH   1   7
ATOM      7  C1' I4B d   1       1.740   3.603  -2.674  0.00  0.00     0.060 C 
BRANCH   7   8
ATOM      8  C2' I4B d   1       0.827   2.653  -1.925  0.00  0.00    -0.013 C 
ATOM      9  C4' I4B d   1       0.492   1.446  -2.761  0.00  0.00     0.013 C 
ATOM     10  C3' I4B d   1       1.515   2.257  -0.653  0.00  0.00     0.013 C 
ENDBRANCH   7   8
ENDBRANCH   1   7
TORSDOF 2
ENDMDL
