MODEL 1
REMARK minimizedAffinity 7.74072504
REMARK minimizedRMSD -1
REMARK  2 active torsions:
REMARK  status: ('A' for Active; 'I' for Inactive)
REMARK    1  A    between atoms: C2'_3  and  C1'_4 
REMARK    2  A    between atoms: C1'_4  and  C1_5 
ROOT
ATOM      1  C1  I4B d   1       0.372   4.353  -3.814  0.00  0.00    -0.075 A 
ATOM      2  C2  I4B d   1       0.486   4.315  -5.181  0.00  0.00     0.003 A 
ATOM      3  C3  I4B d   1      -0.582   4.759  -5.998  0.00  0.00     0.002 A 
ATOM      4  C4  I4B d   1      -1.756   5.183  -5.410  0.00  0.00    -0.004 A 
ATOM      5  C5  I4B d   1      -1.862   5.243  -4.024  0.00  0.00     0.002 A 
ATOM      6  C6  I4B d   1      -0.786   4.837  -3.220  0.00  0.00     0.003 A 
ENDROOT
BRANCH   1   7
ATOM      7  C1' I4B d   1       1.507   3.845  -2.982  0.00  0.00     0.060 C 
BRANCH   7   8
ATOM      8  C2' I4B d   1       0.938   2.895  -1.947  0.00  0.00    -0.013 C 
ATOM      9  C4' I4B d   1       1.267   1.464  -2.282  0.00  0.00     0.013 C 
ATOM     10  C3' I4B d   1       1.496   3.280  -0.609  0.00  0.00     0.013 C 
ENDBRANCH   7   8
ENDBRANCH   1   7
TORSDOF 2
ENDMDL
