MODEL 1
REMARK minimizedAffinity 6.93597031
REMARK minimizedRMSD -1
REMARK  2 active torsions:
REMARK  status: ('A' for Active; 'I' for Inactive)
REMARK    1  A    between atoms: C2'_3  and  C1'_4 
REMARK    2  A    between atoms: C1'_4  and  C1_5 
ROOT
ATOM      1  C1  I4B d   1      -5.204   3.199  -2.169  0.00  0.00    -0.075 A 
ATOM      2  C2  I4B d   1      -4.302   4.108  -2.665  0.00  0.00     0.003 A 
ATOM      3  C3  I4B d   1      -3.557   4.926  -1.782  0.00  0.00     0.002 A 
ATOM      4  C4  I4B d   1      -3.780   4.839  -0.423  0.00  0.00    -0.004 A 
ATOM      5  C5  I4B d   1      -4.678   3.902   0.079  0.00  0.00     0.002 A 
ATOM      6  C6  I4B d   1      -5.386   3.068  -0.798  0.00  0.00     0.003 A 
ENDROOT
BRANCH   1   7
ATOM      7  C1' I4B d   1      -5.998   2.374  -3.131  0.00  0.00     0.060 C 
BRANCH   7   8
ATOM      8  C2' I4B d   1      -5.088   1.296  -3.684  0.00  0.00    -0.013 C 
ATOM      9  C4' I4B d   1      -5.222   0.016  -2.901  0.00  0.00     0.013 C 
ATOM     10  C3' I4B d   1      -5.440   1.088  -5.127  0.00  0.00     0.013 C 
ENDBRANCH   7   8
ENDBRANCH   1   7
TORSDOF 2
ENDMDL
