MODEL 1
REMARK minimizedAffinity 9.50742149
REMARK minimizedRMSD -1
REMARK  2 active torsions:
REMARK  status: ('A' for Active; 'I' for Inactive)
REMARK    1  A    between atoms: C2'_3  and  C1'_4 
REMARK    2  A    between atoms: C1'_4  and  C1_5 
ROOT
ATOM      1  C1  I4B d   1       1.081   4.534  -3.744  0.00  0.00    -0.075 A 
ATOM      2  C2  I4B d   1       1.879   4.536  -4.861  0.00  0.00     0.003 A 
ATOM      3  C3  I4B d   1       1.509   5.291  -6.000  0.00  0.00     0.002 A 
ATOM      4  C4  I4B d   1       0.316   5.984  -5.998  0.00  0.00    -0.004 A 
ATOM      5  C5  I4B d   1      -0.481   6.000  -4.857  0.00  0.00     0.002 A 
ATOM      6  C6  I4B d   1      -0.090   5.280  -3.718  0.00  0.00     0.003 A 
ENDROOT
BRANCH   1   7
ATOM      7  C1' I4B d   1       1.485   3.700  -2.570  0.00  0.00     0.060 C 
BRANCH   7   8
ATOM      8  C2' I4B d   1       1.558   2.257  -3.027  0.00  0.00    -0.013 C 
ATOM      9  C4' I4B d   1       2.964   1.874  -3.405  0.00  0.00     0.013 C 
ATOM     10  C3' I4B d   1       1.042   1.393  -1.914  0.00  0.00     0.013 C 
ENDBRANCH   7   8
ENDBRANCH   1   7
TORSDOF 2
ENDMDL
