MODEL 1
REMARK minimizedAffinity 4.54886436
REMARK minimizedRMSD -1
REMARK  2 active torsions:
REMARK  status: ('A' for Active; 'I' for Inactive)
REMARK    1  A    between atoms: C2'_3  and  C1'_4 
REMARK    2  A    between atoms: C1'_4  and  C1_5 
ROOT
ATOM      1  C1  I4B d   1      -5.842  -0.073  -3.018  0.00  0.00    -0.075 A 
ATOM      2  C2  I4B d   1      -5.790   1.142  -3.653  0.00  0.00     0.003 A 
ATOM      3  C3  I4B d   1      -5.632   1.207  -5.059  0.00  0.00     0.002 A 
ATOM      4  C4  I4B d   1      -5.481   0.040  -5.779  0.00  0.00    -0.004 A 
ATOM      5  C5  I4B d   1      -5.557  -1.193  -5.137  0.00  0.00     0.002 A 
ATOM      6  C6  I4B d   1      -5.751  -1.251  -3.750  0.00  0.00     0.003 A 
ENDROOT
BRANCH   1   7
ATOM      7  C1' I4B d   1      -5.977  -0.104  -1.529  0.00  0.00     0.060 C 
BRANCH   7   8
ATOM      8  C2' I4B d   1      -5.485   1.224  -0.989  0.00  0.00    -0.013 C 
ATOM      9  C4' I4B d   1      -5.997   2.372  -1.817  0.00  0.00     0.013 C 
ATOM     10  C3' I4B d   1      -5.938   1.340   0.436  0.00  0.00     0.013 C 
ENDBRANCH   7   8
ENDBRANCH   1   7
TORSDOF 2
ENDMDL
