MODEL 1
REMARK minimizedAffinity 8.93947506
REMARK minimizedRMSD -1
REMARK  2 active torsions:
REMARK  status: ('A' for Active; 'I' for Inactive)
REMARK    1  A    between atoms: C2'_3  and  C1'_4 
REMARK    2  A    between atoms: C1'_4  and  C1_5 
ROOT
ATOM      1  C1  I4B d   1       1.935   0.714   0.390  0.00  0.00    -0.075 A 
ATOM      2  C2  I4B d   1       2.130   0.148  -0.845  0.00  0.00     0.003 A 
ATOM      3  C3  I4B d   1       2.041   0.941  -2.014  0.00  0.00     0.002 A 
ATOM      4  C4  I4B d   1       1.706   2.275  -1.907  0.00  0.00    -0.004 A 
ATOM      5  C5  I4B d   1       1.531   2.852  -0.652  0.00  0.00     0.002 A 
ATOM      6  C6  I4B d   1       1.658   2.070   0.505  0.00  0.00     0.003 A 
ENDROOT
BRANCH   1   7
ATOM      7  C1' I4B d   1       2.004  -0.160   1.602  0.00  0.00     0.060 C 
BRANCH   7   8
ATOM      8  C2' I4B d   1       3.415  -0.703   1.706  0.00  0.00    -0.013 C 
ATOM      9  C4' I4B d   1       4.375   0.361   2.171  0.00  0.00     0.013 C 
ATOM     10  C3' I4B d   1       3.395  -1.865   2.653  0.00  0.00     0.013 C 
ENDBRANCH   7   8
ENDBRANCH   1   7
TORSDOF 2
ENDMDL
