MODEL 1
REMARK minimizedAffinity 1.11219501
REMARK minimizedRMSD -1
REMARK  2 active torsions:
REMARK  status: ('A' for Active; 'I' for Inactive)
REMARK    1  A    between atoms: C2'_3  and  C1'_4 
REMARK    2  A    between atoms: C1'_4  and  C1_5 
ROOT
ATOM      1  C1  I4B d   1      -5.733   2.375  -2.238  0.00  0.00    -0.075 A 
ATOM      2  C2  I4B d   1      -5.852   2.225  -3.597  0.00  0.00     0.003 A 
ATOM      3  C3  I4B d   1      -5.991   0.935  -4.163  0.00  0.00     0.002 A 
ATOM      4  C4  I4B d   1      -5.956  -0.174  -3.343  0.00  0.00    -0.004 A 
ATOM      5  C5  I4B d   1      -5.859  -0.019  -1.963  0.00  0.00     0.002 A 
ATOM      6  C6  I4B d   1      -5.759   1.264  -1.405  0.00  0.00     0.003 A 
ENDROOT
BRANCH   1   7
ATOM      7  C1' I4B d   1      -5.555   3.750  -1.677  0.00  0.00     0.060 C 
BRANCH   7   8
ATOM      8  C2' I4B d   1      -4.942   3.616  -0.298  0.00  0.00    -0.013 C 
ATOM      9  C4' I4B d   1      -3.742   4.514  -0.145  0.00  0.00     0.013 C 
ATOM     10  C3' I4B d   1      -5.998   3.948   0.713  0.00  0.00     0.013 C 
ENDBRANCH   7   8
ENDBRANCH   1   7
TORSDOF 2
ENDMDL
