MODEL 1
REMARK minimizedAffinity 3.517277
REMARK minimizedRMSD -1
REMARK  2 active torsions:
REMARK  status: ('A' for Active; 'I' for Inactive)
REMARK    1  A    between atoms: C2'_3  and  C1'_4 
REMARK    2  A    between atoms: C1'_4  and  C1_5 
ROOT
ATOM      1  C1  I4B d   1       1.198   4.746  -3.596  0.00  0.00    -0.075 A 
ATOM      2  C2  I4B d   1      -0.052   5.306  -3.512  0.00  0.00     0.003 A 
ATOM      3  C3  I4B d   1      -0.744   5.684  -4.688  0.00  0.00     0.002 A 
ATOM      4  C4  I4B d   1      -0.133   5.530  -5.915  0.00  0.00    -0.004 A 
ATOM      5  C5  I4B d   1       1.125   4.940  -6.000  0.00  0.00     0.002 A 
ATOM      6  C6  I4B d   1       1.790   4.534  -4.834  0.00  0.00     0.003 A 
ENDROOT
BRANCH   1   7
ATOM      7  C1' I4B d   1       1.914   4.389  -2.332  0.00  0.00     0.060 C 
BRANCH   7   8
ATOM      8  C2' I4B d   1       1.229   3.178  -1.733  0.00  0.00    -0.013 C 
ATOM      9  C4' I4B d   1       1.660   1.911  -2.424  0.00  0.00     0.013 C 
ATOM     10  C3' I4B d   1       1.559   3.135  -0.270  0.00  0.00     0.013 C 
ENDBRANCH   7   8
ENDBRANCH   1   7
TORSDOF 2
ENDMDL
