MODEL 1
REMARK minimizedAffinity 9.84098434
REMARK minimizedRMSD -1
REMARK  2 active torsions:
REMARK  status: ('A' for Active; 'I' for Inactive)
REMARK    1  A    between atoms: C2'_3  and  C1'_4 
REMARK    2  A    between atoms: C1'_4  and  C1_5 
ROOT
ATOM      1  C1  I4B d   1       1.830   3.503  -2.876  0.00  0.00    -0.075 A 
ATOM      2  C2  I4B d   1       1.857   2.138  -3.015  0.00  0.00     0.003 A 
ATOM      3  C3  I4B d   1       1.873   1.305  -1.871  0.00  0.00     0.002 A 
ATOM      4  C4  I4B d   1       1.911   1.876  -0.615  0.00  0.00    -0.004 A 
ATOM      5  C5  I4B d   1       1.859   3.260  -0.475  0.00  0.00     0.002 A 
ATOM      6  C6  I4B d   1       1.806   4.079  -1.612  0.00  0.00     0.003 A 
ENDROOT
BRANCH   1   7
ATOM      7  C1' I4B d   1       1.847   4.354  -4.107  0.00  0.00     0.060 C 
BRANCH   7   8
ATOM      8  C2' I4B d   1       0.412   4.593  -4.529  0.00  0.00    -0.013 C 
ATOM      9  C4' I4B d   1      -0.025   5.998  -4.204  0.00  0.00     0.013 C 
ATOM     10  C3' I4B d   1       0.310   4.321  -6.000  0.00  0.00     0.013 C 
ENDBRANCH   7   8
ENDBRANCH   1   7
TORSDOF 2
ENDMDL
