MODEL 1
REMARK minimizedAffinity 6.6166997
REMARK minimizedRMSD -1
REMARK  2 active torsions:
REMARK  status: ('A' for Active; 'I' for Inactive)
REMARK    1  A    between atoms: C2'_3  and  C1'_4 
REMARK    2  A    between atoms: C1'_4  and  C1_5 
ROOT
ATOM      1  C1  I4B d   1      -2.989  -3.763   1.669  0.00  0.00    -0.075 A 
ATOM      2  C2  I4B d   1      -2.058  -2.933   2.243  0.00  0.00     0.003 A 
ATOM      3  C3  I4B d   1      -0.731  -2.903   1.751  0.00  0.00     0.002 A 
ATOM      4  C4  I4B d   1      -0.367  -3.750   0.724  0.00  0.00    -0.004 A 
ATOM      5  C5  I4B d   1      -1.317  -4.574   0.129  0.00  0.00     0.002 A 
ATOM      6  C6  I4B d   1      -2.640  -4.572   0.596  0.00  0.00     0.003 A 
ENDROOT
BRANCH   1   7
ATOM      7  C1' I4B d   1      -4.373  -3.794   2.235  0.00  0.00     0.060 C 
BRANCH   7   8
ATOM      8  C2' I4B d   1      -4.617  -5.179   2.798  0.00  0.00    -0.013 C 
ATOM      9  C4' I4B d   1      -4.449  -5.197   4.294  0.00  0.00     0.013 C 
ATOM     10  C3' I4B d   1      -6.000  -5.603   2.403  0.00  0.00     0.013 C 
ENDBRANCH   7   8
ENDBRANCH   1   7
TORSDOF 2
ENDMDL
