MODEL 1
REMARK minimizedAffinity 4.05228186
REMARK minimizedRMSD -1
REMARK  2 active torsions:
REMARK  status: ('A' for Active; 'I' for Inactive)
REMARK    1  A    between atoms: C2'_3  and  C1'_4 
REMARK    2  A    between atoms: C1'_4  and  C1_5 
ROOT
ATOM      1  C1  I4B d   1       0.778   4.339  -3.955  0.00  0.00    -0.075 A 
ATOM      2  C2  I4B d   1      -0.567   4.325  -3.684  0.00  0.00     0.003 A 
ATOM      3  C3  I4B d   1      -1.483   4.919  -4.586  0.00  0.00     0.002 A 
ATOM      4  C4  I4B d   1      -1.008   5.556  -5.714  0.00  0.00    -0.004 A 
ATOM      5  C5  I4B d   1       0.354   5.550  -5.999  0.00  0.00     0.002 A 
ATOM      6  C6  I4B d   1       1.252   4.927  -5.121  0.00  0.00     0.003 A 
ENDROOT
BRANCH   1   7
ATOM      7  C1' I4B d   1       1.720   3.732  -2.964  0.00  0.00     0.060 C 
BRANCH   7   8
ATOM      8  C2' I4B d   1       0.900   2.935  -1.970  0.00  0.00    -0.013 C 
ATOM      9  C4' I4B d   1       1.031   1.455  -2.217  0.00  0.00     0.013 C 
ATOM     10  C3' I4B d   1       1.365   3.297  -0.591  0.00  0.00     0.013 C 
ENDBRANCH   7   8
ENDBRANCH   1   7
TORSDOF 2
ENDMDL
