MODEL 1
REMARK minimizedAffinity 8.36648369
REMARK minimizedRMSD -1
REMARK  2 active torsions:
REMARK  status: ('A' for Active; 'I' for Inactive)
REMARK    1  A    between atoms: C2'_3  and  C1'_4 
REMARK    2  A    between atoms: C1'_4  and  C1_5 
ROOT
ATOM      1  C1  I4B d   1      -3.784  -0.403   2.729  0.00  0.00    -0.075 A 
ATOM      2  C2  I4B d   1      -4.601  -0.132   3.798  0.00  0.00     0.003 A 
ATOM      3  C3  I4B d   1      -4.045   0.089   5.082  0.00  0.00     0.002 A 
ATOM      4  C4  I4B d   1      -2.681  -0.021   5.260  0.00  0.00    -0.004 A 
ATOM      5  C5  I4B d   1      -1.853  -0.273   4.170  0.00  0.00     0.002 A 
ATOM      6  C6  I4B d   1      -2.406  -0.453   2.894  0.00  0.00     0.003 A 
ENDROOT
BRANCH   1   7
ATOM      7  C1' I4B d   1      -4.407  -0.663   1.394  0.00  0.00     0.060 C 
BRANCH   7   8
ATOM      8  C2' I4B d   1      -3.434  -1.489   0.578  0.00  0.00    -0.013 C 
ATOM      9  C4' I4B d   1      -3.444  -2.931   1.014  0.00  0.00     0.013 C 
ATOM     10  C3' I4B d   1      -3.813  -1.358  -0.867  0.00  0.00     0.013 C 
ENDBRANCH   7   8
ENDBRANCH   1   7
TORSDOF 2
ENDMDL
