MODEL 1
REMARK minimizedAffinity 0.74807322
REMARK minimizedRMSD -1
REMARK  2 active torsions:
REMARK  status: ('A' for Active; 'I' for Inactive)
REMARK    1  A    between atoms: C2'_3  and  C1'_4 
REMARK    2  A    between atoms: C1'_4  and  C1_5 
ROOT
ATOM      1  C1  I4B d   1       1.188   4.490  -3.764  0.00  0.00    -0.075 A 
ATOM      2  C2  I4B d   1      -0.166   4.652  -3.603  0.00  0.00     0.003 A 
ATOM      3  C3  I4B d   1      -0.951   5.176  -4.658  0.00  0.00     0.002 A 
ATOM      4  C4  I4B d   1      -0.339   5.570  -5.830  0.00  0.00    -0.004 A 
ATOM      5  C5  I4B d   1       1.030   5.384  -6.000  0.00  0.00     0.002 A 
ATOM      6  C6  I4B d   1       1.797   4.830  -4.965  0.00  0.00     0.003 A 
ENDROOT
BRANCH   1   7
ATOM      7  C1' I4B d   1       1.992   3.965  -2.618  0.00  0.00     0.060 C 
BRANCH   7   8
ATOM      8  C2' I4B d   1       1.097   3.062  -1.794  0.00  0.00    -0.013 C 
ATOM      9  C4' I4B d   1       1.468   1.613  -1.975  0.00  0.00     0.013 C 
ATOM     10  C3' I4B d   1       1.216   3.476  -0.358  0.00  0.00     0.013 C 
ENDBRANCH   7   8
ENDBRANCH   1   7
TORSDOF 2
ENDMDL
