MODEL 1
REMARK minimizedAffinity -4.95046186
REMARK minimizedRMSD -1
REMARK  1 active torsions:
REMARK  status: ('A' for Active; 'I' for Inactive)
REMARK    1  A    between atoms: C1_2  and  C2_3 
ROOT
ATOM      1  C2  UNL d   1      -1.195   0.260  -0.626  0.00  0.00    -0.073 A 
ATOM      2  C3  UNL d   1      -1.102  -0.761   0.328  0.00  0.00    -0.002 A 
ATOM      3  C4  UNL d   1       0.147  -1.210   0.759  0.00  0.00     0.004 A 
ATOM      4  C5  UNL d   1       1.313  -0.641   0.248  0.00  0.00    -0.004 A 
ATOM      5  C6  UNL d   1       1.240   0.388  -0.697  0.00  0.00    -0.075 A 
ATOM      6  C7  UNL d   1       2.485   1.009  -1.259  0.00  0.00     0.076 C 
ATOM      7  C8  UNL d   1      -0.018   0.832  -1.127  0.00  0.00     0.001 A 
ENDROOT
BRANCH   1   8
ATOM      8  C1  UNL d   1      -2.542   0.753  -1.090  0.00  0.00     0.053 C 
ATOM      9  C   UNL d   1      -2.447   1.524  -2.397  0.00  0.00     0.018 C 
ENDBRANCH   1   8
TORSDOF 1
ENDMDL
