MODEL 1
REMARK minimizedAffinity -3.97849464
REMARK minimizedRMSD -1
REMARK  1 active torsions:
REMARK  status: ('A' for Active; 'I' for Inactive)
REMARK    1  A    between atoms: C1_2  and  C2_3 
ROOT
ATOM      1  C2  UNL d   1       0.003   0.609  -0.117  0.00  0.00    -0.073 A 
ATOM      2  C3  UNL d   1       1.322   1.070  -0.204  0.00  0.00    -0.002 A 
ATOM      3  C4  UNL d   1       2.384   0.243   0.163  0.00  0.00     0.004 A 
ATOM      4  C5  UNL d   1       2.140  -1.054   0.614  0.00  0.00    -0.004 A 
ATOM      5  C6  UNL d   1       0.830  -1.538   0.696  0.00  0.00    -0.075 A 
ATOM      6  C7  UNL d   1       0.550  -2.930   1.181  0.00  0.00     0.076 C 
ATOM      7  C8  UNL d   1      -0.231  -0.700   0.328  0.00  0.00     0.001 A 
ENDROOT
BRANCH   1   8
ATOM      8  C1  UNL d   1      -1.146   1.496  -0.519  0.00  0.00     0.053 C 
ATOM      9  C   UNL d   1      -1.916   0.932  -1.703  0.00  0.00     0.018 C 
ENDBRANCH   1   8
TORSDOF 1
ENDMDL
