MODEL 1
REMARK minimizedAffinity -3.03734946
REMARK minimizedRMSD -1
REMARK  1 active torsions:
REMARK  status: ('A' for Active; 'I' for Inactive)
REMARK    1  A    between atoms: C1_2  and  C2_3 
ROOT
ATOM      1  C2  UNL d   1       0.188  -0.003  -0.036  0.00  0.00    -0.073 A 
ATOM      2  C3  UNL d   1       1.374   0.365  -0.681  0.00  0.00    -0.002 A 
ATOM      3  C4  UNL d   1       2.506  -0.447  -0.592  0.00  0.00     0.004 A 
ATOM      4  C5  UNL d   1       2.462  -1.635   0.137  0.00  0.00    -0.004 A 
ATOM      5  C6  UNL d   1       1.282  -2.026   0.778  0.00  0.00    -0.075 A 
ATOM      6  C7  UNL d   1       1.219  -3.301   1.568  0.00  0.00     0.076 C 
ATOM      7  C8  UNL d   1       0.151  -1.205   0.686  0.00  0.00     0.001 A 
ENDROOT
BRANCH   1   8
ATOM      8  C1  UNL d   1      -1.039   0.866  -0.136  0.00  0.00     0.053 C 
ATOM      9  C   UNL d   1      -1.229   1.425  -1.537  0.00  0.00     0.018 C 
ENDBRANCH   1   8
TORSDOF 1
ENDMDL
