MODEL 1
REMARK minimizedAffinity -2.4947505
REMARK minimizedRMSD -1
REMARK  1 active torsions:
REMARK  status: ('A' for Active; 'I' for Inactive)
REMARK    1  A    between atoms: C1_2  and  C2_3 
ROOT
ATOM      1  C2  UNL d   1       1.496  -1.019   0.139  0.00  0.00    -0.073 A 
ATOM      2  C3  UNL d   1       1.582  -2.410   0.268  0.00  0.00    -0.002 A 
ATOM      3  C4  UNL d   1       0.595  -3.116   0.957  0.00  0.00     0.004 A 
ATOM      4  C5  UNL d   1      -0.490  -2.441   1.517  0.00  0.00    -0.004 A 
ATOM      5  C6  UNL d   1      -0.599  -1.053   1.389  0.00  0.00    -0.075 A 
ATOM      6  C7  UNL d   1      -1.758  -0.312   1.987  0.00  0.00     0.076 C 
ATOM      7  C8  UNL d   1       0.397  -0.350   0.698  0.00  0.00     0.001 A 
ENDROOT
BRANCH   1   8
ATOM      8  C1  UNL d   1       2.556  -0.253  -0.610  0.00  0.00     0.053 C 
ATOM      9  C   UNL d   1       2.548   1.226  -0.255  0.00  0.00     0.018 C 
ENDBRANCH   1   8
TORSDOF 1
ENDMDL
