MODEL 1
REMARK minimizedAffinity -3.57676554
REMARK minimizedRMSD -1
REMARK  1 active torsions:
REMARK  status: ('A' for Active; 'I' for Inactive)
REMARK    1  A    between atoms: C1_2  and  C2_3 
ROOT
ATOM      1  C2  UNL d   1      -1.476   0.511  -1.894  0.00  0.00    -0.073 A 
ATOM      2  C3  UNL d   1      -1.483   1.596  -1.010  0.00  0.00    -0.002 A 
ATOM      3  C4  UNL d   1      -0.851   1.499   0.230  0.00  0.00     0.004 A 
ATOM      4  C5  UNL d   1      -0.199   0.321   0.596  0.00  0.00    -0.004 A 
ATOM      5  C6  UNL d   1      -0.171  -0.770  -0.279  0.00  0.00    -0.075 A 
ATOM      6  C7  UNL d   1       0.523  -2.045   0.101  0.00  0.00     0.076 C 
ATOM      7  C8  UNL d   1      -0.811  -0.666  -1.521  0.00  0.00     0.001 A 
ENDROOT
BRANCH   1   8
ATOM      8  C1  UNL d   1      -2.152   0.613  -3.237  0.00  0.00     0.053 C 
ATOM      9  C   UNL d   1      -2.099   2.026  -3.796  0.00  0.00     0.018 C 
ENDBRANCH   1   8
TORSDOF 1
ENDMDL
