MODEL 1
REMARK minimizedAffinity -3.41491508
REMARK minimizedRMSD -1
REMARK  1 active torsions:
REMARK  status: ('A' for Active; 'I' for Inactive)
REMARK    1  A    between atoms: C1_2  and  C2_3 
ROOT
ATOM      1  C2  UNL d   1      -0.799   0.893  -0.124  0.00  0.00    -0.073 A 
ATOM      2  C3  UNL d   1      -1.411   1.029   1.127  0.00  0.00    -0.002 A 
ATOM      3  C4  UNL d   1      -1.347  -0.007   2.059  0.00  0.00     0.004 A 
ATOM      4  C5  UNL d   1      -0.665  -1.185   1.754  0.00  0.00    -0.004 A 
ATOM      5  C6  UNL d   1      -0.037  -1.335   0.513  0.00  0.00    -0.075 A 
ATOM      6  C7  UNL d   1       0.698  -2.597   0.168  0.00  0.00     0.076 C 
ATOM      7  C8  UNL d   1      -0.108  -0.291  -0.419  0.00  0.00     0.001 A 
ENDROOT
BRANCH   1   8
ATOM      8  C1  UNL d   1      -0.861   2.012  -1.132  0.00  0.00     0.053 C 
ATOM      9  C   UNL d   1      -2.087   1.908  -2.025  0.00  0.00     0.018 C 
ENDBRANCH   1   8
TORSDOF 1
ENDMDL
