MODEL 1
REMARK minimizedAffinity -3.61381507
REMARK minimizedRMSD -1
REMARK  1 active torsions:
REMARK  status: ('A' for Active; 'I' for Inactive)
REMARK    1  A    between atoms: C1_2  and  C2_3 
ROOT
ATOM      1  C2  UNL d   1      -1.090   0.651  -0.722  0.00  0.00    -0.073 A 
ATOM      2  C3  UNL d   1      -0.029   1.563  -0.693  0.00  0.00    -0.002 A 
ATOM      3  C4  UNL d   1       1.195   1.204  -0.127  0.00  0.00     0.004 A 
ATOM      4  C5  UNL d   1       1.373  -0.071   0.409  0.00  0.00    -0.004 A 
ATOM      5  C6  UNL d   1       0.329  -1.001   0.379  0.00  0.00    -0.075 A 
ATOM      6  C7  UNL d   1       0.504  -2.376   0.953  0.00  0.00     0.076 C 
ATOM      7  C8  UNL d   1      -0.898  -0.632  -0.189  0.00  0.00     0.001 A 
ENDROOT
BRANCH   1   8
ATOM      8  C1  UNL d   1      -2.411   1.032  -1.338  0.00  0.00     0.053 C 
ATOM      9  C   UNL d   1      -2.234   1.871  -2.593  0.00  0.00     0.018 C 
ENDBRANCH   1   8
TORSDOF 1
ENDMDL
