MODEL 1
REMARK minimizedAffinity -3.03135967
REMARK minimizedRMSD -1
REMARK  1 active torsions:
REMARK  status: ('A' for Active; 'I' for Inactive)
REMARK    1  A    between atoms: C1_2  and  C2_3 
ROOT
ATOM      1  C2  UNL d   1      -0.127   0.418  -0.614  0.00  0.00    -0.073 A 
ATOM      2  C3  UNL d   1       1.161  -0.107  -0.766  0.00  0.00    -0.002 A 
ATOM      3  C4  UNL d   1       1.575  -1.196   0.003  0.00  0.00     0.004 A 
ATOM      4  C5  UNL d   1       0.703  -1.775   0.924  0.00  0.00    -0.004 A 
ATOM      5  C6  UNL d   1      -0.593  -1.273   1.082  0.00  0.00    -0.075 A 
ATOM      6  C7  UNL d   1      -1.542  -1.884   2.071  0.00  0.00     0.076 C 
ATOM      7  C8  UNL d   1      -0.999  -0.178   0.309  0.00  0.00     0.001 A 
ENDROOT
BRANCH   1   8
ATOM      8  C1  UNL d   1      -0.580   1.589  -1.446  0.00  0.00     0.053 C 
ATOM      9  C   UNL d   1      -1.665   1.199  -2.437  0.00  0.00     0.018 C 
ENDBRANCH   1   8
TORSDOF 1
ENDMDL
