MODEL 1
REMARK minimizedAffinity -4.83527613
REMARK minimizedRMSD -1
REMARK  1 active torsions:
REMARK  status: ('A' for Active; 'I' for Inactive)
REMARK    1  A    between atoms: C1_2  and  C2_3 
ROOT
ATOM      1  C2  UNL d   1       0.856  -0.398  -0.037  0.00  0.00    -0.073 A 
ATOM      2  C3  UNL d   1       0.201  -1.601   0.248  0.00  0.00    -0.002 A 
ATOM      3  C4  UNL d   1       0.796  -2.546   1.084  0.00  0.00     0.004 A 
ATOM      4  C5  UNL d   1       2.047  -2.296   1.648  0.00  0.00    -0.004 A 
ATOM      5  C6  UNL d   1       2.712  -1.095   1.385  0.00  0.00    -0.075 A 
ATOM      6  C7  UNL d   1       4.059  -0.811   1.982  0.00  0.00     0.076 C 
ATOM      7  C8  UNL d   1       2.109  -0.151   0.542  0.00  0.00     0.001 A 
ENDROOT
BRANCH   1   8
ATOM      8  C1  UNL d   1       0.214   0.629  -0.934  0.00  0.00     0.053 C 
ATOM      9  C   UNL d   1      -0.971   1.309  -0.266  0.00  0.00     0.018 C 
ENDBRANCH   1   8
TORSDOF 1
ENDMDL
