MODEL 1
REMARK minimizedAffinity -3.68565106
REMARK minimizedRMSD -1
REMARK  1 active torsions:
REMARK  status: ('A' for Active; 'I' for Inactive)
REMARK    1  A    between atoms: C1_2  and  C2_3 
ROOT
ATOM      1  C2  UNL d   1      -0.154   0.645  -0.379  0.00  0.00    -0.073 A 
ATOM      2  C3  UNL d   1      -1.154   0.774   0.592  0.00  0.00    -0.002 A 
ATOM      3  C4  UNL d   1      -1.293  -0.189   1.593  0.00  0.00     0.004 A 
ATOM      4  C5  UNL d   1      -0.431  -1.284   1.638  0.00  0.00    -0.004 A 
ATOM      5  C6  UNL d   1       0.582  -1.424   0.684  0.00  0.00    -0.075 A 
ATOM      6  C7  UNL d   1       1.516  -2.598   0.717  0.00  0.00     0.076 C 
ATOM      7  C8  UNL d   1       0.714  -0.455  -0.320  0.00  0.00     0.001 A 
ENDROOT
BRANCH   1   8
ATOM      8  C1  UNL d   1       0.004   1.685  -1.458  0.00  0.00     0.053 C 
ATOM      9  C   UNL d   1      -1.126   1.630  -2.472  0.00  0.00     0.018 C 
ENDBRANCH   1   8
TORSDOF 1
ENDMDL
