MODEL 1
REMARK minimizedAffinity -2.36089754
REMARK minimizedRMSD -1
REMARK  1 active torsions:
REMARK  status: ('A' for Active; 'I' for Inactive)
REMARK    1  A    between atoms: C1_2  and  C2_3 
ROOT
ATOM      1  C2  UNL d   1       2.012  -0.876   0.447  0.00  0.00    -0.073 A 
ATOM      2  C3  UNL d   1       1.499  -2.135   0.778  0.00  0.00    -0.002 A 
ATOM      3  C4  UNL d   1       0.128  -2.381   0.696  0.00  0.00     0.004 A 
ATOM      4  C5  UNL d   1      -0.742  -1.375   0.275  0.00  0.00    -0.004 A 
ATOM      5  C6  UNL d   1      -0.247  -0.114  -0.071  0.00  0.00    -0.075 A 
ATOM      6  C7  UNL d   1      -1.169   0.980  -0.523  0.00  0.00     0.076 C 
ATOM      7  C8  UNL d   1       1.131   0.126   0.017  0.00  0.00     0.001 A 
ENDROOT
BRANCH   1   8
ATOM      8  C1  UNL d   1       3.493  -0.607   0.529  0.00  0.00     0.053 C 
ATOM      9  C   UNL d   1       3.953  -0.379   1.960  0.00  0.00     0.018 C 
ENDBRANCH   1   8
TORSDOF 1
ENDMDL
