MODEL 1
REMARK minimizedAffinity -1.60494459
REMARK minimizedRMSD -1
REMARK  0 active torsions:
REMARK  status: ('A' for Active; 'I' for Inactive)
ROOT
ATOM      1  C   UNL d   1       1.131  -2.153  -0.353  0.00  0.00     0.020 A 
ATOM      2  C1  UNL d   1       2.382  -1.541  -0.400  0.00  0.00     0.020 A 
ATOM      3  C2  UNL d   1       2.485  -0.152  -0.294  0.00  0.00     0.034 A 
ATOM      4  C3  UNL d   1       1.334   0.629  -0.140  0.00  0.00     0.017 A 
ATOM      5  C4  UNL d   1       0.078   0.014  -0.093  0.00  0.00     0.017 A 
ATOM      6  C5  UNL d   1      -0.019  -1.377  -0.200  0.00  0.00     0.034 A 
ATOM      7 Cl   UNL d   1      -1.387   0.911   0.094  0.00  0.00    -0.070 Cl
ATOM      8 Cl1  UNL d   1       1.536   2.340  -0.015  0.00  0.00    -0.070 Cl
ENDROOT
TORSDOF 0
ENDMDL
