MODEL 1
REMARK minimizedAffinity -4.64292192
REMARK minimizedRMSD -1
REMARK  0 active torsions:
REMARK  status: ('A' for Active; 'I' for Inactive)
ROOT
ATOM      1  C   UNL d   1       2.918  -0.972   0.734  0.00  0.00     0.020 A 
ATOM      2  C1  UNL d   1       1.889  -1.909   0.643  0.00  0.00     0.020 A 
ATOM      3  C2  UNL d   1       0.617  -1.510   0.227  0.00  0.00     0.034 A 
ATOM      4  C3  UNL d   1       0.370  -0.172  -0.098  0.00  0.00     0.017 A 
ATOM      5  C4  UNL d   1       1.403   0.768  -0.005  0.00  0.00     0.017 A 
ATOM      6  C5  UNL d   1       2.675   0.363   0.411  0.00  0.00     0.034 A 
ATOM      7 Cl   UNL d   1       1.175   2.438  -0.389  0.00  0.00    -0.070 Cl
ATOM      8 Cl1  UNL d   1      -1.227   0.251  -0.604  0.00  0.00    -0.070 Cl
ENDROOT
TORSDOF 0
ENDMDL
