MODEL 1
REMARK minimizedAffinity -3.16949868
REMARK minimizedRMSD -1
REMARK  0 active torsions:
REMARK  status: ('A' for Active; 'I' for Inactive)
ROOT
ATOM      1  C   UNL d   1       2.295  -0.895   1.656  0.00  0.00     0.020 A 
ATOM      2  C1  UNL d   1       2.434  -1.739   0.555  0.00  0.00     0.020 A 
ATOM      3  C2  UNL d   1       1.519  -1.670  -0.498  0.00  0.00     0.034 A 
ATOM      4  C3  UNL d   1       0.461  -0.755  -0.452  0.00  0.00     0.017 A 
ATOM      5  C4  UNL d   1       0.322   0.092   0.653  0.00  0.00     0.017 A 
ATOM      6  C5  UNL d   1       1.241   0.018   1.705  0.00  0.00     0.034 A 
ATOM      7 Cl   UNL d   1      -0.957   1.247   0.782  0.00  0.00    -0.070 Cl
ATOM      8 Cl1  UNL d   1      -0.633  -0.723  -1.790  0.00  0.00    -0.070 Cl
ENDROOT
TORSDOF 0
ENDMDL
