MODEL 1
REMARK minimizedAffinity -3.2926805
REMARK minimizedRMSD -1
REMARK  0 active torsions:
REMARK  status: ('A' for Active; 'I' for Inactive)
ROOT
ATOM      1  C   UNL d   1       1.147  -2.364   0.283  0.00  0.00     0.020 A 
ATOM      2  C1  UNL d   1       2.386  -1.735   0.392  0.00  0.00     0.020 A 
ATOM      3  C2  UNL d   1       2.470  -0.343   0.324  0.00  0.00     0.034 A 
ATOM      4  C3  UNL d   1       1.313   0.425   0.147  0.00  0.00     0.017 A 
ATOM      5  C4  UNL d   1       0.069  -0.208   0.038  0.00  0.00     0.017 A 
ATOM      6  C5  UNL d   1      -0.009  -1.603   0.107  0.00  0.00     0.034 A 
ATOM      7 Cl   UNL d   1      -1.402   0.671  -0.181  0.00  0.00    -0.070 Cl
ATOM      8 Cl1  UNL d   1       1.491   2.142   0.073  0.00  0.00    -0.070 Cl
ENDROOT
TORSDOF 0
ENDMDL
