MODEL 1
REMARK minimizedAffinity 4.76852703
REMARK minimizedRMSD -1
REMARK  0 active torsions:
REMARK  status: ('A' for Active; 'I' for Inactive)
ROOT
ATOM      1  C   UNL d   1      -0.765  -1.837  -0.439  0.00  0.00     0.020 A 
ATOM      2  C1  UNL d   1       0.086  -2.941  -0.471  0.00  0.00     0.020 A 
ATOM      3  C2  UNL d   1       1.470  -2.756  -0.465  0.00  0.00     0.034 A 
ATOM      4  C3  UNL d   1       2.008  -1.465  -0.428  0.00  0.00     0.017 A 
ATOM      5  C4  UNL d   1       1.153  -0.357  -0.396  0.00  0.00     0.017 A 
ATOM      6  C5  UNL d   1      -0.232  -0.547  -0.402  0.00  0.00     0.034 A 
ATOM      7 Cl   UNL d   1       1.742   1.267  -0.349  0.00  0.00    -0.070 Cl
ATOM      8 Cl1  UNL d   1       3.729  -1.311  -0.423  0.00  0.00    -0.070 Cl
ENDROOT
TORSDOF 0
ENDMDL
