MODEL 1
REMARK minimizedAffinity 5.51523018
REMARK minimizedRMSD -1
REMARK  0 active torsions:
REMARK  status: ('A' for Active; 'I' for Inactive)
ROOT
ATOM      1  C   UNL d   1       3.010  -1.884   1.333  0.00  0.00     0.020 A 
ATOM      2  C1  UNL d   1       3.249  -0.879   0.396  0.00  0.00     0.020 A 
ATOM      3  C2  UNL d   1       2.540  -0.865  -0.807  0.00  0.00     0.034 A 
ATOM      4  C3  UNL d   1       1.590  -1.857  -1.076  0.00  0.00     0.017 A 
ATOM      5  C4  UNL d   1       1.351  -2.865  -0.135  0.00  0.00     0.017 A 
ATOM      6  C5  UNL d   1       2.064  -2.874   1.069  0.00  0.00     0.034 A 
ATOM      7 Cl   UNL d   1       0.195  -4.122  -0.395  0.00  0.00    -0.070 Cl
ATOM      8 Cl1  UNL d   1       0.750  -1.778  -2.585  0.00  0.00    -0.070 Cl
ENDROOT
TORSDOF 0
ENDMDL
