MODEL 1
REMARK minimizedAffinity 10.0010977
REMARK minimizedRMSD -1
REMARK  0 active torsions:
REMARK  status: ('A' for Active; 'I' for Inactive)
ROOT
ATOM      1  C   UNL d   1      -5.432  -1.512   5.989  0.00  0.00     0.172 C 
ATOM      2  N   UNL d   1      -5.637  -0.583   4.902  0.00  0.00    -0.070 N 
ATOM      3  C1  UNL d   1      -5.664   0.782   5.014  0.00  0.00    -0.004 A 
ATOM      4  C2  UNL d   1      -5.883   1.303   3.757  0.00  0.00    -0.047 A 
ATOM      5  C3  UNL d   1      -5.992   0.214   2.860  0.00  0.00    -0.047 A 
ATOM      6  C4  UNL d   1      -5.836  -0.941   3.595  0.00  0.00    -0.004 A 
ENDROOT
TORSDOF 0
ENDMDL
