MODEL 1
REMARK minimizedAffinity -0.70109868
REMARK minimizedRMSD -1
REMARK  0 active torsions:
REMARK  status: ('A' for Active; 'I' for Inactive)
ROOT
ATOM      1  C   UNL d   1       5.633  -3.815  -5.830  0.00  0.00     0.172 C 
ATOM      2  N   UNL d   1       4.614  -2.984  -5.232  0.00  0.00    -0.070 N 
ATOM      3  C1  UNL d   1       4.769  -2.213  -4.111  0.00  0.00    -0.004 A 
ATOM      4  C2  UNL d   1       3.572  -1.576  -3.868  0.00  0.00    -0.047 A 
ATOM      5  C3  UNL d   1       2.666  -1.978  -4.877  0.00  0.00    -0.047 A 
ATOM      6  C4  UNL d   1       3.337  -2.850  -5.708  0.00  0.00    -0.004 A 
ENDROOT
TORSDOF 0
ENDMDL
