MODEL 1
REMARK minimizedAffinity -0.508939981
REMARK minimizedRMSD -1
REMARK  0 active torsions:
REMARK  status: ('A' for Active; 'I' for Inactive)
ROOT
ATOM      1  C   UNL d   1       0.033   0.633  -0.435  0.00  0.00     0.172 C 
ATOM      2  N   UNL d   1      -0.813  -0.333  -1.094  0.00  0.00    -0.070 N 
ATOM      3  C1  UNL d   1      -1.566  -0.102  -2.215  0.00  0.00    -0.004 A 
ATOM      4  C2  UNL d   1      -2.227  -1.271  -2.528  0.00  0.00    -0.047 A 
ATOM      5  C3  UNL d   1      -1.859  -2.237  -1.561  0.00  0.00    -0.047 A 
ATOM      6  C4  UNL d   1      -0.984  -1.630  -0.686  0.00  0.00    -0.004 A 
ENDROOT
TORSDOF 0
ENDMDL
