MODEL 1
REMARK minimizedAffinity 3.39868045
REMARK minimizedRMSD -1
REMARK  0 active torsions:
REMARK  status: ('A' for Active; 'I' for Inactive)
ROOT
ATOM      1  C   UNL d   1      -5.222  -1.131   5.251  0.00  0.00     0.172 C 
ATOM      2  N   UNL d   1      -4.903  -1.474   3.886  0.00  0.00    -0.070 N 
ATOM      3  C1  UNL d   1      -3.644  -1.527   3.350  0.00  0.00    -0.004 A 
ATOM      4  C2  UNL d   1      -3.763  -1.891   2.026  0.00  0.00    -0.047 A 
ATOM      5  C3  UNL d   1      -5.142  -2.063   1.757  0.00  0.00    -0.047 A 
ATOM      6  C4  UNL d   1      -5.824  -1.798   2.926  0.00  0.00    -0.004 A 
ENDROOT
TORSDOF 0
ENDMDL
