MODEL 1
REMARK minimizedAffinity 1.59082139
REMARK minimizedRMSD -1
REMARK  0 active torsions:
REMARK  status: ('A' for Active; 'I' for Inactive)
ROOT
ATOM      1  C   UNL d   1       0.537  -5.679   2.292  0.00  0.00     0.172 C 
ATOM      2  N   UNL d   1      -0.291  -4.497   2.342  0.00  0.00    -0.070 N 
ATOM      3  C1  UNL d   1      -1.344  -4.224   1.510  0.00  0.00    -0.004 A 
ATOM      4  C2  UNL d   1      -1.872  -3.007   1.882  0.00  0.00    -0.047 A 
ATOM      5  C3  UNL d   1      -1.109  -2.530   2.974  0.00  0.00    -0.047 A 
ATOM      6  C4  UNL d   1      -0.137  -3.472   3.238  0.00  0.00    -0.004 A 
ENDROOT
TORSDOF 0
ENDMDL
