MODEL 1
REMARK minimizedAffinity 10.9698629
REMARK minimizedRMSD -1
REMARK  0 active torsions:
REMARK  status: ('A' for Active; 'I' for Inactive)
ROOT
ATOM      1  C   UNL d   1       5.153  -2.415   2.224  0.00  0.00     0.172 C 
ATOM      2  N   UNL d   1       4.534  -2.274   0.927  0.00  0.00    -0.070 N 
ATOM      3  C1  UNL d   1       3.275  -1.790   0.691  0.00  0.00    -0.004 A 
ATOM      4  C2  UNL d   1       3.061  -1.816  -0.670  0.00  0.00    -0.047 A 
ATOM      5  C3  UNL d   1       4.232  -2.335  -1.273  0.00  0.00    -0.047 A 
ATOM      6  C4  UNL d   1       5.127  -2.610  -0.261  0.00  0.00    -0.004 A 
ENDROOT
TORSDOF 0
ENDMDL
