MODEL 1
REMARK minimizedAffinity 5.05356598
REMARK minimizedRMSD -1
REMARK  0 active torsions:
REMARK  status: ('A' for Active; 'I' for Inactive)
ROOT
ATOM      1  C   UNL d   1      -2.836  -2.889   1.350  0.00  0.00     0.172 C 
ATOM      2  N   UNL d   1      -3.825  -2.153   2.102  0.00  0.00    -0.070 N 
ATOM      3  C1  UNL d   1      -5.136  -1.982   1.743  0.00  0.00    -0.004 A 
ATOM      4  C2  UNL d   1      -5.745  -1.224   2.719  0.00  0.00    -0.047 A 
ATOM      5  C3  UNL d   1      -4.767  -0.928   3.698  0.00  0.00    -0.047 A 
ATOM      6  C4  UNL d   1      -3.588  -1.516   3.291  0.00  0.00    -0.004 A 
ENDROOT
TORSDOF 0
ENDMDL
