MODEL 1
REMARK minimizedAffinity 4.72595024
REMARK minimizedRMSD -1
REMARK  0 active torsions:
REMARK  status: ('A' for Active; 'I' for Inactive)
ROOT
ATOM      1  C   UNL d   1      -0.373  -5.995  -0.054  0.00  0.00     0.172 C 
ATOM      2  N   UNL d   1      -0.945  -5.996   1.273  0.00  0.00    -0.070 N 
ATOM      3  C1  UNL d   1      -0.239  -5.994   2.446  0.00  0.00    -0.004 A 
ATOM      4  C2  UNL d   1      -1.146  -5.996   3.484  0.00  0.00    -0.047 A 
ATOM      5  C3  UNL d   1      -2.441  -6.000   2.914  0.00  0.00    -0.047 A 
ATOM      6  C4  UNL d   1      -2.287  -6.000   1.544  0.00  0.00    -0.004 A 
ENDROOT
TORSDOF 0
ENDMDL
