MODEL 1
REMARK minimizedAffinity 3.84600616
REMARK minimizedRMSD -1
REMARK  0 active torsions:
REMARK  status: ('A' for Active; 'I' for Inactive)
ROOT
ATOM      1  C   UNL d   1       4.895  -0.167  -2.854  0.00  0.00     0.172 C 
ATOM      2  N   UNL d   1       4.285   0.180  -4.117  0.00  0.00    -0.070 N 
ATOM      3  C1  UNL d   1       4.400   1.386  -4.754  0.00  0.00    -0.004 A 
ATOM      4  C2  UNL d   1       3.675   1.316  -5.924  0.00  0.00    -0.047 A 
ATOM      5  C3  UNL d   1       3.105   0.023  -5.992  0.00  0.00    -0.047 A 
ATOM      6  C4  UNL d   1       3.498  -0.659  -4.861  0.00  0.00    -0.004 A 
ENDROOT
TORSDOF 0
ENDMDL
