MODEL 1
REMARK minimizedAffinity 0.286335796
REMARK minimizedRMSD -1
REMARK  0 active torsions:
REMARK  status: ('A' for Active; 'I' for Inactive)
ROOT
ATOM      1  C   UNL d   1      -0.013   1.460  -1.057  0.00  0.00     0.172 C 
ATOM      2  N   UNL d   1      -0.238   0.515   0.011  0.00  0.00    -0.070 N 
ATOM      3  C1  UNL d   1      -0.580  -0.801  -0.146  0.00  0.00    -0.004 A 
ATOM      4  C2  UNL d   1      -0.702  -1.359   1.108  0.00  0.00    -0.047 A 
ATOM      5  C3  UNL d   1      -0.424  -0.342   2.052  0.00  0.00    -0.047 A 
ATOM      6  C4  UNL d   1      -0.140   0.808   1.346  0.00  0.00    -0.004 A 
ENDROOT
TORSDOF 0
ENDMDL
