MODEL 1
REMARK minimizedAffinity -0.649837196
REMARK minimizedRMSD -1
REMARK  0 active torsions:
REMARK  status: ('A' for Active; 'I' for Inactive)
ROOT
ATOM      1  C   UNL d   1       5.999  -3.578   5.638  0.00  0.00     0.172 C 
ATOM      2  N   UNL d   1       5.667  -2.609   4.620  0.00  0.00    -0.070 N 
ATOM      3  C1  UNL d   1       6.000  -1.281   4.642  0.00  0.00    -0.004 A 
ATOM      4  C2  UNL d   1       5.502  -0.702   3.495  0.00  0.00    -0.047 A 
ATOM      5  C3  UNL d   1       4.846  -1.716   2.758  0.00  0.00    -0.047 A 
ATOM      6  C4  UNL d   1       4.963  -2.887   3.478  0.00  0.00    -0.004 A 
ENDROOT
TORSDOF 0
ENDMDL
