MODEL 1
REMARK minimizedAffinity 2.27728701
REMARK minimizedRMSD -1
REMARK  0 active torsions:
REMARK  status: ('A' for Active; 'I' for Inactive)
ROOT
ATOM      1  C   UNL d   1      -2.149  -2.967  -3.208  0.00  0.00     0.172 C 
ATOM      2  N   UNL d   1      -1.528  -2.142  -2.198  0.00  0.00    -0.070 N 
ATOM      3  C1  UNL d   1      -0.237  -1.685  -2.223  0.00  0.00    -0.004 A 
ATOM      4  C2  UNL d   1      -0.032  -0.937  -1.084  0.00  0.00    -0.047 A 
ATOM      5  C3  UNL d   1      -1.242  -0.945  -0.349  0.00  0.00    -0.047 A 
ATOM      6  C4  UNL d   1      -2.150  -1.698  -1.061  0.00  0.00    -0.004 A 
ENDROOT
TORSDOF 0
ENDMDL
