MODEL 1
REMARK minimizedAffinity -0.992582262
REMARK minimizedRMSD -1
REMARK  0 active torsions:
REMARK  status: ('A' for Active; 'I' for Inactive)
ROOT
ATOM      1  C   UNL d   1       5.024  -2.926   6.000  0.00  0.00     0.172 C 
ATOM      2  N   UNL d   1       5.286  -1.925   4.992  0.00  0.00    -0.070 N 
ATOM      3  C1  UNL d   1       5.965  -0.752   5.189  0.00  0.00    -0.004 A 
ATOM      4  C2  UNL d   1       6.000  -0.078   3.988  0.00  0.00    -0.047 A 
ATOM      5  C3  UNL d   1       5.317  -0.872   3.036  0.00  0.00    -0.047 A 
ATOM      6  C4  UNL d   1       4.886  -2.010   3.685  0.00  0.00    -0.004 A 
ENDROOT
TORSDOF 0
ENDMDL
