MODEL 1
REMARK minimizedAffinity 0.723065317
REMARK minimizedRMSD -1
REMARK  0 active torsions:
REMARK  status: ('A' for Active; 'I' for Inactive)
ROOT
ATOM      1  C   UNL d   1       0.199   0.809   1.387  0.00  0.00     0.172 C 
ATOM      2  N   UNL d   1      -0.505  -0.339   0.867  0.00  0.00    -0.070 N 
ATOM      3  C1  UNL d   1      -1.346  -1.150   1.581  0.00  0.00    -0.004 A 
ATOM      4  C2  UNL d   1      -1.816  -2.126   0.728  0.00  0.00    -0.047 A 
ATOM      5  C3  UNL d   1      -1.237  -1.894  -0.542  0.00  0.00    -0.047 A 
ATOM      6  C4  UNL d   1      -0.430  -0.781  -0.428  0.00  0.00    -0.004 A 
ENDROOT
TORSDOF 0
ENDMDL
