MODEL 1
REMARK minimizedAffinity 0.753504515
REMARK minimizedRMSD -1
REMARK  0 active torsions:
REMARK  status: ('A' for Active; 'I' for Inactive)
ROOT
ATOM      1  C   UNL d   1      -1.011  -5.989   3.393  0.00  0.00     0.172 C 
ATOM      2  N   UNL d   1       0.239  -5.991   4.115  0.00  0.00    -0.070 N 
ATOM      3  C1  UNL d   1       0.375  -5.995   5.477  0.00  0.00    -0.004 A 
ATOM      4  C2  UNL d   1       1.722  -5.997   5.768  0.00  0.00    -0.047 A 
ATOM      5  C3  UNL d   1       2.420  -5.992   4.537  0.00  0.00    -0.047 A 
ATOM      6  C4  UNL d   1       1.478  -5.989   3.530  0.00  0.00    -0.004 A 
ENDROOT
TORSDOF 0
ENDMDL
