MODEL 1
REMARK minimizedAffinity 6.52302647
REMARK minimizedRMSD -1
REMARK  0 active torsions:
REMARK  status: ('A' for Active; 'I' for Inactive)
ROOT
ATOM      1  C   UNL d   1      -4.872  -1.249   3.100  0.00  0.00     0.172 C 
ATOM      2  N   UNL d   1      -3.956  -1.986   2.262  0.00  0.00    -0.070 N 
ATOM      3  C1  UNL d   1      -2.641  -2.240   2.548  0.00  0.00    -0.004 A 
ATOM      4  C2  UNL d   1      -2.115  -2.969   1.503  0.00  0.00    -0.047 A 
ATOM      5  C3  UNL d   1      -3.150  -3.159   0.556  0.00  0.00    -0.047 A 
ATOM      6  C4  UNL d   1      -4.278  -2.541   1.052  0.00  0.00    -0.004 A 
ENDROOT
TORSDOF 0
ENDMDL
