MODEL 1
REMARK minimizedAffinity -3.428581
REMARK minimizedRMSD -1
REMARK  0 active torsions:
REMARK  status: ('A' for Active; 'I' for Inactive)
ROOT
ATOM      1  C   UNL d   1      -0.683  -0.818   1.988  0.00  0.00     0.023 A 
ATOM      2  C1  UNL d   1      -0.997  -0.491   0.669  0.00  0.00     0.003 A 
ATOM      3  C2  UNL d   1      -0.264   0.489  -0.003  0.00  0.00     0.048 A 
ATOM      4  C3  UNL d   1       0.784   1.137   0.650  0.00  0.00     0.023 A 
ATOM      5  C4  UNL d   1       1.103   0.813   1.970  0.00  0.00     0.048 A 
ATOM      6  C5  UNL d   1       0.366  -0.167   2.638  0.00  0.00     0.003 A 
ATOM      7  I   UNL d   1       1.878   2.596  -0.347  0.00  0.00    -0.146 I 
ENDROOT
TORSDOF 0
ENDMDL
