MODEL 1
REMARK minimizedAffinity -3.07796669
REMARK minimizedRMSD -1
REMARK  0 active torsions:
REMARK  status: ('A' for Active; 'I' for Inactive)
ROOT
ATOM      1  C   UNL d   1      -0.584  -0.426   3.309  0.00  0.00     0.023 A 
ATOM      2  C1  UNL d   1      -1.388  -1.064   2.364  0.00  0.00     0.003 A 
ATOM      3  C2  UNL d   1      -1.131  -0.899   1.001  0.00  0.00     0.048 A 
ATOM      4  C3  UNL d   1      -0.068  -0.095   0.591  0.00  0.00     0.023 A 
ATOM      5  C4  UNL d   1       0.740   0.544   1.533  0.00  0.00     0.048 A 
ATOM      6  C5  UNL d   1       0.479   0.377   2.894  0.00  0.00     0.003 A 
ATOM      7  I   UNL d   1       0.316   0.153  -1.437  0.00  0.00    -0.146 I 
ENDROOT
TORSDOF 0
ENDMDL
