MODEL 1
REMARK minimizedAffinity 6.84387016
REMARK minimizedRMSD -1
REMARK  0 active torsions:
REMARK  status: ('A' for Active; 'I' for Inactive)
ROOT
ATOM      1  C   UNL d   1      -0.766  -0.900   0.210  0.00  0.00     0.023 A 
ATOM      2  C1  UNL d   1      -0.771  -2.164   0.800  0.00  0.00     0.003 A 
ATOM      3  C2  UNL d   1      -1.983  -2.795   1.090  0.00  0.00     0.048 A 
ATOM      4  C3  UNL d   1      -3.185  -2.157   0.786  0.00  0.00     0.023 A 
ATOM      5  C4  UNL d   1      -3.184  -0.893   0.194  0.00  0.00     0.048 A 
ATOM      6  C5  UNL d   1      -1.970  -0.265  -0.092  0.00  0.00     0.003 A 
ATOM      7  I   UNL d   1      -4.989  -3.095   1.216  0.00  0.00    -0.146 I 
ENDROOT
TORSDOF 0
ENDMDL
