MODEL 1
REMARK minimizedAffinity 1.18584156
REMARK minimizedRMSD -1
REMARK  0 active torsions:
REMARK  status: ('A' for Active; 'I' for Inactive)
ROOT
ATOM      1  C   UNL d   1      -2.632  -4.127   3.704  0.00  0.00     0.023 A 
ATOM      2  C1  UNL d   1      -3.379  -5.285   3.921  0.00  0.00     0.003 A 
ATOM      3  C2  UNL d   1      -4.150  -5.823   2.889  0.00  0.00     0.048 A 
ATOM      4  C3  UNL d   1      -4.168  -5.200   1.642  0.00  0.00     0.023 A 
ATOM      5  C4  UNL d   1      -3.421  -4.041   1.420  0.00  0.00     0.048 A 
ATOM      6  C5  UNL d   1      -2.653  -3.506   2.456  0.00  0.00     0.003 A 
ATOM      7  I   UNL d   1      -5.315  -5.999   0.104  0.00  0.00    -0.146 I 
ENDROOT
TORSDOF 0
ENDMDL
