MODEL 1
REMARK minimizedAffinity 1.18939698
REMARK minimizedRMSD -1
REMARK  0 active torsions:
REMARK  status: ('A' for Active; 'I' for Inactive)
ROOT
ATOM      1  C   UNL d   1      -2.602  -4.486   3.913  0.00  0.00     0.023 A 
ATOM      2  C1  UNL d   1      -2.664  -3.926   2.637  0.00  0.00     0.003 A 
ATOM      3  C2  UNL d   1      -3.632  -4.360   1.729  0.00  0.00     0.048 A 
ATOM      4  C3  UNL d   1      -4.536  -5.353   2.104  0.00  0.00     0.023 A 
ATOM      5  C4  UNL d   1      -4.479  -5.916   3.380  0.00  0.00     0.048 A 
ATOM      6  C5  UNL d   1      -3.508  -5.480   4.284  0.00  0.00     0.003 A 
ATOM      7  I   UNL d   1      -5.978  -6.000   0.755  0.00  0.00    -0.146 I 
ENDROOT
TORSDOF 0
ENDMDL
