MODEL 1
REMARK minimizedAffinity 3.14701152
REMARK minimizedRMSD -1
REMARK  0 active torsions:
REMARK  status: ('A' for Active; 'I' for Inactive)
ROOT
ATOM      1  C   UNL d   1      -4.252  -5.909  -1.402  0.00  0.00     0.023 A 
ATOM      2  C1  UNL d   1      -3.287  -5.912  -0.396  0.00  0.00     0.003 A 
ATOM      3  C2  UNL d   1      -3.675  -5.938   0.946  0.00  0.00     0.048 A 
ATOM      4  C3  UNL d   1      -5.030  -5.962   1.273  0.00  0.00     0.023 A 
ATOM      5  C4  UNL d   1      -6.000  -5.960   0.269  0.00  0.00     0.048 A 
ATOM      6  C5  UNL d   1      -5.607  -5.933  -1.070  0.00  0.00     0.003 A 
ATOM      7  I   UNL d   1      -5.610  -6.000   3.269  0.00  0.00    -0.146 I 
ENDROOT
TORSDOF 0
ENDMDL
