MODEL 1
REMARK minimizedAffinity -4.44879103
REMARK minimizedRMSD -1
REMARK  0 active torsions:
REMARK  status: ('A' for Active; 'I' for Inactive)
ROOT
ATOM      1  C   UNL d   1       1.002   0.051   2.912  0.00  0.00     0.023 A 
ATOM      2  C1  UNL d   1      -0.270   0.169   2.353  0.00  0.00     0.003 A 
ATOM      3  C2  UNL d   1      -0.434   0.102   0.968  0.00  0.00     0.048 A 
ATOM      4  C3  UNL d   1       0.679  -0.083   0.148  0.00  0.00     0.023 A 
ATOM      5  C4  UNL d   1       1.954  -0.203   0.704  0.00  0.00     0.048 A 
ATOM      6  C5  UNL d   1       2.112  -0.135   2.089  0.00  0.00     0.003 A 
ATOM      7  I   UNL d   1       0.437  -0.183  -1.914  0.00  0.00    -0.146 I 
ENDROOT
TORSDOF 0
ENDMDL
