MODEL 1
REMARK minimizedAffinity -4.42115736
REMARK minimizedRMSD -1
REMARK  0 active torsions:
REMARK  status: ('A' for Active; 'I' for Inactive)
ROOT
ATOM      1  C   UNL d   1      -0.125   0.023   3.173  0.00  0.00     0.023 A 
ATOM      2  C1  UNL d   1      -0.770  -0.874   2.322  0.00  0.00     0.003 A 
ATOM      3  C2  UNL d   1      -0.514  -0.844   0.950  0.00  0.00     0.048 A 
ATOM      4  C3  UNL d   1       0.389   0.085   0.435  0.00  0.00     0.023 A 
ATOM      5  C4  UNL d   1       1.038   0.985   1.283  0.00  0.00     0.048 A 
ATOM      6  C5  UNL d   1       0.778   0.952   2.654  0.00  0.00     0.003 A 
ATOM      7  I   UNL d   1       0.772   0.132  -1.607  0.00  0.00    -0.146 I 
ENDROOT
TORSDOF 0
ENDMDL
