MODEL 1
REMARK minimizedAffinity -3.38889098
REMARK minimizedRMSD -1
REMARK  0 active torsions:
REMARK  status: ('A' for Active; 'I' for Inactive)
ROOT
ATOM      1  C   UNL d   1      -0.218   0.215   3.278  0.00  0.00     0.023 A 
ATOM      2  C1  UNL d   1       1.064   0.415   2.766  0.00  0.00     0.003 A 
ATOM      3  C2  UNL d   1       1.338   0.118   1.429  0.00  0.00     0.048 A 
ATOM      4  C3  UNL d   1       0.324  -0.377   0.609  0.00  0.00     0.023 A 
ATOM      5  C4  UNL d   1      -0.960  -0.579   1.117  0.00  0.00     0.048 A 
ATOM      6  C5  UNL d   1      -1.228  -0.282   2.455  0.00  0.00     0.003 A 
ATOM      7  I   UNL d   1       0.729  -0.819  -1.381  0.00  0.00    -0.146 I 
ENDROOT
TORSDOF 0
ENDMDL
