MODEL 1
REMARK minimizedAffinity -3.75317979
REMARK minimizedRMSD -1
REMARK  0 active torsions:
REMARK  status: ('A' for Active; 'I' for Inactive)
ROOT
ATOM      1  C   UNL d   1      -0.432  -0.489   3.239  0.00  0.00     0.023 A 
ATOM      2  C1  UNL d   1      -1.274  -0.989   2.246  0.00  0.00     0.003 A 
ATOM      3  C2  UNL d   1      -0.994  -0.740   0.901  0.00  0.00     0.048 A 
ATOM      4  C3  UNL d   1       0.131   0.008   0.556  0.00  0.00     0.023 A 
ATOM      5  C4  UNL d   1       0.977   0.510   1.546  0.00  0.00     0.048 A 
ATOM      6  C5  UNL d   1       0.692   0.259   2.890  0.00  0.00     0.003 A 
ATOM      7  I   UNL d   1       0.550   0.380  -1.446  0.00  0.00    -0.146 I 
ENDROOT
TORSDOF 0
ENDMDL
