MODEL 1
REMARK minimizedAffinity -3.10193563
REMARK minimizedRMSD -1
REMARK  0 active torsions:
REMARK  status: ('A' for Active; 'I' for Inactive)
ROOT
ATOM      1  C   UNL d   1      -0.217   0.346   2.432  0.00  0.00     0.023 A 
ATOM      2  C1  UNL d   1       0.940   0.838   1.828  0.00  0.00     0.003 A 
ATOM      3  C2  UNL d   1       1.247   0.486   0.512  0.00  0.00     0.048 A 
ATOM      4  C3  UNL d   1       0.392  -0.359  -0.195  0.00  0.00     0.023 A 
ATOM      5  C4  UNL d   1      -0.768  -0.853   0.405  0.00  0.00     0.048 A 
ATOM      6  C5  UNL d   1      -1.070  -0.499   1.721  0.00  0.00     0.003 A 
ATOM      7  I   UNL d   1       0.846  -0.885  -2.154  0.00  0.00    -0.146 I 
ENDROOT
TORSDOF 0
ENDMDL
