MODEL 1
REMARK minimizedAffinity -1.33767951
REMARK minimizedRMSD -1
REMARK  0 active torsions:
REMARK  status: ('A' for Active; 'I' for Inactive)
ROOT
ATOM      1  C   UNL d   1       0.666   0.408   2.413  0.00  0.00     0.023 A 
ATOM      2  C1  UNL d   1       1.563  -0.592   2.036  0.00  0.00     0.003 A 
ATOM      3  C2  UNL d   1       1.713  -0.925   0.688  0.00  0.00     0.048 A 
ATOM      4  C3  UNL d   1       0.963  -0.254  -0.277  0.00  0.00     0.023 A 
ATOM      5  C4  UNL d   1       0.065   0.747   0.095  0.00  0.00     0.048 A 
ATOM      6  C5  UNL d   1      -0.082   1.077   1.444  0.00  0.00     0.003 A 
ATOM      7  I   UNL d   1       1.184  -0.749  -2.284  0.00  0.00    -0.146 I 
ENDROOT
TORSDOF 0
ENDMDL
