MODEL 1
REMARK minimizedAffinity 10.5684443
REMARK minimizedRMSD -1
REMARK  0 active torsions:
REMARK  status: ('A' for Active; 'I' for Inactive)
ROOT
ATOM      1  C   UNL d   1      -0.097  -3.275  -4.231  0.00  0.00     0.023 A 
ATOM      2  C1  UNL d   1       1.178  -3.761  -3.939  0.00  0.00     0.003 A 
ATOM      3  C2  UNL d   1       2.183  -2.884  -3.526  0.00  0.00     0.048 A 
ATOM      4  C3  UNL d   1       1.907  -1.522  -3.407  0.00  0.00     0.023 A 
ATOM      5  C4  UNL d   1       0.633  -1.032  -3.697  0.00  0.00     0.048 A 
ATOM      6  C5  UNL d   1      -0.369  -1.912  -4.110  0.00  0.00     0.003 A 
ATOM      7  I   UNL d   1       3.401  -0.215  -2.793  0.00  0.00    -0.146 I 
ENDROOT
TORSDOF 0
ENDMDL
