MODEL 1
REMARK minimizedAffinity 7.87010717
REMARK minimizedRMSD -1
REMARK  0 active torsions:
REMARK  status: ('A' for Active; 'I' for Inactive)
ROOT
ATOM      1  C   UNL d   1      -0.420  -5.995   0.334  0.00  0.00     0.023 A 
ATOM      2  C1  UNL d   1      -1.081  -5.996  -0.894  0.00  0.00     0.003 A 
ATOM      3  C2  UNL d   1      -2.477  -5.997  -0.937  0.00  0.00     0.048 A 
ATOM      4  C3  UNL d   1      -3.205  -5.997   0.252  0.00  0.00     0.023 A 
ATOM      5  C4  UNL d   1      -2.548  -5.996   1.483  0.00  0.00     0.048 A 
ATOM      6  C5  UNL d   1      -1.152  -5.996   1.521  0.00  0.00     0.003 A 
ATOM      7  I   UNL d   1      -5.282  -5.999   0.191  0.00  0.00    -0.146 I 
ENDROOT
TORSDOF 0
ENDMDL
