MODEL 1
REMARK minimizedAffinity -2.27123713
REMARK minimizedRMSD -1
REMARK  0 active torsions:
REMARK  status: ('A' for Active; 'I' for Inactive)
ROOT
ATOM      1  C   UNL d   1       1.992  -0.844  -2.394  0.00  0.00     0.023 A 
ATOM      2  C1  UNL d   1       2.789  -1.363  -3.414  0.00  0.00     0.003 A 
ATOM      3  C2  UNL d   1       3.898  -0.647  -3.868  0.00  0.00     0.048 A 
ATOM      4  C3  UNL d   1       4.206   0.587  -3.297  0.00  0.00     0.023 A 
ATOM      5  C4  UNL d   1       3.412   1.111  -2.275  0.00  0.00     0.048 A 
ATOM      6  C5  UNL d   1       2.303   0.392  -1.825  0.00  0.00     0.003 A 
ATOM      7  I   UNL d   1       5.857   1.654  -3.972  0.00  0.00    -0.146 I 
ENDROOT
TORSDOF 0
ENDMDL
