MODEL 1
REMARK minimizedAffinity 1.36855793
REMARK minimizedRMSD -1
REMARK  0 active torsions:
REMARK  status: ('A' for Active; 'I' for Inactive)
ROOT
ATOM      1  C   UNL d   1       2.655  -1.783   1.961  0.00  0.00     0.023 A 
ATOM      2  C1  UNL d   1       2.306  -2.467   3.125  0.00  0.00     0.003 A 
ATOM      3  C2  UNL d   1       3.067  -2.307   4.285  0.00  0.00     0.048 A 
ATOM      4  C3  UNL d   1       4.174  -1.460   4.274  0.00  0.00     0.023 A 
ATOM      5  C4  UNL d   1       4.527  -0.773   3.111  0.00  0.00     0.048 A 
ATOM      6  C5  UNL d   1       3.764  -0.937   1.953  0.00  0.00     0.003 A 
ATOM      7  I   UNL d   1       5.308  -1.219   5.999  0.00  0.00    -0.146 I 
ENDROOT
TORSDOF 0
ENDMDL
