MODEL 1
REMARK minimizedAffinity 8.13951874
REMARK minimizedRMSD -1
REMARK  0 active torsions:
REMARK  status: ('A' for Active; 'I' for Inactive)
ROOT
ATOM      1  C   UNL d   1      -4.480  -2.533   3.006  0.00  0.00     0.078 C 
ATOM      2  C1  UNL d   1      -4.919  -3.702   3.836  0.00  0.00    -0.077 A 
ATOM      3  C2  UNL d   1      -4.940  -3.626   5.234  0.00  0.00    -0.001 A 
ATOM      4  C3  UNL d   1      -5.342  -4.725   5.995  0.00  0.00     0.003 A 
ATOM      5  C4  UNL d   1      -5.725  -5.908   5.367  0.00  0.00    -0.005 A 
ATOM      6  C5  UNL d   1      -5.705  -5.994   3.977  0.00  0.00     0.003 A 
ATOM      7  C6  UNL d   1      -5.304  -4.896   3.214  0.00  0.00    -0.001 A 
ENDROOT
TORSDOF 0
ENDMDL
