MODEL 1
REMARK minimizedAffinity 4.58154583
REMARK minimizedRMSD -1
REMARK  0 active torsions:
REMARK  status: ('A' for Active; 'I' for Inactive)
ROOT
ATOM      1  C   UNL d   1      -2.667   0.298   5.361  0.00  0.00     0.078 C 
ATOM      2  C1  UNL d   1      -2.533  -0.082   3.917  0.00  0.00    -0.077 A 
ATOM      3  C2  UNL d   1      -3.578   0.141   3.012  0.00  0.00    -0.001 A 
ATOM      4  C3  UNL d   1      -3.442  -0.227   1.672  0.00  0.00     0.003 A 
ATOM      5  C4  UNL d   1      -2.264  -0.822   1.226  0.00  0.00    -0.005 A 
ATOM      6  C5  UNL d   1      -1.219  -1.050   2.120  0.00  0.00     0.003 A 
ATOM      7  C6  UNL d   1      -1.353  -0.683   3.460  0.00  0.00    -0.001 A 
ENDROOT
TORSDOF 0
ENDMDL
