MODEL 1
REMARK minimizedAffinity 1.8611387
REMARK minimizedRMSD -1
REMARK  0 active torsions:
REMARK  status: ('A' for Active; 'I' for Inactive)
ROOT
ATOM      1  C   UNL d   1      -5.004   4.490  -2.996  0.00  0.00     0.078 C 
ATOM      2  C1  UNL d   1      -3.878   4.877  -3.907  0.00  0.00    -0.077 A 
ATOM      3  C2  UNL d   1      -2.545   4.668  -3.535  0.00  0.00    -0.001 A 
ATOM      4  C3  UNL d   1      -1.506   5.042  -4.389  0.00  0.00     0.003 A 
ATOM      5  C4  UNL d   1      -1.790   5.628  -5.621  0.00  0.00    -0.005 A 
ATOM      6  C5  UNL d   1      -3.114   5.842  -6.000  0.00  0.00     0.003 A 
ATOM      7  C6  UNL d   1      -4.154   5.469  -5.146  0.00  0.00    -0.001 A 
ENDROOT
TORSDOF 0
ENDMDL
