MODEL 1
REMARK minimizedAffinity 5.76411533
REMARK minimizedRMSD -1
REMARK  0 active torsions:
REMARK  status: ('A' for Active; 'I' for Inactive)
ROOT
ATOM      1  C   UNL d   1       4.665   1.129   1.096  0.00  0.00     0.078 C 
ATOM      2  C1  UNL d   1       4.272  -0.258   0.685  0.00  0.00    -0.077 A 
ATOM      3  C2  UNL d   1       4.899  -0.897  -0.392  0.00  0.00    -0.001 A 
ATOM      4  C3  UNL d   1       4.516  -2.184  -0.769  0.00  0.00     0.003 A 
ATOM      5  C4  UNL d   1       3.502  -2.844  -0.077  0.00  0.00    -0.005 A 
ATOM      6  C5  UNL d   1       2.870  -2.215   0.994  0.00  0.00     0.003 A 
ATOM      7  C6  UNL d   1       3.252  -0.928   1.373  0.00  0.00    -0.001 A 
ENDROOT
TORSDOF 0
ENDMDL
