MODEL 1
REMARK minimizedAffinity -3.8044908
REMARK minimizedRMSD -1
REMARK  0 active torsions:
REMARK  status: ('A' for Active; 'I' for Inactive)
ROOT
ATOM      1  C   UNL d   1      -3.355   1.759   5.780  0.00  0.00     0.078 C 
ATOM      2  C1  UNL d   1      -3.933   0.614   5.004  0.00  0.00    -0.077 A 
ATOM      3  C2  UNL d   1      -4.753  -0.337   5.624  0.00  0.00    -0.001 A 
ATOM      4  C3  UNL d   1      -5.276  -1.403   4.891  0.00  0.00     0.003 A 
ATOM      5  C4  UNL d   1      -4.984  -1.530   3.534  0.00  0.00    -0.005 A 
ATOM      6  C5  UNL d   1      -4.167  -0.590   2.909  0.00  0.00     0.003 A 
ATOM      7  C6  UNL d   1      -3.643   0.477   3.641  0.00  0.00    -0.001 A 
ENDROOT
TORSDOF 0
ENDMDL
