MODEL 1
REMARK minimizedAffinity 1.09515178
REMARK minimizedRMSD -1
REMARK  0 active torsions:
REMARK  status: ('A' for Active; 'I' for Inactive)
ROOT
ATOM      1  C   UNL d   1      -5.661   4.327  -2.715  0.00  0.00     0.078 C 
ATOM      2  C1  UNL d   1      -4.851   4.866  -3.855  0.00  0.00    -0.077 A 
ATOM      3  C2  UNL d   1      -3.453   4.772  -3.855  0.00  0.00    -0.001 A 
ATOM      4  C3  UNL d   1      -2.711   5.286  -4.919  0.00  0.00     0.003 A 
ATOM      5  C4  UNL d   1      -3.356   5.899  -5.991  0.00  0.00    -0.005 A 
ATOM      6  C5  UNL d   1      -4.746   5.999  -5.999  0.00  0.00     0.003 A 
ATOM      7  C6  UNL d   1      -5.490   5.485  -4.936  0.00  0.00    -0.001 A 
ENDROOT
TORSDOF 0
ENDMDL
