MODEL 1
REMARK minimizedAffinity 0.135284096
REMARK minimizedRMSD -1
REMARK  0 active torsions:
REMARK  status: ('A' for Active; 'I' for Inactive)
ROOT
ATOM      1  C   UNL d   1      -5.769  -0.588   3.979  0.00  0.00     0.078 C 
ATOM      2  C1  UNL d   1      -4.322  -0.384   3.639  0.00  0.00    -0.077 A 
ATOM      3  C2  UNL d   1      -3.495   0.401   4.452  0.00  0.00    -0.001 A 
ATOM      4  C3  UNL d   1      -2.153   0.591   4.118  0.00  0.00     0.003 A 
ATOM      5  C4  UNL d   1      -1.627   0.001   2.971  0.00  0.00    -0.005 A 
ATOM      6  C5  UNL d   1      -2.443  -0.780   2.155  0.00  0.00     0.003 A 
ATOM      7  C6  UNL d   1      -3.785  -0.971   2.487  0.00  0.00    -0.001 A 
ENDROOT
TORSDOF 0
ENDMDL
