MODEL 1
REMARK minimizedAffinity -4.47541142
REMARK minimizedRMSD -1
REMARK  0 active torsions:
REMARK  status: ('A' for Active; 'I' for Inactive)
ROOT
ATOM      1  C   UNL d   1      -2.541   1.280   5.310  0.00  0.00     0.078 C 
ATOM      2  C1  UNL d   1      -3.248   0.151   4.621  0.00  0.00    -0.077 A 
ATOM      3  C2  UNL d   1      -4.315  -0.515   5.237  0.00  0.00    -0.001 A 
ATOM      4  C3  UNL d   1      -4.956  -1.571   4.588  0.00  0.00     0.003 A 
ATOM      5  C4  UNL d   1      -4.538  -1.971   3.320  0.00  0.00    -0.005 A 
ATOM      6  C5  UNL d   1      -3.476  -1.316   2.701  0.00  0.00     0.003 A 
ATOM      7  C6  UNL d   1      -2.832  -0.260   3.348  0.00  0.00    -0.001 A 
ENDROOT
TORSDOF 0
ENDMDL
