MODEL 1
REMARK minimizedAffinity -0.38760975
REMARK minimizedRMSD -1
REMARK  0 active torsions:
REMARK  status: ('A' for Active; 'I' for Inactive)
ROOT
ATOM      1  C   UNL d   1      -4.500  -0.862   2.480  0.00  0.00     0.078 C 
ATOM      2  C1  UNL d   1      -3.988  -0.179   3.713  0.00  0.00    -0.077 A 
ATOM      3  C2  UNL d   1      -4.784  -0.071   4.860  0.00  0.00    -0.001 A 
ATOM      4  C3  UNL d   1      -4.299   0.575   5.998  0.00  0.00     0.003 A 
ATOM      5  C4  UNL d   1      -3.016   1.120   6.000  0.00  0.00    -0.005 A 
ATOM      6  C5  UNL d   1      -2.218   1.019   4.863  0.00  0.00     0.003 A 
ATOM      7  C6  UNL d   1      -2.702   0.373   3.724  0.00  0.00    -0.001 A 
ENDROOT
TORSDOF 0
ENDMDL
