MODEL 1
REMARK minimizedAffinity 5.61949635
REMARK minimizedRMSD -1
REMARK  0 active torsions:
REMARK  status: ('A' for Active; 'I' for Inactive)
ROOT
ATOM      1  C   UNL d   1      -4.039   1.140   5.999  0.00  0.00     0.078 C 
ATOM      2  C1  UNL d   1      -4.560   0.104   5.048  0.00  0.00    -0.077 A 
ATOM      3  C2  UNL d   1      -5.396  -0.927   5.492  0.00  0.00    -0.001 A 
ATOM      4  C3  UNL d   1      -5.866  -1.890   4.597  0.00  0.00     0.003 A 
ATOM      5  C4  UNL d   1      -5.503  -1.832   3.253  0.00  0.00    -0.005 A 
ATOM      6  C5  UNL d   1      -4.669  -0.811   2.802  0.00  0.00     0.003 A 
ATOM      7  C6  UNL d   1      -4.198   0.153   3.696  0.00  0.00    -0.001 A 
ENDROOT
TORSDOF 0
ENDMDL
