MODEL 1
REMARK minimizedAffinity -1.75334311
REMARK minimizedRMSD -1
REMARK  0 active torsions:
REMARK  status: ('A' for Active; 'I' for Inactive)
ROOT
ATOM      1  C   UNL d   1       2.377   1.443   1.127  0.00  0.00     0.078 C 
ATOM      2  C1  UNL d   1       3.635   2.249   1.001  0.00  0.00    -0.077 A 
ATOM      3  C2  UNL d   1       4.363   2.266  -0.195  0.00  0.00    -0.001 A 
ATOM      4  C3  UNL d   1       5.538   3.013  -0.296  0.00  0.00     0.003 A 
ATOM      5  C4  UNL d   1       5.996   3.747   0.796  0.00  0.00    -0.005 A 
ATOM      6  C5  UNL d   1       5.279   3.735   1.991  0.00  0.00     0.003 A 
ATOM      7  C6  UNL d   1       4.104   2.989   2.093  0.00  0.00    -0.001 A 
ENDROOT
TORSDOF 0
ENDMDL
