MODEL 1
REMARK minimizedAffinity 3.23829865
REMARK minimizedRMSD -1
REMARK  0 active torsions:
REMARK  status: ('A' for Active; 'I' for Inactive)
ROOT
ATOM      1  C   UNL d   1      -2.425   0.296   5.357  0.00  0.00     0.078 C 
ATOM      2  C1  UNL d   1      -2.195  -0.098   3.929  0.00  0.00    -0.077 A 
ATOM      3  C2  UNL d   1      -2.467  -1.399   3.487  0.00  0.00    -0.001 A 
ATOM      4  C3  UNL d   1      -2.239  -1.755   2.157  0.00  0.00     0.003 A 
ATOM      5  C4  UNL d   1      -1.737  -0.816   1.257  0.00  0.00    -0.005 A 
ATOM      6  C5  UNL d   1      -1.462   0.480   1.688  0.00  0.00     0.003 A 
ATOM      7  C6  UNL d   1      -1.689   0.838   3.018  0.00  0.00    -0.001 A 
ENDROOT
TORSDOF 0
ENDMDL
