MODEL 1
REMARK minimizedAffinity 5.29479027
REMARK minimizedRMSD -1
REMARK  0 active torsions:
REMARK  status: ('A' for Active; 'I' for Inactive)
ROOT
ATOM      1  C   UNL d   1      -0.096  -0.797   1.759  0.00  0.00     0.078 C 
ATOM      2  C1  UNL d   1      -1.303  -0.452   2.579  0.00  0.00    -0.077 A 
ATOM      3  C2  UNL d   1      -2.592  -0.774   2.137  0.00  0.00    -0.001 A 
ATOM      4  C3  UNL d   1      -3.707  -0.438   2.906  0.00  0.00     0.003 A 
ATOM      5  C4  UNL d   1      -3.545   0.223   4.122  0.00  0.00    -0.005 A 
ATOM      6  C5  UNL d   1      -2.266   0.549   4.569  0.00  0.00     0.003 A 
ATOM      7  C6  UNL d   1      -1.150   0.214   3.802  0.00  0.00    -0.001 A 
ENDROOT
TORSDOF 0
ENDMDL
