MODEL 1
REMARK minimizedAffinity 6.16211987
REMARK minimizedRMSD -1
REMARK  0 active torsions:
REMARK  status: ('A' for Active; 'I' for Inactive)
ROOT
ATOM      1  C   UNL d   1       5.846   4.358  -0.898  0.00  0.00     0.078 C 
ATOM      2  C1  UNL d   1       4.980   3.815  -1.996  0.00  0.00    -0.077 A 
ATOM      3  C2  UNL d   1       5.412   3.827  -3.327  0.00  0.00    -0.001 A 
ATOM      4  C3  UNL d   1       4.592   3.327  -4.340  0.00  0.00     0.003 A 
ATOM      5  C4  UNL d   1       3.334   2.813  -4.032  0.00  0.00    -0.005 A 
ATOM      6  C5  UNL d   1       2.895   2.799  -2.710  0.00  0.00     0.003 A 
ATOM      7  C6  UNL d   1       3.713   3.299  -1.696  0.00  0.00    -0.001 A 
ENDROOT
TORSDOF 0
ENDMDL
