MODEL 1
REMARK minimizedAffinity 5.93476963
REMARK minimizedRMSD -1
REMARK  0 active torsions:
REMARK  status: ('A' for Active; 'I' for Inactive)
ROOT
ATOM      1  C   UNL d   1      -5.657   5.596  -3.015  0.00  0.00     0.078 C 
ATOM      2  C1  UNL d   1      -4.416   5.615  -3.856  0.00  0.00    -0.077 A 
ATOM      3  C2  UNL d   1      -3.168   5.296  -3.307  0.00  0.00    -0.001 A 
ATOM      4  C3  UNL d   1      -2.019   5.328  -4.099  0.00  0.00     0.003 A 
ATOM      5  C4  UNL d   1      -2.107   5.678  -5.445  0.00  0.00    -0.005 A 
ATOM      6  C5  UNL d   1      -3.344   5.999  -6.000  0.00  0.00     0.003 A 
ATOM      7  C6  UNL d   1      -4.494   5.968  -5.209  0.00  0.00    -0.001 A 
ENDROOT
TORSDOF 0
ENDMDL
