MODEL 1
REMARK minimizedAffinity 5.96182251
REMARK minimizedRMSD -1
REMARK  0 active torsions:
REMARK  status: ('A' for Active; 'I' for Inactive)
ROOT
ATOM      1  C   UNL d   1       0.489   0.826   1.074  0.00  0.00     0.078 C 
ATOM      2  C1  UNL d   1      -0.698   0.076   1.601  0.00  0.00    -0.077 A 
ATOM      3  C2  UNL d   1      -1.306   0.444   2.807  0.00  0.00    -0.001 A 
ATOM      4  C3  UNL d   1      -2.405  -0.269   3.290  0.00  0.00     0.003 A 
ATOM      5  C4  UNL d   1      -2.904  -1.355   2.575  0.00  0.00    -0.005 A 
ATOM      6  C5  UNL d   1      -2.304  -1.730   1.374  0.00  0.00     0.003 A 
ATOM      7  C6  UNL d   1      -1.205  -1.018   0.889  0.00  0.00    -0.001 A 
ENDROOT
TORSDOF 0
ENDMDL
