MODEL 1
REMARK minimizedAffinity 9.98525047
REMARK minimizedRMSD -1
REMARK  0 active torsions:
REMARK  status: ('A' for Active; 'I' for Inactive)
ROOT
ATOM      1  O1  BZF d   1       2.443  -1.724  -4.501  0.00  0.00    -0.204 OA
ATOM      2  C2  BZF d   1       3.552  -2.301  -3.912  0.00  0.00     0.174 A 
ATOM      3  C3  BZF d   1       3.249  -2.775  -2.686  0.00  0.00    -0.012 A 
ATOM      4  C3A BZF d   1       1.843  -2.558  -2.535  0.00  0.00    -0.107 A 
ATOM      5  C4  BZF d   1       0.953  -2.831  -1.536  0.00  0.00     0.055 A 
ATOM      6  C5  BZF d   1      -0.337  -2.425  -1.671  0.00  0.00    -0.016 A 
ATOM      7  C6  BZF d   1      -0.769  -1.740  -2.787  0.00  0.00     0.022 A 
ATOM      8  C7  BZF d   1       0.076  -1.450  -3.807  0.00  0.00     0.029 A 
ATOM      9  C7A BZF d   1       1.372  -1.888  -3.688  0.00  0.00     0.058 A 
ENDROOT
TORSDOF 0
ENDMDL
