MODEL 1
REMARK minimizedAffinity 1.87776685
REMARK minimizedRMSD -1
REMARK  0 active torsions:
REMARK  status: ('A' for Active; 'I' for Inactive)
ROOT
ATOM      1  O1  BZF d   1       3.929   5.040  -2.251  0.00  0.00    -0.204 OA
ATOM      2  C2  BZF d   1       4.966   5.589  -1.522  0.00  0.00     0.174 A 
ATOM      3  C3  BZF d   1       5.959   5.999  -2.337  0.00  0.00    -0.012 A 
ATOM      4  C3A BZF d   1       5.475   5.772  -3.664  0.00  0.00    -0.107 A 
ATOM      5  C4  BZF d   1       5.999   5.991  -4.906  0.00  0.00     0.055 A 
ATOM      6  C5  BZF d   1       5.300   5.589  -5.999  0.00  0.00    -0.016 A 
ATOM      7  C6  BZF d   1       4.077   4.960  -5.888  0.00  0.00     0.022 A 
ATOM      8  C7  BZF d   1       3.513   4.725  -4.678  0.00  0.00     0.029 A 
ATOM      9  C7A BZF d   1       4.203   5.160  -3.572  0.00  0.00     0.058 A 
ENDROOT
TORSDOF 0
ENDMDL
