MODEL 1
REMARK minimizedAffinity 1.24474823
REMARK minimizedRMSD -1
REMARK  0 active torsions:
REMARK  status: ('A' for Active; 'I' for Inactive)
ROOT
ATOM      1  O1  BZF d   1       4.964   4.298  -0.411  0.00  0.00    -0.204 OA
ATOM      2  C2  BZF d   1       5.985   5.227  -0.345  0.00  0.00     0.174 A 
ATOM      3  C3  BZF d   1       6.000   6.000  -1.450  0.00  0.00    -0.012 A 
ATOM      4  C3A BZF d   1       4.864   5.585  -2.215  0.00  0.00    -0.107 A 
ATOM      5  C4  BZF d   1       4.336   5.991  -3.407  0.00  0.00     0.055 A 
ATOM      6  C5  BZF d   1       3.261   5.331  -3.912  0.00  0.00    -0.016 A 
ATOM      7  C6  BZF d   1       2.692   4.260  -3.255  0.00  0.00     0.022 A 
ATOM      8  C7  BZF d   1       3.177   3.824  -2.067  0.00  0.00     0.029 A 
ATOM      9  C7A BZF d   1       4.243   4.510  -1.538  0.00  0.00     0.058 A 
ENDROOT
TORSDOF 0
ENDMDL
