MODEL 1
REMARK minimizedAffinity 10.1218662
REMARK minimizedRMSD -1
REMARK  0 active torsions:
REMARK  status: ('A' for Active; 'I' for Inactive)
ROOT
ATOM      1  O1  BZF d   1       2.440   3.983  -4.099  0.00  0.00    -0.204 OA
ATOM      2  C2  BZF d   1       1.636   4.772  -3.299  0.00  0.00     0.174 A 
ATOM      3  C3  BZF d   1       2.343   5.290  -2.274  0.00  0.00    -0.012 A 
ATOM      4  C3A BZF d   1       3.692   4.868  -2.496  0.00  0.00    -0.107 A 
ATOM      5  C4  BZF d   1       4.864   5.078  -1.827  0.00  0.00     0.055 A 
ATOM      6  C5  BZF d   1       5.994   4.465  -2.266  0.00  0.00    -0.016 A 
ATOM      7  C6  BZF d   1       5.989   3.633  -3.366  0.00  0.00     0.022 A 
ATOM      8  C7  BZF d   1       4.852   3.398  -4.065  0.00  0.00     0.029 A 
ATOM      9  C7A BZF d   1       3.714   4.043  -3.644  0.00  0.00     0.058 A 
ENDROOT
TORSDOF 0
ENDMDL
