MODEL 1
REMARK minimizedAffinity 4.92082977
REMARK minimizedRMSD -1
REMARK  0 active torsions:
REMARK  status: ('A' for Active; 'I' for Inactive)
ROOT
ATOM      1  O1  BZF d   1       3.753   3.717  -4.803  0.00  0.00    -0.204 OA
ATOM      2  C2  BZF d   1       4.874   3.011  -5.197  0.00  0.00     0.174 A 
ATOM      3  C3  BZF d   1       5.937   3.338  -4.434  0.00  0.00    -0.012 A 
ATOM      4  C3A BZF d   1       5.429   4.240  -3.446  0.00  0.00    -0.107 A 
ATOM      5  C4  BZF d   1       6.000   4.899  -2.395  0.00  0.00     0.055 A 
ATOM      6  C5  BZF d   1       5.244   5.763  -1.668  0.00  0.00    -0.016 A 
ATOM      7  C6  BZF d   1       3.917   5.996  -1.968  0.00  0.00     0.022 A 
ATOM      8  C7  BZF d   1       3.306   5.362  -2.998  0.00  0.00     0.029 A 
ATOM      9  C7A BZF d   1       4.059   4.463  -3.714  0.00  0.00     0.058 A 
ENDROOT
TORSDOF 0
ENDMDL
