MODEL 1
REMARK minimizedAffinity -1.06109178
REMARK minimizedRMSD -1
REMARK  0 active torsions:
REMARK  status: ('A' for Active; 'I' for Inactive)
ROOT
ATOM      1  O1  BZF d   1       4.325   5.991  -1.949  0.00  0.00    -0.204 OA
ATOM      2  C2  BZF d   1       5.234   5.325  -1.149  0.00  0.00     0.174 A 
ATOM      3  C3  BZF d   1       5.992   4.485  -1.884  0.00  0.00    -0.012 A 
ATOM      4  C3A BZF d   1       5.591   4.704  -3.240  0.00  0.00    -0.107 A 
ATOM      5  C4  BZF d   1       5.991   4.177  -4.434  0.00  0.00     0.055 A 
ATOM      6  C5  BZF d   1       5.346   4.552  -5.570  0.00  0.00    -0.016 A 
ATOM      7  C6  BZF d   1       4.296   5.445  -5.548  0.00  0.00     0.022 A 
ATOM      8  C7  BZF d   1       3.866   5.999  -4.388  0.00  0.00     0.029 A 
ATOM      9  C7A BZF d   1       4.537   5.647  -3.242  0.00  0.00     0.058 A 
ENDROOT
TORSDOF 0
ENDMDL
