MODEL 1
REMARK minimizedAffinity 5.55762005
REMARK minimizedRMSD -1
REMARK  0 active torsions:
REMARK  status: ('A' for Active; 'I' for Inactive)
ROOT
ATOM      1  O1  BZF d   1       3.811   4.329  -5.254  0.00  0.00    -0.204 OA
ATOM      2  C2  BZF d   1       4.974   4.282  -5.998  0.00  0.00     0.174 A 
ATOM      3  C3  BZF d   1       6.000   4.832  -5.317  0.00  0.00    -0.012 A 
ATOM      4  C3A BZF d   1       5.464   5.166  -4.033  0.00  0.00    -0.107 A 
ATOM      5  C4  BZF d   1       5.999   5.727  -2.909  0.00  0.00     0.055 A 
ATOM      6  C5  BZF d   1       5.188   5.986  -1.850  0.00  0.00    -0.016 A 
ATOM      7  C6  BZF d   1       3.839   5.701  -1.881  0.00  0.00     0.022 A 
ATOM      8  C7  BZF d   1       3.263   5.139  -2.972  0.00  0.00     0.029 A 
ATOM      9  C7A BZF d   1       4.086   4.846  -4.032  0.00  0.00     0.058 A 
ENDROOT
TORSDOF 0
ENDMDL
