MODEL 1
REMARK minimizedAffinity 14.0727701
REMARK minimizedRMSD -1
REMARK  0 active torsions:
REMARK  status: ('A' for Active; 'I' for Inactive)
ROOT
ATOM      1  O1  BZF d   1      -0.639  -1.773  -3.168  0.00  0.00    -0.204 OA
ATOM      2  C2  BZF d   1       0.677  -2.024  -3.506  0.00  0.00     0.174 A 
ATOM      3  C3  BZF d   1       1.364  -2.486  -2.442  0.00  0.00    -0.012 A 
ATOM      4  C3A BZF d   1       0.397  -2.614  -1.395  0.00  0.00    -0.107 A 
ATOM      5  C4  BZF d   1       0.466  -3.039  -0.100  0.00  0.00     0.055 A 
ATOM      6  C5  BZF d   1      -0.647  -2.971   0.678  0.00  0.00    -0.016 A 
ATOM      7  C6  BZF d   1      -1.841  -2.479   0.195  0.00  0.00     0.022 A 
ATOM      8  C7  BZF d   1      -1.960  -2.050  -1.085  0.00  0.00     0.029 A 
ATOM      9  C7A BZF d   1      -0.846  -2.148  -1.883  0.00  0.00     0.058 A 
ENDROOT
TORSDOF 0
ENDMDL
