MODEL 1
REMARK minimizedAffinity -4.5440793
REMARK minimizedRMSD -1
REMARK  0 active torsions:
REMARK  status: ('A' for Active; 'I' for Inactive)
ROOT
ATOM      1  O1  BZF d   1       3.886   5.524  -3.551  0.00  0.00    -0.204 OA
ATOM      2  C2  BZF d   1       5.015   5.832  -2.816  0.00  0.00     0.174 A 
ATOM      3  C3  BZF d   1       6.000   4.943  -3.058  0.00  0.00    -0.012 A 
ATOM      4  C3A BZF d   1       5.484   4.077  -4.074  0.00  0.00    -0.107 A 
ATOM      5  C4  BZF d   1       5.999   3.004  -4.743  0.00  0.00     0.055 A 
ATOM      6  C5  BZF d   1       5.209   2.333  -5.622  0.00  0.00    -0.016 A 
ATOM      7  C6  BZF d   1       3.900   2.703  -5.852  0.00  0.00     0.022 A 
ATOM      8  C7  BZF d   1       3.347   3.764  -5.215  0.00  0.00     0.029 A 
ATOM      9  C7A BZF d   1       4.152   4.464  -4.351  0.00  0.00     0.058 A 
ENDROOT
TORSDOF 0
ENDMDL
