MODEL 1
REMARK minimizedAffinity 20.0567894
REMARK minimizedRMSD -1
REMARK  0 active torsions:
REMARK  status: ('A' for Active; 'I' for Inactive)
ROOT
ATOM      1  O1  BZF d   1       3.820   5.721  -1.496  0.00  0.00    -0.204 OA
ATOM      2  C2  BZF d   1       4.979   5.995  -0.795  0.00  0.00     0.174 A 
ATOM      3  C3  BZF d   1       6.000   5.235  -1.242  0.00  0.00    -0.012 A 
ATOM      4  C3A BZF d   1       5.467   4.502  -2.349  0.00  0.00    -0.107 A 
ATOM      5  C4  BZF d   1       6.000   3.592  -3.216  0.00  0.00     0.055 A 
ATOM      6  C5  BZF d   1       5.192   3.009  -4.141  0.00  0.00    -0.016 A 
ATOM      7  C6  BZF d   1       3.848   3.308  -4.223  0.00  0.00     0.022 A 
ATOM      8  C7  BZF d   1       3.275   4.209  -3.388  0.00  0.00     0.029 A 
ATOM      9  C7A BZF d   1       4.096   4.824  -2.474  0.00  0.00     0.058 A 
ENDROOT
TORSDOF 0
ENDMDL
