MODEL 1
REMARK minimizedAffinity -2.63022113
REMARK minimizedRMSD -1
REMARK  0 active torsions:
REMARK  status: ('A' for Active; 'I' for Inactive)
ROOT
ATOM      1  O1  BZF d   1       3.987   3.647  -5.776  0.00  0.00    -0.204 OA
ATOM      2  C2  BZF d   1       5.033   2.765  -5.972  0.00  0.00     0.174 A 
ATOM      3  C3  BZF d   1       6.000   2.958  -5.052  0.00  0.00    -0.012 A 
ATOM      4  C3A BZF d   1       5.488   3.965  -4.174  0.00  0.00    -0.107 A 
ATOM      5  C4  BZF d   1       5.980   4.572  -3.053  0.00  0.00     0.055 A 
ATOM      6  C5  BZF d   1       5.261   5.568  -2.472  0.00  0.00    -0.016 A 
ATOM      7  C6  BZF d   1       4.051   5.985  -2.986  0.00  0.00     0.022 A 
ATOM      8  C7  BZF d   1       3.520   5.410  -4.093  0.00  0.00     0.029 A 
ATOM      9  C7A BZF d   1       4.228   4.381  -4.663  0.00  0.00     0.058 A 
ENDROOT
TORSDOF 0
ENDMDL
