MODEL 1
REMARK minimizedAffinity 0.225968897
REMARK minimizedRMSD -1
REMARK  0 active torsions:
REMARK  status: ('A' for Active; 'I' for Inactive)
ROOT
ATOM      1  O1  BZF d   1       5.999   4.224  -2.396  0.00  0.00    -0.204 OA
ATOM      2  C2  BZF d   1       6.000   5.252  -1.473  0.00  0.00     0.174 A 
ATOM      3  C3  BZF d   1       4.847   5.948  -1.533  0.00  0.00    -0.012 A 
ATOM      4  C3A BZF d   1       4.040   5.260  -2.493  0.00  0.00    -0.107 A 
ATOM      5  C4  BZF d   1       2.778   5.461  -2.976  0.00  0.00     0.055 A 
ATOM      6  C5  BZF d   1       2.312   4.650  -3.962  0.00  0.00    -0.016 A 
ATOM      7  C6  BZF d   1       3.081   3.635  -4.491  0.00  0.00     0.022 A 
ATOM      8  C7  BZF d   1       4.336   3.394  -4.041  0.00  0.00     0.029 A 
ATOM      9  C7A BZF d   1       4.798   4.190  -3.022  0.00  0.00     0.058 A 
ENDROOT
TORSDOF 0
ENDMDL
