MODEL 1
REMARK minimizedAffinity -3.47315717
REMARK minimizedRMSD -1
REMARK  0 active torsions:
REMARK  status: ('A' for Active; 'I' for Inactive)
ROOT
ATOM      1  O1  BZF d   1       3.885   2.983  -5.706  0.00  0.00    -0.204 OA
ATOM      2  C2  BZF d   1       4.983   2.176  -5.932  0.00  0.00     0.174 A 
ATOM      3  C3  BZF d   1       6.000   2.511  -5.112  0.00  0.00    -0.012 A 
ATOM      4  C3A BZF d   1       5.475   3.534  -4.261  0.00  0.00    -0.107 A 
ATOM      5  C4  BZF d   1       6.000   4.257  -3.228  0.00  0.00     0.055 A 
ATOM      6  C5  BZF d   1       5.246   5.232  -2.654  0.00  0.00    -0.016 A 
ATOM      7  C6  BZF d   1       3.968   5.513  -3.090  0.00  0.00     0.022 A 
ATOM      8  C7  BZF d   1       3.403   4.819  -4.108  0.00  0.00     0.029 A 
ATOM      9  C7A BZF d   1       4.149   3.812  -4.668  0.00  0.00     0.058 A 
ENDROOT
TORSDOF 0
ENDMDL
