MODEL 1
REMARK minimizedAffinity -3.82664108
REMARK minimizedRMSD -1
REMARK  0 active torsions:
REMARK  status: ('A' for Active; 'I' for Inactive)
ROOT
ATOM      1  O1  BZF d   1       4.893  -3.042   2.381  0.00  0.00    -0.204 OA
ATOM      2  C2  BZF d   1       4.195  -2.195   1.542  0.00  0.00     0.174 A 
ATOM      3  C3  BZF d   1       3.442  -1.331   2.253  0.00  0.00    -0.012 A 
ATOM      4  C3A BZF d   1       3.755  -1.598   3.623  0.00  0.00    -0.107 A 
ATOM      5  C4  BZF d   1       3.339  -1.054   4.805  0.00  0.00     0.055 A 
ATOM      6  C5  BZF d   1       3.781  -1.591   5.972  0.00  0.00    -0.016 A 
ATOM      7  C6  BZF d   1       4.635  -2.675   5.994  0.00  0.00     0.022 A 
ATOM      8  C7  BZF d   1       5.080  -3.245   4.848  0.00  0.00     0.029 A 
ATOM      9  C7A BZF d   1       4.660  -2.683   3.667  0.00  0.00     0.058 A 
ENDROOT
TORSDOF 0
ENDMDL
