MODEL 1
REMARK minimizedAffinity -1.08218408
REMARK minimizedRMSD -1
REMARK  0 active torsions:
REMARK  status: ('A' for Active; 'I' for Inactive)
ROOT
ATOM      1  O1  BZF d   1       3.988   5.998  -1.964  0.00  0.00    -0.204 OA
ATOM      2  C2  BZF d   1       5.065   6.000  -1.099  0.00  0.00     0.174 A 
ATOM      3  C3  BZF d   1       5.995   5.106  -1.492  0.00  0.00    -0.012 A 
ATOM      4  C3A BZF d   1       5.509   4.575  -2.728  0.00  0.00    -0.107 A 
ATOM      5  C4  BZF d   1       5.998   3.657  -3.612  0.00  0.00     0.055 A 
ATOM      6  C5  BZF d   1       5.243   3.307  -4.687  0.00  0.00    -0.016 A 
ATOM      7  C6  BZF d   1       3.994   3.851  -4.904  0.00  0.00     0.022 A 
ATOM      8  C7  BZF d   1       3.469   4.769  -4.057  0.00  0.00     0.029 A 
ATOM      9  C7A BZF d   1       4.243   5.149  -2.989  0.00  0.00     0.058 A 
ENDROOT
TORSDOF 0
ENDMDL
