MODEL 1
REMARK minimizedAffinity -2.60656571
REMARK minimizedRMSD -1
REMARK  0 active torsions:
REMARK  status: ('A' for Active; 'I' for Inactive)
ROOT
ATOM      1  O1  BZF d   1       5.019   5.017  -2.217  0.00  0.00    -0.204 OA
ATOM      2  C2  BZF d   1       4.008   5.955  -2.297  0.00  0.00     0.174 A 
ATOM      3  C3  BZF d   1       3.492   5.998  -3.542  0.00  0.00    -0.012 A 
ATOM      4  C3A BZF d   1       4.164   4.961  -4.264  0.00  0.00    -0.107 A 
ATOM      5  C4  BZF d   1       4.074   4.500  -5.546  0.00  0.00     0.055 A 
ATOM      6  C5  BZF d   1       4.923   3.522  -5.957  0.00  0.00    -0.016 A 
ATOM      7  C6  BZF d   1       5.876   2.987  -5.115  0.00  0.00     0.022 A 
ATOM      8  C7  BZF d   1       6.000   3.409  -3.833  0.00  0.00     0.029 A 
ATOM      9  C7A BZF d   1       5.121   4.374  -3.405  0.00  0.00     0.058 A 
ENDROOT
TORSDOF 0
ENDMDL
