MODEL 1
REMARK minimizedAffinity 2.64898753
REMARK minimizedRMSD -1
REMARK  0 active torsions:
REMARK  status: ('A' for Active; 'I' for Inactive)
ROOT
ATOM      1  O1  BZF d   1       4.445   5.999  -2.631  0.00  0.00    -0.204 OA
ATOM      2  C2  BZF d   1       5.297   5.614  -1.614  0.00  0.00     0.174 A 
ATOM      3  C3  BZF d   1       6.000   4.519  -1.967  0.00  0.00    -0.012 A 
ATOM      4  C3A BZF d   1       5.627   4.254  -3.323  0.00  0.00    -0.107 A 
ATOM      5  C4  BZF d   1       6.000   3.304  -4.231  0.00  0.00     0.055 A 
ATOM      6  C5  BZF d   1       5.394   3.279  -5.447  0.00  0.00    -0.016 A 
ATOM      7  C6  BZF d   1       4.409   4.183  -5.786  0.00  0.00     0.022 A 
ATOM      8  C7  BZF d   1       4.009   5.147  -4.921  0.00  0.00     0.029 A 
ATOM      9  C7A BZF d   1       4.643   5.196  -3.703  0.00  0.00     0.058 A 
ENDROOT
TORSDOF 0
ENDMDL
