MODEL 1
REMARK minimizedAffinity -1.54284358
REMARK minimizedRMSD -1
REMARK  2 active torsions:
REMARK  status: ('A' for Active; 'I' for Inactive)
REMARK    1  A    between atoms: C2'_3  and  C1'_4 
REMARK    2  A    between atoms: C1'_4  and  C1_5 
ROOT
ATOM      1  C1  I4B d   1       0.004   0.440  -0.536  0.00  0.00    -0.075 A 
ATOM      2  C2  I4B d   1       1.218   0.689   0.056  0.00  0.00     0.003 A 
ATOM      3  C3  I4B d   1       1.369   0.550   1.457  0.00  0.00     0.002 A 
ATOM      4  C4  I4B d   1       0.276   0.212   2.229  0.00  0.00    -0.004 A 
ATOM      5  C5  I4B d   1      -0.947  -0.062   1.625  0.00  0.00     0.002 A 
ATOM      6  C6  I4B d   1      -1.082   0.040   0.232  0.00  0.00     0.003 A 
ENDROOT
BRANCH   1   7
ATOM      7  C1' I4B d   1      -0.129   0.628  -2.014  0.00  0.00     0.060 C 
BRANCH   7   8
ATOM      8  C2' I4B d   1       0.497  -0.573  -2.695  0.00  0.00    -0.013 C 
ATOM      9  C4' I4B d   1      -0.530  -1.354  -3.473  0.00  0.00     0.013 C 
ATOM     10  C3' I4B d   1       1.593  -0.078  -3.590  0.00  0.00     0.013 C 
ENDBRANCH   7   8
ENDBRANCH   1   7
TORSDOF 2
ENDMDL
