MODEL 1
REMARK minimizedAffinity 0.533603072
REMARK minimizedRMSD -1
REMARK  2 active torsions:
REMARK  status: ('A' for Active; 'I' for Inactive)
REMARK    1  A    between atoms: C2'_3  and  C1'_4 
REMARK    2  A    between atoms: C1'_4  and  C1_5 
ROOT
ATOM      1  C1  I4B d   1       0.341   0.141  -1.128  0.00  0.00    -0.075 A 
ATOM      2  C2  I4B d   1      -1.020  -0.035  -1.132  0.00  0.00     0.003 A 
ATOM      3  C3  I4B d   1      -1.736  -0.082   0.089  0.00  0.00     0.002 A 
ATOM      4  C4  I4B d   1      -1.050   0.000   1.283  0.00  0.00    -0.004 A 
ATOM      5  C5  I4B d   1       0.327   0.202   1.285  0.00  0.00     0.002 A 
ATOM      6  C6  I4B d   1       1.026   0.285   0.072  0.00  0.00     0.003 A 
ENDROOT
BRANCH   1   7
ATOM      7  C1' I4B d   1       1.070   0.153  -2.434  0.00  0.00     0.060 C 
BRANCH   7   8
ATOM      8  C2' I4B d   1       1.539  -1.259  -2.720  0.00  0.00    -0.013 C 
ATOM      9  C4' I4B d   1       0.592  -1.969  -3.652  0.00  0.00     0.013 C 
ATOM     10  C3' I4B d   1       2.917  -1.180  -3.305  0.00  0.00     0.013 C 
ENDBRANCH   7   8
ENDBRANCH   1   7
TORSDOF 2
ENDMDL
