MODEL 1
REMARK minimizedAffinity -3.09878039
REMARK minimizedRMSD -1
REMARK  2 active torsions:
REMARK  status: ('A' for Active; 'I' for Inactive)
REMARK    1  A    between atoms: C2'_3  and  C1'_4 
REMARK    2  A    between atoms: C1'_4  and  C1_5 
ROOT
ATOM      1  C1  I4B d   1      -0.146  -0.189   1.578  0.00  0.00    -0.075 A 
ATOM      2  C2  I4B d   1      -0.635  -0.441   0.320  0.00  0.00     0.003 A 
ATOM      3  C3  I4B d   1       0.022   0.084  -0.819  0.00  0.00     0.002 A 
ATOM      4  C4  I4B d   1       1.128   0.893  -0.653  0.00  0.00    -0.004 A 
ATOM      5  C5  I4B d   1       1.635   1.129   0.622  0.00  0.00     0.002 A 
ATOM      6  C6  I4B d   1       1.002   0.575   1.744  0.00  0.00     0.003 A 
ENDROOT
BRANCH   1   7
ATOM      7  C1' I4B d   1      -0.885  -0.731   2.760  0.00  0.00     0.060 C 
BRANCH   7   8
ATOM      8  C2' I4B d   1      -2.221  -0.023   2.842  0.00  0.00    -0.013 C 
ATOM      9  C4' I4B d   1      -2.041   1.462   3.020  0.00  0.00     0.013 C 
ATOM     10  C3' I4B d   1      -2.985  -0.329   1.588  0.00  0.00     0.013 C 
ENDBRANCH   7   8
ENDBRANCH   1   7
TORSDOF 2
ENDMDL
