MODEL 1
REMARK minimizedAffinity -3.3170054
REMARK minimizedRMSD -1
REMARK  2 active torsions:
REMARK  status: ('A' for Active; 'I' for Inactive)
REMARK    1  A    between atoms: C2'_3  and  C1'_4 
REMARK    2  A    between atoms: C1'_4  and  C1_5 
ROOT
ATOM      1  C1  I4B d   1       0.470   0.069  -1.044  0.00  0.00    -0.075 A 
ATOM      2  C2  I4B d   1      -0.443  -0.873  -1.446  0.00  0.00     0.003 A 
ATOM      3  C3  I4B d   1      -0.346  -1.457  -2.732  0.00  0.00     0.002 A 
ATOM      4  C4  I4B d   1       0.643  -1.035  -3.597  0.00  0.00    -0.004 A 
ATOM      5  C5  I4B d   1       1.582  -0.096  -3.179  0.00  0.00     0.002 A 
ATOM      6  C6  I4B d   1       1.503   0.451  -1.890  0.00  0.00     0.003 A 
ENDROOT
BRANCH   1   7
ATOM      7  C1' I4B d   1       0.318   0.689   0.309  0.00  0.00     0.060 C 
BRANCH   7   8
ATOM      8  C2' I4B d   1       1.158  -0.108   1.285  0.00  0.00    -0.013 C 
ATOM      9  C4' I4B d   1       2.620   0.224   1.144  0.00  0.00     0.013 C 
ATOM     10  C3' I4B d   1       0.667   0.190   2.670  0.00  0.00     0.013 C 
ENDBRANCH   7   8
ENDBRANCH   1   7
TORSDOF 2
ENDMDL
