MODEL 1
REMARK minimizedAffinity -4.96749878
REMARK minimizedRMSD -1
REMARK  2 active torsions:
REMARK  status: ('A' for Active; 'I' for Inactive)
REMARK    1  A    between atoms: C2'_3  and  C1'_4 
REMARK    2  A    between atoms: C1'_4  and  C1_5 
ROOT
ATOM      1  C1  I4B d   1       0.158   0.296  -0.283  0.00  0.00    -0.075 A 
ATOM      2  C2  I4B d   1      -0.887  -0.147   0.488  0.00  0.00     0.003 A 
ATOM      3  C3  I4B d   1      -0.684  -0.458   1.855  0.00  0.00     0.002 A 
ATOM      4  C4  I4B d   1       0.583  -0.360   2.393  0.00  0.00    -0.004 A 
ATOM      5  C5  I4B d   1       1.637   0.112   1.616  0.00  0.00     0.002 A 
ATOM      6  C6  I4B d   1       1.421   0.454   0.273  0.00  0.00     0.003 A 
ENDROOT
BRANCH   1   7
ATOM      7  C1' I4B d   1      -0.085   0.584  -1.730  0.00  0.00     0.060 C 
BRANCH   7   8
ATOM      8  C2' I4B d   1       0.778  -0.358  -2.545  0.00  0.00    -0.013 C 
ATOM      9  C4' I4B d   1      -0.065  -1.319  -3.341  0.00  0.00     0.013 C 
ATOM     10  C3' I4B d   1       1.648   0.470  -3.442  0.00  0.00     0.013 C 
ENDBRANCH   7   8
ENDBRANCH   1   7
TORSDOF 2
ENDMDL
