MODEL 1
REMARK minimizedAffinity -3.42346215
REMARK minimizedRMSD -1
REMARK  2 active torsions:
REMARK  status: ('A' for Active; 'I' for Inactive)
REMARK    1  A    between atoms: C2'_3  and  C1'_4 
REMARK    2  A    between atoms: C1'_4  and  C1_5 
ROOT
ATOM      1  C1  I4B d   1      -0.115   0.751   0.202  0.00  0.00    -0.075 A 
ATOM      2  C2  I4B d   1       0.009   0.609   1.561  0.00  0.00     0.003 A 
ATOM      3  C3  I4B d   1      -1.135   0.684   2.393  0.00  0.00     0.002 A 
ATOM      4  C4  I4B d   1      -2.367   0.952   1.832  0.00  0.00    -0.004 A 
ATOM      5  C5  I4B d   1      -2.493   1.074   0.451  0.00  0.00     0.002 A 
ATOM      6  C6  I4B d   1      -1.363   0.960  -0.371  0.00  0.00     0.003 A 
ENDROOT
BRANCH   1   7
ATOM      7  C1' I4B d   1       1.118   0.699  -0.643  0.00  0.00     0.060 C 
BRANCH   7   8
ATOM      8  C2' I4B d   1       0.723   0.187  -2.014  0.00  0.00    -0.013 C 
ATOM      9  C4' I4B d   1       1.607   0.767  -3.087  0.00  0.00     0.013 C 
ATOM     10  C3' I4B d   1       0.809  -1.310  -1.992  0.00  0.00     0.013 C 
ENDBRANCH   7   8
ENDBRANCH   1   7
TORSDOF 2
ENDMDL
