MODEL 1
REMARK minimizedAffinity -0.0364880711
REMARK minimizedRMSD -1
REMARK  2 active torsions:
REMARK  status: ('A' for Active; 'I' for Inactive)
REMARK    1  A    between atoms: C2'_3  and  C1'_4 
REMARK    2  A    between atoms: C1'_4  and  C1_5 
ROOT
ATOM      1  C1  I4B d   1       0.821  -0.447  -2.383  0.00  0.00    -0.075 A 
ATOM      2  C2  I4B d   1       2.130  -0.083  -2.583  0.00  0.00     0.003 A 
ATOM      3  C3  I4B d   1       2.970  -0.870  -3.408  0.00  0.00     0.002 A 
ATOM      4  C4  I4B d   1       2.479  -2.031  -3.968  0.00  0.00    -0.004 A 
ATOM      5  C5  I4B d   1       1.145  -2.386  -3.783  0.00  0.00     0.002 A 
ATOM      6  C6  I4B d   1       0.308  -1.583  -2.995  0.00  0.00     0.003 A 
ENDROOT
BRANCH   1   7
ATOM      7  C1' I4B d   1      -0.029   0.389  -1.480  0.00  0.00     0.060 C 
BRANCH   7   8
ATOM      8  C2' I4B d   1       0.172  -0.104  -0.061  0.00  0.00    -0.013 C 
ATOM      9  C4' I4B d   1       1.223   0.704   0.653  0.00  0.00     0.013 C 
ATOM     10  C3' I4B d   1      -1.147  -0.025   0.648  0.00  0.00     0.013 C 
ENDBRANCH   7   8
ENDBRANCH   1   7
TORSDOF 2
ENDMDL
