MODEL 1
REMARK minimizedAffinity -2.08992076
REMARK minimizedRMSD -1
REMARK  2 active torsions:
REMARK  status: ('A' for Active; 'I' for Inactive)
REMARK    1  A    between atoms: C2'_3  and  C1'_4 
REMARK    2  A    between atoms: C1'_4  and  C1_5 
ROOT
ATOM      1  C1  I4B d   1       0.704  -0.124   0.119  0.00  0.00    -0.075 A 
ATOM      2  C2  I4B d   1       1.195  -0.311   1.387  0.00  0.00     0.003 A 
ATOM      3  C3  I4B d   1       0.375  -0.057   2.513  0.00  0.00     0.002 A 
ATOM      4  C4  I4B d   1      -0.904   0.428   2.328  0.00  0.00    -0.004 A 
ATOM      5  C5  I4B d   1      -1.408   0.594   1.041  0.00  0.00     0.002 A 
ATOM      6  C6  I4B d   1      -0.603   0.305  -0.071  0.00  0.00     0.003 A 
ENDROOT
BRANCH   1   7
ATOM      7  C1' I4B d   1       1.607  -0.370  -1.048  0.00  0.00     0.060 C 
BRANCH   7   8
ATOM      8  C2' I4B d   1       0.743  -0.546  -2.279  0.00  0.00    -0.013 C 
ATOM      9  C4' I4B d   1       1.091   0.466  -3.339  0.00  0.00     0.013 C 
ATOM     10  C3' I4B d   1       0.933  -1.946  -2.783  0.00  0.00     0.013 C 
ENDBRANCH   7   8
ENDBRANCH   1   7
TORSDOF 2
ENDMDL
