MODEL 1
REMARK minimizedAffinity 4.63958263
REMARK minimizedRMSD -1
REMARK  0 active torsions:
REMARK  status: ('A' for Active; 'I' for Inactive)
ROOT
ATOM      1  C4' PXY d   1      -0.016   5.988  -3.966  0.00  0.00     0.077 C 
ATOM      2  C1' PXY d   1      -0.822   3.032   0.935  0.00  0.00     0.077 C 
ATOM      3  C1  PXY d   1      -0.622   3.804  -0.354  0.00  0.00    -0.082 A 
ATOM      4  C2  PXY d   1       0.604   4.042  -0.791  0.00  0.00     0.003 A 
ATOM      5  C3  PXY d   1       0.803   4.766  -1.938  0.00  0.00     0.003 A 
ATOM      6  C4  PXY d   1      -0.265   5.205  -2.674  0.00  0.00    -0.082 A 
ATOM      7  C5  PXY d   1      -1.519   4.956  -2.241  0.00  0.00     0.003 A 
ATOM      8  C6  PXY d   1      -1.699   4.255  -1.052  0.00  0.00     0.003 A 
ENDROOT
TORSDOF 0
ENDMDL
