MODEL 1
REMARK minimizedAffinity 8.01301479
REMARK minimizedRMSD -1
REMARK  0 active torsions:
REMARK  status: ('A' for Active; 'I' for Inactive)
ROOT
ATOM      1  C4' PXY d   1      -0.067   2.490   1.673  0.00  0.00     0.077 C 
ATOM      2  C1' PXY d   1      -1.107   5.632  -3.066  0.00  0.00     0.077 C 
ATOM      3  C1  PXY d   1      -0.829   4.798  -1.830  0.00  0.00    -0.082 A 
ATOM      4  C2  PXY d   1      -1.546   4.992  -0.735  0.00  0.00     0.003 A 
ATOM      5  C3  PXY d   1      -1.287   4.270   0.401  0.00  0.00     0.003 A 
ATOM      6  C4  PXY d   1      -0.319   3.301   0.400  0.00  0.00    -0.082 A 
ATOM      7  C5  PXY d   1       0.410   3.090  -0.717  0.00  0.00     0.003 A 
ATOM      8  C6  PXY d   1       0.158   3.863  -1.847  0.00  0.00     0.003 A 
ENDROOT
TORSDOF 0
ENDMDL
