MODEL 1
REMARK minimizedAffinity 2.89773822
REMARK minimizedRMSD -1
REMARK  0 active torsions:
REMARK  status: ('A' for Active; 'I' for Inactive)
ROOT
ATOM      1  C4' PXY d   1       0.262   5.989  -3.761  0.00  0.00     0.077 C 
ATOM      2  C1' PXY d   1      -0.068   2.640   0.939  0.00  0.00     0.077 C 
ATOM      3  C1  PXY d   1       0.013   3.509  -0.301  0.00  0.00    -0.082 A 
ATOM      4  C2  PXY d   1       0.906   4.483  -0.359  0.00  0.00     0.003 A 
ATOM      5  C3  PXY d   1       0.972   5.299  -1.460  0.00  0.00     0.003 A 
ATOM      6  C4  PXY d   1       0.151   5.081  -2.533  0.00  0.00    -0.082 A 
ATOM      7  C5  PXY d   1      -0.756   4.081  -2.486  0.00  0.00     0.003 A 
ATOM      8  C6  PXY d   1      -0.834   3.291  -1.343  0.00  0.00     0.003 A 
ENDROOT
TORSDOF 0
ENDMDL
