MODEL 1
REMARK minimizedAffinity -0.1930096
REMARK minimizedRMSD -1
REMARK  0 active torsions:
REMARK  status: ('A' for Active; 'I' for Inactive)
ROOT
ATOM      1  C4' PXY d   1      -5.999   1.668  -1.740  0.00  0.00     0.077 C 
ATOM      2  C1' PXY d   1      -4.133   6.000  -5.081  0.00  0.00     0.077 C 
ATOM      3  C1  PXY d   1      -4.631   4.860  -4.214  0.00  0.00    -0.082 A 
ATOM      4  C2  PXY d   1      -4.508   4.937  -2.899  0.00  0.00     0.003 A 
ATOM      5  C3  PXY d   1      -4.924   3.901  -2.102  0.00  0.00     0.003 A 
ATOM      6  C4  PXY d   1      -5.519   2.799  -2.654  0.00  0.00    -0.082 A 
ATOM      7  C5  PXY d   1      -5.658   2.718  -3.994  0.00  0.00     0.003 A 
ATOM      8  C6  PXY d   1      -5.192   3.762  -4.788  0.00  0.00     0.003 A 
ENDROOT
TORSDOF 0
ENDMDL
