MODEL 1
REMARK minimizedAffinity 10.294095
REMARK minimizedRMSD -1
REMARK  0 active torsions:
REMARK  status: ('A' for Active; 'I' for Inactive)
ROOT
ATOM      1  C4' PXY d   1      -1.794  -3.962  -3.043  0.00  0.00     0.077 C 
ATOM      2  C1' PXY d   1       2.585  -2.495   0.434  0.00  0.00     0.077 C 
ATOM      3  C1  PXY d   1       1.442  -2.891  -0.480  0.00  0.00    -0.082 A 
ATOM      4  C2  PXY d   1       0.692  -1.952  -1.034  0.00  0.00     0.003 A 
ATOM      5  C3  PXY d   1      -0.365  -2.293  -1.838  0.00  0.00     0.003 A 
ATOM      6  C4  PXY d   1      -0.624  -3.608  -2.120  0.00  0.00    -0.082 A 
ATOM      7  C5  PXY d   1       0.143  -4.571  -1.568  0.00  0.00     0.003 A 
ATOM      8  C6  PXY d   1       1.186  -4.205  -0.722  0.00  0.00     0.003 A 
ENDROOT
TORSDOF 0
ENDMDL
