MODEL 1
REMARK minimizedAffinity 14.3083591
REMARK minimizedRMSD -1
REMARK  0 active torsions:
REMARK  status: ('A' for Active; 'I' for Inactive)
ROOT
ATOM      1  C4' PXY d   1      -1.167  -4.100  -3.628  0.00  0.00     0.077 C 
ATOM      2  C1' PXY d   1       1.897  -2.458   0.991  0.00  0.00     0.077 C 
ATOM      3  C1  PXY d   1       1.102  -2.898  -0.223  0.00  0.00    -0.082 A 
ATOM      4  C2  PXY d   1       0.299  -2.037  -0.826  0.00  0.00     0.003 A 
ATOM      5  C3  PXY d   1      -0.452  -2.427  -1.905  0.00  0.00     0.003 A 
ATOM      6  C4  PXY d   1      -0.339  -3.697  -2.405  0.00  0.00    -0.082 A 
ATOM      7  C5  PXY d   1       0.487  -4.578  -1.802  0.00  0.00     0.003 A 
ATOM      8  C6  PXY d   1       1.209  -4.175  -0.682  0.00  0.00     0.003 A 
ENDROOT
TORSDOF 0
ENDMDL
