MODEL 1
REMARK minimizedAffinity 6.23689985
REMARK minimizedRMSD -1
REMARK  0 active torsions:
REMARK  status: ('A' for Active; 'I' for Inactive)
ROOT
ATOM      1  C4' PXY d   1       1.426   2.467   2.908  0.00  0.00     0.077 C 
ATOM      2  C1' PXY d   1      -1.229   4.291  -1.892  0.00  0.00     0.077 C 
ATOM      3  C1  PXY d   1      -0.543   3.816  -0.626  0.00  0.00    -0.082 A 
ATOM      4  C2  PXY d   1       0.778   3.796  -0.566  0.00  0.00     0.003 A 
ATOM      5  C3  PXY d   1       1.415   3.339   0.559  0.00  0.00     0.003 A 
ATOM      6  C4  PXY d   1       0.691   2.948   1.654  0.00  0.00    -0.082 A 
ATOM      7  C5  PXY d   1      -0.658   2.975   1.604  0.00  0.00     0.003 A 
ATOM      8  C6  PXY d   1      -1.285   3.404   0.438  0.00  0.00     0.003 A 
ENDROOT
TORSDOF 0
ENDMDL
