MODEL 1
REMARK minimizedAffinity 6.35591316
REMARK minimizedRMSD -1
REMARK  0 active torsions:
REMARK  status: ('A' for Active; 'I' for Inactive)
ROOT
ATOM      1  C4' PXY d   1      -4.141   1.198   2.836  0.00  0.00     0.077 C 
ATOM      2  C1' PXY d   1      -5.681  -3.390   5.998  0.00  0.00     0.077 C 
ATOM      3  C1  PXY d   1      -5.265  -2.191   5.169  0.00  0.00    -0.082 A 
ATOM      4  C2  PXY d   1      -5.999  -1.091   5.196  0.00  0.00     0.003 A 
ATOM      5  C3  PXY d   1      -5.655  -0.009   4.427  0.00  0.00     0.003 A 
ATOM      6  C4  PXY d   1      -4.518  -0.034   3.664  0.00  0.00    -0.082 A 
ATOM      7  C5  PXY d   1      -3.758  -1.149   3.640  0.00  0.00     0.003 A 
ATOM      8  C6  PXY d   1      -4.147  -2.252   4.395  0.00  0.00     0.003 A 
ENDROOT
TORSDOF 0
ENDMDL
