MODEL 1
REMARK minimizedAffinity 1.61672461
REMARK minimizedRMSD -1
REMARK  0 active torsions:
REMARK  status: ('A' for Active; 'I' for Inactive)
ROOT
ATOM      1  C4' PXY d   1       2.277   2.750   4.119  0.00  0.00     0.077 C 
ATOM      2  C1' PXY d   1      -0.181   3.863  -0.993  0.00  0.00     0.077 C 
ATOM      3  C1  PXY d   1       0.452   3.568   0.353  0.00  0.00    -0.082 A 
ATOM      4  C2  PXY d   1       1.589   4.157   0.684  0.00  0.00     0.003 A 
ATOM      5  C3  PXY d   1       2.192   3.877   1.883  0.00  0.00     0.003 A 
ATOM      6  C4  PXY d   1       1.597   3.026   2.775  0.00  0.00    -0.082 A 
ATOM      7  C5  PXY d   1       0.431   2.429   2.449  0.00  0.00     0.003 A 
ATOM      8  C6  PXY d   1      -0.144   2.695   1.210  0.00  0.00     0.003 A 
ENDROOT
TORSDOF 0
ENDMDL
