MODEL 1
REMARK minimizedAffinity 2.46742558
REMARK minimizedRMSD -1
REMARK  0 active torsions:
REMARK  status: ('A' for Active; 'I' for Inactive)
ROOT
ATOM      1  C4' PXY d   1      -1.124   6.000  -2.781  0.00  0.00     0.077 C 
ATOM      2  C1' PXY d   1      -0.061   2.848   1.946  0.00  0.00     0.077 C 
ATOM      3  C1  PXY d   1      -0.344   3.684   0.714  0.00  0.00    -0.082 A 
ATOM      4  C2  PXY d   1      -0.544   3.087  -0.450  0.00  0.00     0.003 A 
ATOM      5  C3  PXY d   1      -0.770   3.830  -1.580  0.00  0.00     0.003 A 
ATOM      6  C4  PXY d   1      -0.844   5.195  -1.509  0.00  0.00    -0.082 A 
ATOM      7  C5  PXY d   1      -0.652   5.811  -0.323  0.00  0.00     0.003 A 
ATOM      8  C6  PXY d   1      -0.383   5.041   0.805  0.00  0.00     0.003 A 
ENDROOT
TORSDOF 0
ENDMDL
