MODEL 1
REMARK minimizedAffinity 2.86293554
REMARK minimizedRMSD -1
REMARK  0 active torsions:
REMARK  status: ('A' for Active; 'I' for Inactive)
ROOT
ATOM      1  C4' PXY d   1      -1.124   6.000  -3.462  0.00  0.00     0.077 C 
ATOM      2  C1' PXY d   1       0.018   2.625   1.090  0.00  0.00     0.077 C 
ATOM      3  C1  PXY d   1      -0.293   3.513  -0.099  0.00  0.00    -0.082 A 
ATOM      4  C2  PXY d   1       0.333   3.312  -1.246  0.00  0.00     0.003 A 
ATOM      5  C3  PXY d   1       0.087   4.126  -2.322  0.00  0.00     0.003 A 
ATOM      6  C4  PXY d   1      -0.848   5.122  -2.238  0.00  0.00    -0.082 A 
ATOM      7  C5  PXY d   1      -1.500   5.326  -1.073  0.00  0.00     0.003 A 
ATOM      8  C6  PXY d   1      -1.206   4.515   0.019  0.00  0.00     0.003 A 
ENDROOT
TORSDOF 0
ENDMDL
