MODEL 1
REMARK minimizedAffinity -1.71274102
REMARK minimizedRMSD -1
REMARK  0 active torsions:
REMARK  status: ('A' for Active; 'I' for Inactive)
ROOT
ATOM      1  C4' PXY d   1       1.013   5.345  -0.579  0.00  0.00     0.077 C 
ATOM      2  C1' PXY d   1      -1.343   0.082  -0.989  0.00  0.00     0.077 C 
ATOM      3  C1  PXY d   1      -0.724   1.463  -0.895  0.00  0.00    -0.082 A 
ATOM      4  C2  PXY d   1      -0.175   1.857   0.243  0.00  0.00     0.003 A 
ATOM      5  C3  PXY d   1       0.362   3.114   0.355  0.00  0.00     0.003 A 
ATOM      6  C4  PXY d   1       0.384   3.956  -0.723  0.00  0.00    -0.082 A 
ATOM      7  C5  PXY d   1      -0.165   3.558  -1.890  0.00  0.00     0.003 A 
ATOM      8  C6  PXY d   1      -0.741   2.294  -1.972  0.00  0.00     0.003 A 
ENDROOT
TORSDOF 0
ENDMDL
