MODEL 1
REMARK minimizedAffinity 3.50647998
REMARK minimizedRMSD -1
REMARK  0 active torsions:
REMARK  status: ('A' for Active; 'I' for Inactive)
ROOT
ATOM      1  C   UNL d   1       0.585   1.614   2.143  0.00  0.00     0.078 C 
ATOM      2  C1  UNL d   1       1.999   1.158   1.939  0.00  0.00    -0.077 A 
ATOM      3  C2  UNL d   1       2.763   1.635   0.868  0.00  0.00    -0.001 A 
ATOM      4  C3  UNL d   1       4.075   1.195   0.686  0.00  0.00     0.003 A 
ATOM      5  C4  UNL d   1       4.633   0.274   1.570  0.00  0.00    -0.005 A 
ATOM      6  C5  UNL d   1       3.879  -0.208   2.638  0.00  0.00     0.003 A 
ATOM      7  C6  UNL d   1       2.567   0.231   2.822  0.00  0.00    -0.001 A 
ENDROOT
TORSDOF 0
ENDMDL
