MODEL 1
REMARK minimizedAffinity -1.54531324
REMARK minimizedRMSD -1
REMARK  0 active torsions:
REMARK  status: ('A' for Active; 'I' for Inactive)
ROOT
ATOM      1  C   UNL d   1      -4.577   2.490   2.970  0.00  0.00     0.078 C 
ATOM      2  C1  UNL d   1      -5.025   3.714   3.712  0.00  0.00    -0.077 A 
ATOM      3  C2  UNL d   1      -5.596   4.798   3.035  0.00  0.00    -0.001 A 
ATOM      4  C3  UNL d   1      -6.000   5.935   3.737  0.00  0.00     0.003 A 
ATOM      5  C4  UNL d   1      -5.835   5.999   5.120  0.00  0.00    -0.005 A 
ATOM      6  C5  UNL d   1      -5.265   4.926   5.801  0.00  0.00     0.003 A 
ATOM      7  C6  UNL d   1      -4.861   3.788   5.101  0.00  0.00    -0.001 A 
ENDROOT
TORSDOF 0
ENDMDL
