MODEL 1
REMARK minimizedAffinity 10.9248352
REMARK minimizedRMSD -1
REMARK  0 active torsions:
REMARK  status: ('A' for Active; 'I' for Inactive)
ROOT
ATOM      1  C   UNL d   1      -2.212  -6.000  -2.597  0.00  0.00     0.078 C 
ATOM      2  C1  UNL d   1      -3.455  -5.173  -2.736  0.00  0.00    -0.077 A 
ATOM      3  C2  UNL d   1      -4.710  -5.776  -2.879  0.00  0.00    -0.001 A 
ATOM      4  C3  UNL d   1      -5.858  -4.994  -3.017  0.00  0.00     0.003 A 
ATOM      5  C4  UNL d   1      -5.761  -3.604  -3.015  0.00  0.00    -0.005 A 
ATOM      6  C5  UNL d   1      -4.516  -2.994  -2.875  0.00  0.00     0.003 A 
ATOM      7  C6  UNL d   1      -3.367  -3.775  -2.737  0.00  0.00    -0.001 A 
ENDROOT
TORSDOF 0
ENDMDL
