MODEL 1
REMARK minimizedAffinity 17.9516506
REMARK minimizedRMSD -1
REMARK  0 active torsions:
REMARK  status: ('A' for Active; 'I' for Inactive)
ROOT
ATOM      1  C   UNL d   1       0.342   0.688   4.018  0.00  0.00     0.078 C 
ATOM      2  C1  UNL d   1      -1.085   0.870   3.594  0.00  0.00    -0.077 A 
ATOM      3  C2  UNL d   1      -1.638   2.149   3.453  0.00  0.00    -0.001 A 
ATOM      4  C3  UNL d   1      -2.970   2.303   3.067  0.00  0.00     0.003 A 
ATOM      5  C4  UNL d   1      -3.761   1.183   2.821  0.00  0.00    -0.005 A 
ATOM      6  C5  UNL d   1      -3.221  -0.093   2.962  0.00  0.00     0.003 A 
ATOM      7  C6  UNL d   1      -1.888  -0.250   3.347  0.00  0.00    -0.001 A 
ENDROOT
TORSDOF 0
ENDMDL
