MODEL 1
REMARK minimizedAffinity 7.28500748
REMARK minimizedRMSD -1
REMARK  0 active torsions:
REMARK  status: ('A' for Active; 'I' for Inactive)
ROOT
ATOM      1  C   UNL d   1       3.033   2.371   1.820  0.00  0.00     0.078 C 
ATOM      2  C1  UNL d   1       3.796   3.601   2.211  0.00  0.00    -0.077 A 
ATOM      3  C2  UNL d   1       3.418   4.865   1.741  0.00  0.00    -0.001 A 
ATOM      4  C3  UNL d   1       4.144   6.000   2.105  0.00  0.00     0.003 A 
ATOM      5  C4  UNL d   1       5.253   5.883   2.941  0.00  0.00    -0.005 A 
ATOM      6  C5  UNL d   1       5.638   4.629   3.412  0.00  0.00     0.003 A 
ATOM      7  C6  UNL d   1       4.913   3.493   3.049  0.00  0.00    -0.001 A 
ENDROOT
TORSDOF 0
ENDMDL
