MODEL 1
REMARK minimizedAffinity 1.31866455
REMARK minimizedRMSD -1
REMARK  0 active torsions:
REMARK  status: ('A' for Active; 'I' for Inactive)
ROOT
ATOM      1  C   UNL d   1       3.693   4.593   1.316  0.00  0.00     0.078 C 
ATOM      2  C1  UNL d   1       3.136   3.201   1.315  0.00  0.00    -0.077 A 
ATOM      3  C2  UNL d   1       3.975   2.089   1.175  0.00  0.00    -0.001 A 
ATOM      4  C3  UNL d   1       3.442   0.799   1.165  0.00  0.00     0.003 A 
ATOM      5  C4  UNL d   1       2.068   0.609   1.294  0.00  0.00    -0.005 A 
ATOM      6  C5  UNL d   1       1.224   1.709   1.431  0.00  0.00     0.003 A 
ATOM      7  C6  UNL d   1       1.756   3.000   1.441  0.00  0.00    -0.001 A 
ENDROOT
TORSDOF 0
ENDMDL
