MODEL 1
REMARK minimizedAffinity 6.1776309
REMARK minimizedRMSD -1
REMARK  0 active torsions:
REMARK  status: ('A' for Active; 'I' for Inactive)
ROOT
ATOM      1  C   UNL d   1      -4.384   2.006   3.253  0.00  0.00     0.078 C 
ATOM      2  C1  UNL d   1      -4.843   3.396   3.579  0.00  0.00    -0.077 A 
ATOM      3  C2  UNL d   1      -5.587   4.143   2.658  0.00  0.00    -0.001 A 
ATOM      4  C3  UNL d   1      -6.000   5.440   2.971  0.00  0.00     0.003 A 
ATOM      5  C4  UNL d   1      -5.672   6.000   4.204  0.00  0.00    -0.005 A 
ATOM      6  C5  UNL d   1      -4.930   5.264   5.125  0.00  0.00     0.003 A 
ATOM      7  C6  UNL d   1      -4.516   3.968   4.814  0.00  0.00    -0.001 A 
ENDROOT
TORSDOF 0
ENDMDL
