MODEL 1
REMARK minimizedAffinity 1.76416814
REMARK minimizedRMSD -1
REMARK  0 active torsions:
REMARK  status: ('A' for Active; 'I' for Inactive)
ROOT
ATOM      1  C   UNL d   1       5.963   5.966  -5.999  0.00  0.00     0.078 C 
ATOM      2  C1  UNL d   1       4.657   5.616  -5.350  0.00  0.00    -0.077 A 
ATOM      3  C2  UNL d   1       4.619   4.896  -4.150  0.00  0.00    -0.001 A 
ATOM      4  C3  UNL d   1       3.396   4.569  -3.562  0.00  0.00     0.003 A 
ATOM      5  C4  UNL d   1       2.202   4.957  -4.168  0.00  0.00    -0.005 A 
ATOM      6  C5  UNL d   1       2.231   5.672  -5.364  0.00  0.00     0.003 A 
ATOM      7  C6  UNL d   1       3.453   6.000  -5.953  0.00  0.00    -0.001 A 
ENDROOT
TORSDOF 0
ENDMDL
