MODEL 1
REMARK minimizedAffinity 7.4467926
REMARK minimizedRMSD -1
REMARK  0 active torsions:
REMARK  status: ('A' for Active; 'I' for Inactive)
ROOT
ATOM      1  C   UNL d   1      -2.248  -6.000  -2.631  0.00  0.00     0.078 C 
ATOM      2  C1  UNL d   1      -3.473  -5.224  -3.013  0.00  0.00    -0.077 A 
ATOM      3  C2  UNL d   1      -4.653  -5.878  -3.387  0.00  0.00    -0.001 A 
ATOM      4  C3  UNL d   1      -5.783  -5.143  -3.750  0.00  0.00     0.003 A 
ATOM      5  C4  UNL d   1      -5.743  -3.750  -3.744  0.00  0.00    -0.005 A 
ATOM      6  C5  UNL d   1      -4.572  -3.090  -3.376  0.00  0.00     0.003 A 
ATOM      7  C6  UNL d   1      -3.441  -3.824  -3.013  0.00  0.00    -0.001 A 
ENDROOT
TORSDOF 0
ENDMDL
