MODEL 1
REMARK minimizedAffinity 3.49840069
REMARK minimizedRMSD -1
REMARK  0 active torsions:
REMARK  status: ('A' for Active; 'I' for Inactive)
ROOT
ATOM      1  C   UNL d   1       3.465   3.896  -2.459  0.00  0.00     0.078 C 
ATOM      2  C1  UNL d   1       3.914   4.626  -3.689  0.00  0.00    -0.077 A 
ATOM      3  C2  UNL d   1       5.133   5.315  -3.715  0.00  0.00    -0.001 A 
ATOM      4  C3  UNL d   1       5.534   5.998  -4.864  0.00  0.00     0.003 A 
ATOM      5  C4  UNL d   1       4.721   6.000  -5.996  0.00  0.00    -0.005 A 
ATOM      6  C5  UNL d   1       3.506   5.319  -5.979  0.00  0.00     0.003 A 
ATOM      7  C6  UNL d   1       3.103   4.636  -4.831  0.00  0.00    -0.001 A 
ENDROOT
TORSDOF 0
ENDMDL
