MODEL 1
REMARK minimizedAffinity -2.18128085
REMARK minimizedRMSD -1
REMARK  0 active torsions:
REMARK  status: ('A' for Active; 'I' for Inactive)
ROOT
ATOM      1  C   UNL d   1       1.499   5.997  -5.953  0.00  0.00     0.078 C 
ATOM      2  C1  UNL d   1       2.729   5.320  -5.427  0.00  0.00    -0.077 A 
ATOM      3  C2  UNL d   1       3.956   5.992  -5.374  0.00  0.00    -0.001 A 
ATOM      4  C3  UNL d   1       5.095   5.346  -4.891  0.00  0.00     0.003 A 
ATOM      5  C4  UNL d   1       5.019   4.024  -4.457  0.00  0.00    -0.005 A 
ATOM      6  C5  UNL d   1       3.802   3.346  -4.508  0.00  0.00     0.003 A 
ATOM      7  C6  UNL d   1       2.662   3.991  -4.991  0.00  0.00    -0.001 A 
ENDROOT
TORSDOF 0
ENDMDL
