MODEL 1
REMARK minimizedAffinity 12.9544582
REMARK minimizedRMSD -1
REMARK  0 active torsions:
REMARK  status: ('A' for Active; 'I' for Inactive)
ROOT
ATOM      1  C   UNL d   1       3.740   5.084   1.574  0.00  0.00     0.078 C 
ATOM      2  C1  UNL d   1       2.825   3.898   1.489  0.00  0.00    -0.077 A 
ATOM      3  C2  UNL d   1       1.438   4.048   1.602  0.00  0.00    -0.001 A 
ATOM      4  C3  UNL d   1       0.599   2.935   1.531  0.00  0.00     0.003 A 
ATOM      5  C4  UNL d   1       1.139   1.663   1.348  0.00  0.00    -0.005 A 
ATOM      6  C5  UNL d   1       2.518   1.504   1.237  0.00  0.00     0.003 A 
ATOM      7  C6  UNL d   1       3.359   2.616   1.308  0.00  0.00    -0.001 A 
ENDROOT
TORSDOF 0
ENDMDL
