MODEL 1
REMARK minimizedAffinity 7.04261589
REMARK minimizedRMSD -1
REMARK  0 active torsions:
REMARK  status: ('A' for Active; 'I' for Inactive)
ROOT
ATOM      1  C   UNL d   1      -0.701  -2.644  -5.697  0.00  0.00     0.078 C 
ATOM      2  C1  UNL d   1      -1.324  -2.589  -4.334  0.00  0.00    -0.077 A 
ATOM      3  C2  UNL d   1      -2.269  -3.541  -3.935  0.00  0.00    -0.001 A 
ATOM      4  C3  UNL d   1      -2.848  -3.471  -2.666  0.00  0.00     0.003 A 
ATOM      5  C4  UNL d   1      -2.489  -2.451  -1.788  0.00  0.00    -0.005 A 
ATOM      6  C5  UNL d   1      -1.550  -1.498  -2.178  0.00  0.00     0.003 A 
ATOM      7  C6  UNL d   1      -0.970  -1.566  -3.446  0.00  0.00    -0.001 A 
ENDROOT
TORSDOF 0
ENDMDL
