MODEL 1
REMARK minimizedAffinity 7.827703
REMARK minimizedRMSD -1
REMARK  0 active torsions:
REMARK  status: ('A' for Active; 'I' for Inactive)
ROOT
ATOM      1  C   UNL d   1       4.402   1.598  -1.831  0.00  0.00     0.078 C 
ATOM      2  C1  UNL d   1       3.607   1.299  -0.595  0.00  0.00    -0.077 A 
ATOM      3  C2  UNL d   1       2.642   2.197  -0.124  0.00  0.00    -0.001 A 
ATOM      4  C3  UNL d   1       1.917   1.910   1.034  0.00  0.00     0.003 A 
ATOM      5  C4  UNL d   1       2.149   0.726   1.730  0.00  0.00    -0.005 A 
ATOM      6  C5  UNL d   1       3.109  -0.173   1.269  0.00  0.00     0.003 A 
ATOM      7  C6  UNL d   1       3.836   0.112   0.112  0.00  0.00    -0.001 A 
ENDROOT
TORSDOF 0
ENDMDL
