MODEL 1
REMARK minimizedAffinity 1.86380625
REMARK minimizedRMSD -1
REMARK  0 active torsions:
REMARK  status: ('A' for Active; 'I' for Inactive)
ROOT
ATOM      1  C   UNL d   1       0.764  -2.537  -0.348  0.00  0.00     0.078 C 
ATOM      2  C1  UNL d   1      -0.395  -2.676  -1.289  0.00  0.00    -0.077 A 
ATOM      3  C2  UNL d   1      -0.319  -3.518  -2.406  0.00  0.00    -0.001 A 
ATOM      4  C3  UNL d   1      -1.402  -3.631  -3.279  0.00  0.00     0.003 A 
ATOM      5  C4  UNL d   1      -2.568  -2.904  -3.046  0.00  0.00    -0.005 A 
ATOM      6  C5  UNL d   1      -2.651  -2.062  -1.939  0.00  0.00     0.003 A 
ATOM      7  C6  UNL d   1      -1.569  -1.948  -1.065  0.00  0.00    -0.001 A 
ENDROOT
TORSDOF 0
ENDMDL
