MODEL 1
REMARK minimizedAffinity 11.3617849
REMARK minimizedRMSD -1
REMARK  0 active torsions:
REMARK  status: ('A' for Active; 'I' for Inactive)
ROOT
ATOM      1  C   UNL d   1       5.328  -0.846  -6.000  0.00  0.00     0.078 C 
ATOM      2  C1  UNL d   1       4.936   0.367  -5.209  0.00  0.00    -0.077 A 
ATOM      3  C2  UNL d   1       3.840   1.151  -5.588  0.00  0.00    -0.001 A 
ATOM      4  C3  UNL d   1       3.493   2.283  -4.848  0.00  0.00     0.003 A 
ATOM      5  C4  UNL d   1       4.238   2.641  -3.726  0.00  0.00    -0.005 A 
ATOM      6  C5  UNL d   1       5.332   1.868  -3.343  0.00  0.00     0.003 A 
ATOM      7  C6  UNL d   1       5.680   0.736  -4.082  0.00  0.00    -0.001 A 
ENDROOT
TORSDOF 0
ENDMDL
