MODEL 1
REMARK minimizedAffinity 7.06524611
REMARK minimizedRMSD -1
REMARK  0 active torsions:
REMARK  status: ('A' for Active; 'I' for Inactive)
ROOT
ATOM      1  C   UNL d   1      -4.949  -4.751  -2.329  0.00  0.00     0.078 C 
ATOM      2  C1  UNL d   1      -3.747  -3.869  -2.492  0.00  0.00    -0.077 A 
ATOM      3  C2  UNL d   1      -3.090  -3.767  -3.725  0.00  0.00    -0.001 A 
ATOM      4  C3  UNL d   1      -1.967  -2.950  -3.860  0.00  0.00     0.003 A 
ATOM      5  C4  UNL d   1      -1.489  -2.229  -2.767  0.00  0.00    -0.005 A 
ATOM      6  C5  UNL d   1      -2.135  -2.326  -1.536  0.00  0.00     0.003 A 
ATOM      7  C6  UNL d   1      -3.259  -3.143  -1.399  0.00  0.00    -0.001 A 
ENDROOT
TORSDOF 0
ENDMDL
