MODEL 1
REMARK minimizedAffinity 9.96395493
REMARK minimizedRMSD -1
REMARK  0 active torsions:
REMARK  status: ('A' for Active; 'I' for Inactive)
ROOT
ATOM      1  C   UNL d   1      -3.432  -3.750  -2.774  0.00  0.00     0.078 C 
ATOM      2  C1  UNL d   1      -2.431  -3.219  -3.757  0.00  0.00    -0.077 A 
ATOM      3  C2  UNL d   1      -1.503  -2.239  -3.383  0.00  0.00    -0.001 A 
ATOM      4  C3  UNL d   1      -0.584  -1.747  -4.310  0.00  0.00     0.003 A 
ATOM      5  C4  UNL d   1      -0.583  -2.228  -5.618  0.00  0.00    -0.005 A 
ATOM      6  C5  UNL d   1      -1.504  -3.202  -6.000  0.00  0.00     0.003 A 
ATOM      7  C6  UNL d   1      -2.425  -3.695  -5.074  0.00  0.00    -0.001 A 
ENDROOT
TORSDOF 0
ENDMDL
