MODEL 1
REMARK minimizedAffinity 7.39371634
REMARK minimizedRMSD -1
REMARK  0 active torsions:
REMARK  status: ('A' for Active; 'I' for Inactive)
ROOT
ATOM      1  C   UNL d   1      -4.609  -3.923  -2.648  0.00  0.00     0.078 C 
ATOM      2  C1  UNL d   1      -3.345  -3.130  -2.504  0.00  0.00    -0.077 A 
ATOM      3  C2  UNL d   1      -2.618  -2.722  -3.629  0.00  0.00    -0.001 A 
ATOM      4  C3  UNL d   1      -1.438  -1.992  -3.480  0.00  0.00     0.003 A 
ATOM      5  C4  UNL d   1      -0.973  -1.665  -2.208  0.00  0.00    -0.005 A 
ATOM      6  C5  UNL d   1      -1.688  -2.068  -1.083  0.00  0.00     0.003 A 
ATOM      7  C6  UNL d   1      -2.869  -2.798  -1.229  0.00  0.00    -0.001 A 
ENDROOT
TORSDOF 0
ENDMDL
