MODEL 1
REMARK minimizedAffinity 2.9686985
REMARK minimizedRMSD -1
REMARK  3 active torsions:
REMARK  status: ('A' for Active; 'I' for Inactive)
REMARK    1  A    between atoms: C3'_2  and  C2'_3 
REMARK    2  A    between atoms: C2'_3  and  C1'_4 
REMARK    3  A    between atoms: C1'_4  and  C1_5 
ROOT
ATOM      1  C1  N4B d   1      -1.416   2.208  -1.911  0.00  0.00    -0.075 A 
ATOM      2  C2  N4B d   1      -2.523   1.483  -2.404  0.00  0.00     0.002 A 
ATOM      3  C3  N4B d   1      -3.469   2.114  -3.176  0.00  0.00     0.002 A 
ATOM      4  C4  N4B d   1      -3.338   3.467  -3.450  0.00  0.00    -0.004 A 
ATOM      5  C5  N4B d   1      -2.253   4.154  -2.991  0.00  0.00     0.002 A 
ATOM      6  C6  N4B d   1      -1.293   3.532  -2.218  0.00  0.00     0.002 A 
ENDROOT
BRANCH   1   7
ATOM      7  C1' N4B d   1      -0.403   1.582  -0.993  0.00  0.00     0.057 C 
BRANCH   7   8
ATOM      8  C2' N4B d   1      -0.128   2.531   0.171  0.00  0.00     0.009 C 
BRANCH   8   9
ATOM      9  C3' N4B d   1      -0.922   2.155   1.410  0.00  0.00     0.004 C 
ATOM     10  C4' N4B d   1      -0.085   1.478   2.453  0.00  0.00     0.003 C 
ENDBRANCH   8   9
ENDBRANCH   7   8
ENDBRANCH   1   7
TORSDOF 3
ENDMDL
