MODEL 1
REMARK minimizedAffinity 2.88707733
REMARK minimizedRMSD -1
REMARK  3 active torsions:
REMARK  status: ('A' for Active; 'I' for Inactive)
REMARK    1  A    between atoms: C3'_2  and  C2'_3 
REMARK    2  A    between atoms: C2'_3  and  C1'_4 
REMARK    3  A    between atoms: C1'_4  and  C1_5 
ROOT
ATOM      1  C1  N4B d   1      -0.672   3.248  -1.374  0.00  0.00    -0.075 A 
ATOM      2  C2  N4B d   1      -1.785   3.473  -2.214  0.00  0.00     0.002 A 
ATOM      3  C3  N4B d   1      -2.102   4.750  -2.607  0.00  0.00     0.002 A 
ATOM      4  C4  N4B d   1      -1.334   5.815  -2.161  0.00  0.00    -0.004 A 
ATOM      5  C5  N4B d   1      -0.245   5.587  -1.371  0.00  0.00     0.002 A 
ATOM      6  C6  N4B d   1       0.087   4.308  -0.971  0.00  0.00     0.002 A 
ENDROOT
BRANCH   1   7
ATOM      7  C1' N4B d   1      -0.337   1.879  -0.848  0.00  0.00     0.057 C 
BRANCH   7   8
ATOM      8  C2' N4B d   1      -1.017   0.827  -1.720  0.00  0.00     0.009 C 
BRANCH   8   9
ATOM      9  C3' N4B d   1      -0.010  -0.092  -2.390  0.00  0.00     0.004 C 
ATOM     10  C4' N4B d   1      -0.022  -1.479  -1.821  0.00  0.00     0.003 C 
ENDBRANCH   8   9
ENDBRANCH   7   8
ENDBRANCH   1   7
TORSDOF 3
ENDMDL
