MODEL 1
REMARK minimizedAffinity 5.80251741
REMARK minimizedRMSD -1
REMARK  3 active torsions:
REMARK  status: ('A' for Active; 'I' for Inactive)
REMARK    1  A    between atoms: C3'_2  and  C2'_3 
REMARK    2  A    between atoms: C2'_3  and  C1'_4 
REMARK    3  A    between atoms: C1'_4  and  C1_5 
ROOT
ATOM      1  C1  N4B d   1      -5.859  -1.196   3.403  0.00  0.00    -0.075 A 
ATOM      2  C2  N4B d   1      -5.835  -2.587   3.646  0.00  0.00     0.002 A 
ATOM      3  C3  N4B d   1      -5.870  -3.060   4.934  0.00  0.00     0.002 A 
ATOM      4  C4  N4B d   1      -5.908  -2.165   5.993  0.00  0.00    -0.004 A 
ATOM      5  C5  N4B d   1      -5.956  -0.823   5.750  0.00  0.00     0.002 A 
ATOM      6  C6  N4B d   1      -5.926  -0.334   4.459  0.00  0.00     0.002 A 
ENDROOT
BRANCH   1   7
ATOM      7  C1' N4B d   1      -5.736  -0.629   2.015  0.00  0.00     0.057 C 
BRANCH   7   8
ATOM      8  C2' N4B d   1      -5.990  -1.738   0.998  0.00  0.00     0.009 C 
BRANCH   8   9
ATOM      9  C3' N4B d   1      -5.954  -1.218  -0.429  0.00  0.00     0.004 C 
ATOM     10  C4' N4B d   1      -5.909   0.279  -0.501  0.00  0.00     0.003 C 
ENDBRANCH   8   9
ENDBRANCH   7   8
ENDBRANCH   1   7
TORSDOF 3
ENDMDL
