MODEL 1
REMARK minimizedAffinity -0.688414931
REMARK minimizedRMSD -1
REMARK  0 active torsions:
REMARK  status: ('A' for Active; 'I' for Inactive)
ROOT
ATOM      1  C   UNL d   1       1.510   2.232  -2.507  0.00  0.00     0.172 C 
ATOM      2  N   UNL d   1       2.309   1.095  -2.114  0.00  0.00    -0.070 N 
ATOM      3  C1  UNL d   1       1.839  -0.172  -1.892  0.00  0.00    -0.004 A 
ATOM      4  C2  UNL d   1       2.911  -0.963  -1.537  0.00  0.00    -0.047 A 
ATOM      5  C3  UNL d   1       4.064  -0.142  -1.545  0.00  0.00    -0.047 A 
ATOM      6  C4  UNL d   1       3.662   1.127  -1.905  0.00  0.00    -0.004 A 
ENDROOT
TORSDOF 0
ENDMDL
