MODEL 1
REMARK minimizedAffinity 5.55882502
REMARK minimizedRMSD -1
REMARK  0 active torsions:
REMARK  status: ('A' for Active; 'I' for Inactive)
ROOT
ATOM      1  C   UNL d   1       1.155  -3.628   1.221  0.00  0.00     0.172 C 
ATOM      2  N   UNL d   1       1.384  -2.720   0.122  0.00  0.00    -0.070 N 
ATOM      3  C1  UNL d   1       0.415  -2.173  -0.676  0.00  0.00    -0.004 A 
ATOM      4  C2  UNL d   1       1.038  -1.364  -1.603  0.00  0.00    -0.047 A 
ATOM      5  C3  UNL d   1       2.429  -1.428  -1.353  0.00  0.00    -0.047 A 
ATOM      6  C4  UNL d   1       2.615  -2.274  -0.280  0.00  0.00    -0.004 A 
ENDROOT
TORSDOF 0
ENDMDL
