MODEL 1
REMARK minimizedAffinity 6.22536802
REMARK minimizedRMSD -1
REMARK  0 active torsions:
REMARK  status: ('A' for Active; 'I' for Inactive)
ROOT
ATOM      1  C   UNL d   1       1.512   1.111  -2.090  0.00  0.00     0.172 C 
ATOM      2  N   UNL d   1       1.426  -0.245  -1.602  0.00  0.00    -0.070 N 
ATOM      3  C1  UNL d   1       2.444  -0.949  -1.016  0.00  0.00    -0.004 A 
ATOM      4  C2  UNL d   1       1.962  -2.199  -0.692  0.00  0.00    -0.047 A 
ATOM      5  C3  UNL d   1       0.607  -2.248  -1.097  0.00  0.00    -0.047 A 
ATOM      6  C4  UNL d   1       0.301  -1.025  -1.657  0.00  0.00    -0.004 A 
ENDROOT
TORSDOF 0
ENDMDL
