MODEL 1
REMARK minimizedAffinity 3.53175282
REMARK minimizedRMSD -1
REMARK  0 active torsions:
REMARK  status: ('A' for Active; 'I' for Inactive)
ROOT
ATOM      1  C   UNL d   1       2.284  -0.968  -1.403  0.00  0.00     0.172 C 
ATOM      2  N   UNL d   1       1.883   0.323  -1.910  0.00  0.00    -0.070 N 
ATOM      3  C1  UNL d   1       1.111   1.238  -1.245  0.00  0.00    -0.004 A 
ATOM      4  C2  UNL d   1       0.956   2.335  -2.064  0.00  0.00    -0.047 A 
ATOM      5  C3  UNL d   1       1.658   2.070  -3.264  0.00  0.00    -0.047 A 
ATOM      6  C4  UNL d   1       2.222   0.818  -3.142  0.00  0.00    -0.004 A 
ENDROOT
TORSDOF 0
ENDMDL
