MODEL 1
REMARK minimizedAffinity -1.79953694
REMARK minimizedRMSD -1
REMARK  0 active torsions:
REMARK  status: ('A' for Active; 'I' for Inactive)
ROOT
ATOM      1  C   UNL d   1      -3.720   1.969   5.468  0.00  0.00     0.172 C 
ATOM      2  N   UNL d   1      -3.625   0.809   4.614  0.00  0.00    -0.070 N 
ATOM      3  C1  UNL d   1      -2.462   0.225   4.187  0.00  0.00    -0.004 A 
ATOM      4  C2  UNL d   1      -2.796  -0.852   3.395  0.00  0.00    -0.047 A 
ATOM      5  C3  UNL d   1      -4.209  -0.917   3.342  0.00  0.00    -0.047 A 
ATOM      6  C4  UNL d   1      -4.696   0.123   4.105  0.00  0.00    -0.004 A 
ENDROOT
TORSDOF 0
ENDMDL
