MODEL 1
REMARK minimizedAffinity 0.193589672
REMARK minimizedRMSD -1
REMARK  0 active torsions:
REMARK  status: ('A' for Active; 'I' for Inactive)
ROOT
ATOM      1  C   UNL d   1       0.769  -3.246  -3.422  0.00  0.00     0.172 C 
ATOM      2  N   UNL d   1       0.946  -1.857  -3.070  0.00  0.00    -0.070 N 
ATOM      3  C1  UNL d   1       0.958  -1.351  -1.797  0.00  0.00    -0.004 A 
ATOM      4  C2  UNL d   1       1.152   0.010  -1.885  0.00  0.00    -0.047 A 
ATOM      5  C3  UNL d   1       1.259   0.335  -3.259  0.00  0.00    -0.047 A 
ATOM      6  C4  UNL d   1       1.127  -0.840  -3.969  0.00  0.00    -0.004 A 
ENDROOT
TORSDOF 0
ENDMDL
