MODEL 1
REMARK minimizedAffinity 2.1996882
REMARK minimizedRMSD -1
REMARK  0 active torsions:
REMARK  status: ('A' for Active; 'I' for Inactive)
ROOT
ATOM      1  C   UNL d   1      -2.704  -0.034   0.005  0.00  0.00     0.172 C 
ATOM      2  N   UNL d   1      -3.910  -0.759   0.326  0.00  0.00    -0.070 N 
ATOM      3  C1  UNL d   1      -4.065  -1.626   1.374  0.00  0.00    -0.004 A 
ATOM      4  C2  UNL d   1      -5.356  -2.108   1.336  0.00  0.00    -0.047 A 
ATOM      5  C3  UNL d   1      -5.998  -1.511   0.226  0.00  0.00    -0.047 A 
ATOM      6  C4  UNL d   1      -5.081  -0.680  -0.382  0.00  0.00    -0.004 A 
ENDROOT
TORSDOF 0
ENDMDL
