MODEL 1
REMARK minimizedAffinity 0.401468068
REMARK minimizedRMSD -1
REMARK  0 active torsions:
REMARK  status: ('A' for Active; 'I' for Inactive)
ROOT
ATOM      1  C   UNL d   1       2.024   5.115  -3.384  0.00  0.00     0.172 C 
ATOM      2  N   UNL d   1       1.791   3.722  -3.684  0.00  0.00    -0.070 N 
ATOM      3  C1  UNL d   1       1.315   3.230  -4.870  0.00  0.00    -0.004 A 
ATOM      4  C2  UNL d   1       1.235   1.859  -4.756  0.00  0.00    -0.047 A 
ATOM      5  C3  UNL d   1       1.676   1.515  -3.456  0.00  0.00    -0.047 A 
ATOM      6  C4  UNL d   1       2.014   2.687  -2.814  0.00  0.00    -0.004 A 
ENDROOT
TORSDOF 0
ENDMDL
