MODEL 1
REMARK minimizedAffinity -1.97969961
REMARK minimizedRMSD -1
REMARK  0 active torsions:
REMARK  status: ('A' for Active; 'I' for Inactive)
ROOT
ATOM      1  C   UNL d   1       0.016   0.361  -0.639  0.00  0.00     0.172 C 
ATOM      2  N   UNL d   1       1.251   0.230  -1.375  0.00  0.00    -0.070 N 
ATOM      3  C1  UNL d   1       1.782   1.170  -2.218  0.00  0.00    -0.004 A 
ATOM      4  C2  UNL d   1       2.963   0.667  -2.721  0.00  0.00    -0.047 A 
ATOM      5  C3  UNL d   1       3.148  -0.619  -2.161  0.00  0.00    -0.047 A 
ATOM      6  C4  UNL d   1       2.074  -0.865  -1.331  0.00  0.00    -0.004 A 
ENDROOT
TORSDOF 0
ENDMDL
