MODEL 1
REMARK minimizedAffinity 1.95609641
REMARK minimizedRMSD -1
REMARK  0 active torsions:
REMARK  status: ('A' for Active; 'I' for Inactive)
ROOT
ATOM      1  C   UNL d   1       2.472   0.397  -2.490  0.00  0.00     0.172 C 
ATOM      2  N   UNL d   1       2.291  -0.893  -1.866  0.00  0.00    -0.070 N 
ATOM      3  C1  UNL d   1       2.981  -1.358  -0.779  0.00  0.00    -0.004 A 
ATOM      4  C2  UNL d   1       2.517  -2.624  -0.494  0.00  0.00    -0.047 A 
ATOM      5  C3  UNL d   1       1.512  -2.930  -1.443  0.00  0.00    -0.047 A 
ATOM      6  C4  UNL d   1       1.393  -1.842  -2.280  0.00  0.00    -0.004 A 
ENDROOT
TORSDOF 0
ENDMDL
