MODEL 1
REMARK minimizedAffinity 4.05461502
REMARK minimizedRMSD -1
REMARK  0 active torsions:
REMARK  status: ('A' for Active; 'I' for Inactive)
ROOT
ATOM      1  C   UNL d   1       1.477   1.085  -3.448  0.00  0.00     0.172 C 
ATOM      2  N   UNL d   1       1.832  -0.020  -2.589  0.00  0.00    -0.070 N 
ATOM      3  C1  UNL d   1       1.142  -1.197  -2.475  0.00  0.00    -0.004 A 
ATOM      4  C2  UNL d   1       1.802  -1.987  -1.558  0.00  0.00    -0.047 A 
ATOM      5  C3  UNL d   1       2.927  -1.258  -1.104  0.00  0.00    -0.047 A 
ATOM      6  C4  UNL d   1       2.922  -0.045  -1.759  0.00  0.00    -0.004 A 
ENDROOT
TORSDOF 0
ENDMDL
