MODEL 1
REMARK minimizedAffinity 3.28114223
REMARK minimizedRMSD -1
REMARK  0 active torsions:
REMARK  status: ('A' for Active; 'I' for Inactive)
ROOT
ATOM      1  C   UNL d   1      -0.707   1.565  -1.130  0.00  0.00     0.172 C 
ATOM      2  N   UNL d   1       0.458   0.925  -1.694  0.00  0.00    -0.070 N 
ATOM      3  C1  UNL d   1       0.593  -0.416  -1.938  0.00  0.00    -0.004 A 
ATOM      4  C2  UNL d   1       1.844  -0.623  -2.478  0.00  0.00    -0.047 A 
ATOM      5  C3  UNL d   1       2.484   0.636  -2.560  0.00  0.00    -0.047 A 
ATOM      6  C4  UNL d   1       1.603   1.577  -2.068  0.00  0.00    -0.004 A 
ENDROOT
TORSDOF 0
ENDMDL
