MODEL 1
REMARK minimizedAffinity 3.57762885
REMARK minimizedRMSD -1
REMARK  0 active torsions:
REMARK  status: ('A' for Active; 'I' for Inactive)
ROOT
ATOM      1  C   UNL d   1       2.143   1.786  -2.536  0.00  0.00     0.172 C 
ATOM      2  N   UNL d   1       1.627   0.545  -2.008  0.00  0.00    -0.070 N 
ATOM      3  C1  UNL d   1       2.363  -0.581  -1.753  0.00  0.00    -0.004 A 
ATOM      4  C2  UNL d   1       1.507  -1.542  -1.259  0.00  0.00    -0.047 A 
ATOM      5  C3  UNL d   1       0.212  -0.973  -1.216  0.00  0.00    -0.047 A 
ATOM      6  C4  UNL d   1       0.315   0.319  -1.685  0.00  0.00    -0.004 A 
ENDROOT
TORSDOF 0
ENDMDL
