MODEL 1
REMARK minimizedAffinity 0.675001442
REMARK minimizedRMSD -1
REMARK  0 active torsions:
REMARK  status: ('A' for Active; 'I' for Inactive)
ROOT
ATOM      1  C   UNL d   1      -0.134   1.821   0.523  0.00  0.00     0.172 C 
ATOM      2  N   UNL d   1       0.461   1.747  -0.791  0.00  0.00    -0.070 N 
ATOM      3  C1  UNL d   1       0.294   2.663  -1.795  0.00  0.00    -0.004 A 
ATOM      4  C2  UNL d   1       1.023   2.234  -2.883  0.00  0.00    -0.047 A 
ATOM      5  C3  UNL d   1       1.649   1.017  -2.520  0.00  0.00    -0.047 A 
ATOM      6  C4  UNL d   1       1.283   0.739  -1.220  0.00  0.00    -0.004 A 
ENDROOT
TORSDOF 0
ENDMDL
