MODEL 1
REMARK minimizedAffinity 4.36424494
REMARK minimizedRMSD -1
REMARK  0 active torsions:
REMARK  status: ('A' for Active; 'I' for Inactive)
ROOT
ATOM      1  C   UNL d   1       2.182   1.115  -2.257  0.00  0.00     0.172 C 
ATOM      2  N   UNL d   1       2.098  -0.138  -1.544  0.00  0.00    -0.070 N 
ATOM      3  C1  UNL d   1       1.192  -1.136  -1.788  0.00  0.00    -0.004 A 
ATOM      4  C2  UNL d   1       1.441  -2.159  -0.899  0.00  0.00    -0.047 A 
ATOM      5  C3  UNL d   1       2.534  -1.763  -0.093  0.00  0.00    -0.047 A 
ATOM      6  C4  UNL d   1       2.921  -0.508  -0.514  0.00  0.00    -0.004 A 
ENDROOT
TORSDOF 0
ENDMDL
