MODEL 1
REMARK minimizedAffinity -0.0381292999
REMARK minimizedRMSD -1
REMARK  0 active torsions:
REMARK  status: ('A' for Active; 'I' for Inactive)
ROOT
ATOM      1  C   UNL d   1       2.242  -1.581  -1.414  0.00  0.00     0.172 C 
ATOM      2  N   UNL d   1       2.238  -0.235  -1.938  0.00  0.00    -0.070 N 
ATOM      3  C1  UNL d   1       3.156   0.284  -2.812  0.00  0.00    -0.004 A 
ATOM      4  C2  UNL d   1       2.803   1.592  -3.066  0.00  0.00    -0.047 A 
ATOM      5  C3  UNL d   1       1.634   1.868  -2.319  0.00  0.00    -0.047 A 
ATOM      6  C4  UNL d   1       1.306   0.720  -1.629  0.00  0.00    -0.004 A 
ENDROOT
TORSDOF 0
ENDMDL
