MODEL 1
REMARK minimizedAffinity 8.13807392
REMARK minimizedRMSD -1
REMARK  0 active torsions:
REMARK  status: ('A' for Active; 'I' for Inactive)
ROOT
ATOM      1  O1  BZF d   1      -3.446   2.556   1.065  0.00  0.00    -0.204 OA
ATOM      2  C2  BZF d   1      -4.271   1.562   0.575  0.00  0.00     0.174 A 
ATOM      3  C3  BZF d   1      -3.658   0.361   0.629  0.00  0.00    -0.012 A 
ATOM      4  C3A BZF d   1      -2.404   0.608   1.274  0.00  0.00    -0.107 A 
ATOM      5  C4  BZF d   1      -1.358  -0.195   1.629  0.00  0.00     0.055 A 
ATOM      6  C5  BZF d   1      -0.250   0.369   2.178  0.00  0.00    -0.016 A 
ATOM      7  C6  BZF d   1      -0.152   1.731   2.380  0.00  0.00     0.022 A 
ATOM      8  C7  BZF d   1      -1.166   2.566   2.048  0.00  0.00     0.029 A 
ATOM      9  C7A BZF d   1      -2.301   1.996   1.524  0.00  0.00     0.058 A 
ENDROOT
TORSDOF 0
ENDMDL
