MODEL 1
REMARK minimizedAffinity 5.46228695
REMARK minimizedRMSD -1
REMARK  0 active torsions:
REMARK  status: ('A' for Active; 'I' for Inactive)
ROOT
ATOM      1  O1  BZF d   1      -2.724  -2.502   0.379  0.00  0.00    -0.204 OA
ATOM      2  C2  BZF d   1      -4.010  -2.670  -0.098  0.00  0.00     0.174 A 
ATOM      3  C3  BZF d   1      -4.768  -1.589   0.180  0.00  0.00    -0.012 A 
ATOM      4  C3A BZF d   1      -3.877  -0.652   0.793  0.00  0.00    -0.107 A 
ATOM      5  C4  BZF d   1      -4.035   0.614   1.278  0.00  0.00     0.055 A 
ATOM      6  C5  BZF d   1      -2.982   1.227   1.881  0.00  0.00    -0.016 A 
ATOM      7  C6  BZF d   1      -1.760   0.601   2.020  0.00  0.00     0.022 A 
ATOM      8  C7  BZF d   1      -1.554  -0.653   1.550  0.00  0.00     0.029 A 
ATOM      9  C7A BZF d   1      -2.606  -1.262   0.911  0.00  0.00     0.058 A 
ENDROOT
TORSDOF 0
ENDMDL
