MODEL 1
REMARK minimizedAffinity 10.7334728
REMARK minimizedRMSD -1
REMARK  0 active torsions:
REMARK  status: ('A' for Active; 'I' for Inactive)
ROOT
ATOM      1  O1  BZF d   1      -1.236  -0.144   3.749  0.00  0.00    -0.204 OA
ATOM      2  C2  BZF d   1      -0.240   0.000   2.804  0.00  0.00     0.174 A 
ATOM      3  C3  BZF d   1      -0.766   0.259   1.590  0.00  0.00    -0.012 A 
ATOM      4  C3A BZF d   1      -2.176   0.369   1.806  0.00  0.00    -0.107 A 
ATOM      5  C4  BZF d   1      -3.234   0.633   0.985  0.00  0.00     0.055 A 
ATOM      6  C5  BZF d   1      -4.493   0.596   1.496  0.00  0.00    -0.016 A 
ATOM      7  C6  BZF d   1      -4.729   0.295   2.822  0.00  0.00     0.022 A 
ATOM      8  C7  BZF d   1      -3.711   0.032   3.676  0.00  0.00     0.029 A 
ATOM      9  C7A BZF d   1      -2.436   0.100   3.170  0.00  0.00     0.058 A 
ENDROOT
TORSDOF 0
ENDMDL
