MODEL 1
REMARK minimizedAffinity -3.92340469
REMARK minimizedRMSD -1
REMARK  0 active torsions:
REMARK  status: ('A' for Active; 'I' for Inactive)
ROOT
ATOM      1  O1  BZF d   1       0.512   0.191   2.379  0.00  0.00    -0.204 OA
ATOM      2  C2  BZF d   1       0.500   1.008   3.493  0.00  0.00     0.174 A 
ATOM      3  C3  BZF d   1      -0.754   1.422   3.769  0.00  0.00    -0.012 A 
ATOM      4  C3A BZF d   1      -1.588   0.753   2.819  0.00  0.00    -0.107 A 
ATOM      5  C4  BZF d   1      -2.935   0.744   2.594  0.00  0.00     0.055 A 
ATOM      6  C5  BZF d   1      -3.425   0.041   1.539  0.00  0.00    -0.016 A 
ATOM      7  C6  BZF d   1      -2.597  -0.659   0.687  0.00  0.00     0.022 A 
ATOM      8  C7  BZF d   1      -1.255  -0.685   0.872  0.00  0.00     0.029 A 
ATOM      9  C7A BZF d   1      -0.760  -0.002   1.957  0.00  0.00     0.058 A 
ENDROOT
TORSDOF 0
ENDMDL
