MODEL 1
REMARK minimizedAffinity 10.7997637
REMARK minimizedRMSD -1
REMARK  0 active torsions:
REMARK  status: ('A' for Active; 'I' for Inactive)
ROOT
ATOM      1  O1  BZF d   1      -5.312  -0.492  -0.055  0.00  0.00    -0.204 OA
ATOM      2  C2  BZF d   1      -5.089  -1.855  -0.020  0.00  0.00     0.174 A 
ATOM      3  C3  BZF d   1      -3.882  -2.128   0.516  0.00  0.00    -0.012 A 
ATOM      4  C3A BZF d   1      -3.354  -0.862   0.921  0.00  0.00    -0.107 A 
ATOM      5  C4  BZF d   1      -2.194  -0.480   1.532  0.00  0.00     0.055 A 
ATOM      6  C5  BZF d   1      -1.952   0.844   1.721  0.00  0.00    -0.016 A 
ATOM      7  C6  BZF d   1      -2.844   1.811   1.307  0.00  0.00     0.022 A 
ATOM      8  C7  BZF d   1      -4.010   1.481   0.701  0.00  0.00     0.029 A 
ATOM      9  C7A BZF d   1      -4.273   0.143   0.539  0.00  0.00     0.058 A 
ENDROOT
TORSDOF 0
ENDMDL
