MODEL 1
REMARK minimizedAffinity 3.15994644
REMARK minimizedRMSD -1
REMARK  0 active torsions:
REMARK  status: ('A' for Active; 'I' for Inactive)
ROOT
ATOM      1  O1  BZF d   1      -2.268   0.017   3.540  0.00  0.00    -0.204 OA
ATOM      2  C2  BZF d   1      -1.397  -0.396   2.550  0.00  0.00     0.174 A 
ATOM      3  C3  BZF d   1      -1.969  -0.288   1.334  0.00  0.00    -0.012 A 
ATOM      4  C3A BZF d   1      -3.246   0.310   1.570  0.00  0.00    -0.107 A 
ATOM      5  C4  BZF d   1      -4.273   0.685   0.752  0.00  0.00     0.055 A 
ATOM      6  C5  BZF d   1      -5.414   1.174   1.306  0.00  0.00    -0.016 A 
ATOM      7  C6  BZF d   1      -5.564   1.296   2.672  0.00  0.00     0.022 A 
ATOM      8  C7  BZF d   1      -4.571   0.942   3.524  0.00  0.00     0.029 A 
ATOM      9  C7A BZF d   1      -3.404   0.479   2.966  0.00  0.00     0.058 A 
ENDROOT
TORSDOF 0
ENDMDL
