MODEL 1
REMARK minimizedAffinity 8.26980114
REMARK minimizedRMSD -1
REMARK  0 active torsions:
REMARK  status: ('A' for Active; 'I' for Inactive)
ROOT
ATOM      1  O1  BZF d   1      -1.913  -2.836  -5.974  0.00  0.00    -0.204 OA
ATOM      2  C2  BZF d   1      -1.471  -1.527  -5.956  0.00  0.00     0.174 A 
ATOM      3  C3  BZF d   1      -2.513  -0.670  -5.995  0.00  0.00    -0.012 A 
ATOM      4  C3A BZF d   1      -3.681  -1.496  -5.946  0.00  0.00    -0.107 A 
ATOM      5  C4  BZF d   1      -5.020  -1.228  -5.938  0.00  0.00     0.055 A 
ATOM      6  C5  BZF d   1      -5.900  -2.263  -5.959  0.00  0.00    -0.016 A 
ATOM      7  C6  BZF d   1      -5.477  -3.576  -5.995  0.00  0.00     0.022 A 
ATOM      8  C7  BZF d   1      -4.159  -3.891  -5.999  0.00  0.00     0.029 A 
ATOM      9  C7A BZF d   1      -3.267  -2.848  -5.944  0.00  0.00     0.058 A 
ENDROOT
TORSDOF 0
ENDMDL
