MODEL 1
REMARK minimizedAffinity 6.92337275
REMARK minimizedRMSD -1
REMARK  0 active torsions:
REMARK  status: ('A' for Active; 'I' for Inactive)
ROOT
ATOM      1  O1  BZF d   1      -2.566  -0.306  -5.960  0.00  0.00    -0.204 OA
ATOM      2  C2  BZF d   1      -1.195  -0.476  -5.961  0.00  0.00     0.174 A 
ATOM      3  C3  BZF d   1      -0.874  -1.785  -5.920  0.00  0.00    -0.012 A 
ATOM      4  C3A BZF d   1      -2.123  -2.480  -5.985  0.00  0.00    -0.107 A 
ATOM      5  C4  BZF d   1      -2.461  -3.803  -5.999  0.00  0.00     0.055 A 
ATOM      6  C5  BZF d   1      -3.776  -4.149  -5.994  0.00  0.00    -0.016 A 
ATOM      7  C6  BZF d   1      -4.776  -3.199  -5.970  0.00  0.00     0.022 A 
ATOM      8  C7  BZF d   1      -4.489  -1.875  -5.961  0.00  0.00     0.029 A 
ATOM      9  C7A BZF d   1      -3.163  -1.522  -5.999  0.00  0.00     0.058 A 
ENDROOT
TORSDOF 0
ENDMDL
