MODEL 1
REMARK minimizedAffinity 12.2451782
REMARK minimizedRMSD -1
REMARK  0 active torsions:
REMARK  status: ('A' for Active; 'I' for Inactive)
ROOT
ATOM      1  O1  BZF d   1      -1.355   0.089   3.400  0.00  0.00    -0.204 OA
ATOM      2  C2  BZF d   1      -0.432   0.162   2.375  0.00  0.00     0.174 A 
ATOM      3  C3  BZF d   1      -1.049   0.339   1.189  0.00  0.00    -0.012 A 
ATOM      4  C3A BZF d   1      -2.438   0.472   1.502  0.00  0.00    -0.107 A 
ATOM      5  C4  BZF d   1      -3.555   0.684   0.746  0.00  0.00     0.055 A 
ATOM      6  C5  BZF d   1      -4.772   0.690   1.352  0.00  0.00    -0.016 A 
ATOM      7  C6  BZF d   1      -4.908   0.483   2.709  0.00  0.00     0.022 A 
ATOM      8  C7  BZF d   1      -3.828   0.274   3.501  0.00  0.00     0.029 A 
ATOM      9  C7A BZF d   1      -2.595   0.300   2.897  0.00  0.00     0.058 A 
ENDROOT
TORSDOF 0
ENDMDL
