MODEL 1
REMARK minimizedAffinity -1.71534121
REMARK minimizedRMSD -1
REMARK  0 active torsions:
REMARK  status: ('A' for Active; 'I' for Inactive)
ROOT
ATOM      1  O1  BZF d   1      -1.941  -2.971  -5.991  0.00  0.00    -0.204 OA
ATOM      2  C2  BZF d   1      -1.714  -1.608  -5.974  0.00  0.00     0.174 A 
ATOM      3  C3  BZF d   1      -2.880  -0.930  -6.000  0.00  0.00    -0.012 A 
ATOM      4  C3A BZF d   1      -3.900  -1.931  -5.943  0.00  0.00    -0.107 A 
ATOM      5  C4  BZF d   1      -5.264  -1.881  -5.922  0.00  0.00     0.055 A 
ATOM      6  C5  BZF d   1      -5.968  -3.044  -5.940  0.00  0.00    -0.016 A 
ATOM      7  C6  BZF d   1      -5.341  -4.272  -5.983  0.00  0.00     0.022 A 
ATOM      8  C7  BZF d   1      -3.989  -4.372  -6.000  0.00  0.00     0.029 A 
ATOM      9  C7A BZF d   1      -3.275  -3.200  -5.949  0.00  0.00     0.058 A 
ENDROOT
TORSDOF 0
ENDMDL
