MODEL 1
REMARK minimizedAffinity 6.17946768
REMARK minimizedRMSD -1
REMARK  0 active torsions:
REMARK  status: ('A' for Active; 'I' for Inactive)
ROOT
ATOM      1  O1  BZF d   1      -4.757  -0.844  -5.962  0.00  0.00    -0.204 OA
ATOM      2  C2  BZF d   1      -5.671  -1.881  -5.949  0.00  0.00     0.174 A 
ATOM      3  C3  BZF d   1      -5.042  -3.073  -5.999  0.00  0.00    -0.012 A 
ATOM      4  C3A BZF d   1      -3.645  -2.764  -5.952  0.00  0.00    -0.107 A 
ATOM      5  C4  BZF d   1      -2.514  -3.529  -5.954  0.00  0.00     0.055 A 
ATOM      6  C5  BZF d   1      -1.302  -2.915  -5.975  0.00  0.00    -0.016 A 
ATOM      7  C6  BZF d   1      -1.184  -1.541  -6.000  0.00  0.00     0.022 A 
ATOM      8  C7  BZF d   1      -2.278  -0.740  -5.994  0.00  0.00     0.029 A 
ATOM      9  C7A BZF d   1      -3.504  -1.357  -5.940  0.00  0.00     0.058 A 
ENDROOT
TORSDOF 0
ENDMDL
