MODEL 1
REMARK minimizedAffinity -0.159178555
REMARK minimizedRMSD -1
REMARK  0 active torsions:
REMARK  status: ('A' for Active; 'I' for Inactive)
ROOT
ATOM      1  O1  BZF d   1      -5.578   0.917   3.548  0.00  0.00    -0.204 OA
ATOM      2  C2  BZF d   1      -5.345   0.865   4.909  0.00  0.00     0.174 A 
ATOM      3  C3  BZF d   1      -4.025   0.766   5.165  0.00  0.00    -0.012 A 
ATOM      4  C3A BZF d   1      -3.386   0.848   3.887  0.00  0.00    -0.107 A 
ATOM      5  C4  BZF d   1      -2.081   0.825   3.487  0.00  0.00     0.055 A 
ATOM      6  C5  BZF d   1      -1.797   0.852   2.158  0.00  0.00    -0.016 A 
ATOM      7  C6  BZF d   1      -2.792   0.897   1.204  0.00  0.00     0.022 A 
ATOM      8  C7  BZF d   1      -4.101   0.926   1.553  0.00  0.00     0.029 A 
ATOM      9  C7A BZF d   1      -4.390   0.932   2.895  0.00  0.00     0.058 A 
ENDROOT
TORSDOF 0
ENDMDL
