MODEL 1
REMARK minimizedAffinity 0.500660837
REMARK minimizedRMSD -1
REMARK  0 active torsions:
REMARK  status: ('A' for Active; 'I' for Inactive)
ROOT
ATOM      1  O1  BZF d   1      -4.205  -4.074  -6.000  0.00  0.00    -0.204 OA
ATOM      2  C2  BZF d   1      -5.512  -3.632  -5.930  0.00  0.00     0.174 A 
ATOM      3  C3  BZF d   1      -5.557  -2.290  -5.803  0.00  0.00    -0.012 A 
ATOM      4  C3A BZF d   1      -4.195  -1.859  -5.886  0.00  0.00    -0.107 A 
ATOM      5  C4  BZF d   1      -3.594  -0.633  -5.842  0.00  0.00     0.055 A 
ATOM      6  C5  BZF d   1      -2.238  -0.561  -5.876  0.00  0.00    -0.016 A 
ATOM      7  C6  BZF d   1      -1.452  -1.692  -5.949  0.00  0.00     0.022 A 
ATOM      8  C7  BZF d   1      -2.002  -2.930  -6.000  0.00  0.00     0.029 A 
ATOM      9  C7A BZF d   1      -3.374  -3.004  -5.998  0.00  0.00     0.058 A 
ENDROOT
TORSDOF 0
ENDMDL
