MODEL 1
REMARK minimizedAffinity 10.1676693
REMARK minimizedRMSD -1
REMARK  0 active torsions:
REMARK  status: ('A' for Active; 'I' for Inactive)
ROOT
ATOM      1  O1  BZF d   1       2.416   1.177  -2.729  0.00  0.00    -0.204 OA
ATOM      2  C2  BZF d   1       1.842  -0.007  -3.152  0.00  0.00     0.174 A 
ATOM      3  C3  BZF d   1       2.216  -0.296  -4.415  0.00  0.00    -0.012 A 
ATOM      4  C3A BZF d   1       3.151   0.727  -4.773  0.00  0.00    -0.107 A 
ATOM      5  C4  BZF d   1       3.884   0.976  -5.898  0.00  0.00     0.055 A 
ATOM      6  C5  BZF d   1       4.647   2.099  -5.954  0.00  0.00    -0.016 A 
ATOM      7  C6  BZF d   1       4.696   2.997  -4.907  0.00  0.00     0.022 A 
ATOM      8  C7  BZF d   1       3.990   2.790  -3.769  0.00  0.00     0.029 A 
ATOM      9  C7A BZF d   1       3.244   1.639  -3.697  0.00  0.00     0.058 A 
ENDROOT
TORSDOF 0
ENDMDL
