MODEL 1
REMARK minimizedAffinity 5.46389294
REMARK minimizedRMSD -1
REMARK  0 active torsions:
REMARK  status: ('A' for Active; 'I' for Inactive)
ROOT
ATOM      1  O1  BZF d   1       0.924  -4.167   0.546  0.00  0.00    -0.204 OA
ATOM      2  C2  BZF d   1      -0.360  -3.964   1.015  0.00  0.00     0.174 A 
ATOM      3  C3  BZF d   1      -0.508  -4.489   2.248  0.00  0.00    -0.012 A 
ATOM      4  C3A BZF d   1       0.789  -4.974   2.609  0.00  0.00    -0.107 A 
ATOM      5  C4  BZF d   1       1.286  -5.587   3.723  0.00  0.00     0.055 A 
ATOM      6  C5  BZF d   1       2.581  -6.000   3.728  0.00  0.00    -0.016 A 
ATOM      7  C6  BZF d   1       3.404  -5.820   2.636  0.00  0.00     0.022 A 
ATOM      8  C7  BZF d   1       2.958  -5.212   1.510  0.00  0.00     0.029 A 
ATOM      9  C7A BZF d   1       1.659  -4.764   1.514  0.00  0.00     0.058 A 
ENDROOT
TORSDOF 0
ENDMDL
