MODEL 1
REMARK minimizedAffinity 16.374403
REMARK minimizedRMSD -1
REMARK  0 active torsions:
REMARK  status: ('A' for Active; 'I' for Inactive)
ROOT
ATOM      1  O1  BZF d   1      -3.432   5.850   5.109  0.00  0.00    -0.204 OA
ATOM      2  C2  BZF d   1      -4.477   6.000   6.000  0.00  0.00     0.174 A 
ATOM      3  C3  BZF d   1      -5.513   5.206   5.660  0.00  0.00    -0.012 A 
ATOM      4  C3A BZF d   1      -5.054   4.449   4.536  0.00  0.00    -0.107 A 
ATOM      5  C4  BZF d   1      -5.624   3.480   3.761  0.00  0.00     0.055 A 
ATOM      6  C5  BZF d   1      -4.935   2.996   2.694  0.00  0.00    -0.016 A 
ATOM      7  C6  BZF d   1      -3.677   3.462   2.372  0.00  0.00     0.022 A 
ATOM      8  C7  BZF d   1      -3.068   4.419   3.114  0.00  0.00     0.029 A 
ATOM      9  C7A BZF d   1      -3.749   4.886   4.211  0.00  0.00     0.058 A 
ENDROOT
TORSDOF 0
ENDMDL
