MODEL 1
REMARK minimizedAffinity 15.7467117
REMARK minimizedRMSD -1
REMARK  0 active torsions:
REMARK  status: ('A' for Active; 'I' for Inactive)
ROOT
ATOM      1  O1  BZF d   1       2.079   1.619   0.171  0.00  0.00    -0.204 OA
ATOM      2  C2  BZF d   1       1.990   1.129  -1.117  0.00  0.00     0.174 A 
ATOM      3  C3  BZF d   1       1.048   0.168  -1.200  0.00  0.00    -0.012 A 
ATOM      4  C3A BZF d   1       0.451   0.113   0.099  0.00  0.00    -0.107 A 
ATOM      5  C4  BZF d   1      -0.556  -0.635   0.639  0.00  0.00     0.055 A 
ATOM      6  C5  BZF d   1      -0.847  -0.496   1.959  0.00  0.00    -0.016 A 
ATOM      7  C6  BZF d   1      -0.149   0.377   2.769  0.00  0.00     0.022 A 
ATOM      8  C7  BZF d   1       0.854   1.144   2.277  0.00  0.00     0.029 A 
ATOM      9  C7A BZF d   1       1.129   1.029   0.936  0.00  0.00     0.058 A 
ENDROOT
TORSDOF 0
ENDMDL
