MODEL 1
REMARK minimizedAffinity -2.37859702
REMARK minimizedRMSD -1
REMARK  0 active torsions:
REMARK  status: ('A' for Active; 'I' for Inactive)
ROOT
ATOM      1  O1  BZF d   1      -3.478  -4.132  -5.970  0.00  0.00    -0.204 OA
ATOM      2  C2  BZF d   1      -4.859  -4.095  -5.998  0.00  0.00     0.174 A 
ATOM      3  C3  BZF d   1      -5.305  -2.822  -5.958  0.00  0.00    -0.012 A 
ATOM      4  C3A BZF d   1      -4.127  -2.010  -5.996  0.00  0.00    -0.107 A 
ATOM      5  C4  BZF d   1      -3.917  -0.661  -5.998  0.00  0.00     0.055 A 
ATOM      6  C5  BZF d   1      -2.643  -0.191  -5.966  0.00  0.00    -0.016 A 
ATOM      7  C6  BZF d   1      -1.556  -1.040  -5.926  0.00  0.00     0.022 A 
ATOM      8  C7  BZF d   1      -1.715  -2.386  -5.927  0.00  0.00     0.029 A 
ATOM      9  C7A BZF d   1      -3.000  -2.864  -5.993  0.00  0.00     0.058 A 
ENDROOT
TORSDOF 0
ENDMDL
