MODEL 1
REMARK minimizedAffinity 0.991012156
REMARK minimizedRMSD -1
REMARK  0 active torsions:
REMARK  status: ('A' for Active; 'I' for Inactive)
ROOT
ATOM      1  O1  BZF d   1       1.138   0.001  -2.152  0.00  0.00    -0.204 OA
ATOM      2  C2  BZF d   1       2.148   0.688  -1.505  0.00  0.00     0.174 A 
ATOM      3  C3  BZF d   1       3.164   0.953  -2.351  0.00  0.00    -0.012 A 
ATOM      4  C3A BZF d   1       2.724   0.479  -3.628  0.00  0.00    -0.107 A 
ATOM      5  C4  BZF d   1       3.287   0.474  -4.872  0.00  0.00     0.055 A 
ATOM      6  C5  BZF d   1       2.626  -0.132  -5.893  0.00  0.00    -0.016 A 
ATOM      7  C6  BZF d   1       1.404  -0.744  -5.705  0.00  0.00     0.022 A 
ATOM      8  C7  BZF d   1       0.804  -0.760  -4.491  0.00  0.00     0.029 A 
ATOM      9  C7A BZF d   1       1.454  -0.121  -3.464  0.00  0.00     0.058 A 
ENDROOT
TORSDOF 0
ENDMDL
