MODEL 1
REMARK minimizedAffinity 8.39191246
REMARK minimizedRMSD -1
REMARK  0 active torsions:
REMARK  status: ('A' for Active; 'I' for Inactive)
ROOT
ATOM      1  C   UNL d   1       3.552   1.798  -0.220  0.00  0.00     0.077 C 
ATOM      2  C1  UNL d   1       2.969   0.714  -1.077  0.00  0.00    -0.074 A 
ATOM      3  C2  UNL d   1       2.327   1.017  -2.281  0.00  0.00    -0.005 A 
ATOM      4  C3  UNL d   1       1.798  -0.002  -3.073  0.00  0.00     0.006 A 
ATOM      5  C4  UNL d   1       1.905  -1.333  -2.668  0.00  0.00    -0.005 A 
ATOM      6  C5  UNL d   1       2.545  -1.656  -1.467  0.00  0.00    -0.074 A 
ATOM      7  C6  UNL d   1       2.678  -3.082  -1.022  0.00  0.00     0.077 C 
ATOM      8  C7  UNL d   1       3.080  -0.626  -0.681  0.00  0.00    -0.001 A 
ENDROOT
TORSDOF 0
ENDMDL
