MODEL 1
REMARK minimizedAffinity 12.8370466
REMARK minimizedRMSD -1
REMARK  0 active torsions:
REMARK  status: ('A' for Active; 'I' for Inactive)
ROOT
ATOM      1  C   UNL d   1       2.923   1.171  -0.671  0.00  0.00     0.077 C 
ATOM      2  C1  UNL d   1       2.588  -0.247  -1.028  0.00  0.00    -0.074 A 
ATOM      3  C2  UNL d   1       1.527  -0.539  -1.891  0.00  0.00    -0.005 A 
ATOM      4  C3  UNL d   1       1.233  -1.862  -2.221  0.00  0.00     0.006 A 
ATOM      5  C4  UNL d   1       1.995  -2.904  -1.692  0.00  0.00    -0.005 A 
ATOM      6  C5  UNL d   1       3.061  -2.631  -0.828  0.00  0.00    -0.074 A 
ATOM      7  C6  UNL d   1       3.897  -3.739  -0.259  0.00  0.00     0.077 C 
ATOM      8  C7  UNL d   1       3.354  -1.299  -0.507  0.00  0.00    -0.001 A 
ENDROOT
TORSDOF 0
ENDMDL
