MODEL 1
REMARK minimizedAffinity 12.4466629
REMARK minimizedRMSD -1
REMARK  0 active torsions:
REMARK  status: ('A' for Active; 'I' for Inactive)
ROOT
ATOM      1  C   UNL d   1       0.719  -4.756  -3.333  0.00  0.00     0.077 C 
ATOM      2  C1  UNL d   1       1.564  -3.922  -2.416  0.00  0.00    -0.074 A 
ATOM      3  C2  UNL d   1       1.278  -2.569  -2.207  0.00  0.00    -0.005 A 
ATOM      4  C3  UNL d   1       2.067  -1.808  -1.344  0.00  0.00     0.006 A 
ATOM      5  C4  UNL d   1       3.148  -2.391  -0.683  0.00  0.00    -0.005 A 
ATOM      6  C5  UNL d   1       3.449  -3.743  -0.879  0.00  0.00    -0.074 A 
ATOM      7  C6  UNL d   1       4.602  -4.388  -0.168  0.00  0.00     0.077 C 
ATOM      8  C7  UNL d   1       2.648  -4.502  -1.742  0.00  0.00    -0.001 A 
ENDROOT
TORSDOF 0
ENDMDL
