MODEL 1
REMARK minimizedAffinity 16.967268
REMARK minimizedRMSD -1
REMARK  0 active torsions:
REMARK  status: ('A' for Active; 'I' for Inactive)
ROOT
ATOM      1  C   UNL d   1      -3.431   1.861   5.353  0.00  0.00     0.077 C 
ATOM      2  C1  UNL d   1      -3.362   1.159   4.030  0.00  0.00    -0.074 A 
ATOM      3  C2  UNL d   1      -2.382   1.493   3.089  0.00  0.00    -0.005 A 
ATOM      4  C3  UNL d   1      -2.324   0.824   1.867  0.00  0.00     0.006 A 
ATOM      5  C4  UNL d   1      -3.243  -0.183   1.572  0.00  0.00    -0.005 A 
ATOM      6  C5  UNL d   1      -4.230  -0.531   2.501  0.00  0.00    -0.074 A 
ATOM      7  C6  UNL d   1      -5.220  -1.618   2.204  0.00  0.00     0.077 C 
ATOM      8  C7  UNL d   1      -4.277   0.141   3.730  0.00  0.00    -0.001 A 
ENDROOT
TORSDOF 0
ENDMDL
