MODEL 1
REMARK minimizedAffinity 11.9865074
REMARK minimizedRMSD -1
REMARK  0 active torsions:
REMARK  status: ('A' for Active; 'I' for Inactive)
ROOT
ATOM      1  C   UNL d   1       3.177   0.809  -0.767  0.00  0.00     0.077 C 
ATOM      2  C1  UNL d   1       2.723  -0.591  -1.056  0.00  0.00    -0.074 A 
ATOM      3  C2  UNL d   1       1.554  -0.832  -1.785  0.00  0.00    -0.005 A 
ATOM      4  C3  UNL d   1       1.149  -2.139  -2.054  0.00  0.00     0.006 A 
ATOM      5  C4  UNL d   1       1.908  -3.218  -1.598  0.00  0.00    -0.005 A 
ATOM      6  C5  UNL d   1       3.081  -2.997  -0.868  0.00  0.00    -0.074 A 
ATOM      7  C6  UNL d   1       3.913  -4.144  -0.379  0.00  0.00     0.077 C 
ATOM      8  C7  UNL d   1       3.485  -1.680  -0.608  0.00  0.00    -0.001 A 
ENDROOT
TORSDOF 0
ENDMDL
