MODEL 1
REMARK minimizedAffinity -2.3824954
REMARK minimizedRMSD -1
REMARK  0 active torsions:
REMARK  status: ('A' for Active; 'I' for Inactive)
ROOT
ATOM      1  C   UNL d   1      -5.624  -6.000   0.022  0.00  0.00     0.077 C 
ATOM      2  C1  UNL d   1      -5.640  -5.300   1.349  0.00  0.00    -0.074 A 
ATOM      3  C2  UNL d   1      -5.919  -6.000   2.527  0.00  0.00    -0.005 A 
ATOM      4  C3  UNL d   1      -5.921  -5.337   3.754  0.00  0.00     0.006 A 
ATOM      5  C4  UNL d   1      -5.645  -3.971   3.816  0.00  0.00    -0.005 A 
ATOM      6  C5  UNL d   1      -5.363  -3.255   2.648  0.00  0.00    -0.074 A 
ATOM      7  C6  UNL d   1      -5.055  -1.788   2.697  0.00  0.00     0.077 C 
ATOM      8  C7  UNL d   1      -5.356  -3.929   1.419  0.00  0.00    -0.001 A 
ENDROOT
TORSDOF 0
ENDMDL
