MODEL 1
REMARK minimizedAffinity 9.84113026
REMARK minimizedRMSD -1
REMARK  0 active torsions:
REMARK  status: ('A' for Active; 'I' for Inactive)
ROOT
ATOM      1  C   UNL d   1      -5.164  -5.985  -1.196  0.00  0.00     0.077 C 
ATOM      2  C1  UNL d   1      -3.664  -5.983  -1.201  0.00  0.00    -0.074 A 
ATOM      3  C2  UNL d   1      -2.941  -5.991  -0.004  0.00  0.00    -0.005 A 
ATOM      4  C3  UNL d   1      -1.547  -5.999  -0.025  0.00  0.00     0.006 A 
ATOM      5  C4  UNL d   1      -0.862  -5.998  -1.241  0.00  0.00    -0.005 A 
ATOM      6  C5  UNL d   1      -1.568  -5.991  -2.448  0.00  0.00    -0.074 A 
ATOM      7  C6  UNL d   1      -0.848  -6.000  -3.764  0.00  0.00     0.077 C 
ATOM      8  C7  UNL d   1      -2.969  -5.990  -2.419  0.00  0.00    -0.001 A 
ENDROOT
TORSDOF 0
ENDMDL
