MODEL 1
REMARK minimizedAffinity 7.38659954
REMARK minimizedRMSD -1
REMARK  0 active torsions:
REMARK  status: ('A' for Active; 'I' for Inactive)
ROOT
ATOM      1  C   UNL d   1       2.354   1.475  -1.553  0.00  0.00     0.077 C 
ATOM      2  C1  UNL d   1       1.948   2.410  -0.453  0.00  0.00    -0.074 A 
ATOM      3  C2  UNL d   1       1.536   3.716  -0.734  0.00  0.00    -0.005 A 
ATOM      4  C3  UNL d   1       1.152   4.571   0.300  0.00  0.00     0.006 A 
ATOM      5  C4  UNL d   1       1.177   4.128   1.623  0.00  0.00    -0.005 A 
ATOM      6  C5  UNL d   1       1.586   2.825   1.923  0.00  0.00    -0.074 A 
ATOM      7  C6  UNL d   1       1.608   2.330   3.339  0.00  0.00     0.077 C 
ATOM      8  C7  UNL d   1       1.963   1.970   0.879  0.00  0.00    -0.001 A 
ENDROOT
TORSDOF 0
ENDMDL
