MODEL 1
REMARK minimizedAffinity 6.6645155
REMARK minimizedRMSD -1
REMARK  0 active torsions:
REMARK  status: ('A' for Active; 'I' for Inactive)
ROOT
ATOM      1  C   UNL d   1       4.569  -5.241  -0.433  0.00  0.00     0.077 C 
ATOM      2  C1  UNL d   1       4.226  -4.823  -1.832  0.00  0.00    -0.074 A 
ATOM      3  C2  UNL d   1       2.928  -4.422  -2.165  0.00  0.00    -0.005 A 
ATOM      4  C3  UNL d   1       2.626  -4.027  -3.468  0.00  0.00     0.006 A 
ATOM      5  C4  UNL d   1       3.617  -4.030  -4.450  0.00  0.00    -0.005 A 
ATOM      6  C5  UNL d   1       4.921  -4.427  -4.136  0.00  0.00    -0.074 A 
ATOM      7  C6  UNL d   1       6.000  -4.427  -5.178  0.00  0.00     0.077 C 
ATOM      8  C7  UNL d   1       5.218  -4.816  -2.823  0.00  0.00    -0.001 A 
ENDROOT
TORSDOF 0
ENDMDL
