MODEL 1
REMARK minimizedAffinity 6.96240759
REMARK minimizedRMSD -1
REMARK  0 active torsions:
REMARK  status: ('A' for Active; 'I' for Inactive)
ROOT
ATOM      1  C   UNL d   1      -5.999  -2.380   1.531  0.00  0.00     0.077 C 
ATOM      2  C1  UNL d   1      -5.124  -1.845   2.624  0.00  0.00    -0.074 A 
ATOM      3  C2  UNL d   1      -4.908  -2.576   3.796  0.00  0.00    -0.005 A 
ATOM      4  C3  UNL d   1      -4.084  -2.070   4.800  0.00  0.00     0.006 A 
ATOM      5  C4  UNL d   1      -3.466  -0.828   4.643  0.00  0.00    -0.005 A 
ATOM      6  C5  UNL d   1      -3.669  -0.082   3.477  0.00  0.00    -0.074 A 
ATOM      7  C6  UNL d   1      -3.006   1.249   3.287  0.00  0.00     0.077 C 
ATOM      8  C7  UNL d   1      -4.494  -0.602   2.470  0.00  0.00    -0.001 A 
ENDROOT
TORSDOF 0
ENDMDL
