MODEL 1
REMARK minimizedAffinity -3.40325046
REMARK minimizedRMSD -1
REMARK  0 active torsions:
REMARK  status: ('A' for Active; 'I' for Inactive)
ROOT
ATOM      1  C   UNL d   1       2.924  -2.781  -5.997  0.00  0.00     0.077 C 
ATOM      2  C1  UNL d   1       3.858  -3.752  -5.338  0.00  0.00    -0.074 A 
ATOM      3  C2  UNL d   1       5.010  -4.199  -5.993  0.00  0.00    -0.005 A 
ATOM      4  C3  UNL d   1       5.874  -5.094  -5.364  0.00  0.00     0.006 A 
ATOM      5  C4  UNL d   1       5.596  -5.552  -4.075  0.00  0.00    -0.005 A 
ATOM      6  C5  UNL d   1       4.449  -5.116  -3.404  0.00  0.00    -0.074 A 
ATOM      7  C6  UNL d   1       4.140  -5.590  -2.015  0.00  0.00     0.077 C 
ATOM      8  C7  UNL d   1       3.589  -4.210  -4.040  0.00  0.00    -0.001 A 
ENDROOT
TORSDOF 0
ENDMDL
