MODEL 1
REMARK minimizedAffinity 8.4540596
REMARK minimizedRMSD -1
REMARK  0 active torsions:
REMARK  status: ('A' for Active; 'I' for Inactive)
ROOT
ATOM      1  C   UNL d   1       1.912   1.866  -1.946  0.00  0.00     0.077 C 
ATOM      2  C1  UNL d   1       2.039   0.410  -2.286  0.00  0.00    -0.074 A 
ATOM      3  C2  UNL d   1       1.786  -0.050  -3.582  0.00  0.00    -0.005 A 
ATOM      4  C3  UNL d   1       1.916  -1.405  -3.885  0.00  0.00     0.006 A 
ATOM      5  C4  UNL d   1       2.301  -2.312  -2.897  0.00  0.00    -0.005 A 
ATOM      6  C5  UNL d   1       2.559  -1.870  -1.595  0.00  0.00    -0.074 A 
ATOM      7  C6  UNL d   1       2.983  -2.831  -0.524  0.00  0.00     0.077 C 
ATOM      8  C7  UNL d   1       2.432  -0.506  -1.300  0.00  0.00    -0.001 A 
ENDROOT
TORSDOF 0
ENDMDL
