MODEL 1
REMARK minimizedAffinity 1.64805377
REMARK minimizedRMSD -1
REMARK  0 active torsions:
REMARK  status: ('A' for Active; 'I' for Inactive)
ROOT
ATOM      1  C   UNL d   1       5.992  -4.807  -3.894  0.00  0.00     0.077 C 
ATOM      2  C1  UNL d   1       4.759  -4.318  -3.194  0.00  0.00    -0.074 A 
ATOM      3  C2  UNL d   1       3.599  -4.009  -3.911  0.00  0.00    -0.005 A 
ATOM      4  C3  UNL d   1       2.458  -3.565  -3.245  0.00  0.00     0.006 A 
ATOM      5  C4  UNL d   1       2.464  -3.425  -1.857  0.00  0.00    -0.005 A 
ATOM      6  C5  UNL d   1       3.614  -3.730  -1.122  0.00  0.00    -0.074 A 
ATOM      7  C6  UNL d   1       3.635  -3.595   0.372  0.00  0.00     0.077 C 
ATOM      8  C7  UNL d   1       4.755  -4.183  -1.798  0.00  0.00    -0.001 A 
ENDROOT
TORSDOF 0
ENDMDL
