MODEL 1
REMARK minimizedAffinity 1.1577394
REMARK minimizedRMSD -1
REMARK  0 active torsions:
REMARK  status: ('A' for Active; 'I' for Inactive)
ROOT
ATOM      1  C   UNL d   1       2.588  -4.466  -4.047  0.00  0.00     0.077 C 
ATOM      2  C1  UNL d   1       3.083  -4.127  -2.672  0.00  0.00    -0.074 A 
ATOM      3  C2  UNL d   1       3.898  -5.015  -1.963  0.00  0.00    -0.005 A 
ATOM      4  C3  UNL d   1       4.359  -4.682  -0.689  0.00  0.00     0.006 A 
ATOM      5  C4  UNL d   1       4.010  -3.460  -0.113  0.00  0.00    -0.005 A 
ATOM      6  C5  UNL d   1       3.196  -2.559  -0.808  0.00  0.00    -0.074 A 
ATOM      7  C6  UNL d   1       2.820  -1.238  -0.207  0.00  0.00     0.077 C 
ATOM      8  C7  UNL d   1       2.743  -2.898  -2.090  0.00  0.00    -0.001 A 
ENDROOT
TORSDOF 0
ENDMDL
