MODEL 1
REMARK minimizedAffinity 2.40408564
REMARK minimizedRMSD -1
REMARK  0 active torsions:
REMARK  status: ('A' for Active; 'I' for Inactive)
ROOT
ATOM      1  C   UNL d   1       4.059  -4.672   0.467  0.00  0.00     0.077 C 
ATOM      2  C1  UNL d   1       3.867  -4.528  -1.014  0.00  0.00    -0.074 A 
ATOM      3  C2  UNL d   1       4.924  -4.757  -1.901  0.00  0.00    -0.005 A 
ATOM      4  C3  UNL d   1       4.728  -4.629  -3.276  0.00  0.00     0.006 A 
ATOM      5  C4  UNL d   1       3.475  -4.272  -3.777  0.00  0.00    -0.005 A 
ATOM      6  C5  UNL d   1       2.407  -4.041  -2.905  0.00  0.00    -0.074 A 
ATOM      7  C6  UNL d   1       1.051  -3.666  -3.427  0.00  0.00     0.077 C 
ATOM      8  C7  UNL d   1       2.610  -4.178  -1.525  0.00  0.00    -0.001 A 
ENDROOT
TORSDOF 0
ENDMDL
