MODEL 1
REMARK minimizedAffinity 7.82261229
REMARK minimizedRMSD -1
REMARK  0 active torsions:
REMARK  status: ('A' for Active; 'I' for Inactive)
ROOT
ATOM      1  C   UNL d   1      -4.623   2.521   4.926  0.00  0.00     0.077 C 
ATOM      2  C1  UNL d   1      -4.075   1.566   3.908  0.00  0.00    -0.074 A 
ATOM      3  C2  UNL d   1      -2.760   1.684   3.446  0.00  0.00    -0.005 A 
ATOM      4  C3  UNL d   1      -2.262   0.783   2.506  0.00  0.00     0.006 A 
ATOM      5  C4  UNL d   1      -3.072  -0.244   2.018  0.00  0.00    -0.005 A 
ATOM      6  C5  UNL d   1      -4.389  -0.378   2.468  0.00  0.00    -0.074 A 
ATOM      7  C6  UNL d   1      -5.269  -1.481   1.962  0.00  0.00     0.077 C 
ATOM      8  C7  UNL d   1      -4.880   0.528   3.419  0.00  0.00    -0.001 A 
ENDROOT
TORSDOF 0
ENDMDL
