MODEL 1
REMARK minimizedAffinity 11.9064722
REMARK minimizedRMSD -1
REMARK  0 active torsions:
REMARK  status: ('A' for Active; 'I' for Inactive)
ROOT
ATOM      1  C   UNL d   1       5.741  -4.463   0.349  0.00  0.00     0.077 C 
ATOM      2  C1  UNL d   1       5.213  -4.870  -0.995  0.00  0.00    -0.074 A 
ATOM      3  C2  UNL d   1       5.997  -5.618  -1.879  0.00  0.00    -0.005 A 
ATOM      4  C3  UNL d   1       5.489  -5.998  -3.121  0.00  0.00     0.006 A 
ATOM      5  C4  UNL d   1       4.193  -5.635  -3.491  0.00  0.00    -0.005 A 
ATOM      6  C5  UNL d   1       3.394  -4.889  -2.619  0.00  0.00    -0.074 A 
ATOM      7  C6  UNL d   1       1.996  -4.499  -2.997  0.00  0.00     0.077 C 
ATOM      8  C7  UNL d   1       3.909  -4.517  -1.370  0.00  0.00    -0.001 A 
ENDROOT
TORSDOF 0
ENDMDL
