MODEL 1
REMARK minimizedAffinity 20.8050518
REMARK minimizedRMSD -1
REMARK  0 active torsions:
REMARK  status: ('A' for Active; 'I' for Inactive)
ROOT
ATOM      1  C   UNL d   1      -3.561   0.457   1.817  0.00  0.00     0.077 C 
ATOM      2  C1  UNL d   1      -2.620   1.143   2.762  0.00  0.00    -0.074 A 
ATOM      3  C2  UNL d   1      -3.101   1.847   3.871  0.00  0.00    -0.005 A 
ATOM      4  C3  UNL d   1      -2.213   2.472   4.747  0.00  0.00     0.006 A 
ATOM      5  C4  UNL d   1      -0.838   2.400   4.523  0.00  0.00    -0.005 A 
ATOM      6  C5  UNL d   1      -0.338   1.700   3.420  0.00  0.00    -0.074 A 
ATOM      7  C6  UNL d   1       1.138   1.604   3.170  0.00  0.00     0.077 C 
ATOM      8  C7  UNL d   1      -1.236   1.068   2.549  0.00  0.00    -0.001 A 
ENDROOT
TORSDOF 0
ENDMDL
