MODEL 1
REMARK minimizedAffinity -1.93567538
REMARK minimizedRMSD -1
REMARK  0 active torsions:
REMARK  status: ('A' for Active; 'I' for Inactive)
ROOT
ATOM      1  C1  DEN d   1       1.668   3.148  -2.333  0.00  0.00     0.130 A 
ATOM      2  C2  DEN d   1       1.937   4.313  -1.495  0.00  0.00    -0.031 A 
ATOM      3  C3  DEN d   1       1.871   3.885  -0.083  0.00  0.00     0.027 A 
ATOM      4  C4  DEN d   1       1.386   1.542   0.881  0.00  0.00     0.027 A 
ATOM      5  C5  DEN d   1       1.085   0.237   0.561  0.00  0.00    -0.003 A 
ATOM      6  C6  DEN d   1       0.925  -0.179  -0.734  0.00  0.00     0.001 A 
ATOM      7  C7  DEN d   1       1.110   0.710  -1.760  0.00  0.00     0.017 A 
ATOM      8  C8  DEN d   1       1.406   2.029  -1.445  0.00  0.00    -0.094 A 
ATOM      9  C9  DEN d   1       1.576   2.428  -0.130  0.00  0.00    -0.072 A 
ENDROOT
TORSDOF 0
ENDMDL
