MODEL 1
REMARK minimizedAffinity -0.189821035
REMARK minimizedRMSD -1
REMARK  0 active torsions:
REMARK  status: ('A' for Active; 'I' for Inactive)
ROOT
ATOM      1  C1  DEN d   1       1.699   0.910   1.732  0.00  0.00     0.130 A 
ATOM      2  C2  DEN d   1       1.866   2.252   2.281  0.00  0.00    -0.031 A 
ATOM      3  C3  DEN d   1       1.798   3.215   1.164  0.00  0.00     0.027 A 
ATOM      4  C4  DEN d   1       1.449   2.759  -1.351  0.00  0.00     0.027 A 
ATOM      5  C5  DEN d   1       1.271   1.777  -2.300  0.00  0.00    -0.003 A 
ATOM      6  C6  DEN d   1       1.256   0.445  -1.978  0.00  0.00     0.001 A 
ATOM      7  C7  DEN d   1       1.379   0.062  -0.669  0.00  0.00     0.017 A 
ATOM      8  C8  DEN d   1       1.566   1.046   0.293  0.00  0.00    -0.094 A 
ATOM      9  C9  DEN d   1       1.566   2.388  -0.051  0.00  0.00    -0.072 A 
ENDROOT
TORSDOF 0
ENDMDL
