MODEL 1
REMARK minimizedAffinity -2.88780069
REMARK minimizedRMSD -1
REMARK  0 active torsions:
REMARK  status: ('A' for Active; 'I' for Inactive)
ROOT
ATOM      1  C1  DEN d   1       0.675   0.010   0.721  0.00  0.00     0.130 A 
ATOM      2  C2  DEN d   1       1.092   1.031   1.678  0.00  0.00    -0.031 A 
ATOM      3  C3  DEN d   1       1.603   2.189   0.917  0.00  0.00     0.027 A 
ATOM      4  C4  DEN d   1       1.782   2.501  -1.637  0.00  0.00     0.027 A 
ATOM      5  C5  DEN d   1       1.563   1.903  -2.859  0.00  0.00    -0.003 A 
ATOM      6  C6  DEN d   1       1.069   0.631  -2.972  0.00  0.00     0.001 A 
ATOM      7  C7  DEN d   1       0.734  -0.070  -1.843  0.00  0.00     0.017 A 
ATOM      8  C8  DEN d   1       0.959   0.523  -0.608  0.00  0.00    -0.094 A 
ATOM      9  C9  DEN d   1       1.448   1.815  -0.515  0.00  0.00    -0.072 A 
ENDROOT
TORSDOF 0
ENDMDL
