MODEL 1
REMARK minimizedAffinity -3.2330184
REMARK minimizedRMSD -1
REMARK  0 active torsions:
REMARK  status: ('A' for Active; 'I' for Inactive)
ROOT
ATOM      1  C1  DEN d   1       1.285   1.015   0.957  0.00  0.00     0.130 A 
ATOM      2  C2  DEN d   1       1.111  -0.046  -0.031  0.00  0.00    -0.031 A 
ATOM      3  C3  DEN d   1       1.132   0.571  -1.372  0.00  0.00     0.027 A 
ATOM      4  C4  DEN d   1       1.422   3.053  -2.012  0.00  0.00     0.027 A 
ATOM      5  C5  DEN d   1       1.592   4.327  -1.518  0.00  0.00    -0.003 A 
ATOM      6  C6  DEN d   1       1.637   4.589  -0.174  0.00  0.00     0.001 A 
ATOM      7  C7  DEN d   1       1.556   3.556   0.722  0.00  0.00     0.017 A 
ATOM      8  C8  DEN d   1       1.377   2.269   0.231  0.00  0.00    -0.094 A 
ATOM      9  C9  DEN d   1       1.347   2.023  -1.131  0.00  0.00    -0.072 A 
ENDROOT
TORSDOF 0
ENDMDL
