MODEL 1
REMARK minimizedAffinity 0.74842453
REMARK minimizedRMSD -1
REMARK  0 active torsions:
REMARK  status: ('A' for Active; 'I' for Inactive)
ROOT
ATOM      1  C1  DEN d   1       1.060  -0.418  -2.052  0.00  0.00     0.130 A 
ATOM      2  C2  DEN d   1       1.979   0.139  -1.063  0.00  0.00    -0.031 A 
ATOM      3  C3  DEN d   1       2.140  -0.852   0.020  0.00  0.00     0.027 A 
ATOM      4  C4  DEN d   1       1.067  -3.185   0.256  0.00  0.00     0.027 A 
ATOM      5  C5  DEN d   1       0.207  -4.090  -0.327  0.00  0.00    -0.003 A 
ATOM      6  C6  DEN d   1      -0.449  -3.822  -1.499  0.00  0.00     0.001 A 
ATOM      7  C7  DEN d   1      -0.221  -2.638  -2.150  0.00  0.00     0.017 A 
ATOM      8  C8  DEN d   1       0.638  -1.718  -1.564  0.00  0.00    -0.094 A 
ATOM      9  C9  DEN d   1       1.302  -2.012  -0.385  0.00  0.00    -0.072 A 
ENDROOT
TORSDOF 0
ENDMDL
