MODEL 1
REMARK minimizedAffinity -6.15625811
REMARK minimizedRMSD -1
REMARK  0 active torsions:
REMARK  status: ('A' for Active; 'I' for Inactive)
ROOT
ATOM      1  C1  DEN d   1       0.854   1.189   1.106  0.00  0.00     0.130 A 
ATOM      2  C2  DEN d   1       0.709   0.054   0.199  0.00  0.00    -0.031 A 
ATOM      3  C3  DEN d   1       0.992   0.526  -1.172  0.00  0.00     0.027 A 
ATOM      4  C4  DEN d   1       1.643   2.890  -1.972  0.00  0.00     0.027 A 
ATOM      5  C5  DEN d   1       1.878   4.187  -1.569  0.00  0.00    -0.003 A 
ATOM      6  C6  DEN d   1       1.757   4.579  -0.262  0.00  0.00     0.001 A 
ATOM      7  C7  DEN d   1       1.434   3.655   0.696  0.00  0.00     0.017 A 
ATOM      8  C8  DEN d   1       1.188   2.348   0.297  0.00  0.00    -0.094 A 
ATOM      9  C9  DEN d   1       1.328   1.969  -1.027  0.00  0.00    -0.072 A 
ENDROOT
TORSDOF 0
ENDMDL
