MODEL 1
REMARK minimizedAffinity -1.96410477
REMARK minimizedRMSD -1
REMARK  0 active torsions:
REMARK  status: ('A' for Active; 'I' for Inactive)
ROOT
ATOM      1  C1  DEN d   1       1.136   1.119  -2.254  0.00  0.00     0.130 A 
ATOM      2  C2  DEN d   1       1.285  -0.043  -1.381  0.00  0.00    -0.031 A 
ATOM      3  C3  DEN d   1       1.482   0.445  -0.001  0.00  0.00     0.027 A 
ATOM      4  C4  DEN d   1       1.564   2.874   0.865  0.00  0.00     0.027 A 
ATOM      5  C5  DEN d   1       1.497   4.199   0.497  0.00  0.00    -0.003 A 
ATOM      6  C6  DEN d   1       1.341   4.589  -0.807  0.00  0.00     0.001 A 
ATOM      7  C7  DEN d   1       1.201   3.641  -1.786  0.00  0.00     0.017 A 
ATOM      8  C8  DEN d   1       1.274   2.302  -1.424  0.00  0.00    -0.094 A 
ATOM      9  C9  DEN d   1       1.420   1.929  -0.099  0.00  0.00    -0.072 A 
ENDROOT
TORSDOF 0
ENDMDL
