MODEL 1
REMARK minimizedAffinity 8.94628048
REMARK minimizedRMSD -1
REMARK  0 active torsions:
REMARK  status: ('A' for Active; 'I' for Inactive)
ROOT
ATOM      1  C1  DEN d   1       2.193   2.725  -0.673  0.00  0.00     0.130 A 
ATOM      2  C2  DEN d   1       1.801   2.914  -2.067  0.00  0.00    -0.031 A 
ATOM      3  C3  DEN d   1       1.146   1.673  -2.529  0.00  0.00     0.027 A 
ATOM      4  C4  DEN d   1       0.698  -0.507  -1.226  0.00  0.00     0.027 A 
ATOM      5  C5  DEN d   1       0.860  -1.145  -0.016  0.00  0.00    -0.003 A 
ATOM      6  C6  DEN d   1       1.503  -0.555   1.040  0.00  0.00     0.001 A 
ATOM      7  C7  DEN d   1       1.967   0.728   0.921  0.00  0.00     0.017 A 
ATOM      8  C8  DEN d   1       1.815   1.375  -0.298  0.00  0.00    -0.094 A 
ATOM      9  C9  DEN d   1       1.152   0.766  -1.350  0.00  0.00    -0.072 A 
ENDROOT
TORSDOF 0
ENDMDL
