MODEL 1
REMARK minimizedAffinity -1.00437224
REMARK minimizedRMSD -1
REMARK  0 active torsions:
REMARK  status: ('A' for Active; 'I' for Inactive)
ROOT
ATOM      1  C1  DEN d   1       1.182   0.640  -2.946  0.00  0.00     0.130 A 
ATOM      2  C2  DEN d   1       1.016  -0.742  -2.502  0.00  0.00    -0.031 A 
ATOM      3  C3  DEN d   1       0.909  -0.738  -1.029  0.00  0.00     0.027 A 
ATOM      4  C4  DEN d   1       0.979   1.263   0.598  0.00  0.00     0.027 A 
ATOM      5  C5  DEN d   1       1.115   2.630   0.690  0.00  0.00    -0.003 A 
ATOM      6  C6  DEN d   1       1.316   3.420  -0.411  0.00  0.00     0.001 A 
ATOM      7  C7  DEN d   1       1.341   2.853  -1.658  0.00  0.00     0.017 A 
ATOM      8  C8  DEN d   1       1.211   1.474  -1.758  0.00  0.00    -0.094 A 
ATOM      9  C9  DEN d   1       0.997   0.694  -0.634  0.00  0.00    -0.072 A 
ENDROOT
TORSDOF 0
ENDMDL
