MODEL 1
REMARK minimizedAffinity -1.65232694
REMARK minimizedRMSD -1
REMARK  0 active torsions:
REMARK  status: ('A' for Active; 'I' for Inactive)
ROOT
ATOM      1  C1  DEN d   1       1.690   3.721  -1.495  0.00  0.00     0.130 A 
ATOM      2  C2  DEN d   1       1.404   4.487  -0.284  0.00  0.00    -0.031 A 
ATOM      3  C3  DEN d   1       1.022   3.535   0.779  0.00  0.00     0.027 A 
ATOM      4  C4  DEN d   1       0.850   0.964   0.670  0.00  0.00     0.027 A 
ATOM      5  C5  DEN d   1       0.984  -0.136  -0.148  0.00  0.00    -0.003 A 
ATOM      6  C6  DEN d   1       1.327  -0.026  -1.470  0.00  0.00     0.001 A 
ATOM      7  C7  DEN d   1       1.591   1.208  -2.002  0.00  0.00     0.017 A 
ATOM      8  C8  DEN d   1       1.451   2.323  -1.186  0.00  0.00    -0.094 A 
ATOM      9  C9  DEN d   1       1.116   2.190   0.151  0.00  0.00    -0.072 A 
ENDROOT
TORSDOF 0
ENDMDL
