MODEL 1
REMARK minimizedAffinity -2.2152164
REMARK minimizedRMSD -1
REMARK  0 active torsions:
REMARK  status: ('A' for Active; 'I' for Inactive)
ROOT
ATOM      1  C1  DEN d   1       1.281   2.163   1.704  0.00  0.00     0.130 A 
ATOM      2  C2  DEN d   1       1.000   0.773   2.053  0.00  0.00    -0.031 A 
ATOM      3  C3  DEN d   1       0.932  -0.007   0.801  0.00  0.00     0.027 A 
ATOM      4  C4  DEN d   1       1.240   0.796  -1.631  0.00  0.00     0.027 A 
ATOM      5  C5  DEN d   1       1.484   1.893  -2.428  0.00  0.00    -0.003 A 
ATOM      6  C6  DEN d   1       1.642   3.151  -1.911  0.00  0.00     0.001 A 
ATOM      7  C7  DEN d   1       1.603   3.337  -0.554  0.00  0.00     0.017 A 
ATOM      8  C8  DEN d   1       1.350   2.238   0.256  0.00  0.00    -0.094 A 
ATOM      9  C9  DEN d   1       1.205   0.972  -0.285  0.00  0.00    -0.072 A 
ENDROOT
TORSDOF 0
ENDMDL
