MODEL 1
REMARK minimizedAffinity -0.889074922
REMARK minimizedRMSD -1
REMARK  0 active torsions:
REMARK  status: ('A' for Active; 'I' for Inactive)
ROOT
ATOM      1  C1  DEN d   1       1.063   4.446  -1.916  0.00  0.00     0.130 A 
ATOM      2  C2  DEN d   1       1.564   5.321  -0.860  0.00  0.00    -0.031 A 
ATOM      3  C3  DEN d   1       1.871   4.486   0.319  0.00  0.00     0.027 A 
ATOM      4  C4  DEN d   1       1.628   1.935   0.607  0.00  0.00     0.027 A 
ATOM      5  C5  DEN d   1       1.233   0.768  -0.009  0.00  0.00    -0.003 A 
ATOM      6  C6  DEN d   1       0.727   0.750  -1.282  0.00  0.00     0.001 A 
ATOM      7  C7  DEN d   1       0.643   1.916  -1.996  0.00  0.00     0.017 A 
ATOM      8  C8  DEN d   1       1.032   3.097  -1.379  0.00  0.00    -0.094 A 
ATOM      9  C9  DEN d   1       1.553   3.093  -0.096  0.00  0.00    -0.072 A 
ENDROOT
TORSDOF 0
ENDMDL
