MODEL 1
REMARK minimizedAffinity -2.30853128
REMARK minimizedRMSD -1
REMARK  0 active torsions:
REMARK  status: ('A' for Active; 'I' for Inactive)
ROOT
ATOM      1  C1  DEN d   1       0.802   1.851   1.420  0.00  0.00     0.130 A 
ATOM      2  C2  DEN d   1       0.889   3.281   1.136  0.00  0.00    -0.031 A 
ATOM      3  C3  DEN d   1       1.215   3.444  -0.295  0.00  0.00     0.027 A 
ATOM      4  C4  DEN d   1       1.585   1.630  -2.091  0.00  0.00     0.027 A 
ATOM      5  C5  DEN d   1       1.627   0.273  -2.324  0.00  0.00    -0.003 A 
ATOM      6  C6  DEN d   1       1.432  -0.646  -1.327  0.00  0.00     0.001 A 
ATOM      7  C7  DEN d   1       1.142  -0.219  -0.058  0.00  0.00     0.017 A 
ATOM      8  C8  DEN d   1       1.105   1.148   0.186  0.00  0.00    -0.094 A 
ATOM      9  C9  DEN d   1       1.293   2.060  -0.838  0.00  0.00    -0.072 A 
ENDROOT
TORSDOF 0
ENDMDL
