MODEL 1
REMARK minimizedAffinity -3.014184
REMARK minimizedRMSD -1
REMARK  0 active torsions:
REMARK  status: ('A' for Active; 'I' for Inactive)
ROOT
ATOM      1  C1  DEN d   1       1.102   3.550  -1.100  0.00  0.00     0.130 A 
ATOM      2  C2  DEN d   1       1.415   3.268  -2.498  0.00  0.00    -0.031 A 
ATOM      3  C3  DEN d   1       1.602   1.810  -2.639  0.00  0.00     0.027 A 
ATOM      4  C4  DEN d   1       1.433  -0.029  -0.839  0.00  0.00     0.027 A 
ATOM      5  C5  DEN d   1       1.201  -0.274   0.497  0.00  0.00    -0.003 A 
ATOM      6  C6  DEN d   1       0.956   0.733   1.393  0.00  0.00     0.001 A 
ATOM      7  C7  DEN d   1       0.892   2.029   0.955  0.00  0.00     0.017 A 
ATOM      8  C8  DEN d   1       1.132   2.286  -0.388  0.00  0.00    -0.094 A 
ATOM      9  C9  DEN d   1       1.366   1.253  -1.280  0.00  0.00    -0.072 A 
ENDROOT
TORSDOF 0
ENDMDL
