MODEL 1
REMARK minimizedAffinity -0.605059087
REMARK minimizedRMSD -1
REMARK  2 active torsions:
REMARK  status: ('A' for Active; 'I' for Inactive)
REMARK    1  A    between atoms: C2'_3  and  C1'_4 
REMARK    2  A    between atoms: C1'_4  and  C1_5 
ROOT
ATOM      1  C1  I4B d   1       2.823  -0.837  -0.309  0.00  0.00    -0.075 A 
ATOM      2  C2  I4B d   1       1.895  -1.848  -0.275  0.00  0.00     0.003 A 
ATOM      3  C3  I4B d   1       0.562  -1.580   0.122  0.00  0.00     0.002 A 
ATOM      4  C4  I4B d   1       0.216  -0.305   0.520  0.00  0.00    -0.004 A 
ATOM      5  C5  I4B d   1       1.152   0.724   0.462  0.00  0.00     0.002 A 
ATOM      6  C6  I4B d   1       2.460   0.459   0.033  0.00  0.00     0.003 A 
ENDROOT
BRANCH   1   7
ATOM      7  C1' I4B d   1       4.229  -1.162  -0.701  0.00  0.00     0.060 C 
BRANCH   7   8
ATOM      8  C2' I4B d   1       4.583  -0.323  -1.911  0.00  0.00    -0.013 C 
ATOM      9  C4' I4B d   1       4.406   1.146  -1.627  0.00  0.00     0.013 C 
ATOM     10  C3' I4B d   1       6.000  -0.633  -2.292  0.00  0.00     0.013 C 
ENDBRANCH   7   8
ENDBRANCH   1   7
TORSDOF 2
ENDMDL
