MODEL 1
REMARK minimizedAffinity -3.81666493
REMARK minimizedRMSD -1
REMARK  2 active torsions:
REMARK  status: ('A' for Active; 'I' for Inactive)
REMARK    1  A    between atoms: C2'_3  and  C1'_4 
REMARK    2  A    between atoms: C1'_4  and  C1_5 
ROOT
ATOM      1  C1  I4B d   1       2.602  -0.547  -1.191  0.00  0.00    -0.075 A 
ATOM      2  C2  I4B d   1       2.249  -1.530  -0.300  0.00  0.00     0.003 A 
ATOM      3  C3  I4B d   1       1.319  -1.256   0.732  0.00  0.00     0.002 A 
ATOM      4  C4  I4B d   1       0.809   0.020   0.866  0.00  0.00    -0.004 A 
ATOM      5  C5  I4B d   1       1.150   1.009  -0.052  0.00  0.00     0.002 A 
ATOM      6  C6  I4B d   1       2.043   0.721  -1.094  0.00  0.00     0.003 A 
ENDROOT
BRANCH   1   7
ATOM      7  C1' I4B d   1       3.612  -0.862  -2.248  0.00  0.00     0.060 C 
BRANCH   7   8
ATOM      8  C2' I4B d   1       4.758   0.119  -2.106  0.00  0.00    -0.013 C 
ATOM      9  C4' I4B d   1       5.998  -0.388  -2.794  0.00  0.00     0.013 C 
ATOM     10  C3' I4B d   1       4.318   1.432  -2.681  0.00  0.00     0.013 C 
ENDBRANCH   7   8
ENDBRANCH   1   7
TORSDOF 2
ENDMDL
