MODEL 1
REMARK minimizedAffinity -4.55424881
REMARK minimizedRMSD -1
REMARK  2 active torsions:
REMARK  status: ('A' for Active; 'I' for Inactive)
REMARK    1  A    between atoms: C2'_3  and  C1'_4 
REMARK    2  A    between atoms: C1'_4  and  C1_5 
ROOT
ATOM      1  C1  I4B d   1       1.664  -1.149   0.207  0.00  0.00    -0.075 A 
ATOM      2  C2  I4B d   1       2.514  -1.844  -0.616  0.00  0.00     0.003 A 
ATOM      3  C3  I4B d   1       3.258  -1.164  -1.610  0.00  0.00     0.002 A 
ATOM      4  C4  I4B d   1       3.085   0.195  -1.778  0.00  0.00    -0.004 A 
ATOM      5  C5  I4B d   1       2.240   0.902  -0.927  0.00  0.00     0.002 A 
ATOM      6  C6  I4B d   1       1.534   0.228   0.080  0.00  0.00     0.003 A 
ENDROOT
BRANCH   1   7
ATOM      7  C1' I4B d   1       0.869  -1.904   1.225  0.00  0.00     0.060 C 
BRANCH   7   8
ATOM      8  C2' I4B d   1      -0.340  -1.065   1.589  0.00  0.00    -0.013 C 
ATOM      9  C4' I4B d   1      -1.581  -1.911   1.687  0.00  0.00     0.013 C 
ATOM     10  C3' I4B d   1      -0.050  -0.375   2.889  0.00  0.00     0.013 C 
ENDBRANCH   7   8
ENDBRANCH   1   7
TORSDOF 2
ENDMDL
