MODEL 1
REMARK minimizedAffinity 0.549435198
REMARK minimizedRMSD -1
REMARK  2 active torsions:
REMARK  status: ('A' for Active; 'I' for Inactive)
REMARK    1  A    between atoms: C2'_3  and  C1'_4 
REMARK    2  A    between atoms: C1'_4  and  C1_5 
ROOT
ATOM      1  C1  I4B d   1       2.410   0.167  -0.477  0.00  0.00    -0.075 A 
ATOM      2  C2  I4B d   1       1.560  -0.909  -0.420  0.00  0.00     0.003 A 
ATOM      3  C3  I4B d   1       0.643  -1.036   0.651  0.00  0.00     0.002 A 
ATOM      4  C4  I4B d   1       0.644  -0.098   1.663  0.00  0.00    -0.004 A 
ATOM      5  C5  I4B d   1       1.491   1.005   1.592  0.00  0.00     0.002 A 
ATOM      6  C6  I4B d   1       2.371   1.145   0.509  0.00  0.00     0.003 A 
ENDROOT
BRANCH   1   7
ATOM      7  C1' I4B d   1       3.389   0.254  -1.605  0.00  0.00     0.060 C 
BRANCH   7   8
ATOM      8  C2' I4B d   1       4.327  -0.932  -1.501  0.00  0.00    -0.013 C 
ATOM      9  C4' I4B d   1       3.580  -2.232  -1.642  0.00  0.00     0.013 C 
ATOM     10  C3' I4B d   1       5.373  -0.790  -2.566  0.00  0.00     0.013 C 
ENDBRANCH   7   8
ENDBRANCH   1   7
TORSDOF 2
ENDMDL
