MODEL 1
REMARK minimizedAffinity -0.925998807
REMARK minimizedRMSD -1
REMARK  2 active torsions:
REMARK  status: ('A' for Active; 'I' for Inactive)
REMARK    1  A    between atoms: C2'_3  and  C1'_4 
REMARK    2  A    between atoms: C1'_4  and  C1_5 
ROOT
ATOM      1  C1  I4B d   1       2.621   0.029  -0.649  0.00  0.00    -0.075 A 
ATOM      2  C2  I4B d   1       1.879   1.073  -0.155  0.00  0.00     0.003 A 
ATOM      3  C3  I4B d   1       0.771   0.823   0.691  0.00  0.00     0.002 A 
ATOM      4  C4  I4B d   1       0.413  -0.479   0.974  0.00  0.00    -0.004 A 
ATOM      5  C5  I4B d   1       1.180  -1.536   0.490  0.00  0.00     0.002 A 
ATOM      6  C6  I4B d   1       2.298  -1.280  -0.316  0.00  0.00     0.003 A 
ENDROOT
BRANCH   1   7
ATOM      7  C1' I4B d   1       3.764   0.328  -1.566  0.00  0.00     0.060 C 
BRANCH   7   8
ATOM      8  C2' I4B d   1       4.555  -0.950  -1.758  0.00  0.00    -0.013 C 
ATOM      9  C4' I4B d   1       3.680  -2.060  -2.278  0.00  0.00     0.013 C 
ATOM     10  C3' I4B d   1       5.681  -0.660  -2.705  0.00  0.00     0.013 C 
ENDBRANCH   7   8
ENDBRANCH   1   7
TORSDOF 2
ENDMDL
