MODEL 1
REMARK minimizedAffinity 3.4522891
REMARK minimizedRMSD -1
REMARK  2 active torsions:
REMARK  status: ('A' for Active; 'I' for Inactive)
REMARK    1  A    between atoms: C2'_3  and  C1'_4 
REMARK    2  A    between atoms: C1'_4  and  C1_5 
ROOT
ATOM      1  C1  I4B d   1       2.497   0.036  -0.557  0.00  0.00    -0.075 A 
ATOM      2  C2  I4B d   1       1.933  -1.202  -0.376  0.00  0.00     0.003 A 
ATOM      3  C3  I4B d   1       1.141  -1.464   0.769  0.00  0.00     0.002 A 
ATOM      4  C4  I4B d   1       0.982  -0.481   1.724  0.00  0.00    -0.004 A 
ATOM      5  C5  I4B d   1       1.535   0.781   1.527  0.00  0.00     0.002 A 
ATOM      6  C6  I4B d   1       2.287   1.045   0.374  0.00  0.00     0.003 A 
ENDROOT
BRANCH   1   7
ATOM      7  C1' I4B d   1       3.355   0.267  -1.760  0.00  0.00     0.060 C 
BRANCH   7   8
ATOM      8  C2' I4B d   1       4.251  -0.942  -1.935  0.00  0.00    -0.013 C 
ATOM      9  C4' I4B d   1       3.496  -2.098  -2.536  0.00  0.00     0.013 C 
ATOM     10  C3' I4B d   1       5.407  -0.540  -2.801  0.00  0.00     0.013 C 
ENDBRANCH   7   8
ENDBRANCH   1   7
TORSDOF 2
ENDMDL
