MODEL 1
REMARK minimizedAffinity -4.22732878
REMARK minimizedRMSD -1
REMARK  2 active torsions:
REMARK  status: ('A' for Active; 'I' for Inactive)
REMARK    1  A    between atoms: C2'_3  and  C1'_4 
REMARK    2  A    between atoms: C1'_4  and  C1_5 
ROOT
ATOM      1  C1  I4B d   1       2.778  -0.858  -1.098  0.00  0.00    -0.075 A 
ATOM      2  C2  I4B d   1       2.175   0.362  -0.914  0.00  0.00     0.003 A 
ATOM      3  C3  I4B d   1       1.229   0.540   0.124  0.00  0.00     0.002 A 
ATOM      4  C4  I4B d   1       0.880  -0.534   0.917  0.00  0.00    -0.004 A 
ATOM      5  C5  I4B d   1       1.508  -1.763   0.744  0.00  0.00     0.002 A 
ATOM      6  C6  I4B d   1       2.472  -1.924  -0.262  0.00  0.00     0.003 A 
ENDROOT
BRANCH   1   7
ATOM      7  C1' I4B d   1       3.748  -1.020  -2.225  0.00  0.00     0.060 C 
BRANCH   7   8
ATOM      8  C2' I4B d   1       4.881  -0.036  -2.010  0.00  0.00    -0.013 C 
ATOM      9  C4' I4B d   1       5.999  -0.271  -2.991  0.00  0.00     0.013 C 
ATOM     10  C3' I4B d   1       4.323   1.349  -2.147  0.00  0.00     0.013 C 
ENDBRANCH   7   8
ENDBRANCH   1   7
TORSDOF 2
ENDMDL
