MODEL 1
REMARK minimizedAffinity -2.35202765
REMARK minimizedRMSD -1
REMARK  2 active torsions:
REMARK  status: ('A' for Active; 'I' for Inactive)
REMARK    1  A    between atoms: C2'_3  and  C1'_4 
REMARK    2  A    between atoms: C1'_4  and  C1_5 
ROOT
ATOM      1  C1  I4B d   1       2.751  -0.801  -0.925  0.00  0.00    -0.075 A 
ATOM      2  C2  I4B d   1       1.864  -1.748  -0.477  0.00  0.00     0.003 A 
ATOM      3  C3  I4B d   1       0.808  -1.381   0.392  0.00  0.00     0.002 A 
ATOM      4  C4  I4B d   1       0.706  -0.074   0.824  0.00  0.00    -0.004 A 
ATOM      5  C5  I4B d   1       1.592   0.889   0.350  0.00  0.00     0.002 A 
ATOM      6  C6  I4B d   1       2.614   0.526  -0.539  0.00  0.00     0.003 A 
ENDROOT
BRANCH   1   7
ATOM      7  C1' I4B d   1       3.874  -1.229  -1.815  0.00  0.00     0.060 C 
BRANCH   7   8
ATOM      8  C2' I4B d   1       4.870  -0.090  -1.891  0.00  0.00    -0.013 C 
ATOM      9  C4' I4B d   1       5.881  -0.321  -2.983  0.00  0.00     0.013 C 
ATOM     10  C3' I4B d   1       4.104   1.179  -2.122  0.00  0.00     0.013 C 
ENDBRANCH   7   8
ENDBRANCH   1   7
TORSDOF 2
ENDMDL
