MODEL 1
REMARK minimizedAffinity 0.387847871
REMARK minimizedRMSD -1
REMARK  2 active torsions:
REMARK  status: ('A' for Active; 'I' for Inactive)
REMARK    1  A    between atoms: C2'_3  and  C1'_4 
REMARK    2  A    between atoms: C1'_4  and  C1_5 
ROOT
ATOM      1  C1  I4B d   1       3.084  -0.847  -0.352  0.00  0.00    -0.075 A 
ATOM      2  C2  I4B d   1       2.594   0.385   0.002  0.00  0.00     0.003 A 
ATOM      3  C3  I4B d   1       1.236   0.531   0.377  0.00  0.00     0.002 A 
ATOM      4  C4  I4B d   1       0.398  -0.564   0.336  0.00  0.00    -0.004 A 
ATOM      5  C5  I4B d   1       0.902  -1.817  -0.000  0.00  0.00     0.002 A 
ATOM      6  C6  I4B d   1       2.256  -1.962  -0.335  0.00  0.00     0.003 A 
ENDROOT
BRANCH   1   7
ATOM      7  C1' I4B d   1       4.514  -0.960  -0.774  0.00  0.00     0.060 C 
BRANCH   7   8
ATOM      8  C2' I4B d   1       4.673  -0.217  -2.085  0.00  0.00    -0.013 C 
ATOM      9  C4' I4B d   1       4.575   1.272  -1.883  0.00  0.00     0.013 C 
ATOM     10  C3' I4B d   1       5.999  -0.597  -2.675  0.00  0.00     0.013 C 
ENDBRANCH   7   8
ENDBRANCH   1   7
TORSDOF 2
ENDMDL
