MODEL 1
REMARK minimizedAffinity 7.57446671
REMARK minimizedRMSD -1
REMARK  0 active torsions:
REMARK  status: ('A' for Active; 'I' for Inactive)
ROOT
ATOM      1  C4' PXY d   1       0.309  -0.165   3.357  0.00  0.00     0.077 C 
ATOM      2  C1' PXY d   1       2.268  -4.297  -0.180  0.00  0.00     0.077 C 
ATOM      3  C1  PXY d   1       1.742  -3.218   0.746  0.00  0.00    -0.082 A 
ATOM      4  C2  PXY d   1       2.423  -2.093   0.893  0.00  0.00     0.003 A 
ATOM      5  C3  PXY d   1       1.978  -1.120   1.751  0.00  0.00     0.003 A 
ATOM      6  C4  PXY d   1       0.797  -1.278   2.425  0.00  0.00    -0.082 A 
ATOM      7  C5  PXY d   1       0.091  -2.418   2.272  0.00  0.00     0.003 A 
ATOM      8  C6  PXY d   1       0.581  -3.411   1.428  0.00  0.00     0.003 A 
ENDROOT
TORSDOF 0
ENDMDL
