MODEL 1
REMARK minimizedAffinity 3.82299829
REMARK minimizedRMSD -1
REMARK  0 active torsions:
REMARK  status: ('A' for Active; 'I' for Inactive)
ROOT
ATOM      1  C4' PXY d   1       0.320   4.939  -5.965  0.00  0.00     0.077 C 
ATOM      2  C1' PXY d   1       5.994   4.898  -4.859  0.00  0.00     0.077 C 
ATOM      3  C1  PXY d   1       4.507   4.899  -5.158  0.00  0.00    -0.082 A 
ATOM      4  C2  PXY d   1       3.795   5.990  -4.927  0.00  0.00     0.003 A 
ATOM      5  C3  PXY d   1       2.444   5.998  -5.162  0.00  0.00     0.003 A 
ATOM      6  C4  PXY d   1       1.825   4.895  -5.687  0.00  0.00    -0.082 A 
ATOM      7  C5  PXY d   1       2.547   3.782  -5.935  0.00  0.00     0.003 A 
ATOM      8  C6  PXY d   1       3.910   3.781  -5.652  0.00  0.00     0.003 A 
ENDROOT
TORSDOF 0
ENDMDL
