MODEL 1
REMARK minimizedAffinity 10.2865467
REMARK minimizedRMSD -1
REMARK  0 active torsions:
REMARK  status: ('A' for Active; 'I' for Inactive)
ROOT
ATOM      1  C4' PXY d   1      -0.738  -1.260  -1.242  0.00  0.00     0.077 C 
ATOM      2  C1' PXY d   1       3.705  -2.290   2.309  0.00  0.00     0.077 C 
ATOM      3  C1  PXY d   1       2.543  -2.030   1.370  0.00  0.00    -0.082 A 
ATOM      4  C2  PXY d   1       2.051  -0.807   1.262  0.00  0.00     0.003 A 
ATOM      5  C3  PXY d   1       0.979  -0.561   0.443  0.00  0.00     0.003 A 
ATOM      6  C4  PXY d   1       0.441  -1.566  -0.315  0.00  0.00    -0.082 A 
ATOM      7  C5  PXY d   1       0.945  -2.815  -0.218  0.00  0.00     0.003 A 
ATOM      8  C6  PXY d   1       2.006  -3.053   0.651  0.00  0.00     0.003 A 
ENDROOT
TORSDOF 0
ENDMDL
