MODEL 1
REMARK minimizedAffinity 6.52926445
REMARK minimizedRMSD -1
REMARK  0 active torsions:
REMARK  status: ('A' for Active; 'I' for Inactive)
ROOT
ATOM      1  C4' PXY d   1       4.543  -3.181   3.901  0.00  0.00     0.077 C 
ATOM      2  C1' PXY d   1       0.954  -1.439  -0.283  0.00  0.00     0.077 C 
ATOM      3  C1  PXY d   1       1.897  -1.907   0.808  0.00  0.00    -0.082 A 
ATOM      4  C2  PXY d   1       1.825  -1.364   2.013  0.00  0.00     0.003 A 
ATOM      5  C3  PXY d   1       2.691  -1.753   3.002  0.00  0.00     0.003 A 
ATOM      6  C4  PXY d   1       3.605  -2.746   2.771  0.00  0.00    -0.082 A 
ATOM      7  C5  PXY d   1       3.678  -3.312   1.548  0.00  0.00     0.003 A 
ATOM      8  C6  PXY d   1       2.817  -2.875   0.546  0.00  0.00     0.003 A 
ENDROOT
TORSDOF 0
ENDMDL
