MODEL 1
REMARK minimizedAffinity 14.0637178
REMARK minimizedRMSD -1
REMARK  0 active torsions:
REMARK  status: ('A' for Active; 'I' for Inactive)
ROOT
ATOM      1  C4' PXY d   1       0.788   0.421   3.027  0.00  0.00     0.077 C 
ATOM      2  C1' PXY d   1       2.184  -4.299  -0.004  0.00  0.00     0.077 C 
ATOM      3  C1  PXY d   1       1.808  -3.058   0.782  0.00  0.00    -0.082 A 
ATOM      4  C2  PXY d   1       2.723  -2.449   1.519  0.00  0.00     0.003 A 
ATOM      5  C3  PXY d   1       2.392  -1.345   2.262  0.00  0.00     0.003 A 
ATOM      6  C4  PXY d   1       1.125  -0.828   2.209  0.00  0.00    -0.082 A 
ATOM      7  C5  PXY d   1       0.189  -1.439   1.452  0.00  0.00     0.003 A 
ATOM      8  C6  PXY d   1       0.534  -2.582   0.738  0.00  0.00     0.003 A 
ENDROOT
TORSDOF 0
ENDMDL
