MODEL 1
REMARK minimizedAffinity 16.0812607
REMARK minimizedRMSD -1
REMARK  0 active torsions:
REMARK  status: ('A' for Active; 'I' for Inactive)
ROOT
ATOM      1  C4' PXY d   1      -5.513   1.390  -5.214  0.00  0.00     0.077 C 
ATOM      2  C1' PXY d   1      -0.040   3.058  -4.385  0.00  0.00     0.077 C 
ATOM      3  C1  PXY d   1      -1.478   2.623  -4.590  0.00  0.00    -0.082 A 
ATOM      4  C2  PXY d   1      -1.778   1.803  -5.584  0.00  0.00     0.003 A 
ATOM      5  C3  PXY d   1      -3.078   1.425  -5.804  0.00  0.00     0.003 A 
ATOM      6  C4  PXY d   1      -4.073   1.848  -4.964  0.00  0.00    -0.082 A 
ATOM      7  C5  PXY d   1      -3.774   2.676  -3.941  0.00  0.00     0.003 A 
ATOM      8  C6  PXY d   1      -2.454   3.081  -3.760  0.00  0.00     0.003 A 
ENDROOT
TORSDOF 0
ENDMDL
