MODEL 1
REMARK minimizedAffinity 6.79575348
REMARK minimizedRMSD -1
REMARK  0 active torsions:
REMARK  status: ('A' for Active; 'I' for Inactive)
ROOT
ATOM      1  C4' PXY d   1       6.000   4.872  -0.317  0.00  0.00     0.077 C 
ATOM      2  C1' PXY d   1       5.974  -0.814   0.726  0.00  0.00     0.077 C 
ATOM      3  C1  PXY d   1       5.986   0.675   0.440  0.00  0.00    -0.082 A 
ATOM      4  C2  PXY d   1       6.000   1.534   1.447  0.00  0.00     0.003 A 
ATOM      5  C3  PXY d   1       5.979   2.884   1.207  0.00  0.00     0.003 A 
ATOM      6  C4  PXY d   1       5.997   3.360  -0.076  0.00  0.00    -0.082 A 
ATOM      7  C5  PXY d   1       5.993   2.490  -1.109  0.00  0.00     0.003 A 
ATOM      8  C6  PXY d   1       5.973   1.123  -0.844  0.00  0.00     0.003 A 
ENDROOT
TORSDOF 0
ENDMDL
