MODEL 1
REMARK minimizedAffinity 5.89990044
REMARK minimizedRMSD -1
REMARK  0 active torsions:
REMARK  status: ('A' for Active; 'I' for Inactive)
ROOT
ATOM      1  C4' PXY d   1       5.929   4.799  -5.939  0.00  0.00     0.077 C 
ATOM      2  C1' PXY d   1       0.148   4.773  -5.977  0.00  0.00     0.077 C 
ATOM      3  C1  PXY d   1       1.664   4.792  -5.972  0.00  0.00    -0.082 A 
ATOM      4  C2  PXY d   1       2.333   3.650  -5.994  0.00  0.00     0.003 A 
ATOM      5  C3  PXY d   1       3.703   3.648  -5.958  0.00  0.00     0.003 A 
ATOM      6  C4  PXY d   1       4.398   4.828  -5.952  0.00  0.00    -0.082 A 
ATOM      7  C5  PXY d   1       3.723   5.997  -5.940  0.00  0.00     0.003 A 
ATOM      8  C6  PXY d   1       2.331   5.977  -5.936  0.00  0.00     0.003 A 
ENDROOT
TORSDOF 0
ENDMDL
