MODEL 1
REMARK minimizedAffinity 6.68205357
REMARK minimizedRMSD -1
REMARK  0 active torsions:
REMARK  status: ('A' for Active; 'I' for Inactive)
ROOT
ATOM      1  C4' PXY d   1       5.962  -0.894   0.671  0.00  0.00     0.077 C 
ATOM      2  C1' PXY d   1       5.995   4.872   0.253  0.00  0.00     0.077 C 
ATOM      3  C1  PXY d   1       5.992   3.361   0.374  0.00  0.00    -0.082 A 
ATOM      4  C2  PXY d   1       5.980   2.616  -0.720  0.00  0.00     0.003 A 
ATOM      5  C3  PXY d   1       5.945   1.249  -0.628  0.00  0.00     0.003 A 
ATOM      6  C4  PXY d   1       5.975   0.636   0.596  0.00  0.00    -0.082 A 
ATOM      7  C5  PXY d   1       5.998   1.388   1.717  0.00  0.00     0.003 A 
ATOM      8  C6  PXY d   1       5.991   2.775   1.602  0.00  0.00     0.003 A 
ENDROOT
TORSDOF 0
ENDMDL
