MODEL 1
REMARK minimizedAffinity 20.0235119
REMARK minimizedRMSD -1
REMARK  0 active torsions:
REMARK  status: ('A' for Active; 'I' for Inactive)
ROOT
ATOM      1  C4' PXY d   1      -5.773   3.346  -5.943  0.00  0.00     0.077 C 
ATOM      2  C1' PXY d   1      -3.675  -0.125  -1.825  0.00  0.00     0.077 C 
ATOM      3  C1  PXY d   1      -4.232   0.775  -2.909  0.00  0.00    -0.082 A 
ATOM      4  C2  PXY d   1      -3.544   1.837  -3.296  0.00  0.00     0.003 A 
ATOM      5  C3  PXY d   1      -4.048   2.680  -4.253  0.00  0.00     0.003 A 
ATOM      6  C4  PXY d   1      -5.244   2.404  -4.858  0.00  0.00    -0.082 A 
ATOM      7  C5  PXY d   1      -5.948   1.317  -4.477  0.00  0.00     0.003 A 
ATOM      8  C6  PXY d   1      -5.438   0.496  -3.474  0.00  0.00     0.003 A 
ENDROOT
TORSDOF 0
ENDMDL
