MODEL 1
REMARK minimizedAffinity 13.1723499
REMARK minimizedRMSD -1
REMARK  0 active torsions:
REMARK  status: ('A' for Active; 'I' for Inactive)
ROOT
ATOM      1  C4' PXY d   1       5.370   5.887  -5.934  0.00  0.00     0.077 C 
ATOM      2  C1' PXY d   1       0.330   3.786  -4.038  0.00  0.00     0.077 C 
ATOM      3  C1  PXY d   1       1.646   4.343  -4.545  0.00  0.00    -0.082 A 
ATOM      4  C2  PXY d   1       2.781   3.756  -4.201  0.00  0.00     0.003 A 
ATOM      5  C3  PXY d   1       3.981   4.265  -4.625  0.00  0.00     0.003 A 
ATOM      6  C4  PXY d   1       4.018   5.354  -5.453  0.00  0.00    -0.082 A 
ATOM      7  C5  PXY d   1       2.864   5.952  -5.818  0.00  0.00     0.003 A 
ATOM      8  C6  PXY d   1       1.658   5.445  -5.344  0.00  0.00     0.003 A 
ENDROOT
TORSDOF 0
ENDMDL
