MODEL 1
REMARK minimizedAffinity 2.44092345
REMARK minimizedRMSD -1
REMARK  1 active torsions:
REMARK  status: ('A' for Active; 'I' for Inactive)
REMARK    1  A    between atoms: C1_2  and  C2_3 
ROOT
ATOM      1  C2  UNL d   1       3.356   0.863  -1.529  0.00  0.00    -0.073 A 
ATOM      2  C3  UNL d   1       3.545   0.385  -2.831  0.00  0.00    -0.002 A 
ATOM      3  C4  UNL d   1       3.005  -0.843  -3.216  0.00  0.00     0.004 A 
ATOM      4  C5  UNL d   1       2.265  -1.600  -2.308  0.00  0.00    -0.004 A 
ATOM      5  C6  UNL d   1       2.055  -1.134  -1.007  0.00  0.00    -0.075 A 
ATOM      6  C7  UNL d   1       1.264  -1.938  -0.017  0.00  0.00     0.076 C 
ATOM      7  C8  UNL d   1       2.603   0.098  -0.626  0.00  0.00     0.001 A 
ENDROOT
BRANCH   1   8
ATOM      8  C1  UNL d   1       3.931   2.191  -1.110  0.00  0.00     0.053 C 
ATOM      9  C   UNL d   1       5.411   2.301  -1.442  0.00  0.00     0.018 C 
ENDBRANCH   1   8
TORSDOF 1
ENDMDL
