MODEL 1
REMARK minimizedAffinity -0.954518437
REMARK minimizedRMSD -1
REMARK  1 active torsions:
REMARK  status: ('A' for Active; 'I' for Inactive)
REMARK    1  A    between atoms: C1_2  and  C2_3 
ROOT
ATOM      1  C2  UNL d   1       3.711   0.794  -1.225  0.00  0.00    -0.073 A 
ATOM      2  C3  UNL d   1       3.294  -0.542  -1.188  0.00  0.00    -0.002 A 
ATOM      3  C4  UNL d   1       2.179  -0.912  -0.435  0.00  0.00     0.004 A 
ATOM      4  C5  UNL d   1       1.467   0.049   0.283  0.00  0.00    -0.004 A 
ATOM      5  C6  UNL d   1       1.861   1.390   0.250  0.00  0.00    -0.075 A 
ATOM      6  C7  UNL d   1       1.107   2.435   1.018  0.00  0.00     0.076 C 
ATOM      7  C8  UNL d   1       2.983   1.754  -0.507  0.00  0.00     0.001 A 
ENDROOT
BRANCH   1   8
ATOM      8  C1  UNL d   1       4.910   1.199  -2.042  0.00  0.00     0.053 C 
ATOM      9  C   UNL d   1       5.422   2.579  -1.658  0.00  0.00     0.018 C 
ENDBRANCH   1   8
TORSDOF 1
ENDMDL
