MODEL 1
REMARK minimizedAffinity -1.66444862
REMARK minimizedRMSD -1
REMARK  1 active torsions:
REMARK  status: ('A' for Active; 'I' for Inactive)
REMARK    1  A    between atoms: C1_2  and  C2_3 
ROOT
ATOM      1  C2  UNL d   1       3.227   0.503  -1.522  0.00  0.00    -0.073 A 
ATOM      2  C3  UNL d   1       2.553  -0.719  -1.627  0.00  0.00    -0.002 A 
ATOM      3  C4  UNL d   1       1.527  -1.036  -0.736  0.00  0.00     0.004 A 
ATOM      4  C5  UNL d   1       1.160  -0.134   0.262  0.00  0.00    -0.004 A 
ATOM      5  C6  UNL d   1       1.814   1.097   0.375  0.00  0.00    -0.075 A 
ATOM      6  C7  UNL d   1       1.432   2.078   1.445  0.00  0.00     0.076 C 
ATOM      7  C8  UNL d   1       2.845   1.407  -0.521  0.00  0.00     0.001 A 
ENDROOT
BRANCH   1   8
ATOM      8  C1  UNL d   1       4.332   0.853  -2.486  0.00  0.00     0.053 C 
ATOM      9  C   UNL d   1       4.207   0.092  -3.796  0.00  0.00     0.018 C 
ENDBRANCH   1   8
TORSDOF 1
ENDMDL
