MODEL 1
REMARK minimizedAffinity 4.76887369
REMARK minimizedRMSD -1
REMARK  1 active torsions:
REMARK  status: ('A' for Active; 'I' for Inactive)
REMARK    1  A    between atoms: C1_2  and  C2_3 
ROOT
ATOM      1  C2  UNL d   1       3.471   1.520  -0.698  0.00  0.00    -0.073 A 
ATOM      2  C3  UNL d   1       3.991   1.521  -1.997  0.00  0.00    -0.002 A 
ATOM      3  C4  UNL d   1       5.150   2.239  -2.293  0.00  0.00     0.004 A 
ATOM      4  C5  UNL d   1       5.805   2.957  -1.292  0.00  0.00    -0.004 A 
ATOM      5  C6  UNL d   1       5.308   2.959   0.015  0.00  0.00    -0.075 A 
ATOM      6  C7  UNL d   1       5.999   3.728   1.102  0.00  0.00     0.076 C 
ATOM      7  C8  UNL d   1       4.142   2.237   0.303  0.00  0.00     0.001 A 
ENDROOT
BRANCH   1   8
ATOM      8  C1  UNL d   1       2.223   0.740  -0.373  0.00  0.00     0.053 C 
ATOM      9  C   UNL d   1       1.904  -0.295  -1.440  0.00  0.00     0.018 C 
ENDBRANCH   1   8
TORSDOF 1
ENDMDL
