MODEL 1
REMARK minimizedAffinity 2.0698247
REMARK minimizedRMSD -1
REMARK  1 active torsions:
REMARK  status: ('A' for Active; 'I' for Inactive)
REMARK    1  A    between atoms: C1_2  and  C2_3 
ROOT
ATOM      1  C2  UNL d   1       1.388   0.964   0.222  0.00  0.00    -0.073 A 
ATOM      2  C3  UNL d   1       1.128  -0.343  -0.205  0.00  0.00    -0.002 A 
ATOM      3  C4  UNL d   1       2.086  -1.052  -0.931  0.00  0.00     0.004 A 
ATOM      4  C5  UNL d   1       3.315  -0.465  -1.231  0.00  0.00    -0.004 A 
ATOM      5  C6  UNL d   1       3.599   0.836  -0.803  0.00  0.00    -0.075 A 
ATOM      6  C7  UNL d   1       4.915   1.483  -1.119  0.00  0.00     0.076 C 
ATOM      7  C8  UNL d   1       2.630   1.542  -0.077  0.00  0.00     0.001 A 
ENDROOT
BRANCH   1   8
ATOM      8  C1  UNL d   1       0.359   1.731   1.011  0.00  0.00     0.053 C 
ATOM      9  C   UNL d   1       0.529   1.537   2.510  0.00  0.00     0.018 C 
ENDBRANCH   1   8
TORSDOF 1
ENDMDL
