MODEL 1
REMARK minimizedAffinity 6.13103485
REMARK minimizedRMSD -1
REMARK  1 active torsions:
REMARK  status: ('A' for Active; 'I' for Inactive)
REMARK    1  A    between atoms: C1_2  and  C2_3 
ROOT
ATOM      1  C2  UNL d   1       2.724   0.273  -0.553  0.00  0.00    -0.073 A 
ATOM      2  C3  UNL d   1       1.869   1.305  -0.148  0.00  0.00    -0.002 A 
ATOM      3  C4  UNL d   1       2.352   2.607  -0.009  0.00  0.00     0.004 A 
ATOM      4  C5  UNL d   1       3.690   2.892  -0.279  0.00  0.00    -0.004 A 
ATOM      5  C6  UNL d   1       4.557   1.877  -0.697  0.00  0.00    -0.075 A 
ATOM      6  C7  UNL d   1       6.000   2.167  -0.990  0.00  0.00     0.076 C 
ATOM      7  C8  UNL d   1       4.065   0.572  -0.831  0.00  0.00     0.001 A 
ENDROOT
BRANCH   1   8
ATOM      8  C1  UNL d   1       2.206  -1.133  -0.711  0.00  0.00     0.053 C 
ATOM      9  C   UNL d   1       2.261  -1.602  -2.156  0.00  0.00     0.018 C 
ENDBRANCH   1   8
TORSDOF 1
ENDMDL
