MODEL 1
REMARK minimizedAffinity 14.1410799
REMARK minimizedRMSD -1
REMARK  1 active torsions:
REMARK  status: ('A' for Active; 'I' for Inactive)
REMARK    1  A    between atoms: C1_2  and  C2_3 
ROOT
ATOM      1  C2  UNL d   1       3.471   2.205  -0.261  0.00  0.00    -0.073 A 
ATOM      2  C3  UNL d   1       4.128   2.717   0.863  0.00  0.00    -0.002 A 
ATOM      3  C4  UNL d   1       5.388   3.304   0.736  0.00  0.00     0.004 A 
ATOM      4  C5  UNL d   1       6.000   3.390  -0.514  0.00  0.00    -0.004 A 
ATOM      5  C6  UNL d   1       5.354   2.894  -1.651  0.00  0.00    -0.075 A 
ATOM      6  C7  UNL d   1       5.999   2.977  -3.003  0.00  0.00     0.076 C 
ATOM      7  C8  UNL d   1       4.090   2.304  -1.516  0.00  0.00     0.001 A 
ENDROOT
BRANCH   1   8
ATOM      8  C1  UNL d   1       2.108   1.576  -0.131  0.00  0.00     0.053 C 
ATOM      9  C   UNL d   1       1.853   0.537  -1.211  0.00  0.00     0.018 C 
ENDBRANCH   1   8
TORSDOF 1
ENDMDL
