MODEL 1
REMARK minimizedAffinity 17.012207
REMARK minimizedRMSD -1
REMARK  0 active torsions:
REMARK  status: ('A' for Active; 'I' for Inactive)
ROOT
ATOM      1  N1  IND d   1      -1.653   2.269  -3.374  0.00  0.00    -0.196 N 
ATOM      2  C2  IND d   1      -1.067   2.582  -2.179  0.00  0.00     0.054 A 
ATOM      3  C3  IND d   1      -0.930   3.921  -2.059  0.00  0.00    -0.031 A 
ATOM      4  C4  IND d   1      -1.690   5.793  -3.654  0.00  0.00     0.051 A 
ATOM      5  C5  IND d   1      -2.239   6.000  -4.888  0.00  0.00    -0.031 A 
ATOM      6  C6  IND d   1      -2.632   4.952  -5.696  0.00  0.00     0.015 A 
ATOM      7  C7  IND d   1      -2.499   3.653  -5.293  0.00  0.00    -0.016 A 
ATOM      8  C8  IND d   1      -1.935   3.440  -4.043  0.00  0.00    -0.047 A 
ATOM      9  C9  IND d   1      -1.496   4.498  -3.237  0.00  0.00    -0.096 A 
ATOM     10  HN1 IND d   1      -1.818   1.475  -3.660  0.00  0.00     0.298 HD
ENDROOT
TORSDOF 0
ENDMDL
