MODEL 1
REMARK minimizedAffinity 6.98787165
REMARK minimizedRMSD -1
REMARK  0 active torsions:
REMARK  status: ('A' for Active; 'I' for Inactive)
ROOT
ATOM      1  N1  IND d   1       1.492  -0.271   3.171  0.00  0.00    -0.196 N 
ATOM      2  C2  IND d   1       2.432  -0.645   2.252  0.00  0.00     0.054 A 
ATOM      3  C3  IND d   1       1.957  -1.642   1.472  0.00  0.00    -0.031 A 
ATOM      4  C4  IND d   1      -0.370  -2.742   1.461  0.00  0.00     0.051 A 
ATOM      5  C5  IND d   1      -1.557  -2.760   2.140  0.00  0.00    -0.031 A 
ATOM      6  C6  IND d   1      -1.793  -1.931   3.217  0.00  0.00     0.015 A 
ATOM      7  C7  IND d   1      -0.852  -1.040   3.650  0.00  0.00    -0.016 A 
ATOM      8  C8  IND d   1       0.356  -1.024   2.968  0.00  0.00    -0.047 A 
ATOM      9  C9  IND d   1       0.618  -1.893   1.901  0.00  0.00    -0.096 A 
ATOM     10  HN1 IND d   1       1.592   0.334   3.774  0.00  0.00     0.298 HD
ENDROOT
TORSDOF 0
ENDMDL
