MODEL 1
REMARK minimizedAffinity 24.8191185
REMARK minimizedRMSD -1
REMARK  0 active torsions:
REMARK  status: ('A' for Active; 'I' for Inactive)
ROOT
ATOM      1  N1  IND d   1       2.660  -1.685   1.640  0.00  0.00    -0.196 N 
ATOM      2  C2  IND d   1       3.172  -0.569   2.241  0.00  0.00     0.054 A 
ATOM      3  C3  IND d   1       2.180   0.159   2.802  0.00  0.00    -0.031 A 
ATOM      4  C4  IND d   1      -0.341  -0.344   2.942  0.00  0.00     0.051 A 
ATOM      5  C5  IND d   1      -1.288  -1.228   2.508  0.00  0.00    -0.031 A 
ATOM      6  C6  IND d   1      -0.961  -2.334   1.750  0.00  0.00     0.015 A 
ATOM      7  C7  IND d   1       0.333  -2.604   1.405  0.00  0.00    -0.016 A 
ATOM      8  C8  IND d   1       1.297  -1.704   1.838  0.00  0.00    -0.047 A 
ATOM      9  C9  IND d   1       0.966  -0.557   2.571  0.00  0.00    -0.096 A 
ATOM     10  HN1 IND d   1       3.114  -2.276   1.210  0.00  0.00     0.298 HD
ENDROOT
TORSDOF 0
ENDMDL
