MODEL 1
REMARK minimizedAffinity 26.2870731
REMARK minimizedRMSD -1
REMARK  0 active torsions:
REMARK  status: ('A' for Active; 'I' for Inactive)
ROOT
ATOM      1  N1  IND d   1       3.629   1.387   2.982  0.00  0.00    -0.196 N 
ATOM      2  C2  IND d   1       4.225   1.237   1.761  0.00  0.00     0.054 A 
ATOM      3  C3  IND d   1       3.482   0.431   0.970  0.00  0.00    -0.031 A 
ATOM      4  C4  IND d   1       1.202  -0.669   1.439  0.00  0.00     0.051 A 
ATOM      5  C5  IND d   1       0.278  -0.853   2.428  0.00  0.00    -0.031 A 
ATOM      6  C6  IND d   1       0.424  -0.285   3.677  0.00  0.00     0.015 A 
ATOM      7  C7  IND d   1       1.500   0.500   3.981  0.00  0.00    -0.016 A 
ATOM      8  C8  IND d   1       2.445   0.683   2.981  0.00  0.00    -0.047 A 
ATOM      9  C9  IND d   1       2.323   0.074   1.725  0.00  0.00    -0.096 A 
ATOM     10  HN1 IND d   1       3.940   1.845   3.640  0.00  0.00     0.298 HD
ENDROOT
TORSDOF 0
ENDMDL
