MODEL 1
REMARK minimizedAffinity 10.6393394
REMARK minimizedRMSD -1
REMARK  0 active torsions:
REMARK  status: ('A' for Active; 'I' for Inactive)
ROOT
ATOM      1  N1  IND d   1      -0.004  -0.216   3.846  0.00  0.00    -0.196 N 
ATOM      2  C2  IND d   1      -0.809  -0.865   2.953  0.00  0.00     0.054 A 
ATOM      3  C3  IND d   1      -0.077  -1.349   1.925  0.00  0.00    -0.031 A 
ATOM      4  C4  IND d   1       2.470  -1.282   1.556  0.00  0.00     0.051 A 
ATOM      5  C5  IND d   1       3.621  -0.767   2.083  0.00  0.00    -0.031 A 
ATOM      6  C6  IND d   1       3.624  -0.029   3.249  0.00  0.00     0.015 A 
ATOM      7  C7  IND d   1       2.471   0.212   3.941  0.00  0.00    -0.016 A 
ATOM      8  C8  IND d   1       1.299  -0.303   3.406  0.00  0.00    -0.047 A 
ATOM      9  C9  IND d   1       1.285  -1.016   2.200  0.00  0.00    -0.096 A 
ATOM     10  HN1 IND d   1      -0.266   0.180   4.563  0.00  0.00     0.298 HD
ENDROOT
TORSDOF 0
ENDMDL
