MODEL 1
REMARK minimizedAffinity 18.9740486
REMARK minimizedRMSD -1
REMARK  0 active torsions:
REMARK  status: ('A' for Active; 'I' for Inactive)
ROOT
ATOM      1  N1  IND d   1      -3.209   2.744  -4.654  0.00  0.00    -0.196 N 
ATOM      2  C2  IND d   1      -3.000   3.235  -5.913  0.00  0.00     0.054 A 
ATOM      3  C3  IND d   1      -2.596   4.524  -5.854  0.00  0.00    -0.031 A 
ATOM      4  C4  IND d   1      -2.111   5.994  -3.797  0.00  0.00     0.051 A 
ATOM      5  C5  IND d   1      -2.192   5.998  -2.433  0.00  0.00    -0.031 A 
ATOM      6  C6  IND d   1      -2.621   4.894  -1.725  0.00  0.00     0.015 A 
ATOM      7  C7  IND d   1      -2.977   3.737  -2.357  0.00  0.00    -0.016 A 
ATOM      8  C8  IND d   1      -2.904   3.731  -3.743  0.00  0.00    -0.047 A 
ATOM      9  C9  IND d   1      -2.509   4.862  -4.469  0.00  0.00    -0.096 A 
ATOM     10  HN1 IND d   1      -3.485   1.953  -4.463  0.00  0.00     0.298 HD
ENDROOT
TORSDOF 0
ENDMDL
