MODEL 1
REMARK minimizedAffinity 16.9197903
REMARK minimizedRMSD -1
REMARK  0 active torsions:
REMARK  status: ('A' for Active; 'I' for Inactive)
ROOT
ATOM      1  N1  IND d   1       2.462  -1.851   0.941  0.00  0.00    -0.196 N 
ATOM      2  C2  IND d   1       3.303  -0.820   1.254  0.00  0.00     0.054 A 
ATOM      3  C3  IND d   1       2.744  -0.025   2.193  0.00  0.00    -0.031 A 
ATOM      4  C4  IND d   1       0.501  -0.284   3.431  0.00  0.00     0.051 A 
ATOM      5  C5  IND d   1      -0.631  -1.049   3.461  0.00  0.00    -0.031 A 
ATOM      6  C6  IND d   1      -0.791  -2.145   2.637  0.00  0.00     0.015 A 
ATOM      7  C7  IND d   1       0.183  -2.524   1.758  0.00  0.00    -0.016 A 
ATOM      8  C8  IND d   1       1.330  -1.745   1.720  0.00  0.00    -0.047 A 
ATOM      9  C9  IND d   1       1.481  -0.607   2.523  0.00  0.00    -0.096 A 
ATOM     10  HN1 IND d   1       2.614  -2.463   0.356  0.00  0.00     0.298 HD
ENDROOT
TORSDOF 0
ENDMDL
