MODEL 1
REMARK minimizedAffinity 22.7898808
REMARK minimizedRMSD -1
REMARK  0 active torsions:
REMARK  status: ('A' for Active; 'I' for Inactive)
ROOT
ATOM      1  N1  IND d   1       3.461  -5.087   5.956  0.00  0.00    -0.196 N 
ATOM      2  C2  IND d   1       4.750  -5.541   6.000  0.00  0.00     0.054 A 
ATOM      3  C3  IND d   1       5.129  -5.997   4.785  0.00  0.00    -0.031 A 
ATOM      4  C4  IND d   1       3.833  -5.999   2.561  0.00  0.00     0.051 A 
ATOM      5  C5  IND d   1       2.606  -5.719   2.029  0.00  0.00    -0.031 A 
ATOM      6  C6  IND d   1       1.581  -5.200   2.794  0.00  0.00     0.015 A 
ATOM      7  C7  IND d   1       1.750  -4.931   4.123  0.00  0.00    -0.016 A 
ATOM      8  C8  IND d   1       2.992  -5.221   4.668  0.00  0.00    -0.047 A 
ATOM      9  C9  IND d   1       4.023  -5.787   3.906  0.00  0.00    -0.096 A 
ATOM     10  HN1 IND d   1       3.018  -4.770   6.621  0.00  0.00     0.298 HD
ENDROOT
TORSDOF 0
ENDMDL
