MODEL 1
REMARK minimizedAffinity 24.5313282
REMARK minimizedRMSD -1
REMARK  0 active torsions:
REMARK  status: ('A' for Active; 'I' for Inactive)
ROOT
ATOM      1  N1  IND d   1       3.753   1.338   3.024  0.00  0.00    -0.196 N 
ATOM      2  C2  IND d   1       4.221   1.222   1.745  0.00  0.00     0.054 A 
ATOM      3  C3  IND d   1       3.334   0.547   0.979  0.00  0.00    -0.031 A 
ATOM      4  C4  IND d   1       1.008  -0.370   1.593  0.00  0.00     0.051 A 
ATOM      5  C5  IND d   1       0.161  -0.537   2.653  0.00  0.00    -0.031 A 
ATOM      6  C6  IND d   1       0.474  -0.076   3.916  0.00  0.00     0.015 A 
ATOM      7  C7  IND d   1       1.645   0.582   4.164  0.00  0.00    -0.016 A 
ATOM      8  C8  IND d   1       2.510   0.748   3.092  0.00  0.00    -0.047 A 
ATOM      9  C9  IND d   1       2.217   0.245   1.817  0.00  0.00    -0.096 A 
ATOM     10  HN1 IND d   1       4.166   1.717   3.676  0.00  0.00     0.298 HD
ENDROOT
TORSDOF 0
ENDMDL
