MODEL 1
REMARK minimizedAffinity 8.15606499
REMARK minimizedRMSD -1
REMARK  0 active torsions:
REMARK  status: ('A' for Active; 'I' for Inactive)
ROOT
ATOM      1  N1  IND d   1      -1.235  -1.691   3.633  0.00  0.00    -0.196 N 
ATOM      2  C2  IND d   1      -1.831  -2.847   3.210  0.00  0.00     0.054 A 
ATOM      3  C3  IND d   1      -1.101  -3.419   2.226  0.00  0.00    -0.031 A 
ATOM      4  C4  IND d   1       1.156  -2.687   1.227  0.00  0.00     0.051 A 
ATOM      5  C5  IND d   1       2.074  -1.675   1.266  0.00  0.00    -0.031 A 
ATOM      6  C6  IND d   1       1.934  -0.596   2.115  0.00  0.00     0.015 A 
ATOM      7  C7  IND d   1       0.872  -0.495   2.969  0.00  0.00    -0.016 A 
ATOM      8  C8  IND d   1      -0.065  -1.517   2.927  0.00  0.00    -0.047 A 
ATOM      9  C9  IND d   1       0.049  -2.593   2.037  0.00  0.00    -0.096 A 
ATOM     10  HN1 IND d   1      -1.540  -1.162   4.238  0.00  0.00     0.298 HD
ENDROOT
TORSDOF 0
ENDMDL
