MODEL 1
REMARK minimizedAffinity 21.2009602
REMARK minimizedRMSD -1
REMARK  0 active torsions:
REMARK  status: ('A' for Active; 'I' for Inactive)
ROOT
ATOM      1  N1  IND d   1      -1.883   5.999  -5.046  0.00  0.00    -0.196 N 
ATOM      2  C2  IND d   1      -1.733   5.026  -5.994  0.00  0.00     0.054 A 
ATOM      3  C3  IND d   1      -2.105   3.825  -5.498  0.00  0.00    -0.031 A 
ATOM      4  C4  IND d   1      -3.086   3.242  -3.190  0.00  0.00     0.051 A 
ATOM      5  C5  IND d   1      -3.375   3.791  -1.972  0.00  0.00    -0.031 A 
ATOM      6  C6  IND d   1      -3.180   5.132  -1.713  0.00  0.00     0.015 A 
ATOM      7  C7  IND d   1      -2.697   5.980  -2.669  0.00  0.00    -0.016 A 
ATOM      8  C8  IND d   1      -2.396   5.424  -3.905  0.00  0.00    -0.047 A 
ATOM      9  C9  IND d   1      -2.551   4.056  -4.161  0.00  0.00    -0.096 A 
ATOM     10  HN1 IND d   1      -1.689   6.831  -5.146  0.00  0.00     0.298 HD
ENDROOT
TORSDOF 0
ENDMDL
