MODEL 1
REMARK minimizedAffinity 15.4998016
REMARK minimizedRMSD -1
REMARK  0 active torsions:
REMARK  status: ('A' for Active; 'I' for Inactive)
ROOT
ATOM      1  N1  IND d   1       3.986   0.168   3.426  0.00  0.00    -0.196 N 
ATOM      2  C2  IND d   1       4.527  -0.251   2.243  0.00  0.00     0.054 A 
ATOM      3  C3  IND d   1       3.604  -0.917   1.513  0.00  0.00    -0.031 A 
ATOM      4  C4  IND d   1       1.118  -1.350   2.023  0.00  0.00     0.051 A 
ATOM      5  C5  IND d   1       0.175  -1.191   2.999  0.00  0.00    -0.031 A 
ATOM      6  C6  IND d   1       0.460  -0.556   4.191  0.00  0.00     0.015 A 
ATOM      7  C7  IND d   1       1.700  -0.044   4.447  0.00  0.00    -0.016 A 
ATOM      8  C8  IND d   1       2.662  -0.209   3.461  0.00  0.00    -0.047 A 
ATOM      9  C9  IND d   1       2.391  -0.890   2.267  0.00  0.00    -0.096 A 
ATOM     10  HN1 IND d   1       4.403   0.595   4.045  0.00  0.00     0.298 HD
ENDROOT
TORSDOF 0
ENDMDL
