MODEL 1
REMARK minimizedAffinity 9.72646141
REMARK minimizedRMSD -1
REMARK  0 active torsions:
REMARK  status: ('A' for Active; 'I' for Inactive)
ROOT
ATOM      1  N1  IND d   1       3.845   0.667   3.690  0.00  0.00    -0.196 N 
ATOM      2  C2  IND d   1       4.204   0.447   2.389  0.00  0.00     0.054 A 
ATOM      3  C3  IND d   1       3.207  -0.183   1.727  0.00  0.00    -0.031 A 
ATOM      4  C4  IND d   1       0.864  -0.855   2.553  0.00  0.00     0.051 A 
ATOM      5  C5  IND d   1       0.088  -0.894   3.677  0.00  0.00    -0.031 A 
ATOM      6  C6  IND d   1       0.533  -0.402   4.887  0.00  0.00     0.015 A 
ATOM      7  C7  IND d   1       1.771   0.160   5.015  0.00  0.00    -0.016 A 
ATOM      8  C8  IND d   1       2.564   0.195   3.877  0.00  0.00    -0.047 A 
ATOM      9  C9  IND d   1       2.135  -0.342   2.657  0.00  0.00    -0.096 A 
ATOM     10  HN1 IND d   1       4.336   1.038   4.290  0.00  0.00     0.298 HD
ENDROOT
TORSDOF 0
ENDMDL
