MODEL 1
REMARK minimizedAffinity 6.76399708
REMARK minimizedRMSD -1
REMARK  0 active torsions:
REMARK  status: ('A' for Active; 'I' for Inactive)
ROOT
ATOM      1  N1  IND d   1       1.247  -0.449   2.873  0.00  0.00    -0.196 N 
ATOM      2  C2  IND d   1       1.553  -0.907   1.622  0.00  0.00     0.054 A 
ATOM      3  C3  IND d   1       0.778  -1.969   1.307  0.00  0.00    -0.031 A 
ATOM      4  C4  IND d   1      -1.126  -3.060   2.652  0.00  0.00     0.051 A 
ATOM      5  C5  IND d   1      -1.751  -3.014   3.867  0.00  0.00    -0.031 A 
ATOM      6  C6  IND d   1      -1.403  -2.091   4.831  0.00  0.00     0.015 A 
ATOM      7  C7  IND d   1      -0.420  -1.167   4.611  0.00  0.00    -0.016 A 
ATOM      8  C8  IND d   1       0.220  -1.215   3.381  0.00  0.00    -0.047 A 
ATOM      9  C9  IND d   1      -0.099  -2.177   2.415  0.00  0.00    -0.096 A 
ATOM     10  HN1 IND d   1       1.630   0.207   3.275  0.00  0.00     0.298 HD
ENDROOT
TORSDOF 0
ENDMDL
