MODEL 1
REMARK minimizedAffinity 9.8778801
REMARK minimizedRMSD -1
REMARK  0 active torsions:
REMARK  status: ('A' for Active; 'I' for Inactive)
ROOT
ATOM      1  N1  IND d   1       2.034  -2.300   1.375  0.00  0.00    -0.196 N 
ATOM      2  C2  IND d   1       2.817  -1.193   1.552  0.00  0.00     0.054 A 
ATOM      3  C3  IND d   1       2.197  -0.302   2.358  0.00  0.00    -0.031 A 
ATOM      4  C4  IND d   1      -0.060  -0.497   3.581  0.00  0.00     0.051 A 
ATOM      5  C5  IND d   1      -1.154  -1.307   3.701  0.00  0.00    -0.031 A 
ATOM      6  C6  IND d   1      -1.242  -2.515   3.040  0.00  0.00     0.015 A 
ATOM      7  C7  IND d   1      -0.230  -2.965   2.240  0.00  0.00    -0.016 A 
ATOM      8  C8  IND d   1       0.880  -2.142   2.111  0.00  0.00    -0.047 A 
ATOM      9  C9  IND d   1       0.957  -0.896   2.746  0.00  0.00    -0.096 A 
ATOM     10  HN1 IND d   1       2.229  -2.980   0.886  0.00  0.00     0.298 HD
ENDROOT
TORSDOF 0
ENDMDL
