MODEL 1
REMARK minimizedAffinity 9.31486034
REMARK minimizedRMSD -1
REMARK  0 active torsions:
REMARK  status: ('A' for Active; 'I' for Inactive)
ROOT
ATOM      1  N1  IND d   1      -3.514  -3.873   0.377  0.00  0.00    -0.196 N 
ATOM      2  C2  IND d   1      -3.431  -4.998  -0.395  0.00  0.00     0.054 A 
ATOM      3  C3  IND d   1      -4.153  -6.000   0.154  0.00  0.00    -0.031 A 
ATOM      4  C4  IND d   1      -5.632  -5.986   2.261  0.00  0.00     0.051 A 
ATOM      5  C5  IND d   1      -5.995  -5.198   3.317  0.00  0.00    -0.031 A 
ATOM      6  C6  IND d   1      -5.542  -3.901   3.448  0.00  0.00     0.015 A 
ATOM      7  C7  IND d   1      -4.715  -3.337   2.518  0.00  0.00    -0.016 A 
ATOM      8  C8  IND d   1      -4.339  -4.137   1.448  0.00  0.00    -0.047 A 
ATOM      9  C9  IND d   1      -4.761  -5.467   1.332  0.00  0.00    -0.096 A 
ATOM     10  HN1 IND d   1      -3.118  -3.126   0.220  0.00  0.00     0.298 HD
ENDROOT
TORSDOF 0
ENDMDL
