MODEL 1
REMARK minimizedAffinity -2.73310447
REMARK minimizedRMSD -1
REMARK  0 active torsions:
REMARK  status: ('A' for Active; 'I' for Inactive)
ROOT
ATOM      1  C   UNL d   1      -1.001   0.885  -0.619  0.00  0.00     0.172 C 
ATOM      2  N   UNL d   1      -2.239   0.790   0.117  0.00  0.00    -0.070 N 
ATOM      3  C1  UNL d   1      -3.495   0.905  -0.415  0.00  0.00    -0.004 A 
ATOM      4  C2  UNL d   1      -4.404   0.756   0.610  0.00  0.00    -0.047 A 
ATOM      5  C3  UNL d   1      -3.668   0.545   1.800  0.00  0.00    -0.047 A 
ATOM      6  C4  UNL d   1      -2.331   0.571   1.466  0.00  0.00    -0.004 A 
ENDROOT
TORSDOF 0
ENDMDL
