MODEL 1
REMARK minimizedAffinity -2.55514956
REMARK minimizedRMSD -1
REMARK  0 active torsions:
REMARK  status: ('A' for Active; 'I' for Inactive)
ROOT
ATOM      1  C   UNL d   1       2.254  -1.443  -0.368  0.00  0.00     0.172 C 
ATOM      2  N   UNL d   1       1.037  -0.676  -0.243  0.00  0.00    -0.070 N 
ATOM      3  C1  UNL d   1      -0.178  -1.015  -0.776  0.00  0.00    -0.004 A 
ATOM      4  C2  UNL d   1      -1.078  -0.029  -0.434  0.00  0.00    -0.047 A 
ATOM      5  C3  UNL d   1      -0.380   0.936   0.331  0.00  0.00    -0.047 A 
ATOM      6  C4  UNL d   1       0.928   0.510   0.433  0.00  0.00    -0.004 A 
ENDROOT
TORSDOF 0
ENDMDL
