MODEL 1
REMARK minimizedAffinity -3.93398643
REMARK minimizedRMSD -1
REMARK  0 active torsions:
REMARK  status: ('A' for Active; 'I' for Inactive)
ROOT
ATOM      1  C   UNL d   1      -1.063   0.627  -0.097  0.00  0.00     0.172 C 
ATOM      2  N   UNL d   1       0.149  -0.057   0.287  0.00  0.00    -0.070 N 
ATOM      3  C1  UNL d   1       1.167   0.479   1.029  0.00  0.00    -0.004 A 
ATOM      4  C2  UNL d   1       2.136  -0.490   1.178  0.00  0.00    -0.047 A 
ATOM      5  C3  UNL d   1       1.685  -1.647   0.501  0.00  0.00    -0.047 A 
ATOM      6  C4  UNL d   1       0.453  -1.352  -0.042  0.00  0.00    -0.004 A 
ENDROOT
TORSDOF 0
ENDMDL
