MODEL 1
REMARK minimizedAffinity -1.66785514
REMARK minimizedRMSD -1
REMARK  0 active torsions:
REMARK  status: ('A' for Active; 'I' for Inactive)
ROOT
ATOM      1  C   UNL d   1       2.416  -2.118  -0.253  0.00  0.00     0.172 C 
ATOM      2  N   UNL d   1       1.226  -1.301  -0.289  0.00  0.00    -0.070 N 
ATOM      3  C1  UNL d   1      -0.035  -1.740  -0.592  0.00  0.00    -0.004 A 
ATOM      4  C2  UNL d   1      -0.888  -0.660  -0.516  0.00  0.00    -0.047 A 
ATOM      5  C3  UNL d   1      -0.113   0.467  -0.155  0.00  0.00    -0.047 A 
ATOM      6  C4  UNL d   1       1.192   0.042  -0.020  0.00  0.00    -0.004 A 
ENDROOT
TORSDOF 0
ENDMDL
