MODEL 1
REMARK minimizedAffinity -2.67940021
REMARK minimizedRMSD -1
REMARK  0 active torsions:
REMARK  status: ('A' for Active; 'I' for Inactive)
ROOT
ATOM      1  C   UNL d   1       2.446  -1.775   0.873  0.00  0.00     0.172 C 
ATOM      2  N   UNL d   1       1.272  -1.018   0.507  0.00  0.00    -0.070 N 
ATOM      3  C1  UNL d   1       1.037   0.293   0.824  0.00  0.00    -0.004 A 
ATOM      4  C2  UNL d   1      -0.186   0.642   0.294  0.00  0.00    -0.047 A 
ATOM      5  C3  UNL d   1      -0.704  -0.499  -0.363  0.00  0.00    -0.047 A 
ATOM      6  C4  UNL d   1       0.219  -1.512  -0.216  0.00  0.00    -0.004 A 
ENDROOT
TORSDOF 0
ENDMDL
