MODEL 1
REMARK minimizedAffinity -3.80378342
REMARK minimizedRMSD -1
REMARK  0 active torsions:
REMARK  status: ('A' for Active; 'I' for Inactive)
ROOT
ATOM      1  C   UNL d   1      -0.225  -0.766   0.020  0.00  0.00     0.172 C 
ATOM      2  N   UNL d   1       1.217  -0.738   0.089  0.00  0.00    -0.070 N 
ATOM      3  C1  UNL d   1       1.994   0.389   0.107  0.00  0.00    -0.004 A 
ATOM      4  C2  UNL d   1       3.312  -0.007   0.178  0.00  0.00    -0.047 A 
ATOM      5  C3  UNL d   1       3.328  -1.422   0.203  0.00  0.00    -0.047 A 
ATOM      6  C4  UNL d   1       2.018  -1.848   0.147  0.00  0.00    -0.004 A 
ENDROOT
TORSDOF 0
ENDMDL
