MODEL 1
REMARK minimizedAffinity -3.29127812
REMARK minimizedRMSD -1
REMARK  0 active torsions:
REMARK  status: ('A' for Active; 'I' for Inactive)
ROOT
ATOM      1  C   UNL d   1      -0.140   0.857  -0.508  0.00  0.00     0.172 C 
ATOM      2  N   UNL d   1       0.797  -0.070   0.081  0.00  0.00    -0.070 N 
ATOM      3  C1  UNL d   1       1.497   0.131   1.241  0.00  0.00    -0.004 A 
ATOM      4  C2  UNL d   1       2.279  -0.982   1.461  0.00  0.00    -0.047 A 
ATOM      5  C3  UNL d   1       2.043  -1.883   0.396  0.00  0.00    -0.047 A 
ATOM      6  C4  UNL d   1       1.121  -1.293  -0.444  0.00  0.00    -0.004 A 
ENDROOT
TORSDOF 0
ENDMDL
