MODEL 1
REMARK minimizedAffinity -3.81023955
REMARK minimizedRMSD -1
REMARK  0 active torsions:
REMARK  status: ('A' for Active; 'I' for Inactive)
ROOT
ATOM      1  C   UNL d   1      -0.526   0.837  -0.114  0.00  0.00     0.172 C 
ATOM      2  N   UNL d   1       0.615  -0.046  -0.060  0.00  0.00    -0.070 N 
ATOM      3  C1  UNL d   1       0.584  -1.403  -0.239  0.00  0.00    -0.004 A 
ATOM      4  C2  UNL d   1       1.872  -1.876  -0.111  0.00  0.00    -0.047 A 
ATOM      5  C3  UNL d   1       2.707  -0.764   0.155  0.00  0.00    -0.047 A 
ATOM      6  C4  UNL d   1       1.903   0.356   0.181  0.00  0.00    -0.004 A 
ENDROOT
TORSDOF 0
ENDMDL
