MODEL 1
REMARK minimizedAffinity -3.62020826
REMARK minimizedRMSD -1
REMARK  0 active torsions:
REMARK  status: ('A' for Active; 'I' for Inactive)
ROOT
ATOM      1  C   UNL d   1      -0.185   0.877   0.790  0.00  0.00     0.172 C 
ATOM      2  N   UNL d   1       0.706  -0.230   0.530  0.00  0.00    -0.070 N 
ATOM      3  C1  UNL d   1       0.471  -1.255  -0.347  0.00  0.00    -0.004 A 
ATOM      4  C2  UNL d   1       1.557  -2.103  -0.306  0.00  0.00    -0.047 A 
ATOM      5  C3  UNL d   1       2.476  -1.569   0.629  0.00  0.00    -0.047 A 
ATOM      6  C4  UNL d   1       1.924  -0.409   1.131  0.00  0.00    -0.004 A 
ENDROOT
TORSDOF 0
ENDMDL
