MODEL 1
REMARK minimizedAffinity -4.68965149
REMARK minimizedRMSD -1
REMARK  0 active torsions:
REMARK  status: ('A' for Active; 'I' for Inactive)
ROOT
ATOM      1  C1  BNZ d   1      -0.163  -1.515   0.954  0.00  0.00     0.000 A 
ATOM      2  C2  BNZ d   1       1.134  -1.951   1.003  0.00  0.00     0.000 A 
ATOM      3  C3  BNZ d   1       2.129  -1.261   0.369  0.00  0.00     0.000 A 
ATOM      4  C4  BNZ d   1       1.820  -0.159  -0.345  0.00  0.00     0.000 A 
ATOM      5  C5  BNZ d   1       0.515   0.288  -0.412  0.00  0.00     0.000 A 
ATOM      6  C6  BNZ d   1      -0.478  -0.388   0.260  0.00  0.00     0.000 A 
ENDROOT
TORSDOF 0
ENDMDL
