MODEL 1
REMARK minimizedAffinity -3.83023524
REMARK minimizedRMSD -1
REMARK  0 active torsions:
REMARK  status: ('A' for Active; 'I' for Inactive)
ROOT
ATOM      1  C1  BNZ d   1       1.461  -0.263  -0.220  0.00  0.00     0.000 A 
ATOM      2  C2  BNZ d   1       2.024  -1.356   0.382  0.00  0.00     0.000 A 
ATOM      3  C3  BNZ d   1       1.245  -2.284   1.016  0.00  0.00     0.000 A 
ATOM      4  C4  BNZ d   1      -0.089  -2.097   1.081  0.00  0.00     0.000 A 
ATOM      5  C5  BNZ d   1      -0.670  -0.994   0.487  0.00  0.00     0.000 A 
ATOM      6  C6  BNZ d   1       0.113  -0.083  -0.184  0.00  0.00     0.000 A 
ENDROOT
TORSDOF 0
ENDMDL
