MODEL 1
REMARK minimizedAffinity -3.92071748
REMARK minimizedRMSD -1
REMARK  0 active torsions:
REMARK  status: ('A' for Active; 'I' for Inactive)
ROOT
ATOM      1  C1  BNZ d   1      -0.245  -1.141   1.066  0.00  0.00     0.000 A 
ATOM      2  C2  BNZ d   1      -0.594   0.026   0.441  0.00  0.00     0.000 A 
ATOM      3  C3  BNZ d   1       0.342   0.780  -0.210  0.00  0.00     0.000 A 
ATOM      4  C4  BNZ d   1       1.632   0.387  -0.200  0.00  0.00     0.000 A 
ATOM      5  C5  BNZ d   1       2.002  -0.783   0.433  0.00  0.00     0.000 A 
ATOM      6  C6  BNZ d   1       1.050  -1.559   1.054  0.00  0.00     0.000 A 
ENDROOT
TORSDOF 0
ENDMDL
