MODEL 1
REMARK minimizedAffinity -3.97153234
REMARK minimizedRMSD -1
REMARK  0 active torsions:
REMARK  status: ('A' for Active; 'I' for Inactive)
ROOT
ATOM      1  C1  BNZ d   1      -0.561  -1.722   0.098  0.00  0.00     0.000 A 
ATOM      2  C2  BNZ d   1       0.203  -2.750   0.583  0.00  0.00     0.000 A 
ATOM      3  C3  BNZ d   1       1.534  -2.573   0.840  0.00  0.00     0.000 A 
ATOM      4  C4  BNZ d   1       2.107  -1.381   0.575  0.00  0.00     0.000 A 
ATOM      5  C5  BNZ d   1       1.353  -0.337   0.077  0.00  0.00     0.000 A 
ATOM      6  C6  BNZ d   1       0.005  -0.508  -0.144  0.00  0.00     0.000 A 
ENDROOT
TORSDOF 0
ENDMDL
