MODEL 1
REMARK minimizedAffinity -3.25925517
REMARK minimizedRMSD -1
REMARK  0 active torsions:
REMARK  status: ('A' for Active; 'I' for Inactive)
ROOT
ATOM      1  C1  BNZ d   1      -0.319  -5.476  -3.727  0.00  0.00     0.000 A 
ATOM      2  C2  BNZ d   1      -1.595  -5.774  -3.330  0.00  0.00     0.000 A 
ATOM      3  C3  BNZ d   1      -2.587  -5.964  -4.251  0.00  0.00     0.000 A 
ATOM      4  C4  BNZ d   1      -2.312  -5.816  -5.563  0.00  0.00     0.000 A 
ATOM      5  C5  BNZ d   1      -1.032  -5.507  -5.978  0.00  0.00     0.000 A 
ATOM      6  C6  BNZ d   1      -0.027  -5.355  -5.050  0.00  0.00     0.000 A 
ENDROOT
TORSDOF 0
ENDMDL
