MODEL 1
REMARK minimizedAffinity -4.6712718
REMARK minimizedRMSD -1
REMARK  0 active torsions:
REMARK  status: ('A' for Active; 'I' for Inactive)
ROOT
ATOM      1  C1  BNZ d   1       1.361  -1.936   0.628  0.00  0.00     0.000 A 
ATOM      2  C2  BNZ d   1       0.214  -1.209   0.805  0.00  0.00     0.000 A 
ATOM      3  C3  BNZ d   1       0.054   0.004   0.194  0.00  0.00     0.000 A 
ATOM      4  C4  BNZ d   1       1.054   0.505  -0.558  0.00  0.00     0.000 A 
ATOM      5  C5  BNZ d   1       2.220  -0.212  -0.738  0.00  0.00     0.000 A 
ATOM      6  C6  BNZ d   1       2.363  -1.450  -0.154  0.00  0.00     0.000 A 
ENDROOT
TORSDOF 0
ENDMDL
