MODEL 1
REMARK minimizedAffinity -4.38479042
REMARK minimizedRMSD -1
REMARK  0 active torsions:
REMARK  status: ('A' for Active; 'I' for Inactive)
ROOT
ATOM      1  C1  BNZ d   1       2.315  -1.452   0.127  0.00  0.00     0.000 A 
ATOM      2  C2  BNZ d   1       1.989  -0.290  -0.520  0.00  0.00     0.000 A 
ATOM      3  C3  BNZ d   1       0.738   0.248  -0.403  0.00  0.00     0.000 A 
ATOM      4  C4  BNZ d   1      -0.195  -0.395   0.328  0.00  0.00     0.000 A 
ATOM      5  C5  BNZ d   1       0.116  -1.572   0.979  0.00  0.00     0.000 A 
ATOM      6  C6  BNZ d   1       1.387  -2.091   0.891  0.00  0.00     0.000 A 
ENDROOT
TORSDOF 0
ENDMDL
