MODEL 1
REMARK minimizedAffinity -1.21817672
REMARK minimizedRMSD -1
REMARK  0 active torsions:
REMARK  status: ('A' for Active; 'I' for Inactive)
ROOT
ATOM      1  C1  BNZ d   1      -0.972  -2.651   0.955  0.00  0.00     0.000 A 
ATOM      2  C2  BNZ d   1      -1.011  -1.453   1.618  0.00  0.00     0.000 A 
ATOM      3  C3  BNZ d   1      -0.969  -0.272   0.931  0.00  0.00     0.000 A 
ATOM      4  C4  BNZ d   1      -0.848  -0.290  -0.412  0.00  0.00     0.000 A 
ATOM      5  C5  BNZ d   1      -0.799  -1.489  -1.094  0.00  0.00     0.000 A 
ATOM      6  C6  BNZ d   1      -0.881  -2.676  -0.402  0.00  0.00     0.000 A 
ENDROOT
TORSDOF 0
ENDMDL
