MODEL 1
REMARK minimizedAffinity -4.82159901
REMARK minimizedRMSD -1
REMARK  0 active torsions:
REMARK  status: ('A' for Active; 'I' for Inactive)
ROOT
ATOM      1  C1  BNZ d   1      -0.539  -0.732   0.768  0.00  0.00     0.000 A 
ATOM      2  C2  BNZ d   1      -0.145  -1.829   1.487  0.00  0.00     0.000 A 
ATOM      3  C3  BNZ d   1       1.113  -2.344   1.344  0.00  0.00     0.000 A 
ATOM      4  C4  BNZ d   1       1.961  -1.787   0.455  0.00  0.00     0.000 A 
ATOM      5  C5  BNZ d   1       1.575  -0.686  -0.283  0.00  0.00     0.000 A 
ATOM      6  C6  BNZ d   1       0.321  -0.147  -0.108  0.00  0.00     0.000 A 
ENDROOT
TORSDOF 0
ENDMDL
