MODEL 1
REMARK minimizedAffinity -3.18722057
REMARK minimizedRMSD -1
REMARK  0 active torsions:
REMARK  status: ('A' for Active; 'I' for Inactive)
ROOT
ATOM      1  C1  BNZ d   1       1.603  -0.347  -0.461  0.00  0.00     0.000 A 
ATOM      2  C2  BNZ d   1       2.077  -1.447   0.203  0.00  0.00     0.000 A 
ATOM      3  C3  BNZ d   1       1.251  -2.200   0.990  0.00  0.00     0.000 A 
ATOM      4  C4  BNZ d   1      -0.036  -1.829   1.143  0.00  0.00     0.000 A 
ATOM      5  C5  BNZ d   1      -0.527  -0.718   0.488  0.00  0.00     0.000 A 
ATOM      6  C6  BNZ d   1       0.297   0.015  -0.334  0.00  0.00     0.000 A 
ENDROOT
TORSDOF 0
ENDMDL
