MODEL 1
REMARK minimizedAffinity -3.91869235
REMARK minimizedRMSD -1
REMARK  0 active torsions:
REMARK  status: ('A' for Active; 'I' for Inactive)
ROOT
ATOM      1  C1  BNZ d   1      -0.602  -0.838   0.752  0.00  0.00     0.000 A 
ATOM      2  C2  BNZ d   1       0.602  -1.488   0.691  0.00  0.00     0.000 A 
ATOM      3  C3  BNZ d   1       1.689  -0.895   0.113  0.00  0.00     0.000 A 
ATOM      4  C4  BNZ d   1       1.562   0.330  -0.437  0.00  0.00     0.000 A 
ATOM      5  C5  BNZ d   1       0.353   0.995  -0.391  0.00  0.00     0.000 A 
ATOM      6  C6  BNZ d   1      -0.729   0.410   0.225  0.00  0.00     0.000 A 
ENDROOT
TORSDOF 0
ENDMDL
