MODEL 1
REMARK minimizedAffinity -4.69077587
REMARK minimizedRMSD -1
REMARK  0 active torsions:
REMARK  status: ('A' for Active; 'I' for Inactive)
ROOT
ATOM      1  C1  BNZ d   1      -0.812   0.099   0.047  0.00  0.00     0.000 A 
ATOM      2  C2  BNZ d   1      -0.676  -1.128   0.641  0.00  0.00     0.000 A 
ATOM      3  C3  BNZ d   1       0.499  -1.820   0.554  0.00  0.00     0.000 A 
ATOM      4  C4  BNZ d   1       1.522  -1.305  -0.158  0.00  0.00     0.000 A 
ATOM      5  C5  BNZ d   1       1.397  -0.074  -0.770  0.00  0.00     0.000 A 
ATOM      6  C6  BNZ d   1       0.226   0.638  -0.648  0.00  0.00     0.000 A 
ENDROOT
TORSDOF 0
ENDMDL
