MODEL 1
REMARK minimizedAffinity -3.8841157
REMARK minimizedRMSD -1
REMARK  0 active torsions:
REMARK  status: ('A' for Active; 'I' for Inactive)
ROOT
ATOM      1  C1  BNZ d   1       0.460   0.746  -0.417  0.00  0.00     0.000 A 
ATOM      2  C2  BNZ d   1       1.665   0.102  -0.513  0.00  0.00     0.000 A 
ATOM      3  C3  BNZ d   1       1.830  -1.153   0.003  0.00  0.00     0.000 A 
ATOM      4  C4  BNZ d   1       0.805  -1.746   0.648  0.00  0.00     0.000 A 
ATOM      5  C5  BNZ d   1      -0.413  -1.106   0.761  0.00  0.00     0.000 A 
ATOM      6  C6  BNZ d   1      -0.588   0.142   0.206  0.00  0.00     0.000 A 
ENDROOT
TORSDOF 0
ENDMDL
