MODEL 1
REMARK minimizedAffinity -4.27091551
REMARK minimizedRMSD -1
REMARK  0 active torsions:
REMARK  status: ('A' for Active; 'I' for Inactive)
ROOT
ATOM      1  C1  BNZ d   1       0.165   1.094  -0.873  0.00  0.00     0.000 A 
ATOM      2  C2  BNZ d   1       1.369   0.468  -1.057  0.00  0.00     0.000 A 
ATOM      3  C3  BNZ d   1       1.689  -0.655  -0.347  0.00  0.00     0.000 A 
ATOM      4  C4  BNZ d   1       0.824  -1.128   0.573  0.00  0.00     0.000 A 
ATOM      5  C5  BNZ d   1      -0.390  -0.502   0.777  0.00  0.00     0.000 A 
ATOM      6  C6  BNZ d   1      -0.726   0.606   0.033  0.00  0.00     0.000 A 
ENDROOT
TORSDOF 0
ENDMDL
