MODEL 1
REMARK minimizedAffinity -5.34680367
REMARK minimizedRMSD -1
REMARK  0 active torsions:
REMARK  status: ('A' for Active; 'I' for Inactive)
ROOT
ATOM      1  C1  BNZ d   1       1.037  -3.318   1.885  0.00  0.00     0.000 A 
ATOM      2  C2  BNZ d   1       0.204  -3.423   2.967  0.00  0.00     0.000 A 
ATOM      3  C3  BNZ d   1      -0.801  -2.518   3.167  0.00  0.00     0.000 A 
ATOM      4  C4  BNZ d   1      -0.946  -1.488   2.309  0.00  0.00     0.000 A 
ATOM      5  C5  BNZ d   1      -0.109  -1.363   1.218  0.00  0.00     0.000 A 
ATOM      6  C6  BNZ d   1       0.877  -2.297   0.998  0.00  0.00     0.000 A 
ENDROOT
TORSDOF 0
ENDMDL
