MODEL 1
REMARK minimizedAffinity -4.24720097
REMARK minimizedRMSD -1
REMARK  0 active torsions:
REMARK  status: ('A' for Active; 'I' for Inactive)
ROOT
ATOM      1  C1  BNZ d   1       0.056  -2.071   0.789  0.00  0.00     0.000 A 
ATOM      2  C2  BNZ d   1      -0.485  -0.930   0.260  0.00  0.00     0.000 A 
ATOM      3  C3  BNZ d   1       0.314   0.044  -0.270  0.00  0.00     0.000 A 
ATOM      4  C4  BNZ d   1       1.654  -0.106  -0.234  0.00  0.00     0.000 A 
ATOM      5  C5  BNZ d   1       2.216  -1.247   0.304  0.00  0.00     0.000 A 
ATOM      6  C6  BNZ d   1       1.406  -2.242   0.801  0.00  0.00     0.000 A 
ENDROOT
TORSDOF 0
ENDMDL
