MODEL 1
REMARK minimizedAffinity 2.74420857
REMARK minimizedRMSD -1
REMARK  0 active torsions:
REMARK  status: ('A' for Active; 'I' for Inactive)
ROOT
ATOM      1  C1  BNZ d   1       2.225  -5.591  -3.058  0.00  0.00     0.000 A 
ATOM      2  C2  BNZ d   1       1.007  -6.000  -2.585  0.00  0.00     0.000 A 
ATOM      3  C3  BNZ d   1       0.739  -5.995  -1.244  0.00  0.00     0.000 A 
ATOM      4  C4  BNZ d   1       1.701  -5.619  -0.377  0.00  0.00     0.000 A 
ATOM      5  C5  BNZ d   1       2.938  -5.213  -0.838  0.00  0.00     0.000 A 
ATOM      6  C6  BNZ d   1       3.191  -5.182  -2.190  0.00  0.00     0.000 A 
ENDROOT
TORSDOF 0
ENDMDL
