MODEL 1
REMARK minimizedAffinity 3.60051203
REMARK minimizedRMSD -1
REMARK  0 active torsions:
REMARK  status: ('A' for Active; 'I' for Inactive)
ROOT
ATOM      1  C1  BNZ d   1      -2.382   0.868  -2.923  0.00  0.00     0.000 A 
ATOM      2  C2  BNZ d   1      -1.615   0.045  -3.704  0.00  0.00     0.000 A 
ATOM      3  C3  BNZ d   1      -0.809  -0.903  -3.140  0.00  0.00     0.000 A 
ATOM      4  C4  BNZ d   1      -0.739  -1.001  -1.797  0.00  0.00     0.000 A 
ATOM      5  C5  BNZ d   1      -1.499  -0.172  -0.996  0.00  0.00     0.000 A 
ATOM      6  C6  BNZ d   1      -2.339   0.755  -1.568  0.00  0.00     0.000 A 
ENDROOT
TORSDOF 0
ENDMDL
