MODEL 1
REMARK minimizedAffinity 8.24830246
REMARK minimizedRMSD -1
REMARK  0 active torsions:
REMARK  status: ('A' for Active; 'I' for Inactive)
ROOT
ATOM      1  C1  BNZ d   1       5.996  -1.827  -1.136  0.00  0.00     0.000 A 
ATOM      2  C2  BNZ d   1       5.015  -1.138  -0.475  0.00  0.00     0.000 A 
ATOM      3  C3  BNZ d   1       4.019  -1.800   0.187  0.00  0.00     0.000 A 
ATOM      4  C4  BNZ d   1       3.984  -3.148   0.154  0.00  0.00     0.000 A 
ATOM      5  C5  BNZ d   1       4.961  -3.857  -0.517  0.00  0.00     0.000 A 
ATOM      6  C6  BNZ d   1       5.983  -3.188  -1.149  0.00  0.00     0.000 A 
ENDROOT
TORSDOF 0
ENDMDL
