MODEL 1
REMARK minimizedAffinity 6.75461864
REMARK minimizedRMSD -1
REMARK  0 active torsions:
REMARK  status: ('A' for Active; 'I' for Inactive)
ROOT
ATOM      1  C1  BNZ d   1       0.416   3.346   0.015  0.00  0.00     0.000 A 
ATOM      2  C2  BNZ d   1       0.525   4.348  -0.912  0.00  0.00     0.000 A 
ATOM      3  C3  BNZ d   1      -0.086   5.555  -0.713  0.00  0.00     0.000 A 
ATOM      4  C4  BNZ d   1      -0.838   5.743   0.391  0.00  0.00     0.000 A 
ATOM      5  C5  BNZ d   1      -0.965   4.739   1.330  0.00  0.00     0.000 A 
ATOM      6  C6  BNZ d   1      -0.316   3.540   1.146  0.00  0.00     0.000 A 
ENDROOT
TORSDOF 0
ENDMDL
