MODEL 1
REMARK minimizedAffinity 2.48766947
REMARK minimizedRMSD -1
REMARK  0 active torsions:
REMARK  status: ('A' for Active; 'I' for Inactive)
ROOT
ATOM      1  C1  BNZ d   1      -0.808   2.479   2.414  0.00  0.00     0.000 A 
ATOM      2  C2  BNZ d   1      -0.329   1.733   3.458  0.00  0.00     0.000 A 
ATOM      3  C3  BNZ d   1       0.935   1.214   3.425  0.00  0.00     0.000 A 
ATOM      4  C4  BNZ d   1       1.702   1.406   2.333  0.00  0.00     0.000 A 
ATOM      5  C5  BNZ d   1       1.230   2.148   1.268  0.00  0.00     0.000 A 
ATOM      6  C6  BNZ d   1      -0.028   2.702   1.321  0.00  0.00     0.000 A 
ENDROOT
TORSDOF 0
ENDMDL
