MODEL 1
REMARK minimizedAffinity -3.94095588
REMARK minimizedRMSD -1
REMARK  0 active torsions:
REMARK  status: ('A' for Active; 'I' for Inactive)
ROOT
ATOM      1  C   UNL d   1      -1.160  -0.876   0.322  0.00  0.00     0.078 C 
ATOM      2  C1  UNL d   1      -0.595   0.082   1.327  0.00  0.00    -0.077 A 
ATOM      3  C2  UNL d   1      -0.762  -0.131   2.701  0.00  0.00    -0.001 A 
ATOM      4  C3  UNL d   1      -0.239   0.774   3.625  0.00  0.00     0.003 A 
ATOM      5  C4  UNL d   1       0.454   1.901   3.186  0.00  0.00    -0.005 A 
ATOM      6  C5  UNL d   1       0.623   2.123   1.821  0.00  0.00     0.003 A 
ATOM      7  C6  UNL d   1       0.100   1.219   0.895  0.00  0.00    -0.001 A 
ENDROOT
TORSDOF 0
ENDMDL
