MODEL 1
REMARK minimizedAffinity 5.05243015
REMARK minimizedRMSD -1
REMARK  0 active torsions:
REMARK  status: ('A' for Active; 'I' for Inactive)
ROOT
ATOM      1  C   UNL d   1      -3.068   1.555  -0.748  0.00  0.00     0.078 C 
ATOM      2  C1  UNL d   1      -2.624   0.759   0.443  0.00  0.00    -0.077 A 
ATOM      3  C2  UNL d   1      -3.368   0.762   1.630  0.00  0.00    -0.001 A 
ATOM      4  C3  UNL d   1      -2.938   0.025   2.734  0.00  0.00     0.003 A 
ATOM      5  C4  UNL d   1      -1.762  -0.720   2.664  0.00  0.00    -0.005 A 
ATOM      6  C5  UNL d   1      -1.014  -0.727   1.488  0.00  0.00     0.003 A 
ATOM      7  C6  UNL d   1      -1.443   0.010   0.383  0.00  0.00    -0.001 A 
ENDROOT
TORSDOF 0
ENDMDL
