MODEL 1
REMARK minimizedAffinity -0.762547851
REMARK minimizedRMSD -1
REMARK  0 active torsions:
REMARK  status: ('A' for Active; 'I' for Inactive)
ROOT
ATOM      1  C   UNL d   1      -2.236   0.951  -0.084  0.00  0.00     0.078 C 
ATOM      2  C1  UNL d   1      -1.674   0.359   1.174  0.00  0.00    -0.077 A 
ATOM      3  C2  UNL d   1      -0.396  -0.213   1.194  0.00  0.00    -0.001 A 
ATOM      4  C3  UNL d   1       0.111  -0.769   2.370  0.00  0.00     0.003 A 
ATOM      5  C4  UNL d   1      -0.654  -0.758   3.535  0.00  0.00    -0.005 A 
ATOM      6  C5  UNL d   1      -1.927  -0.193   3.524  0.00  0.00     0.003 A 
ATOM      7  C6  UNL d   1      -2.436   0.363   2.349  0.00  0.00    -0.001 A 
ENDROOT
TORSDOF 0
ENDMDL
