MODEL 1
REMARK minimizedAffinity -2.2110765
REMARK minimizedRMSD -1
REMARK  0 active torsions:
REMARK  status: ('A' for Active; 'I' for Inactive)
ROOT
ATOM      1  C   UNL d   1      -4.016  -0.878  -0.655  0.00  0.00     0.078 C 
ATOM      2  C1  UNL d   1      -2.820  -0.405   0.117  0.00  0.00    -0.077 A 
ATOM      3  C2  UNL d   1      -2.815  -0.416   1.517  0.00  0.00    -0.001 A 
ATOM      4  C3  UNL d   1      -1.699   0.036   2.222  0.00  0.00     0.003 A 
ATOM      5  C4  UNL d   1      -0.580   0.504   1.536  0.00  0.00    -0.005 A 
ATOM      6  C5  UNL d   1      -0.577   0.521   0.143  0.00  0.00     0.003 A 
ATOM      7  C6  UNL d   1      -1.692   0.069  -0.564  0.00  0.00    -0.001 A 
ENDROOT
TORSDOF 0
ENDMDL
