MODEL 1
REMARK minimizedAffinity 2.05469036
REMARK minimizedRMSD -1
REMARK  0 active torsions:
REMARK  status: ('A' for Active; 'I' for Inactive)
ROOT
ATOM      1  C   UNL d   1      -1.709   1.580   2.468  0.00  0.00     0.078 C 
ATOM      2  C1  UNL d   1      -1.743   0.742   1.225  0.00  0.00    -0.077 A 
ATOM      3  C2  UNL d   1      -0.582   0.131   0.736  0.00  0.00    -0.001 A 
ATOM      4  C3  UNL d   1      -0.627  -0.639  -0.428  0.00  0.00     0.003 A 
ATOM      5  C4  UNL d   1      -1.829  -0.803  -1.113  0.00  0.00    -0.005 A 
ATOM      6  C5  UNL d   1      -2.989  -0.197  -0.634  0.00  0.00     0.003 A 
ATOM      7  C6  UNL d   1      -2.946   0.573   0.529  0.00  0.00    -0.001 A 
ENDROOT
TORSDOF 0
ENDMDL
