MODEL 1
REMARK minimizedAffinity -2.57631373
REMARK minimizedRMSD -1
REMARK  0 active torsions:
REMARK  status: ('A' for Active; 'I' for Inactive)
ROOT
ATOM      1  C   UNL d   1       2.343  -1.128   0.287  0.00  0.00     0.078 C 
ATOM      2  C1  UNL d   1       0.862  -0.889   0.295  0.00  0.00    -0.077 A 
ATOM      3  C2  UNL d   1       0.042  -1.408  -0.714  0.00  0.00    -0.001 A 
ATOM      4  C3  UNL d   1      -1.333  -1.170  -0.699  0.00  0.00     0.003 A 
ATOM      5  C4  UNL d   1      -1.900  -0.410   0.322  0.00  0.00    -0.005 A 
ATOM      6  C5  UNL d   1      -1.092   0.113   1.330  0.00  0.00     0.003 A 
ATOM      7  C6  UNL d   1       0.283  -0.124   1.316  0.00  0.00    -0.001 A 
ENDROOT
TORSDOF 0
ENDMDL
