MODEL 1
REMARK minimizedAffinity -5.35953093
REMARK minimizedRMSD -1
REMARK  1 active torsions:
REMARK  status: ('A' for Active; 'I' for Inactive)
REMARK    1  A    between atoms: C1_2  and  C2_3 
ROOT
ATOM      1  C2  UNL d   1       1.059   0.899  -0.070  0.00  0.00    -0.081 A 
ATOM      2  C3  UNL d   1       1.319  -0.451  -0.337  0.00  0.00     0.006 A 
ATOM      3  C4  UNL d   1       0.331  -1.267  -0.893  0.00  0.00     0.002 A 
ATOM      4  C5  UNL d   1      -0.930  -0.745  -1.199  0.00  0.00    -0.080 A 
ATOM      5  C6  UNL d   1      -1.991  -1.602  -1.824  0.00  0.00     0.076 C 
ATOM      6  C7  UNL d   1      -1.197   0.599  -0.916  0.00  0.00     0.002 A 
ATOM      7  C8  UNL d   1      -0.209   1.415  -0.360  0.00  0.00     0.006 A 
ENDROOT
BRANCH   1   8
ATOM      8  C1  UNL d   1       2.143   1.797   0.469  0.00  0.00     0.054 C 
ATOM      9  C   UNL d   1       1.629   2.659   1.613  0.00  0.00     0.018 C 
ENDBRANCH   1   8
TORSDOF 1
ENDMDL
