MODEL 1
REMARK minimizedAffinity 7.26359034
REMARK minimizedRMSD -1
REMARK  1 active torsions:
REMARK  status: ('A' for Active; 'I' for Inactive)
REMARK    1  A    between atoms: C1_2  and  C2_3 
ROOT
ATOM      1  C2  UNL d   1       0.117  -0.077   0.422  0.00  0.00    -0.081 A 
ATOM      2  C3  UNL d   1       0.329  -0.945  -0.657  0.00  0.00     0.006 A 
ATOM      3  C4  UNL d   1       1.500  -0.860  -1.414  0.00  0.00     0.002 A 
ATOM      4  C5  UNL d   1       2.481   0.087  -1.102  0.00  0.00    -0.080 A 
ATOM      5  C6  UNL d   1       3.755   0.168  -1.888  0.00  0.00     0.076 C 
ATOM      6  C7  UNL d   1       2.261   0.965  -0.035  0.00  0.00     0.002 A 
ATOM      7  C8  UNL d   1       1.091   0.882   0.722  0.00  0.00     0.006 A 
ENDROOT
BRANCH   1   8
ATOM      8  C1  UNL d   1      -1.115  -0.208   1.281  0.00  0.00     0.054 C 
ATOM      9  C   UNL d   1      -1.047  -1.449   2.159  0.00  0.00     0.018 C 
ENDBRANCH   1   8
TORSDOF 1
ENDMDL
