MODEL 1
REMARK minimizedAffinity -0.970432401
REMARK minimizedRMSD -1
REMARK  1 active torsions:
REMARK  status: ('A' for Active; 'I' for Inactive)
REMARK    1  A    between atoms: C1_2  and  C2_3 
ROOT
ATOM      1  C2  UNL d   1      -0.258  -0.926   1.645  0.00  0.00    -0.081 A 
ATOM      2  C3  UNL d   1      -0.523  -0.002   2.664  0.00  0.00     0.006 A 
ATOM      3  C4  UNL d   1      -0.102   1.324   2.544  0.00  0.00     0.002 A 
ATOM      4  C5  UNL d   1       0.583   1.751   1.402  0.00  0.00    -0.080 A 
ATOM      5  C6  UNL d   1       1.014   3.179   1.248  0.00  0.00     0.076 C 
ATOM      6  C7  UNL d   1       0.864   0.824   0.392  0.00  0.00     0.002 A 
ATOM      7  C8  UNL d   1       0.443  -0.502   0.511  0.00  0.00     0.006 A 
ENDROOT
BRANCH   1   8
ATOM      8  C1  UNL d   1      -0.768  -2.341   1.743  0.00  0.00     0.054 C 
ATOM      9  C   UNL d   1      -1.154  -2.693   3.172  0.00  0.00     0.018 C 
ENDBRANCH   1   8
TORSDOF 1
ENDMDL
