MODEL 1
REMARK minimizedAffinity -0.652836621
REMARK minimizedRMSD -1
REMARK  1 active torsions:
REMARK  status: ('A' for Active; 'I' for Inactive)
REMARK    1  A    between atoms: C1_2  and  C2_3 
ROOT
ATOM      1  C2  UNL d   1      -0.855  -0.890   1.824  0.00  0.00    -0.081 A 
ATOM      2  C3  UNL d   1      -0.449  -0.646   0.506  0.00  0.00     0.006 A 
ATOM      3  C4  UNL d   1       0.151   0.568   0.162  0.00  0.00     0.002 A 
ATOM      4  C5  UNL d   1       0.362   1.554   1.131  0.00  0.00    -0.080 A 
ATOM      5  C6  UNL d   1       1.032   2.850   0.782  0.00  0.00     0.076 C 
ATOM      6  C7  UNL d   1      -0.059   1.318   2.444  0.00  0.00     0.002 A 
ATOM      7  C8  UNL d   1      -0.659   0.105   2.788  0.00  0.00     0.006 A 
ENDROOT
BRANCH   1   8
ATOM      8  C1  UNL d   1      -1.443  -2.222   2.211  0.00  0.00     0.054 C 
ATOM      9  C   UNL d   1      -1.837  -2.247   3.681  0.00  0.00     0.018 C 
ENDBRANCH   1   8
TORSDOF 1
ENDMDL
