MODEL 1
REMARK minimizedAffinity -4.7159934
REMARK minimizedRMSD -1
REMARK  1 active torsions:
REMARK  status: ('A' for Active; 'I' for Inactive)
REMARK    1  A    between atoms: C1_2  and  C2_3 
ROOT
ATOM      1  C2  UNL d   1      -0.006  -0.744   0.996  0.00  0.00    -0.081 A 
ATOM      2  C3  UNL d   1       1.006  -0.467   0.069  0.00  0.00     0.006 A 
ATOM      3  C4  UNL d   1       1.552   0.816  -0.020  0.00  0.00     0.002 A 
ATOM      4  C5  UNL d   1       1.102   1.839   0.821  0.00  0.00    -0.080 A 
ATOM      5  C6  UNL d   1       1.701   3.213   0.757  0.00  0.00     0.076 C 
ATOM      6  C7  UNL d   1       0.078   1.566   1.735  0.00  0.00     0.002 A 
ATOM      7  C8  UNL d   1      -0.469   0.284   1.824  0.00  0.00     0.006 A 
ENDROOT
BRANCH   1   8
ATOM      8  C1  UNL d   1      -0.552  -2.142   1.138  0.00  0.00     0.054 C 
ATOM      9  C   UNL d   1      -1.105  -2.381   2.536  0.00  0.00     0.018 C 
ENDBRANCH   1   8
TORSDOF 1
ENDMDL
