MODEL 1
REMARK minimizedAffinity -2.62694788
REMARK minimizedRMSD -1
REMARK  1 active torsions:
REMARK  status: ('A' for Active; 'I' for Inactive)
REMARK    1  A    between atoms: C1_2  and  C2_3 
ROOT
ATOM      1  C2  UNL d   1      -0.742  -0.703   1.844  0.00  0.00    -0.081 A 
ATOM      2  C3  UNL d   1       0.141  -0.524   0.772  0.00  0.00     0.006 A 
ATOM      3  C4  UNL d   1       0.564   0.757   0.410  0.00  0.00     0.002 A 
ATOM      4  C5  UNL d   1       0.117   1.879   1.117  0.00  0.00    -0.080 A 
ATOM      5  C6  UNL d   1       0.588   3.257   0.758  0.00  0.00     0.076 C 
ATOM      6  C7  UNL d   1      -0.779   1.701   2.176  0.00  0.00     0.002 A 
ATOM      7  C8  UNL d   1      -1.203   0.421   2.539  0.00  0.00     0.006 A 
ENDROOT
BRANCH   1   8
ATOM      8  C1  UNL d   1      -1.150  -2.088   2.278  0.00  0.00     0.054 C 
ATOM      9  C   UNL d   1      -1.407  -2.145   3.777  0.00  0.00     0.018 C 
ENDBRANCH   1   8
TORSDOF 1
ENDMDL
