MODEL 1
REMARK minimizedAffinity -4.49585295
REMARK minimizedRMSD -1
REMARK  1 active torsions:
REMARK  status: ('A' for Active; 'I' for Inactive)
REMARK    1  A    between atoms: C1_2  and  C2_3 
ROOT
ATOM      1  C2  UNL d   1      -0.145  -0.457  -0.915  0.00  0.00    -0.081 A 
ATOM      2  C3  UNL d   1      -0.960   0.259  -0.029  0.00  0.00     0.006 A 
ATOM      3  C4  UNL d   1      -0.429   1.298   0.739  0.00  0.00     0.002 A 
ATOM      4  C5  UNL d   1       0.922   1.644   0.628  0.00  0.00    -0.080 A 
ATOM      5  C6  UNL d   1       1.497   2.777   1.425  0.00  0.00     0.076 C 
ATOM      6  C7  UNL d   1       1.740   0.917  -0.244  0.00  0.00     0.002 A 
ATOM      7  C8  UNL d   1       1.210  -0.122  -1.012  0.00  0.00     0.006 A 
ENDROOT
BRANCH   1   8
ATOM      8  C1  UNL d   1      -0.729  -1.535  -1.792  0.00  0.00     0.054 C 
ATOM      9  C   UNL d   1      -1.841  -0.988  -2.676  0.00  0.00     0.018 C 
ENDBRANCH   1   8
TORSDOF 1
ENDMDL
