MODEL 1
REMARK minimizedAffinity 10.9566383
REMARK minimizedRMSD -1
REMARK  1 active torsions:
REMARK  status: ('A' for Active; 'I' for Inactive)
REMARK    1  A    between atoms: C1_2  and  C2_3 
ROOT
ATOM      1  C2  UNL d   1       0.374   2.056  -0.632  0.00  0.00    -0.081 A 
ATOM      2  C3  UNL d   1      -0.552   3.047  -0.980  0.00  0.00     0.006 A 
ATOM      3  C4  UNL d   1      -0.376   3.805  -2.140  0.00  0.00     0.002 A 
ATOM      4  C5  UNL d   1       0.725   3.580  -2.974  0.00  0.00    -0.080 A 
ATOM      5  C6  UNL d   1       0.910   4.367  -4.238  0.00  0.00     0.076 C 
ATOM      6  C7  UNL d   1       1.659   2.602  -2.617  0.00  0.00     0.002 A 
ATOM      7  C8  UNL d   1       1.484   1.844  -1.458  0.00  0.00     0.006 A 
ENDROOT
BRANCH   1   8
ATOM      8  C1  UNL d   1       0.152   1.193   0.584  0.00  0.00     0.054 C 
ATOM      9  C   UNL d   1      -0.026  -0.269   0.199  0.00  0.00     0.018 C 
ENDBRANCH   1   8
TORSDOF 1
ENDMDL
