MODEL 1
REMARK minimizedAffinity 1.79368234
REMARK minimizedRMSD -1
REMARK  1 active torsions:
REMARK  status: ('A' for Active; 'I' for Inactive)
REMARK    1  A    between atoms: C1_2  and  C2_3 
ROOT
ATOM      1  C2  UNL d   1      -1.469  -0.456  -3.980  0.00  0.00    -0.081 A 
ATOM      2  C3  UNL d   1      -2.269  -1.417  -4.611  0.00  0.00     0.006 A 
ATOM      3  C4  UNL d   1      -3.152  -2.202  -3.867  0.00  0.00     0.002 A 
ATOM      4  C5  UNL d   1      -3.256  -2.035  -2.482  0.00  0.00    -0.080 A 
ATOM      5  C6  UNL d   1      -4.223  -2.851  -1.676  0.00  0.00     0.076 C 
ATOM      6  C7  UNL d   1      -2.445  -1.087  -1.849  0.00  0.00     0.002 A 
ATOM      7  C8  UNL d   1      -1.561  -0.302  -2.593  0.00  0.00     0.006 A 
ENDROOT
BRANCH   1   8
ATOM      8  C1  UNL d   1      -0.563   0.438  -4.788  0.00  0.00     0.054 C 
ATOM      9  C   UNL d   1       0.475   1.117  -3.906  0.00  0.00     0.018 C 
ENDBRANCH   1   8
TORSDOF 1
ENDMDL
