MODEL 1
REMARK minimizedAffinity 8.91000557
REMARK minimizedRMSD -1
REMARK  1 active torsions:
REMARK  status: ('A' for Active; 'I' for Inactive)
REMARK    1  A    between atoms: C1_2  and  C2_3 
ROOT
ATOM      1  C2  UNL d   1       0.772  -0.749  -1.994  0.00  0.00    -0.081 A 
ATOM      2  C3  UNL d   1       1.497   0.226  -2.690  0.00  0.00     0.006 A 
ATOM      3  C4  UNL d   1       1.136   0.583  -3.991  0.00  0.00     0.002 A 
ATOM      4  C5  UNL d   1       0.040  -0.022  -4.615  0.00  0.00    -0.080 A 
ATOM      5  C6  UNL d   1      -0.377   0.375  -6.000  0.00  0.00     0.076 C 
ATOM      6  C7  UNL d   1      -0.675  -1.008  -3.926  0.00  0.00     0.002 A 
ATOM      7  C8  UNL d   1      -0.313  -1.366  -2.626  0.00  0.00     0.006 A 
ENDROOT
BRANCH   1   8
ATOM      8  C1  UNL d   1       1.119  -1.090  -0.568  0.00  0.00     0.054 C 
ATOM      9  C   UNL d   1       0.390  -0.182   0.412  0.00  0.00     0.018 C 
ENDBRANCH   1   8
TORSDOF 1
ENDMDL
