MODEL 1
REMARK minimizedAffinity 0.289171964
REMARK minimizedRMSD -1
REMARK  1 active torsions:
REMARK  status: ('A' for Active; 'I' for Inactive)
REMARK    1  A    between atoms: C1_2  and  C2_3 
ROOT
ATOM      1  C2  UNL d   1       2.489   1.813   2.855  0.00  0.00    -0.081 A 
ATOM      2  C3  UNL d   1       2.590   0.981   1.733  0.00  0.00     0.006 A 
ATOM      3  C4  UNL d   1       1.448   0.615   1.018  0.00  0.00     0.002 A 
ATOM      4  C5  UNL d   1       0.187   1.080   1.407  0.00  0.00    -0.080 A 
ATOM      5  C6  UNL d   1      -1.044   0.719   0.630  0.00  0.00     0.076 C 
ATOM      6  C7  UNL d   1       0.084   1.897   2.538  0.00  0.00     0.002 A 
ATOM      7  C8  UNL d   1       1.226   2.263   3.254  0.00  0.00     0.006 A 
ENDROOT
BRANCH   1   8
ATOM      8  C1  UNL d   1       3.726   2.262   3.590  0.00  0.00     0.054 C 
ATOM      9  C   UNL d   1       4.064   3.711   3.271  0.00  0.00     0.018 C 
ENDBRANCH   1   8
TORSDOF 1
ENDMDL
