MODEL 1
REMARK minimizedAffinity 23.0883484
REMARK minimizedRMSD -1
REMARK  1 active torsions:
REMARK  status: ('A' for Active; 'I' for Inactive)
REMARK    1  A    between atoms: C1_2  and  C2_3 
ROOT
ATOM      1  C2  UNL d   1      -4.018  -1.069   1.100  0.00  0.00    -0.081 A 
ATOM      2  C3  UNL d   1      -2.654  -0.887   0.841  0.00  0.00     0.006 A 
ATOM      3  C4  UNL d   1      -1.881  -0.063   1.662  0.00  0.00     0.002 A 
ATOM      4  C5  UNL d   1      -2.457   0.587   2.759  0.00  0.00    -0.080 A 
ATOM      5  C6  UNL d   1      -1.632   1.450   3.667  0.00  0.00     0.076 C 
ATOM      6  C7  UNL d   1      -3.823   0.419   3.008  0.00  0.00     0.002 A 
ATOM      7  C8  UNL d   1      -4.597  -0.404   2.187  0.00  0.00     0.006 A 
ENDROOT
BRANCH   1   8
ATOM      8  C1  UNL d   1      -4.840  -2.008   0.255  0.00  0.00     0.054 C 
ATOM      9  C   UNL d   1      -5.997  -2.598   1.048  0.00  0.00     0.018 C 
ENDBRANCH   1   8
TORSDOF 1
ENDMDL
