MODEL 1
REMARK minimizedAffinity 26.863472
REMARK minimizedRMSD -1
REMARK  1 active torsions:
REMARK  status: ('A' for Active; 'I' for Inactive)
REMARK    1  A    between atoms: C1_2  and  C2_3 
ROOT
ATOM      1  C2  UNL d   1      -1.304  -1.916  -1.183  0.00  0.00    -0.081 A 
ATOM      2  C3  UNL d   1      -0.272  -1.218  -1.822  0.00  0.00     0.006 A 
ATOM      3  C4  UNL d   1       0.644  -1.894  -2.632  0.00  0.00     0.002 A 
ATOM      4  C5  UNL d   1       0.539  -3.276  -2.822  0.00  0.00    -0.080 A 
ATOM      5  C6  UNL d   1       1.497  -4.010  -3.713  0.00  0.00     0.076 C 
ATOM      6  C7  UNL d   1      -0.482  -3.976  -2.169  0.00  0.00     0.002 A 
ATOM      7  C8  UNL d   1      -1.397  -3.301  -1.359  0.00  0.00     0.006 A 
ENDROOT
BRANCH   1   8
ATOM      8  C1  UNL d   1      -2.331  -1.180  -0.361  0.00  0.00     0.054 C 
ATOM      9  C   UNL d   1      -2.303  -1.631   1.093  0.00  0.00     0.018 C 
ENDBRANCH   1   8
TORSDOF 1
ENDMDL
