MODEL 1
REMARK minimizedAffinity 15.6182747
REMARK minimizedRMSD -1
REMARK  1 active torsions:
REMARK  status: ('A' for Active; 'I' for Inactive)
REMARK    1  A    between atoms: C1_2  and  C2_3 
ROOT
ATOM      1  C2  UNL d   1       1.507   0.381  -1.732  0.00  0.00    -0.081 A 
ATOM      2  C3  UNL d   1       0.687   0.317  -2.865  0.00  0.00     0.006 A 
ATOM      3  C4  UNL d   1       0.505  -0.892  -3.540  0.00  0.00     0.002 A 
ATOM      4  C5  UNL d   1       1.133  -2.058  -3.089  0.00  0.00    -0.080 A 
ATOM      5  C6  UNL d   1       0.922  -3.369  -3.786  0.00  0.00     0.076 C 
ATOM      6  C7  UNL d   1       1.966  -1.991  -1.967  0.00  0.00     0.002 A 
ATOM      7  C8  UNL d   1       2.149  -0.781  -1.292  0.00  0.00     0.006 A 
ENDROOT
BRANCH   1   8
ATOM      8  C1  UNL d   1       1.654   1.670  -0.964  0.00  0.00     0.054 C 
ATOM      9  C   UNL d   1       1.010   2.833  -1.706  0.00  0.00     0.018 C 
ENDBRANCH   1   8
TORSDOF 1
ENDMDL
