MODEL 1
REMARK minimizedAffinity 19.710125
REMARK minimizedRMSD -1
REMARK  1 active torsions:
REMARK  status: ('A' for Active; 'I' for Inactive)
REMARK    1  A    between atoms: C1_2  and  C2_3 
ROOT
ATOM      1  C2  UNL d   1      -2.497   5.819   4.299  0.00  0.00    -0.081 A 
ATOM      2  C3  UNL d   1      -3.487   5.655   3.321  0.00  0.00     0.006 A 
ATOM      3  C4  UNL d   1      -3.150   5.657   1.966  0.00  0.00     0.002 A 
ATOM      4  C5  UNL d   1      -1.819   5.815   1.565  0.00  0.00    -0.080 A 
ATOM      5  C6  UNL d   1      -1.441   5.789   0.114  0.00  0.00     0.076 C 
ATOM      6  C7  UNL d   1      -0.833   5.996   2.540  0.00  0.00     0.002 A 
ATOM      7  C8  UNL d   1      -1.169   5.995   3.896  0.00  0.00     0.006 A 
ENDROOT
BRANCH   1   8
ATOM      8  C1  UNL d   1      -2.848   5.753   5.763  0.00  0.00     0.054 C 
ATOM      9  C   UNL d   1      -4.320   5.424   5.965  0.00  0.00     0.018 C 
ENDBRANCH   1   8
TORSDOF 1
ENDMDL
