MODEL 1
REMARK minimizedAffinity 8.03534794
REMARK minimizedRMSD -1
REMARK  1 active torsions:
REMARK  status: ('A' for Active; 'I' for Inactive)
REMARK    1  A    between atoms: C1_2  and  C2_3 
ROOT
ATOM      1  C2  UNL d   1       3.338   4.927   0.235  0.00  0.00    -0.081 A 
ATOM      2  C3  UNL d   1       4.144   5.999   0.635  0.00  0.00     0.006 A 
ATOM      3  C4  UNL d   1       4.754   5.996   1.892  0.00  0.00     0.002 A 
ATOM      4  C5  UNL d   1       4.574   4.918   2.765  0.00  0.00    -0.080 A 
ATOM      5  C6  UNL d   1       5.248   4.888   4.105  0.00  0.00     0.076 C 
ATOM      6  C7  UNL d   1       3.755   3.854   2.372  0.00  0.00     0.002 A 
ATOM      7  C8  UNL d   1       3.144   3.858   1.116  0.00  0.00     0.006 A 
ENDROOT
BRANCH   1   8
ATOM      8  C1  UNL d   1       2.731   4.898  -1.145  0.00  0.00     0.054 C 
ATOM      9  C   UNL d   1       3.367   5.942  -2.051  0.00  0.00     0.018 C 
ENDBRANCH   1   8
TORSDOF 1
ENDMDL
