MODEL 1
REMARK minimizedAffinity -1.51061785
REMARK minimizedRMSD -1
REMARK  1 active torsions:
REMARK  status: ('A' for Active; 'I' for Inactive)
REMARK    1  A    between atoms: C1_2  and  C2_3 
ROOT
ATOM      1  C2  UNL d   1       4.324   5.246   1.108  0.00  0.00    -0.081 A 
ATOM      2  C3  UNL d   1       3.008   5.018   0.689  0.00  0.00     0.006 A 
ATOM      3  C4  UNL d   1       2.631   5.272  -0.632  0.00  0.00     0.002 A 
ATOM      4  C5  UNL d   1       3.565   5.751  -1.557  0.00  0.00    -0.080 A 
ATOM      5  C6  UNL d   1       3.180   5.999  -2.985  0.00  0.00     0.076 C 
ATOM      6  C7  UNL d   1       4.875   5.996  -1.134  0.00  0.00     0.002 A 
ATOM      7  C8  UNL d   1       5.253   5.743   0.187  0.00  0.00     0.006 A 
ENDROOT
BRANCH   1   8
ATOM      8  C1  UNL d   1       4.750   4.912   2.515  0.00  0.00     0.054 C 
ATOM      9  C   UNL d   1       5.693   5.968   3.073  0.00  0.00     0.018 C 
ENDBRANCH   1   8
TORSDOF 1
ENDMDL
