MODEL 1
REMARK minimizedAffinity 24.2474709
REMARK minimizedRMSD -1
REMARK  1 active torsions:
REMARK  status: ('A' for Active; 'I' for Inactive)
REMARK    1  A    between atoms: C1_2  and  C2_3 
ROOT
ATOM      1  C2  UNL d   1      -3.798  -0.364   1.829  0.00  0.00    -0.081 A 
ATOM      2  C3  UNL d   1      -2.821   0.031   2.750  0.00  0.00     0.006 A 
ATOM      3  C4  UNL d   1      -3.145   0.202   4.098  0.00  0.00     0.002 A 
ATOM      4  C5  UNL d   1      -4.450  -0.027   4.548  0.00  0.00    -0.080 A 
ATOM      5  C6  UNL d   1      -4.805   0.123   5.997  0.00  0.00     0.076 C 
ATOM      6  C7  UNL d   1      -5.431  -0.405   3.625  0.00  0.00     0.002 A 
ATOM      7  C8  UNL d   1      -5.107  -0.575   2.277  0.00  0.00     0.006 A 
ENDROOT
BRANCH   1   8
ATOM      8  C1  UNL d   1      -3.437  -0.612   0.386  0.00  0.00     0.054 C 
ATOM      9  C   UNL d   1      -4.639  -1.100  -0.409  0.00  0.00     0.018 C 
ENDBRANCH   1   8
TORSDOF 1
ENDMDL
