MODEL 1
REMARK minimizedAffinity -0.142353743
REMARK minimizedRMSD -1
REMARK  1 active torsions:
REMARK  status: ('A' for Active; 'I' for Inactive)
REMARK    1  A    between atoms: C1_2  and  C2_3 
ROOT
ATOM      1  C2  UNL d   1       5.382  -3.625   5.420  0.00  0.00    -0.081 A 
ATOM      2  C3  UNL d   1       4.214  -3.682   4.650  0.00  0.00     0.006 A 
ATOM      3  C4  UNL d   1       3.677  -2.519   4.092  0.00  0.00     0.002 A 
ATOM      4  C5  UNL d   1       4.302  -1.283   4.288  0.00  0.00    -0.080 A 
ATOM      5  C6  UNL d   1       3.753  -0.032   3.669  0.00  0.00     0.076 C 
ATOM      6  C7  UNL d   1       5.459  -1.224   5.072  0.00  0.00     0.002 A 
ATOM      7  C8  UNL d   1       5.996  -2.386   5.631  0.00  0.00     0.006 A 
ENDROOT
BRANCH   1   8
ATOM      8  C1  UNL d   1       6.000  -4.886   5.970  0.00  0.00     0.054 C 
ATOM      9  C   UNL d   1       5.998  -6.000   4.933  0.00  0.00     0.018 C 
ENDBRANCH   1   8
TORSDOF 1
ENDMDL
