MODEL 1
REMARK minimizedAffinity 8.75964737
REMARK minimizedRMSD -1
REMARK  1 active torsions:
REMARK  status: ('A' for Active; 'I' for Inactive)
REMARK    1  A    between atoms: C1_2  and  C2_3 
ROOT
ATOM      1  C2  UNL d   1       1.389  -0.614  -2.322  0.00  0.00    -0.081 A 
ATOM      2  C3  UNL d   1       2.539  -0.164  -1.662  0.00  0.00     0.006 A 
ATOM      3  C4  UNL d   1       2.802   1.203  -1.552  0.00  0.00     0.002 A 
ATOM      4  C5  UNL d   1       1.917   2.143  -2.092  0.00  0.00    -0.080 A 
ATOM      5  C6  UNL d   1       2.172   3.614  -1.954  0.00  0.00     0.076 C 
ATOM      6  C7  UNL d   1       0.777   1.692  -2.767  0.00  0.00     0.002 A 
ATOM      7  C8  UNL d   1       0.514   0.325  -2.878  0.00  0.00     0.006 A 
ENDROOT
BRANCH   1   8
ATOM      8  C1  UNL d   1       1.069  -2.086  -2.387  0.00  0.00     0.054 C 
ATOM      9  C   UNL d   1       0.689  -2.508  -3.799  0.00  0.00     0.018 C 
ENDBRANCH   1   8
TORSDOF 1
ENDMDL
