MODEL 1
REMARK minimizedAffinity 10.2452354
REMARK minimizedRMSD -1
REMARK  1 active torsions:
REMARK  status: ('A' for Active; 'I' for Inactive)
REMARK    1  A    between atoms: C1_2  and  C2_3 
ROOT
ATOM      1  C2  UNL d   1       4.515  -1.964   4.863  0.00  0.00    -0.081 A 
ATOM      2  C3  UNL d   1       3.738  -3.047   4.436  0.00  0.00     0.006 A 
ATOM      3  C4  UNL d   1       4.087  -4.353   4.791  0.00  0.00     0.002 A 
ATOM      4  C5  UNL d   1       5.213  -4.595   5.585  0.00  0.00    -0.080 A 
ATOM      5  C6  UNL d   1       5.581  -5.989   5.998  0.00  0.00     0.076 C 
ATOM      6  C7  UNL d   1       5.999  -3.514   5.997  0.00  0.00     0.002 A 
ATOM      7  C8  UNL d   1       5.651  -2.209   5.642  0.00  0.00     0.006 A 
ENDROOT
BRANCH   1   8
ATOM      8  C1  UNL d   1       4.105  -0.551   4.536  0.00  0.00     0.054 C 
ATOM      9  C   UNL d   1       3.701  -0.416   3.074  0.00  0.00     0.018 C 
ENDBRANCH   1   8
TORSDOF 1
ENDMDL
