MODEL 1
REMARK minimizedAffinity 15.0028677
REMARK minimizedRMSD -1
REMARK  1 active torsions:
REMARK  status: ('A' for Active; 'I' for Inactive)
REMARK    1  A    between atoms: C1_2  and  C2_3 
ROOT
ATOM      1  C2  UNL d   1       4.790  -3.041   5.239  0.00  0.00    -0.081 A 
ATOM      2  C3  UNL d   1       3.925  -2.520   4.269  0.00  0.00     0.006 A 
ATOM      3  C4  UNL d   1       4.099  -1.220   3.789  0.00  0.00     0.002 A 
ATOM      4  C5  UNL d   1       5.146  -0.423   4.264  0.00  0.00    -0.080 A 
ATOM      5  C6  UNL d   1       5.362   0.964   3.734  0.00  0.00     0.076 C 
ATOM      6  C7  UNL d   1       6.000  -0.936   5.245  0.00  0.00     0.002 A 
ATOM      7  C8  UNL d   1       5.826  -2.236   5.727  0.00  0.00     0.006 A 
ENDROOT
BRANCH   1   8
ATOM      8  C1  UNL d   1       4.644  -4.465   5.712  0.00  0.00     0.054 C 
ATOM      9  C   UNL d   1       6.000  -5.094   6.000  0.00  0.00     0.018 C 
ENDBRANCH   1   8
TORSDOF 1
ENDMDL
