MODEL 1
REMARK minimizedAffinity 10.3503437
REMARK minimizedRMSD -1
REMARK  1 active torsions:
REMARK  status: ('A' for Active; 'I' for Inactive)
REMARK    1  A    between atoms: C1_2  and  C2_3 
ROOT
ATOM      1  C2  UNL d   1       1.313  -0.647  -1.600  0.00  0.00    -0.081 A 
ATOM      2  C3  UNL d   1       2.590  -0.363  -1.101  0.00  0.00     0.006 A 
ATOM      3  C4  UNL d   1       2.947   0.947  -0.771  0.00  0.00     0.002 A 
ATOM      4  C5  UNL d   1       2.031   1.992  -0.927  0.00  0.00    -0.080 A 
ATOM      5  C6  UNL d   1       2.391   3.398  -0.548  0.00  0.00     0.076 C 
ATOM      6  C7  UNL d   1       0.761   1.712  -1.442  0.00  0.00     0.002 A 
ATOM      7  C8  UNL d   1       0.404   0.403  -1.772  0.00  0.00     0.006 A 
ENDROOT
BRANCH   1   8
ATOM      8  C1  UNL d   1       0.904  -2.067  -1.895  0.00  0.00     0.054 C 
ATOM      9  C   UNL d   1      -0.524  -2.337  -1.442  0.00  0.00     0.018 C 
ENDBRANCH   1   8
TORSDOF 1
ENDMDL
