MODEL 1
REMARK minimizedAffinity 9.49084759
REMARK minimizedRMSD -1
REMARK  1 active torsions:
REMARK  status: ('A' for Active; 'I' for Inactive)
REMARK    1  A    between atoms: C1_2  and  C2_3 
ROOT
ATOM      1  C2  UNL d   1       1.446   2.672  -2.306  0.00  0.00    -0.081 A 
ATOM      2  C3  UNL d   1       0.611   2.192  -3.322  0.00  0.00     0.006 A 
ATOM      3  C4  UNL d   1       0.256   0.842  -3.368  0.00  0.00     0.002 A 
ATOM      4  C5  UNL d   1       0.724  -0.049  -2.395  0.00  0.00    -0.080 A 
ATOM      5  C6  UNL d   1       0.327  -1.495  -2.416  0.00  0.00     0.076 C 
ATOM      6  C7  UNL d   1       1.573   0.428  -1.390  0.00  0.00     0.002 A 
ATOM      7  C8  UNL d   1       1.928   1.778  -1.344  0.00  0.00     0.006 A 
ENDROOT
BRANCH   1   8
ATOM      8  C1  UNL d   1       1.778   4.140  -2.216  0.00  0.00     0.054 C 
ATOM      9  C   UNL d   1       2.284   4.509  -0.829  0.00  0.00     0.018 C 
ENDBRANCH   1   8
TORSDOF 1
ENDMDL
