MODEL 1
REMARK minimizedAffinity 0.312046975
REMARK minimizedRMSD -1
REMARK  1 active torsions:
REMARK  status: ('A' for Active; 'I' for Inactive)
REMARK    1  A    between atoms: C1_2  and  C2_3 
ROOT
ATOM      1  C2  UNL d   1      -2.512   0.002  -0.373  0.00  0.00    -0.081 A 
ATOM      2  C3  UNL d   1      -2.374  -0.745   0.803  0.00  0.00     0.006 A 
ATOM      3  C4  UNL d   1      -3.500  -1.116   1.543  0.00  0.00     0.002 A 
ATOM      4  C5  UNL d   1      -4.781  -0.754   1.115  0.00  0.00    -0.080 A 
ATOM      5  C6  UNL d   1      -6.000  -1.172   1.883  0.00  0.00     0.076 C 
ATOM      6  C7  UNL d   1      -4.918   0.007  -0.051  0.00  0.00     0.002 A 
ATOM      7  C8  UNL d   1      -3.793   0.379  -0.791  0.00  0.00     0.006 A 
ENDROOT
BRANCH   1   8
ATOM      8  C1  UNL d   1      -1.305   0.348  -1.207  0.00  0.00     0.054 C 
ATOM      9  C   UNL d   1      -0.690   1.669  -0.768  0.00  0.00     0.018 C 
ENDBRANCH   1   8
TORSDOF 1
ENDMDL
