MODEL 1
REMARK minimizedAffinity -6.79249001
REMARK minimizedRMSD -1
REMARK  0 active torsions:
REMARK  status: ('A' for Active; 'I' for Inactive)
ROOT
ATOM      1  C1  DEN d   1       3.260   1.066   0.616  0.00  0.00     0.130 A 
ATOM      2  C2  DEN d   1       3.702  -0.260   1.039  0.00  0.00    -0.031 A 
ATOM      3  C3  DEN d   1       2.597  -1.209   0.796  0.00  0.00     0.027 A 
ATOM      4  C4  DEN d   1       0.259  -0.757  -0.195  0.00  0.00     0.027 A 
ATOM      5  C5  DEN d   1      -0.581   0.215  -0.692  0.00  0.00    -0.003 A 
ATOM      6  C6  DEN d   1      -0.214   1.534  -0.756  0.00  0.00     0.001 A 
ATOM      7  C7  DEN d   1       1.041   1.909  -0.357  0.00  0.00     0.017 A 
ATOM      8  C8  DEN d   1       1.891   0.936   0.152  0.00  0.00    -0.094 A 
ATOM      9  C9  DEN d   1       1.506  -0.393   0.197  0.00  0.00    -0.072 A 
ENDROOT
TORSDOF 0
ENDMDL
