MODEL 1
REMARK minimizedAffinity -4.7952075
REMARK minimizedRMSD -1
REMARK  0 active torsions:
REMARK  status: ('A' for Active; 'I' for Inactive)
ROOT
ATOM      1  C1  DEN d   1       2.137  -1.568  -0.465  0.00  0.00     0.130 A 
ATOM      2  C2  DEN d   1       3.312  -0.762  -0.145  0.00  0.00    -0.031 A 
ATOM      3  C3  DEN d   1       2.854   0.604   0.180  0.00  0.00     0.027 A 
ATOM      4  C4  DEN d   1       0.451   1.541   0.225  0.00  0.00     0.027 A 
ATOM      5  C5  DEN d   1      -0.876   1.238   0.016  0.00  0.00    -0.003 A 
ATOM      6  C6  DEN d   1      -1.286  -0.002  -0.398  0.00  0.00     0.001 A 
ATOM      7  C7  DEN d   1      -0.362  -0.999  -0.572  0.00  0.00     0.017 A 
ATOM      8  C8  DEN d   1       0.979  -0.699  -0.370  0.00  0.00    -0.094 A 
ATOM      9  C9  DEN d   1       1.372   0.557   0.060  0.00  0.00    -0.072 A 
ENDROOT
TORSDOF 0
ENDMDL
