MODEL 1
REMARK minimizedAffinity -6.50378132
REMARK minimizedRMSD -1
REMARK  0 active torsions:
REMARK  status: ('A' for Active; 'I' for Inactive)
ROOT
ATOM      1  C1  DEN d   1       0.230  -1.072  -0.486  0.00  0.00     0.130 A 
ATOM      2  C2  DEN d   1      -0.569   0.089  -0.868  0.00  0.00    -0.031 A 
ATOM      3  C3  DEN d   1       0.247   1.299  -0.640  0.00  0.00     0.027 A 
ATOM      4  C4  DEN d   1       2.658   1.485   0.257  0.00  0.00     0.027 A 
ATOM      5  C5  DEN d   1       3.739   0.772   0.726  0.00  0.00    -0.003 A 
ATOM      6  C6  DEN d   1       3.714  -0.591   0.856  0.00  0.00     0.001 A 
ATOM      7  C7  DEN d   1       2.601  -1.290   0.469  0.00  0.00     0.017 A 
ATOM      8  C8  DEN d   1       1.505  -0.578   0.001  0.00  0.00    -0.094 A 
ATOM      9  C9  DEN d   1       1.554   0.799  -0.134  0.00  0.00    -0.072 A 
ENDROOT
TORSDOF 0
ENDMDL
