MODEL 1
REMARK minimizedAffinity -2.56514311
REMARK minimizedRMSD -1
REMARK  0 active torsions:
REMARK  status: ('A' for Active; 'I' for Inactive)
ROOT
ATOM      1  C1  DEN d   1       2.076  -2.078   0.403  0.00  0.00     0.130 A 
ATOM      2  C2  DEN d   1       3.351  -1.375   0.506  0.00  0.00    -0.031 A 
ATOM      3  C3  DEN d   1       3.089   0.070   0.353  0.00  0.00     0.027 A 
ATOM      4  C4  DEN d   1       0.843   1.281  -0.028  0.00  0.00     0.027 A 
ATOM      5  C5  DEN d   1      -0.512   1.104  -0.196  0.00  0.00    -0.003 A 
ATOM      6  C6  DEN d   1      -1.091  -0.137  -0.210  0.00  0.00     0.001 A 
ATOM      7  C7  DEN d   1      -0.317  -1.249  -0.008  0.00  0.00     0.017 A 
ATOM      8  C8  DEN d   1       1.052  -1.080   0.155  0.00  0.00    -0.094 A 
ATOM      9  C9  DEN d   1       1.616   0.184   0.178  0.00  0.00    -0.072 A 
ENDROOT
TORSDOF 0
ENDMDL
