MODEL 1
REMARK minimizedAffinity 1.26762795
REMARK minimizedRMSD -1
REMARK  0 active torsions:
REMARK  status: ('A' for Active; 'I' for Inactive)
ROOT
ATOM      1  C1  DEN d   1       2.668   1.830  -0.244  0.00  0.00     0.130 A 
ATOM      2  C2  DEN d   1       4.071   1.890  -0.647  0.00  0.00    -0.031 A 
ATOM      3  C3  DEN d   1       4.507   0.521  -0.988  0.00  0.00     0.027 A 
ATOM      4  C4  DEN d   1       3.152  -1.673  -0.938  0.00  0.00     0.027 A 
ATOM      5  C5  DEN d   1       1.925  -2.228  -0.652  0.00  0.00    -0.003 A 
ATOM      6  C6  DEN d   1       0.877  -1.481  -0.182  0.00  0.00     0.001 A 
ATOM      7  C7  DEN d   1       1.025  -0.128  -0.026  0.00  0.00     0.017 A 
ATOM      8  C8  DEN d   1       2.262   0.437  -0.305  0.00  0.00    -0.094 A 
ATOM      9  C9  DEN d   1       3.305  -0.333  -0.791  0.00  0.00    -0.072 A 
ENDROOT
TORSDOF 0
ENDMDL
