MODEL 1
REMARK minimizedAffinity -2.70570683
REMARK minimizedRMSD -1
REMARK  1 active torsions:
REMARK  status: ('A' for Active; 'I' for Inactive)
REMARK    1  A    between atoms: N_2  and  C1_3 
ROOT
ATOM      1  C1  UNL d   1      -0.557   0.423  -0.118  0.00  0.00     0.143 A 
ATOM      2  C2  UNL d   1      -1.635   0.187   0.742  0.00  0.00    -0.057 A 
ATOM      3  C3  UNL d   1      -1.445   0.055   2.123  0.00  0.00     0.033 A 
ATOM      4  C4  UNL d   1      -0.167   0.129   2.666  0.00  0.00    -0.042 A 
ATOM      5  C5  UNL d   1       0.922   0.339   1.827  0.00  0.00     0.033 A 
ATOM      6  C6  UNL d   1       0.725   0.476   0.450  0.00  0.00    -0.057 A 
ENDROOT
BRANCH   1   7
ATOM      7  N   UNL d   1      -0.668   0.465  -1.510  0.00  0.00    -0.732 N 
ATOM      8  C   UNL d   1       0.263  -0.262  -2.346  0.00  0.00     0.284 C 
ATOM      9  H3  UNL d   1      -1.635   0.416  -1.824  0.00  0.00     0.395 HD
ENDBRANCH   1   7
TORSDOF 1
ENDMDL
