MODEL 1
REMARK minimizedAffinity -4.21529341
REMARK minimizedRMSD -1
REMARK  1 active torsions:
REMARK  status: ('A' for Active; 'I' for Inactive)
REMARK    1  A    between atoms: N_2  and  C1_3 
ROOT
ATOM      1  C1  UNL d   1      -0.995  -0.135   1.410  0.00  0.00     0.143 A 
ATOM      2  C2  UNL d   1      -1.971   0.108   0.438  0.00  0.00    -0.057 A 
ATOM      3  C3  UNL d   1      -1.641   0.682  -0.795  0.00  0.00     0.033 A 
ATOM      4  C4  UNL d   1      -0.328   1.051  -1.068  0.00  0.00    -0.042 A 
ATOM      5  C5  UNL d   1       0.655   0.842  -0.108  0.00  0.00     0.033 A 
ATOM      6  C6  UNL d   1       0.320   0.262   1.120  0.00  0.00    -0.057 A 
ENDROOT
BRANCH   1   7
ATOM      7  N   UNL d   1      -1.275  -0.612   2.693  0.00  0.00    -0.732 N 
ATOM      8  C   UNL d   1      -0.527  -0.137   3.836  0.00  0.00     0.284 C 
ATOM      9  H3  UNL d   1      -2.274  -0.710   2.861  0.00  0.00     0.395 HD
ENDBRANCH   1   7
TORSDOF 1
ENDMDL
