MODEL 1
REMARK minimizedAffinity -3.63612628
REMARK minimizedRMSD -1
REMARK  1 active torsions:
REMARK  status: ('A' for Active; 'I' for Inactive)
REMARK    1  A    between atoms: N_2  and  C1_3 
ROOT
ATOM      1  C1  UNL d   1      -0.081   0.221  -0.186  0.00  0.00     0.143 A 
ATOM      2  C2  UNL d   1       0.771   0.835   0.738  0.00  0.00    -0.057 A 
ATOM      3  C3  UNL d   1       0.547   0.727   2.116  0.00  0.00     0.033 A 
ATOM      4  C4  UNL d   1      -0.555   0.025   2.594  0.00  0.00    -0.042 A 
ATOM      5  C5  UNL d   1      -1.429  -0.573   1.693  0.00  0.00     0.033 A 
ATOM      6  C6  UNL d   1      -1.195  -0.467   0.318  0.00  0.00    -0.057 A 
ENDROOT
BRANCH   1   7
ATOM      7  N   UNL d   1       0.034   0.374  -1.570  0.00  0.00    -0.732 N 
ATOM      8  C   UNL d   1       0.503  -0.717  -2.396  0.00  0.00     0.284 C 
ATOM      9  H3  UNL d   1      -0.746   0.892  -1.969  0.00  0.00     0.395 HD
ENDBRANCH   1   7
TORSDOF 1
ENDMDL
