MODEL 1
REMARK minimizedAffinity -2.96704006
REMARK minimizedRMSD -1
REMARK  1 active torsions:
REMARK  status: ('A' for Active; 'I' for Inactive)
REMARK    1  A    between atoms: N_2  and  C1_3 
ROOT
ATOM      1  C1  UNL d   1      -0.966  -0.091   0.972  0.00  0.00     0.143 A 
ATOM      2  C2  UNL d   1       0.396   0.166   1.166  0.00  0.00    -0.057 A 
ATOM      3  C3  UNL d   1       0.951   0.207   2.451  0.00  0.00     0.033 A 
ATOM      4  C4  UNL d   1       0.146   0.019   3.569  0.00  0.00    -0.042 A 
ATOM      5  C5  UNL d   1      -1.214  -0.214   3.401  0.00  0.00     0.033 A 
ATOM      6  C6  UNL d   1      -1.762  -0.259   2.116  0.00  0.00    -0.057 A 
ENDROOT
BRANCH   1   7
ATOM      7  N   UNL d   1      -1.596  -0.046  -0.274  0.00  0.00    -0.732 N 
ATOM      8  C   UNL d   1      -1.019   0.708  -1.365  0.00  0.00     0.284 C 
ATOM      9  H3  UNL d   1      -1.978  -0.949  -0.549  0.00  0.00     0.395 HD
ENDBRANCH   1   7
TORSDOF 1
ENDMDL
