MODEL 1
REMARK minimizedAffinity -5.24334002
REMARK minimizedRMSD -1
REMARK  1 active torsions:
REMARK  status: ('A' for Active; 'I' for Inactive)
REMARK    1  A    between atoms: N_2  and  C1_3 
ROOT
ATOM      1  C1  UNL d   1      -1.159  -0.092   1.555  0.00  0.00     0.143 A 
ATOM      2  C2  UNL d   1      -2.023   0.352   0.549  0.00  0.00    -0.057 A 
ATOM      3  C3  UNL d   1      -1.535   0.771  -0.694  0.00  0.00     0.033 A 
ATOM      4  C4  UNL d   1      -0.167   0.781  -0.944  0.00  0.00    -0.042 A 
ATOM      5  C5  UNL d   1       0.713   0.367   0.050  0.00  0.00     0.033 A 
ATOM      6  C6  UNL d   1       0.219  -0.057   1.287  0.00  0.00    -0.057 A 
ENDROOT
BRANCH   1   7
ATOM      7  N   UNL d   1      -1.574  -0.429   2.846  0.00  0.00    -0.732 N 
ATOM      8  C   UNL d   1      -1.056   0.281   3.996  0.00  0.00     0.284 C 
ATOM      9  H3  UNL d   1      -2.572  -0.626   2.894  0.00  0.00     0.395 HD
ENDBRANCH   1   7
TORSDOF 1
ENDMDL
