MODEL 1
REMARK minimizedAffinity -2.36566401
REMARK minimizedRMSD -1
REMARK  1 active torsions:
REMARK  status: ('A' for Active; 'I' for Inactive)
REMARK    1  A    between atoms: N_2  and  C1_3 
ROOT
ATOM      1  C1  UNL d   1       0.077  -0.327  -2.215  0.00  0.00     0.143 A 
ATOM      2  C2  UNL d   1      -0.599  -1.386  -2.830  0.00  0.00    -0.057 A 
ATOM      3  C3  UNL d   1       0.071  -2.289  -3.664  0.00  0.00     0.033 A 
ATOM      4  C4  UNL d   1       1.429  -2.131  -3.922  0.00  0.00    -0.042 A 
ATOM      5  C5  UNL d   1       2.116  -1.071  -3.342  0.00  0.00     0.033 A 
ATOM      6  C6  UNL d   1       1.442  -0.176  -2.504  0.00  0.00    -0.057 A 
ENDROOT
BRANCH   1   7
ATOM      7  N   UNL d   1      -0.553   0.661  -1.455  0.00  0.00    -0.732 N 
ATOM      8  C   UNL d   1      -1.220   0.324  -0.216  0.00  0.00     0.284 C 
ATOM      9  H3  UNL d   1      -0.014   1.524  -1.416  0.00  0.00     0.395 HD
ENDBRANCH   1   7
TORSDOF 1
ENDMDL
