MODEL 1
REMARK minimizedAffinity -3.78344345
REMARK minimizedRMSD -1
REMARK  1 active torsions:
REMARK  status: ('A' for Active; 'I' for Inactive)
REMARK    1  A    between atoms: N_2  and  C1_3 
ROOT
ATOM      1  C1  UNL d   1       0.107   0.057   0.335  0.00  0.00     0.143 A 
ATOM      2  C2  UNL d   1       0.969   0.518   1.337  0.00  0.00    -0.057 A 
ATOM      3  C3  UNL d   1       0.727   0.238   2.688  0.00  0.00     0.033 A 
ATOM      4  C4  UNL d   1      -0.400  -0.485   3.064  0.00  0.00    -0.042 A 
ATOM      5  C5  UNL d   1      -1.284  -0.931   2.087  0.00  0.00     0.033 A 
ATOM      6  C6  UNL d   1      -1.033  -0.654   0.740  0.00  0.00    -0.057 A 
ENDROOT
BRANCH   1   7
ATOM      7  N   UNL d   1       0.240   0.386  -1.016  0.00  0.00    -0.732 N 
ATOM      8  C   UNL d   1       0.678  -0.605  -1.976  0.00  0.00     0.284 C 
ATOM      9  H3  UNL d   1      -0.517   0.980  -1.347  0.00  0.00     0.395 HD
ENDBRANCH   1   7
TORSDOF 1
ENDMDL
