MODEL 1
REMARK minimizedAffinity -3.29918456
REMARK minimizedRMSD -1
REMARK  1 active torsions:
REMARK  status: ('A' for Active; 'I' for Inactive)
REMARK    1  A    between atoms: N_2  and  C1_3 
ROOT
ATOM      1  C1  UNL d   1       0.354   0.070   1.077  0.00  0.00     0.143 A 
ATOM      2  C2  UNL d   1       0.830   0.474   2.329  0.00  0.00    -0.057 A 
ATOM      3  C3  UNL d   1       0.135   0.163   3.505  0.00  0.00     0.033 A 
ATOM      4  C4  UNL d   1      -1.067  -0.534   3.446  0.00  0.00    -0.042 A 
ATOM      5  C5  UNL d   1      -1.572  -0.924   2.210  0.00  0.00     0.033 A 
ATOM      6  C6  UNL d   1      -0.870  -0.616   1.040  0.00  0.00    -0.057 A 
ENDROOT
BRANCH   1   7
ATOM      7  N   UNL d   1       0.948   0.433  -0.134  0.00  0.00    -0.732 N 
ATOM      8  C   UNL d   1       0.397  -0.026  -1.391  0.00  0.00     0.284 C 
ATOM      9  H3  UNL d   1       1.250   1.404  -0.143  0.00  0.00     0.395 HD
ENDBRANCH   1   7
TORSDOF 1
ENDMDL
