MODEL 1
REMARK minimizedAffinity -2.97722912
REMARK minimizedRMSD -1
REMARK  1 active torsions:
REMARK  status: ('A' for Active; 'I' for Inactive)
REMARK    1  A    between atoms: N_2  and  C1_3 
ROOT
ATOM      1  C1  UNL d   1       0.379   0.226   0.903  0.00  0.00     0.143 A 
ATOM      2  C2  UNL d   1       0.421   0.024   2.287  0.00  0.00    -0.057 A 
ATOM      3  C3  UNL d   1      -0.721  -0.364   2.999  0.00  0.00     0.033 A 
ATOM      4  C4  UNL d   1      -1.935  -0.530   2.342  0.00  0.00    -0.042 A 
ATOM      5  C5  UNL d   1      -2.006  -0.311   0.971  0.00  0.00     0.033 A 
ATOM      6  C6  UNL d   1      -0.861   0.070   0.264  0.00  0.00    -0.057 A 
ENDROOT
BRANCH   1   7
ATOM      7  N   UNL d   1       1.455   0.707   0.154  0.00  0.00    -0.732 N 
ATOM      8  C   UNL d   1       2.646   1.203   0.810  0.00  0.00     0.284 C 
ATOM      9  H3  UNL d   1       1.640   0.139  -0.670  0.00  0.00     0.395 HD
ENDBRANCH   1   7
TORSDOF 1
ENDMDL
