MODEL 1
REMARK minimizedAffinity -4.18077946
REMARK minimizedRMSD -1
REMARK  1 active torsions:
REMARK  status: ('A' for Active; 'I' for Inactive)
REMARK    1  A    between atoms: N_2  and  C1_3 
ROOT
ATOM      1  C1  UNL d   1      -0.689   0.161   0.181  0.00  0.00     0.143 A 
ATOM      2  C2  UNL d   1       0.328   0.306   1.131  0.00  0.00    -0.057 A 
ATOM      3  C3  UNL d   1       0.094   0.058   2.489  0.00  0.00     0.033 A 
ATOM      4  C4  UNL d   1      -1.173  -0.312   2.926  0.00  0.00    -0.042 A 
ATOM      5  C5  UNL d   1      -2.205  -0.438   2.004  0.00  0.00     0.033 A 
ATOM      6  C6  UNL d   1      -1.964  -0.196   0.648  0.00  0.00    -0.057 A 
ENDROOT
BRANCH   1   7
ATOM      7  N   UNL d   1      -0.545   0.487  -1.169  0.00  0.00    -0.732 N 
ATOM      8  C   UNL d   1       0.759   0.466  -1.798  0.00  0.00     0.284 C 
ATOM      9  H3  UNL d   1      -1.290   0.101  -1.744  0.00  0.00     0.395 HD
ENDBRANCH   1   7
TORSDOF 1
ENDMDL
