MODEL 1
REMARK minimizedAffinity -3.52205968
REMARK minimizedRMSD -1
REMARK  1 active torsions:
REMARK  status: ('A' for Active; 'I' for Inactive)
REMARK    1  A    between atoms: N_2  and  C1_3 
ROOT
ATOM      1  C1  UNL d   1      -0.034   0.034  -1.068  0.00  0.00     0.143 A 
ATOM      2  C2  UNL d   1      -1.195  -0.336  -0.381  0.00  0.00    -0.057 A 
ATOM      3  C3  UNL d   1      -1.214  -0.425   1.016  0.00  0.00     0.033 A 
ATOM      4  C4  UNL d   1      -0.060  -0.173   1.751  0.00  0.00    -0.042 A 
ATOM      5  C5  UNL d   1       1.112   0.172   1.088  0.00  0.00     0.033 A 
ATOM      6  C6  UNL d   1       1.123   0.266  -0.307  0.00  0.00    -0.057 A 
ENDROOT
BRANCH   1   7
ATOM      7  N   UNL d   1       0.075   0.045  -2.461  0.00  0.00    -0.732 N 
ATOM      8  C   UNL d   1      -0.057  -1.180  -3.220  0.00  0.00     0.284 C 
ATOM      9  H3  UNL d   1      -0.390   0.846  -2.881  0.00  0.00     0.395 HD
ENDBRANCH   1   7
TORSDOF 1
ENDMDL
