MODEL 1
REMARK minimizedAffinity -1.96570015
REMARK minimizedRMSD -1
REMARK  1 active torsions:
REMARK  status: ('A' for Active; 'I' for Inactive)
REMARK    1  A    between atoms: N_2  and  C1_3 
ROOT
ATOM      1  C1  UNL d   1       0.364  -0.104   1.644  0.00  0.00     0.143 A 
ATOM      2  C2  UNL d   1       0.383  -0.001   3.039  0.00  0.00    -0.057 A 
ATOM      3  C3  UNL d   1      -0.636  -0.555   3.822  0.00  0.00     0.033 A 
ATOM      4  C4  UNL d   1      -1.711  -1.201   3.220  0.00  0.00    -0.042 A 
ATOM      5  C5  UNL d   1      -1.764  -1.294   1.834  0.00  0.00     0.033 A 
ATOM      6  C6  UNL d   1      -0.739  -0.744   1.057  0.00  0.00    -0.057 A 
ENDROOT
BRANCH   1   7
ATOM      7  N   UNL d   1       1.297   0.511   0.805  0.00  0.00    -0.732 N 
ATOM      8  C   UNL d   1       1.067   0.589  -0.622  0.00  0.00     0.284 C 
ATOM      9  H3  UNL d   1       1.683   1.360   1.211  0.00  0.00     0.395 HD
ENDBRANCH   1   7
TORSDOF 1
ENDMDL
