MODEL 1
REMARK minimizedAffinity -4.28942204
REMARK minimizedRMSD -1
REMARK  1 active torsions:
REMARK  status: ('A' for Active; 'I' for Inactive)
REMARK    1  A    between atoms: N_2  and  C1_3 
ROOT
ATOM      1  C1  UNL d   1       0.117  -0.017  -0.499  0.00  0.00     0.143 A 
ATOM      2  C2  UNL d   1      -1.156  -0.065   0.081  0.00  0.00    -0.057 A 
ATOM      3  C3  UNL d   1      -1.324  -0.363   1.438  0.00  0.00     0.033 A 
ATOM      4  C4  UNL d   1      -0.222  -0.648   2.237  0.00  0.00    -0.042 A 
ATOM      5  C5  UNL d   1       1.051  -0.631   1.676  0.00  0.00     0.033 A 
ATOM      6  C6  UNL d   1       1.213  -0.326   0.321  0.00  0.00    -0.057 A 
ENDROOT
BRANCH   1   7
ATOM      7  N   UNL d   1       0.343   0.176  -1.863  0.00  0.00    -0.732 N 
ATOM      8  C   UNL d   1       0.992  -0.847  -2.655  0.00  0.00     0.284 C 
ATOM      9  H3  UNL d   1      -0.443   0.625  -2.328  0.00  0.00     0.395 HD
ENDBRANCH   1   7
TORSDOF 1
ENDMDL
