MODEL 1
REMARK minimizedAffinity -3.82296324
REMARK minimizedRMSD -1
REMARK  1 active torsions:
REMARK  status: ('A' for Active; 'I' for Inactive)
REMARK    1  A    between atoms: N_2  and  C1_3 
ROOT
ATOM      1  C1  UNL d   1       0.161   0.122   1.433  0.00  0.00     0.143 A 
ATOM      2  C2  UNL d   1      -0.794   0.337   0.434  0.00  0.00    -0.057 A 
ATOM      3  C3  UNL d   1      -0.417   0.548  -0.898  0.00  0.00     0.033 A 
ATOM      4  C4  UNL d   1       0.929   0.577  -1.250  0.00  0.00    -0.042 A 
ATOM      5  C5  UNL d   1       1.896   0.390  -0.269  0.00  0.00     0.033 A 
ATOM      6  C6  UNL d   1       1.513   0.174   1.058  0.00  0.00    -0.057 A 
ENDROOT
BRANCH   1   7
ATOM      7  N   UNL d   1      -0.147   0.005   2.791  0.00  0.00    -0.732 N 
ATOM      8  C   UNL d   1      -0.972  -1.084   3.268  0.00  0.00     0.284 C 
ATOM      9  H3  UNL d   1       0.648   0.217   3.389  0.00  0.00     0.395 HD
ENDBRANCH   1   7
TORSDOF 1
ENDMDL
