MODEL 1
REMARK minimizedAffinity -1.43540764
REMARK minimizedRMSD -1
REMARK  1 active torsions:
REMARK  status: ('A' for Active; 'I' for Inactive)
REMARK    1  A    between atoms: N_2  and  C1_3 
ROOT
ATOM      1  C1  UNL d   1       0.257   0.108   0.081  0.00  0.00     0.143 A 
ATOM      2  C2  UNL d   1       1.384   0.438   0.841  0.00  0.00    -0.057 A 
ATOM      3  C3  UNL d   1       1.425   0.198   2.220  0.00  0.00     0.033 A 
ATOM      4  C4  UNL d   1       0.324  -0.350   2.870  0.00  0.00    -0.042 A 
ATOM      5  C5  UNL d   1      -0.816  -0.663   2.138  0.00  0.00     0.033 A 
ATOM      6  C6  UNL d   1      -0.848  -0.428   0.760  0.00  0.00    -0.057 A 
ENDROOT
BRANCH   1   7
ATOM      7  N   UNL d   1       0.118   0.411  -1.276  0.00  0.00    -0.732 N 
ATOM      8  C   UNL d   1       0.913  -0.276  -2.270  0.00  0.00     0.284 C 
ATOM      9  H3  UNL d   1      -0.853   0.552  -1.545  0.00  0.00     0.395 HD
ENDBRANCH   1   7
TORSDOF 1
ENDMDL
