MODEL 1
REMARK minimizedAffinity -3.0124824
REMARK minimizedRMSD -1
REMARK  0 active torsions:
REMARK  status: ('A' for Active; 'I' for Inactive)
ROOT
ATOM      1  C   UNL d   1       1.269   2.475  -3.287  0.00  0.00     0.078 C 
ATOM      2  C1  UNL d   1       0.871   1.879  -1.970  0.00  0.00    -0.077 A 
ATOM      3  C2  UNL d   1       0.569   0.517  -1.856  0.00  0.00    -0.001 A 
ATOM      4  C3  UNL d   1       0.191  -0.022  -0.625  0.00  0.00     0.003 A 
ATOM      5  C4  UNL d   1       0.110   0.795   0.501  0.00  0.00    -0.005 A 
ATOM      6  C5  UNL d   1       0.406   2.152   0.397  0.00  0.00     0.003 A 
ATOM      7  C6  UNL d   1       0.785   2.693  -0.833  0.00  0.00    -0.001 A 
ENDROOT
TORSDOF 0
ENDMDL
