MODEL 1
REMARK minimizedAffinity -3.00059772
REMARK minimizedRMSD -1
REMARK  0 active torsions:
REMARK  status: ('A' for Active; 'I' for Inactive)
ROOT
ATOM      1  C   UNL d   1       0.763   1.381   0.197  0.00  0.00     0.078 C 
ATOM      2  C1  UNL d   1       1.041   1.878  -1.190  0.00  0.00    -0.077 A 
ATOM      3  C2  UNL d   1       2.337   1.848  -1.720  0.00  0.00    -0.001 A 
ATOM      4  C3  UNL d   1       2.583   2.323  -3.009  0.00  0.00     0.003 A 
ATOM      5  C4  UNL d   1       1.538   2.833  -3.779  0.00  0.00    -0.005 A 
ATOM      6  C5  UNL d   1       0.246   2.868  -3.258  0.00  0.00     0.003 A 
ATOM      7  C6  UNL d   1      -0.002   2.393  -1.969  0.00  0.00    -0.001 A 
ENDROOT
TORSDOF 0
ENDMDL
