MODEL 1
REMARK minimizedAffinity -4.37116957
REMARK minimizedRMSD -1
REMARK  0 active torsions:
REMARK  status: ('A' for Active; 'I' for Inactive)
ROOT
ATOM      1  C   UNL d   1      -1.804  -2.784   1.207  0.00  0.00     0.078 C 
ATOM      2  C1  UNL d   1      -0.909  -1.622   0.890  0.00  0.00    -0.077 A 
ATOM      3  C2  UNL d   1      -1.433  -0.335   0.719  0.00  0.00    -0.001 A 
ATOM      4  C3  UNL d   1      -0.589   0.735   0.415  0.00  0.00     0.003 A 
ATOM      5  C4  UNL d   1       0.782   0.528   0.279  0.00  0.00    -0.005 A 
ATOM      6  C5  UNL d   1       1.311  -0.750   0.445  0.00  0.00     0.003 A 
ATOM      7  C6  UNL d   1       0.470  -1.821   0.749  0.00  0.00    -0.001 A 
ENDROOT
TORSDOF 0
ENDMDL
