MODEL 1
REMARK minimizedAffinity -2.54088616
REMARK minimizedRMSD -1
REMARK  0 active torsions:
REMARK  status: ('A' for Active; 'I' for Inactive)
ROOT
ATOM      1  C   UNL d   1      -2.635  -0.396   2.694  0.00  0.00     0.078 C 
ATOM      2  C1  UNL d   1      -1.511  -0.626   1.728  0.00  0.00    -0.077 A 
ATOM      3  C2  UNL d   1      -0.825  -1.845   1.698  0.00  0.00    -0.001 A 
ATOM      4  C3  UNL d   1       0.226  -2.042   0.800  0.00  0.00     0.003 A 
ATOM      5  C4  UNL d   1       0.601  -1.022  -0.072  0.00  0.00    -0.005 A 
ATOM      6  C5  UNL d   1      -0.075   0.196  -0.048  0.00  0.00     0.003 A 
ATOM      7  C6  UNL d   1      -1.126   0.394   0.849  0.00  0.00    -0.001 A 
ENDROOT
TORSDOF 0
ENDMDL
