MODEL 1
REMARK minimizedAffinity -5.0715456
REMARK minimizedRMSD -1
REMARK  0 active torsions:
REMARK  status: ('A' for Active; 'I' for Inactive)
ROOT
ATOM      1  C   UNL d   1       0.632   0.934  -0.217  0.00  0.00     0.078 C 
ATOM      2  C1  UNL d   1       0.236  -0.368   0.413  0.00  0.00    -0.077 A 
ATOM      3  C2  UNL d   1       0.931  -1.549   0.126  0.00  0.00    -0.001 A 
ATOM      4  C3  UNL d   1       0.545  -2.756   0.712  0.00  0.00     0.003 A 
ATOM      5  C4  UNL d   1      -0.537  -2.793   1.589  0.00  0.00    -0.005 A 
ATOM      6  C5  UNL d   1      -1.236  -1.623   1.879  0.00  0.00     0.003 A 
ATOM      7  C6  UNL d   1      -0.852  -0.416   1.293  0.00  0.00    -0.001 A 
ENDROOT
TORSDOF 0
ENDMDL
