MODEL 1
REMARK minimizedAffinity -4.60113764
REMARK minimizedRMSD -1
REMARK  0 active torsions:
REMARK  status: ('A' for Active; 'I' for Inactive)
ROOT
ATOM      1  C   UNL d   1       0.851   2.312  -3.411  0.00  0.00     0.078 C 
ATOM      2  C1  UNL d   1       0.790   1.297  -2.309  0.00  0.00    -0.077 A 
ATOM      3  C2  UNL d   1       1.004   1.666  -0.976  0.00  0.00    -0.001 A 
ATOM      4  C3  UNL d   1       0.953   0.709   0.039  0.00  0.00     0.003 A 
ATOM      5  C4  UNL d   1       0.691  -0.624  -0.270  0.00  0.00    -0.005 A 
ATOM      6  C5  UNL d   1       0.479  -1.002  -1.594  0.00  0.00     0.003 A 
ATOM      7  C6  UNL d   1       0.529  -0.046  -2.610  0.00  0.00    -0.001 A 
ENDROOT
TORSDOF 0
ENDMDL
