MODEL 1
REMARK minimizedAffinity -3.53027773
REMARK minimizedRMSD -1
REMARK  0 active torsions:
REMARK  status: ('A' for Active; 'I' for Inactive)
ROOT
ATOM      1  C   UNL d   1       0.685   1.291  -0.410  0.00  0.00     0.078 C 
ATOM      2  C1  UNL d   1      -0.008  -0.004  -0.107  0.00  0.00    -0.077 A 
ATOM      3  C2  UNL d   1      -0.241  -0.405   1.214  0.00  0.00    -0.001 A 
ATOM      4  C3  UNL d   1      -0.879  -1.618   1.481  0.00  0.00     0.003 A 
ATOM      5  C4  UNL d   1      -1.288  -2.439   0.433  0.00  0.00    -0.005 A 
ATOM      6  C5  UNL d   1      -1.059  -2.049  -0.885  0.00  0.00     0.003 A 
ATOM      7  C6  UNL d   1      -0.421  -0.837  -1.154  0.00  0.00    -0.001 A 
ENDROOT
TORSDOF 0
ENDMDL
