MODEL 1
REMARK minimizedAffinity -3.93786263
REMARK minimizedRMSD -1
REMARK  0 active torsions:
REMARK  status: ('A' for Active; 'I' for Inactive)
ROOT
ATOM      1  C   UNL d   1      -1.916   1.322   1.035  0.00  0.00     0.078 C 
ATOM      2  C1  UNL d   1      -1.268  -0.030   1.063  0.00  0.00    -0.077 A 
ATOM      3  C2  UNL d   1      -1.736  -1.037   1.917  0.00  0.00    -0.001 A 
ATOM      4  C3  UNL d   1      -1.117  -2.287   1.940  0.00  0.00     0.003 A 
ATOM      5  C4  UNL d   1      -0.025  -2.543   1.113  0.00  0.00    -0.005 A 
ATOM      6  C5  UNL d   1       0.449  -1.547   0.262  0.00  0.00     0.003 A 
ATOM      7  C6  UNL d   1      -0.169  -0.295   0.237  0.00  0.00    -0.001 A 
ENDROOT
TORSDOF 0
ENDMDL
