MODEL 1
REMARK minimizedAffinity -2.72735882
REMARK minimizedRMSD -1
REMARK  0 active torsions:
REMARK  status: ('A' for Active; 'I' for Inactive)
ROOT
ATOM      1  C   UNL d   1      -0.290  -2.588   1.396  0.00  0.00     0.078 C 
ATOM      2  C1  UNL d   1       0.213  -1.373   0.676  0.00  0.00    -0.077 A 
ATOM      3  C2  UNL d   1      -0.555  -0.203   0.612  0.00  0.00    -0.001 A 
ATOM      4  C3  UNL d   1      -0.078   0.917  -0.071  0.00  0.00     0.003 A 
ATOM      5  C4  UNL d   1       1.167   0.879  -0.695  0.00  0.00    -0.005 A 
ATOM      6  C5  UNL d   1       1.937  -0.281  -0.638  0.00  0.00     0.003 A 
ATOM      7  C6  UNL d   1       1.462  -1.402   0.044  0.00  0.00    -0.001 A 
ENDROOT
TORSDOF 0
ENDMDL
