MODEL 1
REMARK minimizedAffinity -3.79029536
REMARK minimizedRMSD -1
REMARK  0 active torsions:
REMARK  status: ('A' for Active; 'I' for Inactive)
ROOT
ATOM      1  C   UNL d   1       1.104   1.632  -1.927  0.00  0.00     0.078 C 
ATOM      2  C1  UNL d   1       0.706   0.582  -0.933  0.00  0.00    -0.077 A 
ATOM      3  C2  UNL d   1      -0.099   0.900   0.168  0.00  0.00    -0.001 A 
ATOM      4  C3  UNL d   1      -0.454  -0.086   1.091  0.00  0.00     0.003 A 
ATOM      5  C4  UNL d   1      -0.007  -1.395   0.923  0.00  0.00    -0.005 A 
ATOM      6  C5  UNL d   1       0.795  -1.720  -0.169  0.00  0.00     0.003 A 
ATOM      7  C6  UNL d   1       1.151  -0.736  -1.092  0.00  0.00    -0.001 A 
ENDROOT
TORSDOF 0
ENDMDL
