MODEL 1
REMARK minimizedAffinity -2.28194356
REMARK minimizedRMSD -1
REMARK  0 active torsions:
REMARK  status: ('A' for Active; 'I' for Inactive)
ROOT
ATOM      1  C   UNL d   1       2.390  -0.237   0.658  0.00  0.00     0.077 C 
ATOM      2  C1  UNL d   1       1.387   0.555   1.442  0.00  0.00    -0.074 A 
ATOM      3  C2  UNL d   1       1.696   1.830   1.925  0.00  0.00    -0.005 A 
ATOM      4  C3  UNL d   1       0.749   2.559   2.645  0.00  0.00     0.006 A 
ATOM      5  C4  UNL d   1      -0.514   2.020   2.889  0.00  0.00    -0.005 A 
ATOM      6  C5  UNL d   1      -0.842   0.746   2.414  0.00  0.00    -0.074 A 
ATOM      7  C6  UNL d   1      -2.199   0.156   2.660  0.00  0.00     0.077 C 
ATOM      8  C7  UNL d   1       0.112   0.023   1.685  0.00  0.00    -0.001 A 
ENDROOT
TORSDOF 0
ENDMDL
