MODEL 1
REMARK minimizedAffinity -3.67215014
REMARK minimizedRMSD -1
REMARK  0 active torsions:
REMARK  status: ('A' for Active; 'I' for Inactive)
ROOT
ATOM      1  C   UNL d   1       1.403   1.511  -3.376  0.00  0.00     0.077 C 
ATOM      2  C1  UNL d   1       1.247   0.890  -2.020  0.00  0.00    -0.074 A 
ATOM      3  C2  UNL d   1       2.356   0.402  -1.322  0.00  0.00    -0.005 A 
ATOM      4  C3  UNL d   1       2.197  -0.165  -0.057  0.00  0.00     0.006 A 
ATOM      5  C4  UNL d   1       0.930  -0.249   0.521  0.00  0.00    -0.005 A 
ATOM      6  C5  UNL d   1      -0.191   0.235  -0.162  0.00  0.00    -0.074 A 
ATOM      7  C6  UNL d   1      -1.559   0.161   0.449  0.00  0.00     0.077 C 
ATOM      8  C7  UNL d   1      -0.022   0.809  -1.430  0.00  0.00    -0.001 A 
ENDROOT
TORSDOF 0
ENDMDL
