MODEL 1
REMARK minimizedAffinity -4.64201403
REMARK minimizedRMSD -1
REMARK  0 active torsions:
REMARK  status: ('A' for Active; 'I' for Inactive)
ROOT
ATOM      1  C   UNL d   1      -0.242   0.637   3.553  0.00  0.00     0.077 C 
ATOM      2  C1  UNL d   1      -0.247   0.074   2.162  0.00  0.00    -0.074 A 
ATOM      3  C2  UNL d   1       0.941  -0.333   1.547  0.00  0.00    -0.005 A 
ATOM      4  C3  UNL d   1       0.919  -0.863   0.257  0.00  0.00     0.006 A 
ATOM      5  C4  UNL d   1      -0.289  -0.991  -0.430  0.00  0.00    -0.005 A 
ATOM      6  C5  UNL d   1      -1.488  -0.589   0.170  0.00  0.00    -0.074 A 
ATOM      7  C6  UNL d   1      -2.796  -0.729  -0.550  0.00  0.00     0.077 C 
ATOM      8  C7  UNL d   1      -1.458  -0.064   1.469  0.00  0.00    -0.001 A 
ENDROOT
TORSDOF 0
ENDMDL
