MODEL 1
REMARK minimizedAffinity -4.04059267
REMARK minimizedRMSD -1
REMARK  0 active torsions:
REMARK  status: ('A' for Active; 'I' for Inactive)
ROOT
ATOM      1  C   UNL d   1      -1.186   1.251  -0.767  0.00  0.00     0.077 C 
ATOM      2  C1  UNL d   1      -0.688   0.910   0.606  0.00  0.00    -0.074 A 
ATOM      3  C2  UNL d   1      -1.440   1.225   1.742  0.00  0.00    -0.005 A 
ATOM      4  C3  UNL d   1      -0.968   0.893   3.012  0.00  0.00     0.006 A 
ATOM      5  C4  UNL d   1       0.258   0.243   3.158  0.00  0.00    -0.005 A 
ATOM      6  C5  UNL d   1       1.023  -0.081   2.034  0.00  0.00    -0.074 A 
ATOM      7  C6  UNL d   1       2.338  -0.788   2.172  0.00  0.00     0.077 C 
ATOM      8  C7  UNL d   1       0.539   0.250   0.760  0.00  0.00    -0.001 A 
ENDROOT
TORSDOF 0
ENDMDL
