MODEL 1
REMARK minimizedAffinity -1.46733284
REMARK minimizedRMSD -1
REMARK  0 active torsions:
REMARK  status: ('A' for Active; 'I' for Inactive)
ROOT
ATOM      1  C   UNL d   1       0.780  -0.510  -3.568  0.00  0.00     0.077 C 
ATOM      2  C1  UNL d   1       0.599  -0.456  -2.080  0.00  0.00    -0.074 A 
ATOM      3  C2  UNL d   1       1.659  -0.751  -1.216  0.00  0.00    -0.005 A 
ATOM      4  C3  UNL d   1       1.479  -0.688   0.165  0.00  0.00     0.006 A 
ATOM      5  C4  UNL d   1       0.239  -0.330   0.696  0.00  0.00    -0.005 A 
ATOM      6  C5  UNL d   1      -0.832  -0.031  -0.152  0.00  0.00    -0.074 A 
ATOM      7  C6  UNL d   1      -2.168   0.366   0.402  0.00  0.00     0.077 C 
ATOM      8  C7  UNL d   1      -0.641  -0.090  -1.539  0.00  0.00    -0.001 A 
ENDROOT
TORSDOF 0
ENDMDL
