MODEL 1
REMARK minimizedAffinity -3.00428772
REMARK minimizedRMSD -1
REMARK  0 active torsions:
REMARK  status: ('A' for Active; 'I' for Inactive)
ROOT
ATOM      1  C   UNL d   1       2.596  -0.909   0.385  0.00  0.00     0.077 C 
ATOM      2  C1  UNL d   1       1.158  -0.490   0.306  0.00  0.00    -0.074 A 
ATOM      3  C2  UNL d   1       0.420  -0.672  -0.868  0.00  0.00    -0.005 A 
ATOM      4  C3  UNL d   1      -0.919  -0.286  -0.924  0.00  0.00     0.006 A 
ATOM      5  C4  UNL d   1      -1.533   0.286   0.191  0.00  0.00    -0.005 A 
ATOM      6  C5  UNL d   1      -0.811   0.475   1.374  0.00  0.00    -0.074 A 
ATOM      7  C6  UNL d   1      -1.458   1.079   2.585  0.00  0.00     0.077 C 
ATOM      8  C7  UNL d   1       0.532   0.078   1.424  0.00  0.00    -0.001 A 
ENDROOT
TORSDOF 0
ENDMDL
