MODEL 1
REMARK minimizedAffinity 3.67546034
REMARK minimizedRMSD -1
REMARK  0 active torsions:
REMARK  status: ('A' for Active; 'I' for Inactive)
ROOT
ATOM      1  C   UNL d   1      -2.598   0.810   1.531  0.00  0.00     0.077 C 
ATOM      2  C1  UNL d   1      -1.419   0.203   0.830  0.00  0.00    -0.074 A 
ATOM      3  C2  UNL d   1      -1.522  -0.251  -0.489  0.00  0.00    -0.005 A 
ATOM      4  C3  UNL d   1      -0.415  -0.805  -1.130  0.00  0.00     0.006 A 
ATOM      5  C4  UNL d   1       0.805  -0.910  -0.461  0.00  0.00    -0.005 A 
ATOM      6  C5  UNL d   1       0.928  -0.460   0.857  0.00  0.00    -0.074 A 
ATOM      7  C6  UNL d   1       2.234  -0.557   1.587  0.00  0.00     0.077 C 
ATOM      8  C7  UNL d   1      -0.188   0.101   1.493  0.00  0.00    -0.001 A 
ENDROOT
TORSDOF 0
ENDMDL
