MODEL 1
REMARK minimizedAffinity -4.05717421
REMARK minimizedRMSD -1
REMARK  0 active torsions:
REMARK  status: ('A' for Active; 'I' for Inactive)
ROOT
ATOM      1  C   UNL d   1       0.190   1.101   3.971  0.00  0.00     0.077 C 
ATOM      2  C1  UNL d   1      -0.161   0.804   2.543  0.00  0.00    -0.074 A 
ATOM      3  C2  UNL d   1       0.820   0.404   1.630  0.00  0.00    -0.005 A 
ATOM      4  C3  UNL d   1       0.477   0.121   0.308  0.00  0.00     0.006 A 
ATOM      5  C4  UNL d   1      -0.848   0.237  -0.114  0.00  0.00    -0.005 A 
ATOM      6  C5  UNL d   1      -1.842   0.636   0.785  0.00  0.00    -0.074 A 
ATOM      7  C6  UNL d   1      -3.273   0.756   0.350  0.00  0.00     0.077 C 
ATOM      8  C7  UNL d   1      -1.491   0.911   2.113  0.00  0.00    -0.001 A 
ENDROOT
TORSDOF 0
ENDMDL
