MODEL 1
REMARK minimizedAffinity 2.29276466
REMARK minimizedRMSD -1
REMARK  0 active torsions:
REMARK  status: ('A' for Active; 'I' for Inactive)
ROOT
ATOM      1  C   UNL d   1       0.458  -0.864   0.658  0.00  0.00     0.077 C 
ATOM      2  C1  UNL d   1      -0.996  -0.585   0.417  0.00  0.00    -0.074 A 
ATOM      3  C2  UNL d   1      -1.530   0.689   0.637  0.00  0.00    -0.005 A 
ATOM      4  C3  UNL d   1      -2.882   0.935   0.399  0.00  0.00     0.006 A 
ATOM      5  C4  UNL d   1      -3.712  -0.088  -0.060  0.00  0.00    -0.005 A 
ATOM      6  C5  UNL d   1      -3.196  -1.368  -0.286  0.00  0.00    -0.074 A 
ATOM      7  C6  UNL d   1      -4.073  -2.476  -0.789  0.00  0.00     0.077 C 
ATOM      8  C7  UNL d   1      -1.835  -1.606  -0.051  0.00  0.00    -0.001 A 
ENDROOT
TORSDOF 0
ENDMDL
