MODEL 1
REMARK minimizedAffinity -5.3111515
REMARK minimizedRMSD -1
REMARK  0 active torsions:
REMARK  status: ('A' for Active; 'I' for Inactive)
ROOT
ATOM      1  C   UNL d   1      -1.091   3.827   0.100  0.00  0.00     0.020 A 
ATOM      2  C1  UNL d   1      -1.300   3.527   1.446  0.00  0.00     0.020 A 
ATOM      3  C2  UNL d   1      -0.917   2.282   1.951  0.00  0.00     0.034 A 
ATOM      4  C3  UNL d   1      -0.324   1.333   1.110  0.00  0.00     0.017 A 
ATOM      5  C4  UNL d   1      -0.116   1.635  -0.241  0.00  0.00     0.017 A 
ATOM      6  C5  UNL d   1      -0.501   2.883  -0.741  0.00  0.00     0.034 A 
ATOM      7 Cl   UNL d   1       0.610   0.516  -1.340  0.00  0.00    -0.070 Cl
ATOM      8 Cl1  UNL d   1       0.124  -0.185   1.802  0.00  0.00    -0.070 Cl
ENDROOT
TORSDOF 0
ENDMDL
