MODEL 1
REMARK minimizedAffinity 6.95188046
REMARK minimizedRMSD -1
REMARK  0 active torsions:
REMARK  status: ('A' for Active; 'I' for Inactive)
ROOT
ATOM      1  C   UNL d   1       4.326  -0.457   3.185  0.00  0.00     0.020 A 
ATOM      2  C1  UNL d   1       5.427  -0.504   2.329  0.00  0.00     0.020 A 
ATOM      3  C2  UNL d   1       5.235  -0.531   0.946  0.00  0.00     0.034 A 
ATOM      4  C3  UNL d   1       3.941  -0.511   0.414  0.00  0.00     0.017 A 
ATOM      5  C4  UNL d   1       2.837  -0.464   1.274  0.00  0.00     0.017 A 
ATOM      6  C5  UNL d   1       3.034  -0.437   2.658  0.00  0.00     0.034 A 
ATOM      7 Cl   UNL d   1       1.210  -0.437   0.692  0.00  0.00    -0.070 Cl
ATOM      8 Cl1  UNL d   1       3.778  -0.546  -1.305  0.00  0.00    -0.070 Cl
ENDROOT
TORSDOF 0
ENDMDL
