MODEL 1
REMARK minimizedAffinity -3.24448633
REMARK minimizedRMSD -1
REMARK  0 active torsions:
REMARK  status: ('A' for Active; 'I' for Inactive)
ROOT
ATOM      1  C   UNL d   1      -1.960   2.004   0.871  0.00  0.00     0.020 A 
ATOM      2  C1  UNL d   1      -1.203   2.471   1.945  0.00  0.00     0.020 A 
ATOM      3  C2  UNL d   1      -0.022   1.818   2.304  0.00  0.00     0.034 A 
ATOM      4  C3  UNL d   1       0.405   0.693   1.590  0.00  0.00     0.017 A 
ATOM      5  C4  UNL d   1      -0.355   0.224   0.512  0.00  0.00     0.017 A 
ATOM      6  C5  UNL d   1      -1.536   0.882   0.156  0.00  0.00     0.034 A 
ATOM      7 Cl   UNL d   1       0.108  -1.158  -0.417  0.00  0.00    -0.070 Cl
ATOM      8 Cl1  UNL d   1       1.875  -0.066   2.089  0.00  0.00    -0.070 Cl
ENDROOT
TORSDOF 0
ENDMDL
