MODEL 1
REMARK minimizedAffinity -2.32147336
REMARK minimizedRMSD -1
REMARK  0 active torsions:
REMARK  status: ('A' for Active; 'I' for Inactive)
ROOT
ATOM      1  C   UNL d   1       0.566  -0.500  -0.097  0.00  0.00     0.020 A 
ATOM      2  C1  UNL d   1       0.487  -0.266   1.275  0.00  0.00     0.020 A 
ATOM      3  C2  UNL d   1      -0.194   0.855   1.754  0.00  0.00     0.034 A 
ATOM      4  C3  UNL d   1      -0.800   1.745   0.860  0.00  0.00     0.017 A 
ATOM      5  C4  UNL d   1      -0.720   1.509  -0.517  0.00  0.00     0.017 A 
ATOM      6  C5  UNL d   1      -0.036   0.386  -0.991  0.00  0.00     0.034 A 
ATOM      7 Cl   UNL d   1      -1.442   2.563  -1.681  0.00  0.00    -0.070 Cl
ATOM      8 Cl1  UNL d   1      -1.627   3.110   1.523  0.00  0.00    -0.070 Cl
ENDROOT
TORSDOF 0
ENDMDL
