MODEL 1
REMARK minimizedAffinity -4.13246298
REMARK minimizedRMSD -1
REMARK  0 active torsions:
REMARK  status: ('A' for Active; 'I' for Inactive)
ROOT
ATOM      1  C   UNL d   1      -1.307   2.776   1.599  0.00  0.00     0.020 A 
ATOM      2  C1  UNL d   1      -1.961   2.444   0.413  0.00  0.00     0.020 A 
ATOM      3  C2  UNL d   1      -1.562   1.319  -0.313  0.00  0.00     0.034 A 
ATOM      4  C3  UNL d   1      -0.506   0.523   0.146  0.00  0.00     0.017 A 
ATOM      5  C4  UNL d   1       0.149   0.858   1.337  0.00  0.00     0.017 A 
ATOM      6  C5  UNL d   1      -0.254   1.985   2.059  0.00  0.00     0.034 A 
ATOM      7 Cl   UNL d   1       1.460  -0.076   1.967  0.00  0.00    -0.070 Cl
ATOM      8 Cl1  UNL d   1      -0.066  -0.853  -0.801  0.00  0.00    -0.070 Cl
ENDROOT
TORSDOF 0
ENDMDL
