MODEL 1
REMARK minimizedAffinity -4.72063112
REMARK minimizedRMSD -1
REMARK  0 active torsions:
REMARK  status: ('A' for Active; 'I' for Inactive)
ROOT
ATOM      1  C   UNL d   1      -1.649   2.051   0.518  0.00  0.00     0.020 A 
ATOM      2  C1  UNL d   1      -0.739   2.605   1.418  0.00  0.00     0.020 A 
ATOM      3  C2  UNL d   1       0.396   1.884   1.795  0.00  0.00     0.034 A 
ATOM      4  C3  UNL d   1       0.624   0.606   1.272  0.00  0.00     0.017 A 
ATOM      5  C4  UNL d   1      -0.290   0.051   0.369  0.00  0.00     0.017 A 
ATOM      6  C5  UNL d   1      -1.425   0.777  -0.005  0.00  0.00     0.034 A 
ATOM      7 Cl   UNL d   1      -0.077  -1.520  -0.319  0.00  0.00    -0.070 Cl
ATOM      8 Cl1  UNL d   1       2.048  -0.229   1.782  0.00  0.00    -0.070 Cl
ENDROOT
TORSDOF 0
ENDMDL
