MODEL 1
REMARK minimizedAffinity 0.787890553
REMARK minimizedRMSD -1
REMARK  0 active torsions:
REMARK  status: ('A' for Active; 'I' for Inactive)
ROOT
ATOM      1  C   UNL d   1       1.723   0.101   1.965  0.00  0.00     0.020 A 
ATOM      2  C1  UNL d   1       1.909  -0.352   0.659  0.00  0.00     0.020 A 
ATOM      3  C2  UNL d   1       1.081   0.112  -0.365  0.00  0.00     0.034 A 
ATOM      4  C3  UNL d   1       0.063   1.031  -0.086  0.00  0.00     0.017 A 
ATOM      5  C4  UNL d   1      -0.123   1.485   1.225  0.00  0.00     0.017 A 
ATOM      6  C5  UNL d   1       0.710   1.018   2.247  0.00  0.00     0.034 A 
ATOM      7 Cl   UNL d   1      -1.357   2.619   1.647  0.00  0.00    -0.070 Cl
ATOM      8 Cl1  UNL d   1      -0.923   1.562  -1.402  0.00  0.00    -0.070 Cl
ENDROOT
TORSDOF 0
ENDMDL
