MODEL 1
REMARK minimizedAffinity -4.58206463
REMARK minimizedRMSD -1
REMARK  0 active torsions:
REMARK  status: ('A' for Active; 'I' for Inactive)
ROOT
ATOM      1  C   UNL d   1      -0.890   2.048   2.217  0.00  0.00     0.020 A 
ATOM      2  C1  UNL d   1      -1.465   2.523   1.039  0.00  0.00     0.020 A 
ATOM      3  C2  UNL d   1      -0.914   2.177  -0.196  0.00  0.00     0.034 A 
ATOM      4  C3  UNL d   1       0.217   1.354  -0.257  0.00  0.00     0.017 A 
ATOM      5  C4  UNL d   1       0.793   0.877   0.926  0.00  0.00     0.017 A 
ATOM      6  C5  UNL d   1       0.236   1.227   2.160  0.00  0.00     0.034 A 
ATOM      7 Cl   UNL d   1       2.188  -0.143   0.932  0.00  0.00    -0.070 Cl
ATOM      8 Cl1  UNL d   1       0.846   0.966  -1.819  0.00  0.00    -0.070 Cl
ENDROOT
TORSDOF 0
ENDMDL
