MODEL 1
REMARK minimizedAffinity -0.559653103
REMARK minimizedRMSD -1
REMARK  0 active torsions:
REMARK  status: ('A' for Active; 'I' for Inactive)
ROOT
ATOM      1  C   UNL d   1      -0.457   1.423  -1.343  0.00  0.00     0.020 A 
ATOM      2  C1  UNL d   1       0.339   0.415  -0.800  0.00  0.00     0.020 A 
ATOM      3  C2  UNL d   1       0.535   0.347   0.581  0.00  0.00     0.034 A 
ATOM      4  C3  UNL d   1      -0.065   1.290   1.424  0.00  0.00     0.017 A 
ATOM      5  C4  UNL d   1      -0.863   2.301   0.878  0.00  0.00     0.017 A 
ATOM      6  C5  UNL d   1      -1.057   2.364  -0.506  0.00  0.00     0.034 A 
ATOM      7 Cl   UNL d   1      -1.637   3.500   1.854  0.00  0.00    -0.070 Cl
ATOM      8 Cl1  UNL d   1       0.221   1.146   3.122  0.00  0.00    -0.070 Cl
ENDROOT
TORSDOF 0
ENDMDL
