MODEL 1
REMARK minimizedAffinity -3.22366261
REMARK minimizedRMSD -1
REMARK  0 active torsions:
REMARK  status: ('A' for Active; 'I' for Inactive)
ROOT
ATOM      1  C   UNL d   1      -1.088   2.228   1.320  0.00  0.00     0.020 A 
ATOM      2  C1  UNL d   1      -2.036   1.662   0.468  0.00  0.00     0.020 A 
ATOM      3  C2  UNL d   1      -1.729   0.500  -0.244  0.00  0.00     0.034 A 
ATOM      4  C3  UNL d   1      -0.472  -0.099  -0.105  0.00  0.00     0.017 A 
ATOM      5  C4  UNL d   1       0.479   0.470   0.750  0.00  0.00     0.017 A 
ATOM      6  C5  UNL d   1       0.166   1.633   1.461  0.00  0.00     0.034 A 
ATOM      7 Cl   UNL d   1       2.051  -0.212   0.973  0.00  0.00    -0.070 Cl
ATOM      8 Cl1  UNL d   1      -0.161  -1.534  -1.016  0.00  0.00    -0.070 Cl
ENDROOT
TORSDOF 0
ENDMDL
