MODEL 1
REMARK minimizedAffinity -1.69602406
REMARK minimizedRMSD -1
REMARK  0 active torsions:
REMARK  status: ('A' for Active; 'I' for Inactive)
ROOT
ATOM      1  N1  IND d   1      -0.004   0.249  -1.307  0.00  0.00    -0.196 N 
ATOM      2  C2  IND d   1       0.130   1.247  -0.382  0.00  0.00     0.054 A 
ATOM      3  C3  IND d   1      -0.219   0.800   0.846  0.00  0.00    -0.031 A 
ATOM      4  C4  IND d   1      -0.940  -1.558   1.584  0.00  0.00     0.051 A 
ATOM      5  C5  IND d   1      -1.244  -2.795   1.090  0.00  0.00    -0.031 A 
ATOM      6  C6  IND d   1      -1.146  -3.088  -0.255  0.00  0.00     0.015 A 
ATOM      7  C7  IND d   1      -0.727  -2.153  -1.159  0.00  0.00    -0.016 A 
ATOM      8  C8  IND d   1      -0.424  -0.893  -0.662  0.00  0.00    -0.047 A 
ATOM      9  C9  IND d   1      -0.563  -0.578   0.696  0.00  0.00    -0.096 A 
ATOM     10  HN1 IND d   1       0.148   0.323  -2.150  0.00  0.00     0.298 HD
ENDROOT
TORSDOF 0
ENDMDL
