MODEL 1
REMARK minimizedAffinity -2.45883203
REMARK minimizedRMSD -1
REMARK  0 active torsions:
REMARK  status: ('A' for Active; 'I' for Inactive)
ROOT
ATOM      1  N1  IND d   1      -0.002  -0.549  -2.109  0.00  0.00    -0.196 N 
ATOM      2  C2  IND d   1       0.209   0.768  -1.808  0.00  0.00     0.054 A 
ATOM      3  C3  IND d   1      -0.081   1.005  -0.509  0.00  0.00    -0.031 A 
ATOM      4  C4  IND d   1      -0.818  -0.639   1.330  0.00  0.00     0.051 A 
ATOM      5  C5  IND d   1      -1.181  -1.942   1.527  0.00  0.00    -0.031 A 
ATOM      6  C6  IND d   1      -1.166  -2.866   0.503  0.00  0.00     0.015 A 
ATOM      7  C7  IND d   1      -0.775  -2.523  -0.760  0.00  0.00    -0.016 A 
ATOM      8  C8  IND d   1      -0.413  -1.199  -0.967  0.00  0.00    -0.047 A 
ATOM      9  C9  IND d   1      -0.467  -0.247   0.059  0.00  0.00    -0.096 A 
ATOM     10  HN1 IND d   1       0.104  -0.910  -2.882  0.00  0.00     0.298 HD
ENDROOT
TORSDOF 0
ENDMDL
