MODEL 1
REMARK minimizedAffinity -3.26524734
REMARK minimizedRMSD -1
REMARK  0 active torsions:
REMARK  status: ('A' for Active; 'I' for Inactive)
ROOT
ATOM      1  N1  IND d   1      -0.433  -2.304  -1.284  0.00  0.00    -0.196 N 
ATOM      2  C2  IND d   1      -0.745  -3.096  -0.214  0.00  0.00     0.054 A 
ATOM      3  C3  IND d   1      -0.645  -2.393   0.937  0.00  0.00    -0.031 A 
ATOM      4  C4  IND d   1      -0.086   0.095   1.290  0.00  0.00     0.051 A 
ATOM      5  C5  IND d   1       0.307   1.217   0.616  0.00  0.00    -0.031 A 
ATOM      6  C6  IND d   1       0.475   1.223  -0.754  0.00  0.00     0.015 A 
ATOM      7  C7  IND d   1       0.243   0.106  -1.505  0.00  0.00    -0.016 A 
ATOM      8  C8  IND d   1      -0.150  -1.037  -0.823  0.00  0.00    -0.047 A 
ATOM      9  C9  IND d   1      -0.280  -1.061   0.571  0.00  0.00    -0.096 A 
ATOM     10  HN1 IND d   1      -0.417  -2.555  -2.106  0.00  0.00     0.298 HD
ENDROOT
TORSDOF 0
ENDMDL
